data_PCOD8022933
_publ_section_title
;
Structure prediction by ZEFSAII (Michael W. Deem and Ramdas Pophale) SiO2 
 PCOD8022933
Probable space group: P -1
;
_chemical_formula_sum "Si O2"
_cell_formula_units_Z 14
_cell_length_a 11.413155
_cell_length_b 7.626823
_cell_length_c 11.455663
_cell_angle_alpha 63.491310
_cell_angle_beta 130.460639
_cell_angle_gamma 95.821531
_cell_volume 652.480474
_symmetry_space_group_name_H-M "P -1"
_symmetry_group_IT_number 2
_symmetry_cell_setting 'triclinic'
loop_
_space_group_symop_operation_xyz
x,y,z
-x,-y,-z
loop_
_atom_site_type_symbol
_atom_site_label
_atom_site_fract_x
_atom_site_fract_y
_atom_site_fract_z
Si Si1 0.294483 0.780955 0.417318
Si Si2 0.224005 0.103268 0.084572
Si Si3 0.015542 0.217608 0.345506
Si Si4 0.776325 0.241020 0.993400
Si Si5 0.796557 0.214619 0.396157
Si Si6 0.457105 0.369045 0.196771
Si Si7 0.111954 0.589352 0.198374
O O1 0.170750 0.783034 0.444165
O O2 0.475013 0.722265 0.604198
O O3 0.269034 0.611736 0.361372
O O4 0.256607 0.998712 0.263956
O O5 0.330403 0.260120 0.094891
O O6 0.267220 0.932744 0.061124
O O7 0.038231 0.223499 0.917285
O O8 0.908409 0.319132 0.359484
O O9 0.090267 0.373059 0.280576
O O10 0.900197 0.139923 0.204917
O O11 0.157842 0.025765 0.538513
O O12 0.619432 0.388485 0.910183
O O13 0.853664 0.392879 0.922022
O O14 0.608124 0.326150 0.216986
#
# Coordination Sequence:
#
# PCOD8022933 Si02
#       7
#     2   2   2   2   2   2   2
#     4   9  21  39  57  88 128 150 199 254 293 363
#     4  11  21  39  63  94 124 158 197 256 307 353
#     4  11  21  40  64  85 124 166 204 245 300 364
#     4  11  23  38  65  94 122 155 206 251 304 361
#     4   9  23  40  59  87 124 165 200 250 298 356
#     4  10  23  40  61  93 123 163 193 253 315 342
#     4  11  22  36  66  93 118 162 204 250 304 358
#
# _framework density 21.456579000000001
#
# number of rings (size 3 to 8) (size 9 to 14) (size 15 to 20)
#    0.857    0.857    1.429    4.286    2.000    4.571 
#    0.000    0.714    0.000    0.000    0.000    0.000 
#    0.000    0.000    0.000    0.000    0.000    0.000 
#
# Total GULP energy -173483.268289 kJ/mol
# GULP energy per Si atom -12391.662021 kJ/mol
# Density = 2.140774 g / cm^3
# Si number density = 21.456579 Si / 1000 Ang^3
#
#
#
# Elastic Constant Matrix: (Units=GPa)
#
#
# Indices 1 2 3 4 5 6 
#
# 1 85.9614 17.3013 7.2275 -2.6800 7.9740 -20.6567
# 2 17.3013 72.2888 21.8647 -2.3863 15.0017 -10.6440
# 3 7.2275 21.8647 41.6960 0.0973 13.7555 -6.0723
# 4 -2.6800 -2.3863 0.0973 23.8552 -5.6674 3.4513
# 5 7.9740 15.0017 13.7555 -5.6674 35.8379 -2.9171
# 6 -20.6567 -10.6440 -6.0723 3.4513 -2.9171 22.7461
#
#
#
# Elastic Compliance Matrix: (Units=1/GPa)
#
#
# Indices 1 2 3 4 5 6 
#
# 1 0.015207 -0.001528 0.000779 -0.000852 -0.002106 0.013162
# 2 -0.001528 0.017856 -0.007106 0.000027 -0.004033 0.004550
# 3 0.000779 -0.007106 0.031445 -0.003737 -0.009442 0.005133
# 4 -0.000852 0.000027 -0.003737 0.044854 0.008093 -0.007527
# 5 -0.002106 -0.004033 -0.009442 0.008093 0.034712 -0.003097
# 6 0.013162 0.004550 0.005133 -0.007527 -0.003097 0.060161
#
#
# Mechanical properties :
#
#
# Convention : Reuss Voigt Hill
#
# Bulk Modulus (GPa) = 20.49234 32.52591 26.50913
# Shear Modulus (GPa) = 21.16758 26.72467 23.94613
#
# Velocity S-wave (km/s) = 3.14432 3.53303 3.34432
# Velocity P-wave (km/s) = 4.77008 5.64224 5.22439
#
# Compressibility (1/GPa) = 0.04879872
#
# Stress axis : x y z
#
# Youngs Moduli (GPa) = 65.75952 56.00357 31.80136
#
# Poissons Ratio (x) = 0.08558 -0.02478
# Poissons Ratio (y) = 0.10049 0.22597
# Poissons Ratio (z) = -0.05124 0.39794
#
# Static dielectric constant tensor:
#      x y z
#    x 3.827720 -0.136490 -0.015270 
#    y -0.136490 3.470160 -0.016740 
#    z -0.015270 -0.016740 3.845140 
# 
# 
# High freq. dielectric constant tensor:
#      x y z
#    x 1.832790 -0.014870 -0.001020 
#    y -0.014870 1.817170 -0.004000 
#    z -0.001020 -0.004000 1.846720 
# 
# From -- ./inp_files/416683.got.cif
#   From: 2010.06.25/outbox.cif.g09.slc.cpg/sg2_209_cif.got.tgz:416683.got - 2010.06.27 13:26:56.
