data_PCOD8022028
_publ_section_title
;
Structure prediction by ZEFSAII (Michael W. Deem and Ramdas Pophale) SiO2 
 PCOD8022028
Probable space group: P -1
;
_chemical_formula_sum "Si O2"
_cell_formula_units_Z 14
_cell_length_a 9.616890
_cell_length_b 5.422240
_cell_length_c 23.436596
_cell_angle_alpha 64.990580
_cell_angle_beta 143.764281
_cell_angle_gamma 109.715239
_cell_volume 654.647499
_symmetry_space_group_name_H-M "P -1"
_symmetry_group_IT_number 2
_symmetry_cell_setting 'triclinic'
loop_
_space_group_symop_operation_xyz
x,y,z
-x,-y,-z
loop_
_atom_site_type_symbol
_atom_site_label
_atom_site_fract_x
_atom_site_fract_y
_atom_site_fract_z
Si Si1 0.440772 0.442629 0.771752
Si Si2 0.888877 0.252731 0.869416
Si Si3 0.394611 0.753114 0.523325
Si Si4 0.795645 0.694601 0.931765
Si Si5 0.127181 0.486374 0.282600
Si Si6 0.148028 0.741543 0.554819
Si Si7 0.981542 0.853796 0.301317
O O1 0.674808 0.394965 0.817772
O O2 0.534270 0.569196 0.850399
O O3 0.276279 0.652093 0.663422
O O4 0.286386 0.176320 0.761560
O O5 0.933185 0.401741 0.810471
O O6 0.805957 0.944075 0.865927
O O7 0.140951 0.236643 0.988196
O O8 0.590136 0.510866 0.612299
O O9 0.338923 0.837003 0.561862
O O10 0.152728 0.680980 0.417698
O O11 0.500000 0.000000 0.500000
O O12 0.000000 0.500000 0.000000
O O13 0.002558 0.697268 0.263469
O O14 0.035880 0.174731 0.286266
O O15 0.000000 0.500000 0.500000
O O16 0.000000 0.000000 0.500000
#
# Coordination Sequence:
#
# PCOD8022028 Si02
#       7
#     2   2   2   2   2   2   2
#     4  11  24  42  69  96 137 176 224 277 342 393
#     4  10  22  44  72  98 128 171 236 276 337 404
#     4  10  23  43  63  93 137 182 222 266 328 390
#     4   9  22  41  72  99 128 168 224 287 341 398
#     4  11  25  43  67  96 133 181 224 276 327 399
#     4  12  27  41  65 102 137 174 226 276 323 395
#     4  11  26  41  64  97 140 177 220 272 338 392
#
# _framework density 21.385556000000001
#
# number of rings (size 3 to 8) (size 9 to 14) (size 15 to 20)
#    0.000    1.429    2.857    0.429   12.000    2.286 
#    0.000    1.429    0.000    0.000    0.000    0.000 
#    0.000    0.000    0.000    0.000    0.000    0.000 
#
# Total GULP energy -173446.888126 kJ/mol
# GULP energy per Si atom -12389.063438 kJ/mol
# Density = 2.133688 g / cm^3
# Si number density = 21.385556 Si / 1000 Ang^3
#
#
#
# Elastic Constant Matrix: (Units=GPa)
#
#
# Indices 1 2 3 4 5 6 
#
# 1 71.1100 14.9410 15.9031 5.9370 -10.7901 1.7598
# 2 14.9410 107.8397 47.4438 5.8632 1.2159 -2.5882
# 3 15.9031 47.4438 131.5227 12.0698 -8.8408 17.1290
# 4 5.9370 5.8632 12.0698 39.9920 3.6063 5.5070
# 5 -10.7901 1.2159 -8.8408 3.6063 27.8340 -3.2420
# 6 1.7598 -2.5882 17.1290 5.5070 -3.2420 33.5132
#
#
#
# Elastic Compliance Matrix: (Units=1/GPa)
#
#
# Indices 1 2 3 4 5 6 
#
# 1 0.015753 -0.001828 -0.000639 -0.002504 0.006353 0.000384
# 2 -0.001828 0.011624 -0.004502 -0.000302 -0.002243 0.003128
# 3 -0.000639 -0.004502 0.010327 -0.001936 0.002898 -0.004994
# 4 -0.002504 -0.000302 -0.001936 0.027038 -0.005527 -0.003880
# 5 0.006353 -0.002243 0.002898 -0.005527 0.040455 0.002834
# 6 0.000384 0.003128 -0.004994 -0.003880 0.002834 0.033525
#
#
# Mechanical properties :
#
#
# Convention : Reuss Voigt Hill
#
# Bulk Modulus (GPa) = 42.07570 51.89425 46.98498
# Shear Modulus (GPa) = 31.13673 35.74680 33.44176
#
# Velocity S-wave (km/s) = 3.81986 4.09288 3.95872
# Velocity P-wave (km/s) = 6.25880 6.83039 6.55084
#
# Compressibility (1/GPa) = 0.02376669
#
# Stress axis : x y z
#
# Youngs Moduli (GPa) = 63.47949 86.02986 96.82895
#
# Poissons Ratio (x) = 0.15725 0.06184
# Poissons Ratio (y) = 0.11603 0.43596
# Poissons Ratio (z) = 0.04054 0.38734
#
# Static dielectric constant tensor:
#      x y z
#    x 3.869140 0.026630 -0.081240 
#    y 0.026630 4.087930 0.659440 
#    z -0.081240 0.659440 4.908660 
# 
# 
# High freq. dielectric constant tensor:
#      x y z
#    x 1.827150 0.003620 -0.000520 
#    y 0.003620 1.837930 0.003570 
#    z -0.000520 0.003570 1.853370 
# 
# From -- ./inp_files/51456.got.cif
#   From: 2010.06.25/outbox.cif.g09.slc.cpg/sg2_26_cif.got.tgz:51456.got - 2010.06.27 13:26:56.
