data_PCOD8022859
_publ_section_title
;
Structure prediction by ZEFSAII (Michael W. Deem and Ramdas Pophale) SiO2 
 PCOD8022859
Probable space group: P -1
;
_chemical_formula_sum "Si O2"
_cell_formula_units_Z 16
_cell_length_a 9.020152
_cell_length_b 25.366821
_cell_length_c 19.411055
_cell_angle_alpha 21.763178
_cell_angle_beta 39.107362
_cell_angle_gamma 26.848785
_cell_volume 706.036571
_symmetry_space_group_name_H-M "P -1"
_symmetry_group_IT_number 2
_symmetry_cell_setting 'triclinic'
loop_
_space_group_symop_operation_xyz
x,y,z
-x,-y,-z
loop_
_atom_site_type_symbol
_atom_site_label
_atom_site_fract_x
_atom_site_fract_y
_atom_site_fract_z
Si Si1 0.222804 0.530531 0.102951
Si Si2 0.864639 0.932396 0.815642
Si Si3 0.335710 0.876257 0.484268
Si Si4 0.274258 0.750122 0.015636
Si Si5 0.827527 0.466948 0.261220
Si Si6 0.847116 0.884690 0.336382
Si Si7 0.186935 0.767461 0.222420
Si Si8 0.141516 0.277505 0.714129
O O1 0.391904 0.369779 0.300597
O O2 0.085419 0.485564 0.147876
O O3 0.500000 0.500000 0.000000
O O4 0.911808 0.760584 0.968589
O O5 0.220729 0.798980 0.893650
O O6 0.787738 0.080323 0.603550
O O7 0.558267 0.081965 0.800647
O O8 0.511167 0.950326 0.348898
O O9 0.000000 0.000000 0.500000
O O10 0.245225 0.910018 0.872806
O O11 0.652253 0.526364 0.176702
O O12 0.994617 0.757000 0.131632
O O13 0.565463 0.610559 0.244749
O O14 0.033437 0.230984 0.492313
O O15 0.171523 0.730327 0.353588
O O16 0.979167 0.734160 0.300103
O O17 0.000000 0.000000 0.000000
O O18 0.000000 0.500000 0.500000
#
# Coordination Sequence:
#
# PCOD8022859 Si02
#       8
#     2   2   2   2   2   2   2   2
#     4  11  24  44  75  99 129 181 238 294 343 400
#     4  12  25  44  69  98 142 182 224 286 355 408
#     4  11  24  44  74 102 129 174 245 294 336 409
#     4  11  26  42  65  99 144 181 217 279 356 424
#     4  10  23  39  66  96 134 170 234 277 340 409
#     4  11  22  41  68  95 133 179 231 285 340 407
#     4  11  19  39  67  97 131 184 225 281 341 411
#     4  11  25  42  68 104 148 184 227 280 350 425
#
# _framework density 22.661715999999998
#
# number of rings (size 3 to 8) (size 9 to 14) (size 15 to 20)
#    0.000    1.000    5.000    2.250    5.250    0.000 
#    0.000    1.250    0.000    0.000    0.000    0.000 
#    0.000    0.000    0.000    0.000    0.000    0.000 
#
# Total GULP energy -198299.443751 kJ/mol
# GULP energy per Si atom -12393.715234 kJ/mol
# Density = 2.261014 g / cm^3
# Si number density = 22.661716 Si / 1000 Ang^3
#
#
#
# Elastic Constant Matrix: (Units=GPa)
#
#
# Indices 1 2 3 4 5 6 
#
# 1 115.1646 14.3433 56.7069 14.8541 34.3934 -6.5850
# 2 14.3433 69.7062 26.8170 5.3014 -2.5206 -16.3202
# 3 56.7069 26.8170 131.9010 2.7939 3.6412 -3.8319
# 4 14.8541 5.3014 2.7939 33.7552 0.6637 -5.1956
# 5 34.3934 -2.5206 3.6412 0.6637 55.5348 -3.1040
# 6 -6.5850 -16.3202 -3.8319 -5.1956 -3.1040 23.6254
#
#
#
# Elastic Compliance Matrix: (Units=1/GPa)
#
#
# Indices 1 2 3 4 5 6 
#
# 1 0.015163 -0.000595 -0.006017 -0.005847 -0.008932 0.000380
# 2 -0.000595 0.018740 -0.003241 -0.000544 0.002132 0.012415
# 3 -0.006017 -0.003241 0.010668 0.002007 0.002779 -0.001379
# 4 -0.005847 -0.000544 0.002007 0.032977 0.003407 0.006020
# 5 -0.008932 0.002132 0.002779 0.003407 0.023596 0.003283
# 6 0.000380 0.012415 -0.001379 0.006020 0.003283 0.052541
#
#
# Mechanical properties :
#
#
# Convention : Reuss Voigt Hill
#
# Bulk Modulus (GPa) = 40.21470 56.94516 48.57993
# Shear Modulus (GPa) = 27.52111 37.17672 32.34891
#
# Velocity S-wave (km/s) = 3.48865 4.05471 3.78229
# Velocity P-wave (km/s) = 5.83196 6.86322 6.36850
#
# Compressibility (1/GPa) = 0.02486653
#
# Stress axis : x y z
#
# Youngs Moduli (GPa) = 65.94848 53.36098 93.74008
#
# Poissons Ratio (x) = 0.03173 0.56400
# Poissons Ratio (y) = 0.03922 0.30382
# Poissons Ratio (z) = 0.39679 0.17295
#
# Static dielectric constant tensor:
#      x y z
#    x 4.035300 -0.205790 0.119320 
#    y -0.205790 3.884400 0.022040 
#    z 0.119320 0.022040 4.442920 
# 
# 
# High freq. dielectric constant tensor:
#      x y z
#    x 1.884680 -0.014490 0.012920 
#    y -0.014490 1.867440 0.000430 
#    z 0.012920 0.000430 1.916310 
# 
# From -- ./inp_files/592077.got.cif
#   From: 2010.06.25/outbox.cif.g09.slc.cpg/sg2_297_cif.got.tgz:592077.got - 2010.06.27 13:26:56.
