data_PCOD8022420
_publ_section_title
;
Structure prediction by ZEFSAII (Michael W. Deem and Ramdas Pophale) SiO2 
 PCOD8022420
Probable space group: P -1
;
_chemical_formula_sum "Si O2"
_cell_formula_units_Z 12
_cell_length_a 11.670731
_cell_length_b 7.620057
_cell_length_c 8.732236
_cell_angle_alpha 80.654302
_cell_angle_beta 41.554308
_cell_angle_gamma 62.298161
_cell_volume 432.735603
_symmetry_space_group_name_H-M "P -1"
_symmetry_group_IT_number 2
_symmetry_cell_setting 'triclinic'
loop_
_space_group_symop_operation_xyz
x,y,z
-x,-y,-z
loop_
_atom_site_type_symbol
_atom_site_label
_atom_site_fract_x
_atom_site_fract_y
_atom_site_fract_z
Si Si1 0.225369 0.329774 0.261711
Si Si2 0.114317 0.047636 0.248754
Si Si3 0.576094 0.610559 0.221269
Si Si4 0.311974 0.974563 0.628560
Si Si5 0.087794 0.734982 0.892346
Si Si6 0.490892 0.730543 0.752582
O O1 0.242512 0.130041 0.193752
O O2 0.332045 0.280020 0.325256
O O3 0.000000 0.500000 0.500000
O O4 0.328133 0.417484 0.036431
O O5 0.970689 0.213306 0.237333
O O6 0.000000 0.000000 0.500000
O O7 0.279884 0.826205 0.041937
O O8 0.415418 0.857631 0.382004
O O9 0.751207 0.510456 0.193164
O O10 0.452156 0.490270 0.349703
O O11 0.202271 0.849510 0.821905
O O12 0.480033 0.899405 0.611086
O O13 0.112946 0.206809 0.808006
#
# Coordination Sequence:
#
# PCOD8022420 Si02
#       6
#     2   2   2   2   2   2
#     4  12  28  43  65 106 141 180 232 286 346 409
#     4  11  25  45  72  96 138 188 227 288 344 411
#     4  11  23  44  76 102 138 181 226 291 345 410
#     4   9  20  39  74  99 138 181 226 282 339 415
#     4   9  20  41  70 107 132 177 237 274 348 411
#     4  10  22  46  66 101 138 179 229 278 347 411
#
# _framework density 27.730560000000001
#
# number of rings (size 3 to 8) (size 9 to 14) (size 15 to 20)
#    0.000    1.667    0.000    5.000    7.000    0.667 
#    3.000    1.667    0.000    0.000    0.000    0.000 
#    0.000    0.000    0.000    0.000    0.000    0.000 
#
# Total GULP energy -148713.236618 kJ/mol
# GULP energy per Si atom -12392.769718 kJ/mol
# Density = 2.766744 g / cm^3
# Si number density = 27.730560 Si / 1000 Ang^3
#
#
#
# Elastic Constant Matrix: (Units=GPa)
#
#
# Indices 1 2 3 4 5 6 
#
# 1 163.3784 34.2589 12.7073 3.3737 9.4404 -7.9520
# 2 34.2589 68.5718 26.8888 -7.1277 5.7790 4.0982
# 3 12.7073 26.8888 143.1639 8.5116 21.4055 -12.3416
# 4 3.3737 -7.1277 8.5116 36.7260 -2.8628 4.8771
# 5 9.4404 5.7790 21.4055 -2.8628 32.2251 5.7879
# 6 -7.9520 4.0982 -12.3416 4.8771 5.7879 36.3684
#
#
#
# Elastic Compliance Matrix: (Units=1/GPa)
#
#
# Indices 1 2 3 4 5 6 
#
# 1 0.007296 -0.004227 0.000979 -0.002357 -0.002808 0.003167
# 2 -0.004227 0.019221 -0.004444 0.006098 0.002324 -0.005786
# 3 0.000979 -0.004444 0.009584 -0.004502 -0.007285 0.005730
# 4 -0.002357 0.006098 -0.004502 0.031266 0.006803 -0.008006
# 5 -0.002808 0.002324 -0.007285 0.006803 0.038754 -0.010428
# 6 0.003167 -0.005786 0.005730 -0.008006 -0.010428 0.033518
#
#
# Mechanical properties :
#
#
# Convention : Reuss Voigt Hill
#
# Bulk Modulus (GPa) = 48.26619 58.09158 53.17888
# Shear Modulus (GPa) = 30.87806 41.14783 36.01295
#
# Velocity S-wave (km/s) = 3.34054 3.85625 3.60762
# Velocity P-wave (km/s) = 5.68526 6.38918 6.04747
#
# Compressibility (1/GPa) = 0.02071844
#
# Stress axis : x y z
#
# Youngs Moduli (GPa) = 137.06226 52.02580 104.34505
#
# Poissons Ratio (x) = 0.21990 -0.10218
# Poissons Ratio (y) = 0.57932 0.46368
# Poissons Ratio (z) = -0.13421 0.23119
#
# Static dielectric constant tensor:
#      x y z
#    x 6.644090 0.043570 0.280260 
#    y 0.043570 5.111590 -0.043780 
#    z 0.280260 -0.043780 5.770510 
# 
# 
# High freq. dielectric constant tensor:
#      x y z
#    x 2.133300 0.001470 -0.006250 
#    y 0.001470 2.108370 0.000000 
#    z -0.006250 0.000000 2.145070 
# 
# From -- ./inp_files/173593.got.cif
#   From: 2010.06.25/outbox.cif.g09.slc.cpg/sg2_87_cif.got.tgz:173593.got - 2010.06.27 13:26:56.
