data_PCOD8022929
_publ_section_title
;
Structure prediction by ZEFSAII (Michael W. Deem and Ramdas Pophale) SiO2 
 PCOD8022929
Probable space group: P -1
;
_chemical_formula_sum "Si O2"
_cell_formula_units_Z 14
_cell_length_a 8.934243
_cell_length_b 17.114169
_cell_length_c 6.636697
_cell_angle_alpha 59.012164
_cell_angle_beta 119.502291
_cell_angle_gamma 126.175849
_cell_volume 675.648157
_symmetry_space_group_name_H-M "P -1"
_symmetry_group_IT_number 2
_symmetry_cell_setting 'triclinic'
loop_
_space_group_symop_operation_xyz
x,y,z
-x,-y,-z
loop_
_atom_site_type_symbol
_atom_site_label
_atom_site_fract_x
_atom_site_fract_y
_atom_site_fract_z
Si Si1 0.589492 0.394863 0.282067
Si Si2 0.922358 0.404858 0.220504
Si Si3 0.123726 0.118798 0.396578
Si Si4 0.505102 0.229879 0.759650
Si Si5 0.897314 0.250608 0.085920
Si Si6 0.311182 0.245748 0.002095
Si Si7 0.163226 0.387757 0.739911
O O1 0.720280 0.382449 0.212187
O O2 0.593989 0.341350 0.567877
O O3 0.638813 0.512788 0.194862
O O4 0.382728 0.326360 0.134112
O O5 0.895826 0.301966 0.229296
O O6 0.070546 0.435903 0.460576
O O7 0.000000 0.500000 0.000000
O O8 0.310892 0.152194 0.620574
O O9 0.986165 0.171732 0.285940
O O10 0.189356 0.138153 0.178207
O O11 0.000000 0.000000 0.500000
O O12 0.457253 0.238571 0.950309
O O13 0.675620 0.194208 0.926357
O O14 0.025131 0.341022 0.900220
O O15 0.187531 0.297802 0.750392
#
# Coordination Sequence:
#
# PCOD8022929 Si02
#       7
#     2   2   2   2   2   2   2
#     4  11  21  35  57  89 127 163 206 242 285 358
#     4  12  21  34  58  89 125 166 208 236 286 359
#     4  10  25  46  65  91 118 149 206 265 310 366
#     4  11  22  41  63  89 122 159 200 253 304 359
#     4  11  22  40  65  89 124 166 200 244 305 358
#     4  10  23  40  61  86 123 159 203 254 301 360
#     4  11  22  36  56  89 126 172 204 236 291 353
#
# _framework density 20.720842999999999
#
# number of rings (size 3 to 8) (size 9 to 14) (size 15 to 20)
#    0.000    1.143    4.286    2.571    0.000    1.714 
#    0.000    0.714    0.000    0.000    0.000    0.000 
#    0.000    0.000    0.000    0.000    0.000    0.000 
#
# Total GULP energy -173468.114549 kJ/mol
# GULP energy per Si atom -12390.579611 kJ/mol
# Density = 2.067368 g / cm^3
# Si number density = 20.720843 Si / 1000 Ang^3
#
#
#
# Elastic Constant Matrix: (Units=GPa)
#
#
# Indices 1 2 3 4 5 6 
#
# 1 105.1640 34.7004 29.2521 -12.9534 -7.0060 7.1556
# 2 34.7004 116.9821 48.4635 -18.5825 1.9821 12.4364
# 3 29.2521 48.4635 79.2887 -11.5660 -3.1844 2.3865
# 4 -12.9534 -18.5825 -11.5660 32.5957 11.7683 2.3630
# 5 -7.0060 1.9821 -3.1844 11.7683 38.1438 3.6055
# 6 7.1556 12.4364 2.3865 2.3630 3.6055 23.3544
#
#
#
# Elastic Compliance Matrix: (Units=1/GPa)
#
#
# Indices 1 2 3 4 5 6 
#
# 1 0.011373 -0.001600 -0.002737 0.002298 0.001501 -0.002817
# 2 -0.001600 0.013473 -0.006675 0.006159 -0.002867 -0.006182
# 3 -0.002737 -0.006675 0.017804 0.000961 0.000812 0.002351
# 4 0.002298 0.006159 0.000961 0.040088 -0.011585 -0.006350
# 5 0.001501 -0.002867 0.000812 -0.011585 0.030525 -0.002556
# 6 -0.002817 -0.006182 0.002351 -0.006350 -0.002556 0.047770
#
#
# Mechanical properties :
#
#
# Convention : Reuss Voigt Hill
#
# Bulk Modulus (GPa) = 48.48681 58.47409 53.48045
# Shear Modulus (GPa) = 26.32503 31.42004 28.87254
#
# Velocity S-wave (km/s) = 3.56822 3.89826 3.73688
# Velocity P-wave (km/s) = 6.35823 6.96729 6.66971
#
# Compressibility (1/GPa) = 0.02062417
#
# Stress axis : x y z
#
# Youngs Moduli (GPa) = 87.92592 74.22453 56.16732
#
# Poissons Ratio (x) = 0.11879 0.15375
# Poissons Ratio (y) = 0.14072 0.37492
# Poissons Ratio (z) = 0.24069 0.49545
#
# Static dielectric constant tensor:
#      x y z
#    x 3.890670 0.160740 0.158050 
#    y 0.160740 3.497520 0.050440 
#    z 0.158050 0.050440 3.984670 
# 
# 
# High freq. dielectric constant tensor:
#      x y z
#    x 1.820930 0.013670 0.004380 
#    y 0.013670 1.780980 0.004790 
#    z 0.004380 0.004790 1.825520 
# 
# From -- ./inp_files/27243.got.cif
#   From: 2010.06.25/outbox.cif.g09.slc.cpg/sg2_14_cif.got.tgz:27243.got - 2010.06.27 13:26:56.
