data_PCOD8022501
_publ_section_title
;
Structure prediction by ZEFSAII (Michael W. Deem and Ramdas Pophale) SiO2 
 PCOD8022501
Probable space group: P -1
;
_chemical_formula_sum "Si O2"
_cell_formula_units_Z 16
_cell_length_a 11.126638
_cell_length_b 12.135626
_cell_length_c 15.055571
_cell_angle_alpha 150.996100
_cell_angle_beta 58.210122
_cell_angle_gamma 104.770604
_cell_volume 725.914699
_symmetry_space_group_name_H-M "P -1"
_symmetry_group_IT_number 2
_symmetry_cell_setting 'triclinic'
loop_
_space_group_symop_operation_xyz
x,y,z
-x,-y,-z
loop_
_atom_site_type_symbol
_atom_site_label
_atom_site_fract_x
_atom_site_fract_y
_atom_site_fract_z
Si Si1 0.164647 0.500134 0.419717
Si Si2 0.420643 0.713836 0.305942
Si Si3 0.045966 0.502615 0.802649
Si Si4 0.665259 0.843209 0.210896
Si Si5 0.434469 0.184527 0.960245
Si Si6 0.099538 0.048016 0.571239
Si Si7 0.952483 0.032570 0.799548
Si Si8 0.755685 0.779111 0.640578
O O1 0.255867 0.418591 0.422538
O O2 0.000000 0.500000 0.500000
O O3 0.271787 0.285267 0.152799
O O4 0.117150 0.788784 0.606180
O O5 0.580394 0.709352 0.203878
O O6 0.352833 0.904242 0.552219
O O7 0.280643 0.804445 0.348180
O O8 0.476800 0.417213 0.101155
O O9 0.126210 0.286167 0.696992
O O10 0.100039 0.374864 0.594821
O O11 0.852866 0.627649 0.974537
O O12 0.105385 0.714750 0.937342
O O13 0.585527 0.925746 0.203219
O O14 0.581346 0.936093 0.774550
O O15 0.993780 0.116550 0.749305
O O16 0.000000 0.000000 0.500000
O O17 0.804048 0.974347 0.809481
#
# Coordination Sequence:
#
# PCOD8022501 Si02
#       8
#     2   2   2   2   2   2   2   2
#     4  10  22  46  71  95 127 170 226 271 332 383
#     4  11  25  42  61  98 135 176 215 264 326 390
#     4  12  24  41  67  99 135 172 221 263 328 391
#     4  11  24  39  64  95 135 177 212 265 323 395
#     4  12  23  44  66  94 132 172 216 272 329 380
#     4  12  22  40  67  98 132 171 214 270 325 392
#     4  11  23  43  66  97 130 174 216 273 324 387
#     4  11  26  42  69  98 130 173 224 274 322 389
#
# _framework density 22.041157999999999
#
# number of rings (size 3 to 8) (size 9 to 14) (size 15 to 20)
#    0.000    0.750    3.750    4.125    1.750    2.500 
#    0.000    2.500    0.000    7.500    0.000    0.000 
#    0.000    0.000    0.000    0.000    0.000    0.000 
#
# Total GULP energy -198419.247778 kJ/mol
# GULP energy per Si atom -12401.202986 kJ/mol
# Density = 2.199099 g / cm^3
# Si number density = 22.041158 Si / 1000 Ang^3
#
#
#
# Elastic Constant Matrix: (Units=GPa)
#
#
# Indices 1 2 3 4 5 6 
#
# 1 101.1487 39.7335 44.1309 2.5453 6.3020 -10.8185
# 2 39.7335 125.1783 44.5553 -2.4204 7.4747 -27.6149
# 3 44.1309 44.5553 100.1399 -3.8481 1.7477 -11.3654
# 4 2.5453 -2.4204 -3.8481 30.2465 3.3931 -13.3140
# 5 6.3020 7.4747 1.7477 3.3931 29.4490 2.9462
# 6 -10.8185 -27.6149 -11.3654 -13.3140 2.9462 36.0606
#
#
#
# Elastic Compliance Matrix: (Units=1/GPa)
#
#
# Indices 1 2 3 4 5 6 
#
# 1 0.013032 -0.002349 -0.004710 -0.001611 -0.001745 0.000174
# 2 -0.002349 0.012472 -0.003036 0.005855 -0.004197 0.010394
# 3 -0.004710 -0.003036 0.013660 0.002461 0.000541 0.001432
# 4 -0.001611 0.005855 0.002461 0.044609 -0.008623 0.021951
# 5 -0.001745 -0.004197 0.000541 -0.008623 0.037338 -0.009802
# 6 0.000174 0.010394 0.001432 0.021951 -0.009802 0.045100
#
#
# Mechanical properties :
#
#
# Convention : Reuss Voigt Hill
#
# Bulk Modulus (GPa) = 52.70207 64.81181 58.75694
# Shear Modulus (GPa) = 25.94398 32.35436 29.14917
#
# Velocity S-wave (km/s) = 3.43457 3.83548 3.64055
# Velocity P-wave (km/s) = 6.30008 7.00595 6.66237
#
# Compressibility (1/GPa) = 0.01897459
#
# Stress axis : x y z
#
# Youngs Moduli (GPa) = 76.73551 80.18282 73.20650
#
# Poissons Ratio (x) = 0.18832 0.34478
# Poissons Ratio (y) = 0.18022 0.22226
# Poissons Ratio (z) = 0.36140 0.24344
#
# Static dielectric constant tensor:
#      x y z
#    x 4.156970 -0.384630 0.005640 
#    y -0.384630 4.632240 0.136370 
#    z 0.005640 0.136370 4.047240 
# 
# 
# High freq. dielectric constant tensor:
#      x y z
#    x 1.862530 -0.008100 -0.006760 
#    y -0.008100 1.876600 -0.002650 
#    z -0.006760 -0.002650 1.863830 
# 
# From -- ./inp_files/306268.got.cif
#   From: 2010.06.25/outbox.cif.g09.slc.cpg/sg2_154_cif.got.tgz:306268.got - 2010.06.27 13:26:56.
