data_PCOD8022529
_publ_section_title
;
Structure prediction by ZEFSAII (Michael W. Deem and Ramdas Pophale) SiO2 
 PCOD8022529
Probable space group: P -1
;
_chemical_formula_sum "Si O2"
_cell_formula_units_Z 14
_cell_length_a 13.203802
_cell_length_b 13.061928
_cell_length_c 8.211417
_cell_angle_alpha 96.367164
_cell_angle_beta 116.484105
_cell_angle_gamma 31.832755
_cell_volume 550.424322
_symmetry_space_group_name_H-M "P -1"
_symmetry_group_IT_number 2
_symmetry_cell_setting 'triclinic'
loop_
_space_group_symop_operation_xyz
x,y,z
-x,-y,-z
loop_
_atom_site_type_symbol
_atom_site_label
_atom_site_fract_x
_atom_site_fract_y
_atom_site_fract_z
Si Si1 0.186917 0.464844 0.403714
Si Si2 0.276144 0.647752 0.671107
Si Si3 0.339830 0.037524 0.967630
Si Si4 0.921740 0.020182 0.212170
Si Si5 0.222796 0.223494 0.260997
Si Si6 0.772581 0.532340 0.223995
Si Si7 0.321278 0.804699 0.259403
O O1 0.136904 0.414901 0.226242
O O2 0.183684 0.426455 0.582081
O O3 0.464279 0.291120 0.537395
O O4 0.944432 0.742285 0.276545
O O5 0.301009 0.728305 0.816490
O O6 0.249246 0.564641 0.740365
O O7 0.546102 0.414437 0.726372
O O8 0.048201 0.843854 0.407417
O O9 0.497798 0.801466 0.003687
O O10 0.266620 0.123464 0.114633
O O11 0.500000 0.000000 0.000000
O O12 0.815544 0.043929 0.982426
O O13 0.120014 0.947783 0.282729
O O14 0.004213 0.343137 0.228329
O O15 0.500000 0.000000 0.500000
#
# Coordination Sequence:
#
# PCOD8022529 Si02
#       7
#     2   2   2   2   2   2   2
#     4  11  24  44  69 106 140 186 238 285 346 425
#     4  10  23  42  71 102 134 181 239 278 354 424
#     4  12  25  46  72  96 146 192 234 290 350 415
#     4  10  22  46  73  97 140 185 223 301 358 407
#     4  12  24  44  72 100 146 186 231 291 353 418
#     4  11  25  44  67 105 143 187 231 290 345 428
#     4  10  23  43  71 103 137 178 235 291 351 415
#
# _framework density 25.434920000000002
#
# number of rings (size 3 to 8) (size 9 to 14) (size 15 to 20)
#    0.000    1.143    2.857    2.571    2.000    4.571 
#    0.000    7.143    0.000    0.000    0.000    0.000 
#    0.000    0.000    0.000    0.000    0.000    0.000 
#
# Total GULP energy -173434.483830 kJ/mol
# GULP energy per Si atom -12388.177416 kJ/mol
# Density = 2.537703 g / cm^3
# Si number density = 25.434920 Si / 1000 Ang^3
#
#
#
# Elastic Constant Matrix: (Units=GPa)
#
#
# Indices 1 2 3 4 5 6 
#
# 1 94.0774 17.3097 32.1321 -3.4237 -5.9796 0.2478
# 2 17.3097 95.6958 16.1871 -6.1374 -14.2917 -9.5399
# 3 32.1321 16.1871 87.8775 -26.2882 0.5467 5.3706
# 4 -3.4237 -6.1374 -26.2882 49.2910 3.6789 1.2429
# 5 -5.9796 -14.2917 0.5467 3.6789 32.9572 -7.1616
# 6 0.2478 -9.5399 5.3706 1.2429 -7.1616 43.2426
#
#
#
# Elastic Compliance Matrix: (Units=1/GPa)
#
#
# Indices 1 2 3 4 5 6 
#
# 1 0.012657 -0.001144 -0.005133 -0.002191 0.002295 0.000756
# 2 -0.001144 0.012322 -0.002220 -0.000284 0.006077 0.004015
# 3 -0.005133 -0.002220 0.016441 0.008509 -0.003852 -0.003385
# 4 -0.002191 -0.000284 0.008509 0.024999 -0.003993 -0.002487
# 5 0.002295 0.006077 -0.003852 -0.003993 0.035602 0.007817
# 6 0.000756 0.004015 -0.003385 -0.002487 0.007817 0.025793
#
#
# Mechanical properties :
#
#
# Convention : Reuss Voigt Hill
#
# Bulk Modulus (GPa) = 40.93800 45.43427 43.18613
# Shear Modulus (GPa) = 32.69039 39.23296 35.96168
#
# Velocity S-wave (km/s) = 3.58894 3.93171 3.76423
# Velocity P-wave (km/s) = 5.77097 6.20587 5.99237
#
# Compressibility (1/GPa) = 0.02442718
#
# Stress axis : x y z
#
# Youngs Moduli (GPa) = 79.00510 81.15783 60.82179
#
# Poissons Ratio (x) = 0.09282 0.31223
# Poissons Ratio (y) = 0.09036 0.13500
# Poissons Ratio (z) = 0.40557 0.18013
#
# Static dielectric constant tensor:
#      x y z
#    x 4.250730 -0.002850 -0.269830 
#    y -0.002850 5.292370 -0.306030 
#    z -0.269830 -0.306030 4.420290 
# 
# 
# High freq. dielectric constant tensor:
#      x y z
#    x 2.002430 -0.003330 0.000730 
#    y -0.003330 2.027140 -0.018380 
#    z 0.000730 -0.018380 2.027470 
# 
# From -- ./inp_files/315266.got.cif
#   From: 2010.06.25/outbox.cif.g09.slc.cpg/sg2_158_cif.got.tgz:315266.got - 2010.06.27 13:26:56.
