data_PCOD8022349
_publ_section_title
;
Structure prediction by ZEFSAII (Michael W. Deem and Ramdas Pophale) SiO2 
 PCOD8022349
Probable space group: P -1
;
_chemical_formula_sum "Si O2"
_cell_formula_units_Z 12
_cell_length_a 11.339454
_cell_length_b 19.176450
_cell_length_c 5.322280
_cell_angle_alpha 129.939048
_cell_angle_beta 128.918070
_cell_angle_gamma 32.473104
_cell_volume 465.761688
_symmetry_space_group_name_H-M "P -1"
_symmetry_group_IT_number 2
_symmetry_cell_setting 'triclinic'
loop_
_space_group_symop_operation_xyz
x,y,z
-x,-y,-z
loop_
_atom_site_type_symbol
_atom_site_label
_atom_site_fract_x
_atom_site_fract_y
_atom_site_fract_z
Si Si1 0.768711 0.546687 0.293089
Si Si2 0.857431 0.826688 0.641997
Si Si3 0.214930 0.962516 0.745366
Si Si4 0.255077 0.627985 0.369678
Si Si5 0.517633 0.295242 0.226837
Si Si6 0.541615 0.063040 0.389654
O O1 0.643748 0.618141 0.551788
O O2 0.000000 0.500000 0.500000
O O3 0.817959 0.414965 0.036017
O O4 0.620693 0.640615 0.068937
O O5 0.693034 0.817271 0.491161
O O6 0.089601 0.686777 0.521624
O O7 0.742980 0.941106 0.547868
O O8 0.883233 0.891110 0.041991
O O9 0.359203 0.858467 0.936549
O O10 0.385643 0.880594 0.544461
O O11 0.000000 0.000000 0.500000
O O12 0.500000 0.500000 0.500000
O O13 0.276214 0.722442 0.520010
O O14 0.500000 0.000000 0.000000
#
# Coordination Sequence:
#
# PCOD8022349 Si02
#       6
#     2   2   2   2   2   2
#     4  11  26  51  76 109 150 199 258 313 376 445
#     4  10  22  45  72 103 146 192 250 304 385 438
#     4  11  25  41  73 109 151 191 246 314 380 449
#     4  10  24  47  75 104 147 200 253 308 373 459
#     4  11  26  48  75 110 152 196 255 312 378 455
#     4   9  21  42  65 104 141 188 239 304 375 445
#
# _framework density 25.764251999999999
#
# number of rings (size 3 to 8) (size 9 to 14) (size 15 to 20)
#    0.000    1.667    0.000    2.000    7.000    5.333 
#   18.000    0.000    0.000    0.000    0.000    0.000 
#    0.000    0.000    0.000    0.000    0.000    0.000 
#
# Total GULP energy -148660.729790 kJ/mol
# GULP energy per Si atom -12388.394149 kJ/mol
# Density = 2.570561 g / cm^3
# Si number density = 25.764252 Si / 1000 Ang^3
#
#
#
# Elastic Constant Matrix: (Units=GPa)
#
#
# Indices 1 2 3 4 5 6 
#
# 1 182.3744 49.7125 35.8296 -9.0710 3.5305 -41.8413
# 2 49.7125 77.1586 18.4691 8.5252 1.7244 -34.8154
# 3 35.8296 18.4691 91.9615 -0.4588 10.1600 -23.1255
# 4 -9.0710 8.5252 -0.4588 43.3796 -4.6076 3.4500
# 5 3.5305 1.7244 10.1600 -4.6076 52.6083 0.4470
# 6 -41.8413 -34.8154 -23.1255 3.4500 0.4470 45.6753
#
#
#
# Elastic Compliance Matrix: (Units=1/GPa)
#
#
# Indices 1 2 3 4 5 6 
#
# 1 0.007534 -0.003039 -0.001372 0.001859 -0.000010 0.003751
# 2 -0.003039 0.022265 0.000594 -0.006337 -0.001323 0.014980
# 3 -0.001372 0.000594 0.013056 -0.001010 -0.002587 0.005908
# 4 0.001859 -0.006337 -0.001010 0.025390 0.002549 -0.005581
# 5 -0.000010 -0.001323 -0.002587 0.002549 0.019798 -0.002714
# 6 0.003751 0.014980 0.005908 -0.005581 -0.002714 0.040187
#
#
# Mechanical properties :
#
#
# Convention : Reuss Voigt Hill
#
# Bulk Modulus (GPa) = 28.39130 62.16855 45.27993
# Shear Modulus (GPa) = 33.87448 44.83150 39.35299
#
# Velocity S-wave (km/s) = 3.62993 4.17594 3.91247
# Velocity P-wave (km/s) = 5.34903 6.88719 6.16626
#
# Compressibility (1/GPa) = 0.03522206
#
# Stress axis : x y z
#
# Youngs Moduli (GPa) = 132.72920 44.91417 76.59469
#
# Poissons Ratio (x) = 0.13647 0.10505
# Poissons Ratio (y) = 0.40330 -0.04548
# Poissons Ratio (z) = 0.18204 -0.02667
#
# Static dielectric constant tensor:
#      x y z
#    x 2.685230 -2.118580 1.701650 
#    y -2.118580 2.717250 0.879380 
#    z 1.701650 0.879380 4.675300 
# 
# 
# High freq. dielectric constant tensor:
#      x y z
#    x 2.054000 -0.006700 0.004510 
#    y -0.006700 2.019860 -0.001050 
#    z 0.004510 -0.001050 2.042610 
# 
# From -- ./inp_files/28953.got.cif
#   From: 2010.06.25/outbox.cif.g09.slc.cpg/sg2_15_cif.got.tgz:28953.got - 2010.06.27 13:26:56.
