data_PCOD8022079
_publ_section_title
;
Structure prediction by ZEFSAII (Michael W. Deem and Ramdas Pophale) SiO2 
 PCOD8022079
Probable space group: P -1
;
_chemical_formula_sum "Si O2"
_cell_formula_units_Z 10
_cell_length_a 14.946066
_cell_length_b 19.092873
_cell_length_c 5.215351
_cell_angle_alpha 134.371535
_cell_angle_beta 138.507131
_cell_angle_gamma 21.706722
_cell_volume 364.649932
_symmetry_space_group_name_H-M "P -1"
_symmetry_group_IT_number 2
_symmetry_cell_setting 'triclinic'
loop_
_space_group_symop_operation_xyz
x,y,z
-x,-y,-z
loop_
_atom_site_type_symbol
_atom_site_label
_atom_site_fract_x
_atom_site_fract_y
_atom_site_fract_z
Si Si1 0.557306 0.161715 0.471391
Si Si2 0.553912 0.583280 0.849758
Si Si3 0.992329 0.896178 0.327490
Si Si4 0.811413 0.469988 0.603700
Si Si5 0.321376 0.077131 0.549388
O O1 0.326176 0.337117 0.225240
O O2 0.512670 0.075107 0.244876
O O3 0.555088 0.236391 0.901723
O O4 0.838967 0.993701 0.514635
O O5 0.297691 0.673327 0.475975
O O6 0.762677 0.453284 0.734254
O O7 0.688356 0.475060 0.133807
O O8 0.000000 0.000000 0.500000
O O9 0.860124 0.902336 0.866070
O O10 0.122505 0.285323 0.749206
O O11 0.500000 0.000000 0.500000
#
# Coordination Sequence:
#
# PCOD8022079 Si02
#       5
#     2   2   2   2   2
#     4  10  23  44  75 104 145 189 233 298 362 420
#     4  10  22  44  74 108 141 181 236 304 354 418
#     4  12  21  45  75 107 143 187 241 296 363 424
#     4  10  24  46  70 110 143 187 240 299 359 425
#     4  12  29  46  70 106 148 193 242 294 359 433
#
# _framework density 27.423563000000001
#
# number of rings (size 3 to 8) (size 9 to 14) (size 15 to 20)
#    1.200    0.000    4.000    0.600    5.600    3.200 
#    0.000    2.000    0.000    0.000    0.000    0.000 
#    0.000    0.000    0.000    0.000    0.000    0.000 
#
# Total GULP energy -123955.898825 kJ/mol
# GULP energy per Si atom -12395.589882 kJ/mol
# Density = 2.736115 g / cm^3
# Si number density = 27.423563 Si / 1000 Ang^3
#
#
#
# Elastic Constant Matrix: (Units=GPa)
#
#
# Indices 1 2 3 4 5 6 
#
# 1 164.1193 40.4893 24.6163 13.6239 -12.2796 -40.6837
# 2 40.4893 174.2344 13.8198 -4.4091 -12.0371 -40.8520
# 3 24.6163 13.8198 49.2270 -5.1332 8.2832 -4.7965
# 4 13.6239 -4.4091 -5.1332 33.8673 -3.2546 -13.3012
# 5 -12.2796 -12.0371 8.2832 -3.2546 53.0104 7.2817
# 6 -40.6837 -40.8520 -4.7965 -13.3012 7.2817 42.7561
#
#
#
# Elastic Compliance Matrix: (Units=1/GPa)
#
#
# Indices 1 2 3 4 5 6 
#
# 1 0.008696 0.000096 -0.004045 -0.001076 0.001599 0.007306
# 2 0.000096 0.008076 -0.001174 0.004422 0.001093 0.008866
# 3 -0.004045 -0.001174 0.023927 0.004633 -0.004651 -0.000053
# 4 -0.001076 0.004422 0.004633 0.037258 0.000220 0.015274
# 5 0.001599 0.001093 -0.004651 0.000220 0.020410 -0.001363
# 6 0.007306 0.008866 -0.000053 0.015274 -0.001363 0.043789
#
#
# Mechanical properties :
#
#
# Convention : Reuss Voigt Hill
#
# Bulk Modulus (GPa) = 32.83754 60.60352 46.72053
# Shear Modulus (GPa) = 30.75916 46.50377 38.63146
#
# Velocity S-wave (km/s) = 3.35271 4.12243 3.75733
# Velocity P-wave (km/s) = 5.19498 6.69375 5.99141
#
# Compressibility (1/GPa) = 0.03045295
#
# Stress axis : x y z
#
# Youngs Moduli (GPa) = 114.99508 123.81820 41.79406
#
# Poissons Ratio (x) = -0.01191 0.16905
# Poissons Ratio (y) = -0.01106 0.04908
# Poissons Ratio (z) = 0.46514 0.14542
#
# Static dielectric constant tensor:
#      x y z
#    x 4.656450 0.361590 0.080590 
#    y 0.361590 5.859600 0.133440 
#    z 0.080590 0.133440 5.141420 
# 
# 
# High freq. dielectric constant tensor:
#      x y z
#    x 2.100840 0.019190 0.005490 
#    y 0.019190 2.137270 0.009780 
#    z 0.005490 0.009780 2.124840 
# 
# From -- ./inp_files/25030.got.cif
#   From: 2010.06.25/outbox.cif.g09.slc.cpg/sg2_13_cif.got.tgz:25030.got - 2010.06.27 13:26:56.
