data_PCOD8022541
_publ_section_title
;
Structure prediction by ZEFSAII (Michael W. Deem and Ramdas Pophale) SiO2 
 PCOD8022541
Probable space group: P -1
;
_chemical_formula_sum "Si O2"
_cell_formula_units_Z 16
_cell_length_a 7.653819
_cell_length_b 27.263120
_cell_length_c 9.117279
_cell_angle_alpha 139.052357
_cell_angle_beta 131.784458
_cell_angle_gamma 35.321326
_cell_volume 714.546991
_symmetry_space_group_name_H-M "P -1"
_symmetry_group_IT_number 2
_symmetry_cell_setting 'triclinic'
loop_
_space_group_symop_operation_xyz
x,y,z
-x,-y,-z
loop_
_atom_site_type_symbol
_atom_site_label
_atom_site_fract_x
_atom_site_fract_y
_atom_site_fract_z
Si Si1 0.709648 0.766732 0.573863
Si Si2 0.040020 0.969452 0.618235
Si Si3 0.954392 0.223157 0.467843
Si Si4 0.185906 0.606824 0.060137
Si Si5 0.776423 0.608417 0.059015
Si Si6 0.779038 0.873469 0.314293
Si Si7 0.208270 0.902538 0.985997
Si Si8 0.881789 0.301093 0.068069
O O1 0.362902 0.868519 0.620696
O O2 0.727788 0.681047 0.320111
O O3 0.894354 0.787536 0.625152
O O4 0.866998 0.731653 0.741801
O O5 0.767253 0.966044 0.502281
O O6 0.000000 0.000000 0.500000
O O7 0.952935 0.063534 0.867211
O O8 0.753419 0.330526 0.668008
O O9 0.219271 0.150175 0.567981
O O10 0.753521 0.189359 0.259239
O O11 0.910400 0.616485 0.002475
O O12 0.500000 0.500000 0.000000
O O13 0.098568 0.640071 0.917113
O O14 0.454050 0.634469 0.900870
O O15 0.000000 0.500000 0.000000
O O16 0.533816 0.873764 0.095282
O O17 0.075587 0.787509 0.191186
O O18 0.000000 0.000000 0.000000
#
# Coordination Sequence:
#
# PCOD8022541 Si02
#       8
#     2   2   2   2   2   2   2   2
#     4  11  26  46  69 106 139 181 242 291 351 427
#     4  12  26  43  71  98 143 188 235 291 356 417
#     4  10  25  44  69  97 138 182 230 287 355 414
#     4  10  22  46  76 103 141 186 231 292 364 422
#     4  11  23  47  75 102 146 183 232 296 359 427
#     4  11  24  46  66  96 138 186 231 286 357 416
#     4  12  25  42  69 100 134 180 242 289 344 421
#     4  11  24  43  75 101 140 183 235 290 356 416
#
# _framework density 22.391808999999999
#
# number of rings (size 3 to 8) (size 9 to 14) (size 15 to 20)
#    0.000    1.000    3.750    1.875    3.500    4.000 
#    0.000    0.625    0.000    0.000    0.000    0.000 
#    0.000    0.000    0.000    0.000    0.000    0.000 
#
# Total GULP energy -198316.596755 kJ/mol
# GULP energy per Si atom -12394.787297 kJ/mol
# Density = 2.234084 g / cm^3
# Si number density = 22.391809 Si / 1000 Ang^3
#
#
#
# Elastic Constant Matrix: (Units=GPa)
#
#
# Indices 1 2 3 4 5 6 
#
# 1 132.3088 48.1492 59.2245 -13.7456 -3.6587 11.6462
# 2 48.1492 113.3671 59.5025 -7.4794 5.3495 6.7756
# 3 59.2245 59.5025 104.7170 -8.7658 5.2331 5.0800
# 4 -13.7456 -7.4794 -8.7658 45.0289 6.1175 -3.6903
# 5 -3.6587 5.3495 5.2331 6.1175 40.9160 -4.6003
# 6 11.6462 6.7756 5.0800 -3.6903 -4.6003 37.6482
#
#
#
# Elastic Compliance Matrix: (Units=1/GPa)
#
#
# Indices 1 2 3 4 5 6 
#
# 1 0.010813 -0.001859 -0.004888 0.001691 0.001355 -0.002020
# 2 -0.001859 0.013012 -0.006189 0.000476 -0.001264 -0.001039
# 3 -0.004888 -0.006189 0.015974 0.000857 -0.001761 0.000339
# 4 0.001691 0.000476 0.000857 0.023528 -0.003407 0.001166
# 5 0.001355 -0.001264 -0.001761 -0.003407 0.025783 0.002862
# 6 -0.002020 -0.001039 0.000339 0.001166 0.002862 0.027792
#
#
# Mechanical properties :
#
#
# Convention : Reuss Voigt Hill
#
# Bulk Modulus (GPa) = 71.79726 76.01615 73.90670
# Shear Modulus (GPa) = 33.91770 36.95306 35.43538
#
# Velocity S-wave (km/s) = 3.89618 4.06679 3.98240
# Velocity P-wave (km/s) = 7.23699 7.48823 7.36368
#
# Compressibility (1/GPa) = 0.01392811
#
# Stress axis : x y z
#
# Youngs Moduli (GPa) = 92.47882 76.85266 62.60312
#
# Poissons Ratio (x) = 0.14287 0.30597
# Poissons Ratio (y) = 0.17192 0.38744
# Poissons Ratio (z) = 0.45199 0.47563
#
# Static dielectric constant tensor:
#      x y z
#    x 4.242080 -0.006380 0.059310 
#    y -0.006380 4.086300 -0.016270 
#    z 0.059310 -0.016270 3.964000 
# 
# 
# High freq. dielectric constant tensor:
#      x y z
#    x 1.895140 -0.003470 -0.011740 
#    y -0.003470 1.888150 0.006680 
#    z -0.011740 0.006680 1.881850 
# 
# From -- ./inp_files/228004.got.cif
#   From: 2010.06.25/outbox.cif.g09.slc.cpg/sg2_115_cif.got.tgz:228004.got - 2010.06.27 13:26:56.
