data_PCOD8022841
_publ_section_title
;
Structure prediction by ZEFSAII (Michael W. Deem and Ramdas Pophale) SiO2 
 PCOD8022841
Probable space group: P -1
;
_chemical_formula_sum "Si O2"
_cell_formula_units_Z 16
_cell_length_a 9.318260
_cell_length_b 11.986115
_cell_length_c 13.903296
_cell_angle_alpha 136.104596
_cell_angle_beta 127.446633
_cell_angle_gamma 47.409836
_cell_volume 770.306595
_symmetry_space_group_name_H-M "P -1"
_symmetry_group_IT_number 2
_symmetry_cell_setting 'triclinic'
loop_
_space_group_symop_operation_xyz
x,y,z
-x,-y,-z
loop_
_atom_site_type_symbol
_atom_site_label
_atom_site_fract_x
_atom_site_fract_y
_atom_site_fract_z
Si Si1 0.300163 0.401154 0.020959
Si Si2 0.698014 0.522538 0.573512
Si Si3 0.539710 0.202857 0.823927
Si Si4 0.091284 0.714777 0.665083
Si Si5 0.106885 0.374933 0.112296
Si Si6 0.637139 0.811494 0.583049
Si Si7 0.006246 0.928128 0.064890
Si Si8 0.429179 0.414980 0.732011
O O1 0.256659 0.312623 0.043120
O O2 0.378675 0.544405 0.175725
O O3 0.476988 0.248575 0.937394
O O4 0.108784 0.488577 0.928861
O O5 0.500000 0.500000 0.500000
O O6 0.833206 0.362384 0.457724
O O7 0.821447 0.516656 0.716199
O O8 0.629741 0.717162 0.620604
O O9 0.761962 0.183420 0.882975
O O10 0.398389 0.365612 0.798310
O O11 0.522004 0.022516 0.679436
O O12 0.225175 0.579748 0.718335
O O13 0.867133 0.739380 0.600984
O O14 0.099166 0.904548 0.801370
O O15 0.105573 0.199235 0.051369
O O16 0.519401 0.758970 0.420569
O O17 0.000000 0.000000 0.000000
#
# Coordination Sequence:
#
# PCOD8022841 Si02
#       8
#     2   2   2   2   2   2   2   2
#     4  11  25  39  62  92 126 168 208 251 319 370
#     4  11  23  41  65  88 122 166 209 253 308 373
#     4  11  23  38  63  95 125 162 209 257 309 365
#     4  10  23  39  65  95 123 161 210 255 312 363
#     4  11  24  43  61  90 129 166 206 258 310 377
#     4  10  23  40  62  95 123 160 208 258 315 362
#     4  11  23  41  65  96 129 161 207 262 312 365
#     4  11  20  39  64  92 127 159 211 255 306 372
#
# _framework density 20.770951
#
# number of rings (size 3 to 8) (size 9 to 14) (size 15 to 20)
#    0.000    1.250    1.250    6.000    5.250    1.000 
#    0.000    3.750    0.000    3.750    0.000    0.000 
#    0.000    0.000    0.000    0.000    0.000    0.000 
#
# Total GULP energy -198434.369078 kJ/mol
# GULP energy per Si atom -12402.148067 kJ/mol
# Density = 2.072368 g / cm^3
# Si number density = 20.770951 Si / 1000 Ang^3
#
#
#
# Elastic Constant Matrix: (Units=GPa)
#
#
# Indices 1 2 3 4 5 6 
#
# 1 122.4772 46.2269 70.2852 15.2387 1.3238 20.4191
# 2 46.2269 79.6287 56.2525 4.7900 -6.0816 8.2276
# 3 70.2852 56.2525 162.9976 2.0018 9.4527 1.6317
# 4 15.2387 4.7900 2.0018 32.6001 1.7011 -2.2716
# 5 1.3238 -6.0816 9.4527 1.7011 39.6165 -2.0577
# 6 20.4191 8.2276 1.6317 -2.2716 -2.0577 24.9155
#
#
#
# Elastic Compliance Matrix: (Units=1/GPa)
#
#
# Indices 1 2 3 4 5 6 
#
# 1 0.015321 -0.003642 -0.005137 -0.007117 -0.000146 -0.011678
# 2 -0.003642 0.019012 -0.005192 -0.001180 0.004189 -0.002715
# 3 -0.005137 -0.005192 0.010221 0.003058 -0.002921 0.005293
# 4 -0.007117 -0.001180 0.003058 0.034706 -0.001693 0.009047
# 5 -0.000146 0.004189 -0.002921 -0.001693 0.026710 0.000979
# 6 -0.011678 -0.002715 0.005293 0.009047 0.000979 0.051162
#
#
# Mechanical properties :
#
#
# Convention : Reuss Voigt Hill
#
# Bulk Modulus (GPa) = 60.19711 78.95921 69.57816
# Shear Modulus (GPa) = 26.23129 32.24901 29.24015
#
# Velocity S-wave (km/s) = 3.55756 3.94458 3.75606
# Velocity P-wave (km/s) = 6.77638 7.67092 7.23748
#
# Compressibility (1/GPa) = 0.01661209
#
# Stress axis : x y z
#
# Youngs Moduli (GPa) = 65.26794 52.59886 97.83965
#
# Poissons Ratio (x) = 0.19157 0.50260
# Poissons Ratio (y) = 0.23771 0.50799
# Poissons Ratio (z) = 0.33528 0.27309
#
# Static dielectric constant tensor:
#      x y z
#    x 3.887110 0.112720 -0.003310 
#    y 0.112720 3.680460 -0.039780 
#    z -0.003310 -0.039780 4.197950 
# 
# 
# High freq. dielectric constant tensor:
#      x y z
#    x 1.807710 0.005630 0.007380 
#    y 0.005630 1.804840 -0.004710 
#    z 0.007380 -0.004710 1.834350 
# 
# From -- ./inp_files/307429.got.cif
#   From: 2010.06.25/outbox.cif.g09.slc.cpg/sg2_154_cif.got.tgz:307429.got - 2010.06.27 13:26:56.
