data_PCOD8022167
_publ_section_title
;
Structure prediction by ZEFSAII (Michael W. Deem and Ramdas Pophale) SiO2 
 PCOD8022167
Probable space group: P -1
;
_chemical_formula_sum "Si O2"
_cell_formula_units_Z 16
_cell_length_a 12.355507
_cell_length_b 16.481243
_cell_length_c 9.110652
_cell_angle_alpha 61.182795
_cell_angle_beta 35.729366
_cell_angle_gamma 45.074902
_cell_volume 748.152186
_symmetry_space_group_name_H-M "P -1"
_symmetry_group_IT_number 2
_symmetry_cell_setting 'triclinic'
loop_
_space_group_symop_operation_xyz
x,y,z
-x,-y,-z
loop_
_atom_site_type_symbol
_atom_site_label
_atom_site_fract_x
_atom_site_fract_y
_atom_site_fract_z
Si Si1 0.080590 0.841336 0.752617
Si Si2 0.819810 0.061069 0.013804
Si Si3 0.984684 0.352977 0.006632
Si Si4 0.870563 0.200173 0.593787
Si Si5 0.495185 0.760123 0.571806
Si Si6 0.656918 0.600522 0.994092
Si Si7 0.046863 0.337221 0.286618
Si Si8 0.352004 0.459170 0.253109
O O1 0.074785 0.865324 0.564540
O O2 0.307297 0.823126 0.590503
O O3 0.842911 0.959145 0.983157
O O4 0.084788 0.731197 0.876004
O O5 0.880395 0.126529 0.780555
O O6 0.571202 0.154870 0.287380
O O7 0.000000 0.000000 0.000000
O O8 0.249044 0.287842 0.718765
O O9 0.964638 0.383102 0.172826
O O10 0.796893 0.476423 0.029244
O O11 0.621385 0.330654 0.742470
O O12 0.063233 0.221690 0.395501
O O13 0.489317 0.654964 0.719844
O O14 0.705539 0.687836 0.932333
O O15 0.732138 0.574865 0.763944
O O16 0.873849 0.440206 0.498673
O O17 0.500000 0.500000 0.000000
#
# Coordination Sequence:
#
# PCOD8022167 Si02
#       8
#     2   2   2   2   2   2   2   2
#     4  10  24  41  68  89 124 169 214 259 313 363
#     4  10  22  45  67  90 121 168 212 268 314 361
#     4  11  25  39  62  99 127 169 207 251 314 380
#     4  11  23  42  65  96 124 163 212 261 313 374
#     4  11  22  42  61  90 131 160 211 259 306 369
#     4  12  23  38  63  95 132 169 202 247 321 375
#     4  11  24  39  61  93 135 163 206 251 309 382
#     4  12  22  38  58  89 128 167 201 249 302 370
#
# _framework density 21.386025
#
# number of rings (size 3 to 8) (size 9 to 14) (size 15 to 20)
#    0.000    1.000    3.750    2.625    1.750    2.500 
#    0.000    2.500    0.000    9.000    0.000    0.000 
#    0.000    0.000    0.000    0.000    0.000    0.000 
#
# Total GULP energy -198348.291204 kJ/mol
# GULP energy per Si atom -12396.768200 kJ/mol
# Density = 2.133735 g / cm^3
# Si number density = 21.386025 Si / 1000 Ang^3
#
#
#
# Elastic Constant Matrix: (Units=GPa)
#
#
# Indices 1 2 3 4 5 6 
#
# 1 93.1243 39.6142 28.4120 -10.4663 18.4571 12.0862
# 2 39.6142 75.4286 28.6754 -10.9765 4.0504 4.5876
# 3 28.4120 28.6754 89.6394 -4.9368 14.2463 5.0623
# 4 -10.4663 -10.9765 -4.9368 26.7721 5.5860 9.8360
# 5 18.4571 4.0504 14.2463 5.5860 36.5088 5.7029
# 6 12.0862 4.5876 5.0623 9.8360 5.7029 29.1582
#
#
#
# Elastic Compliance Matrix: (Units=1/GPa)
#
#
# Indices 1 2 3 4 5 6 
#
# 1 0.017260 -0.006555 -0.001323 0.008014 -0.007598 -0.007111
# 2 -0.006555 0.018838 -0.003984 0.004502 0.002329 -0.001529
# 3 -0.001323 -0.003984 0.013677 0.001603 -0.004332 -0.000893
# 4 0.008014 0.004502 0.001603 0.052030 -0.010029 -0.019898
# 5 -0.007598 0.002329 -0.004332 -0.010029 0.034161 0.000237
# 6 -0.007111 -0.001529 -0.000893 -0.019898 0.000237 0.044305
#
#
# Mechanical properties :
#
#
# Convention : Reuss Voigt Hill
#
# Bulk Modulus (GPa) = 38.38855 50.17724 44.28290
# Shear Modulus (GPa) = 23.50966 29.25387 26.38177
#
# Velocity S-wave (km/s) = 3.31917 3.70252 3.51607
# Velocity P-wave (km/s) = 5.71650 6.46466 6.10206
#
# Compressibility (1/GPa) = 0.02604944
#
# Stress axis : x y z
#
# Youngs Moduli (GPa) = 57.93802 53.08419 73.11560
#
# Poissons Ratio (x) = 0.34796 0.09676
# Poissons Ratio (y) = 0.37978 0.29132
# Poissons Ratio (z) = 0.07667 0.21151
#
# Static dielectric constant tensor:
#      x y z
#    x 4.142440 0.274060 0.208470 
#    y 0.274060 4.082560 0.066460 
#    z 0.208470 0.066460 4.259870 
# 
# 
# High freq. dielectric constant tensor:
#      x y z
#    x 1.842350 0.009240 0.024590 
#    y 0.009240 1.837770 0.002130 
#    z 0.024590 0.002130 1.843960 
# 
# From -- ./inp_files/256024.got.cif
#   From: 2010.06.25/outbox.cif.g09.slc.cpg/sg2_129_cif.got.tgz:256024.got - 2010.06.27 13:26:56.
