data_PCOD8022824
_publ_section_title
;
Structure prediction by ZEFSAII (Michael W. Deem and Ramdas Pophale) SiO2 
 PCOD8022824
Probable space group: P -1
;
_chemical_formula_sum "Si O2"
_cell_formula_units_Z 14
_cell_length_a 14.448631
_cell_length_b 8.968686
_cell_length_c 20.765873
_cell_angle_alpha 52.257005
_cell_angle_beta 29.508602
_cell_angle_gamma 33.526701
_cell_volume 665.477825
_symmetry_space_group_name_H-M "P -1"
_symmetry_group_IT_number 2
_symmetry_cell_setting 'triclinic'
loop_
_space_group_symop_operation_xyz
x,y,z
-x,-y,-z
loop_
_atom_site_type_symbol
_atom_site_label
_atom_site_fract_x
_atom_site_fract_y
_atom_site_fract_z
Si Si1 0.305905 0.888287 0.146513
Si Si2 0.633381 0.078322 0.365901
Si Si3 0.253345 0.676904 0.048565
Si Si4 0.686628 0.786702 0.038428
Si Si5 0.310086 0.808945 0.565753
Si Si6 0.765198 0.895000 0.095476
Si Si7 0.664265 0.797758 0.607549
O O1 0.382023 0.939974 0.152776
O O2 0.604646 0.544692 0.038333
O O3 0.035573 0.955532 0.302427
O O4 0.211694 0.107513 0.090144
O O5 0.627086 0.245915 0.380400
O O6 0.439026 0.268227 0.369025
O O7 0.500000 0.000000 0.500000
O O8 0.973309 0.778544 0.218347
O O9 0.500000 0.500000 0.000000
O O10 0.139365 0.969666 0.018639
O O11 0.622429 0.891756 0.123103
O O12 0.943971 0.434184 0.968973
O O13 0.500000 0.500000 0.500000
O O14 0.395370 0.943127 0.448191
O O15 0.522403 0.097428 0.243881
O O16 0.000000 0.500000 0.500000
#
# Coordination Sequence:
#
# PCOD8022824 Si02
#       7
#     2   2   2   2   2   2   2
#     4  11  22  41  66  95 121 170 223 254 311 386
#     4  10  24  43  66  93 128 170 210 259 320 377
#     4  12  22  40  71  94 122 165 222 266 303 381
#     4  10  23  39  64  90 128 162 206 270 320 370
#     4  11  23  42  63  91 129 170 210 258 314 382
#     4  11  23  42  61  94 130 162 210 268 321 365
#     4  11  25  41  63  92 130 168 209 261 319 375
#
# _framework density 21.037517999999999
#
# number of rings (size 3 to 8) (size 9 to 14) (size 15 to 20)
#    0.000    1.143    2.857    2.571    2.000    9.143 
#    0.000    1.429    0.000    0.000    0.000    0.000 
#    0.000    0.000    0.000    0.000    0.000    0.000 
#
# Total GULP energy -173613.166861 kJ/mol
# GULP energy per Si atom -12400.940490 kJ/mol
# Density = 2.098964 g / cm^3
# Si number density = 21.037518 Si / 1000 Ang^3
#
#
#
# Elastic Constant Matrix: (Units=GPa)
#
#
# Indices 1 2 3 4 5 6 
#
# 1 152.0487 18.6887 54.3075 18.0372 1.4141 -7.9760
# 2 18.6887 97.8779 23.0671 15.2072 4.1968 6.8910
# 3 54.3075 23.0671 136.3494 10.6278 -1.4116 2.9801
# 4 18.0372 15.2072 10.6278 27.7288 5.5134 -0.8552
# 5 1.4141 4.1968 -1.4116 5.5134 35.1114 2.9930
# 6 -7.9760 6.8910 2.9801 -0.8552 2.9930 31.3224
#
#
#
# Elastic Compliance Matrix: (Units=1/GPa)
#
#
# Indices 1 2 3 4 5 6 
#
# 1 0.008283 -0.000438 -0.002970 -0.003939 0.000015 0.002379
# 2 -0.000438 0.011688 -0.001308 -0.005644 -0.000317 -0.002682
# 3 -0.002970 -0.001308 0.008854 -0.000968 0.000905 -0.001424
# 4 -0.003939 -0.005644 -0.000968 0.043390 -0.006199 0.002108
# 5 0.000015 -0.000317 0.000905 -0.006199 0.029786 -0.003028
# 6 0.002379 -0.002682 -0.001424 0.002108 -0.003028 0.033604
#
#
# Mechanical properties :
#
#
# Convention : Reuss Voigt Hill
#
# Bulk Modulus (GPa) = 51.56066 64.26696 57.91381
# Shear Modulus (GPa) = 33.00293 38.18002 35.59148
#
# Velocity S-wave (km/s) = 3.96506 4.26473 4.11762
# Velocity P-wave (km/s) = 6.74718 7.40713 7.08484
#
# Compressibility (1/GPa) = 0.01939463
#
# Stress axis : x y z
#
# Youngs Moduli (GPa) = 120.72282 85.55876 112.94014
#
# Poissons Ratio (x) = 0.03745 0.33543
# Poissons Ratio (y) = 0.05285 0.14769
# Poissons Ratio (z) = 0.35854 0.11189
#
# Static dielectric constant tensor:
#      x y z
#    x 4.589290 0.033160 0.011720 
#    y 0.033160 3.819460 -0.048650 
#    z 0.011720 -0.048650 3.874030 
# 
# 
# High freq. dielectric constant tensor:
#      x y z
#    x 1.850410 0.001060 -0.001130 
#    y 0.001060 1.812170 -0.002200 
#    z -0.001130 -0.002200 1.822110 
# 
# From -- ./inp_files/159957.got.cif
#   From: 2010.06.25/outbox.cif.g09.slc.cpg/sg2_80_cif.got.tgz:159957.got - 2010.06.27 13:26:56.
