data_PCOD8022656
_publ_section_title
;
Structure prediction by ZEFSAII (Michael W. Deem and Ramdas Pophale) SiO2 
 PCOD8022656
Probable space group: P -1
;
_chemical_formula_sum "Si O2"
_cell_formula_units_Z 16
_cell_length_a 14.711342
_cell_length_b 11.563723
_cell_length_c 10.193444
_cell_angle_alpha 92.162080
_cell_angle_beta 78.888272
_cell_angle_gamma 151.634523
_cell_volume 775.399931
_symmetry_space_group_name_H-M "P -1"
_symmetry_group_IT_number 2
_symmetry_cell_setting 'triclinic'
loop_
_space_group_symop_operation_xyz
x,y,z
-x,-y,-z
loop_
_atom_site_type_symbol
_atom_site_label
_atom_site_fract_x
_atom_site_fract_y
_atom_site_fract_z
Si Si1 0.494036 0.069226 0.876306
Si Si2 0.498518 0.080122 0.379114
Si Si3 0.146910 0.850099 0.982366
Si Si4 0.074993 0.330050 0.703599
Si Si5 0.096102 0.354848 0.203100
Si Si6 0.686873 0.735617 0.051415
Si Si7 0.063656 0.076550 0.798599
Si Si8 0.916084 0.278590 0.495227
O O1 0.660989 0.358451 0.843776
O O2 0.549340 0.051854 0.737620
O O3 0.500000 0.000000 0.000000
O O4 0.262299 0.858023 0.924440
O O5 0.705656 0.376923 0.313221
O O6 0.500000 0.000000 0.500000
O O7 0.326980 0.987360 0.439212
O O8 0.074276 0.782006 0.149909
O O9 0.961141 0.662863 0.926549
O O10 0.323231 0.139601 0.912370
O O11 0.091879 0.207968 0.687199
O O12 0.000915 0.285624 0.580081
O O13 0.977226 0.301102 0.337080
O O14 0.032503 0.150279 0.237494
O O15 0.715595 0.697712 0.179704
O O16 0.500000 0.500000 0.000000
O O17 0.903826 0.957452 0.934468
O O18 0.000000 0.500000 0.500000
#
# Coordination Sequence:
#
# PCOD8022656 Si02
#       8
#     2   2   2   2   2   2   2   2
#     4  12  24  36  61  94 123 160 206 252 306 365
#     4  12  24  41  62  85 121 167 206 252 307 369
#     4  10  23  37  61  95 123 161 196 259 311 354
#     4  11  24  42  63  93 127 159 210 256 308 376
#     4  11  23  43  63  90 129 160 209 257 305 371
#     4   9  17  35  61  87 127 162 198 242 310 373
#     4   9  21  38  61  91 122 164 201 255 310 357
#     4  12  24  43  64  88 123 172 208 250 319 367
#
# _framework density 20.634512999999998
#
# number of rings (size 3 to 8) (size 9 to 14) (size 15 to 20)
#    0.000    1.250    2.500    3.750    0.000    4.500 
#    0.000    0.625    0.000    0.000    0.000    0.000 
#    0.000    0.000    0.000    0.000    0.000    0.000 
#
# Total GULP energy -198311.372007 kJ/mol
# GULP energy per Si atom -12394.460750 kJ/mol
# Density = 2.058755 g / cm^3
# Si number density = 20.634513 Si / 1000 Ang^3
#
#
#
# Elastic Constant Matrix: (Units=GPa)
#
#
# Indices 1 2 3 4 5 6 
#
# 1 101.2516 38.2665 23.6122 -8.0536 13.8008 -6.7643
# 2 38.2665 104.1113 13.5172 -0.4323 14.1910 3.8247
# 3 23.6122 13.5172 80.9545 8.6186 6.8247 -6.9306
# 4 -8.0536 -0.4323 8.6186 26.8127 1.6222 -1.5517
# 5 13.8008 14.1910 6.8247 1.6222 40.3231 -1.9264
# 6 -6.7643 3.8247 -6.9306 -1.5517 -1.9264 39.0754
#
#
#
# Elastic Compliance Matrix: (Units=1/GPa)
#
#
# Indices 1 2 3 4 5 6 
#
# 1 0.013103 -0.004093 -0.003289 0.005209 -0.002593 0.002165
# 2 -0.004093 0.011626 -0.000619 -0.000805 -0.002655 -0.002119
# 3 -0.003289 -0.000619 0.014206 -0.005417 -0.000759 0.001759
# 4 0.005209 -0.000805 -0.005417 0.040807 -0.002151 0.001534
# 5 -0.002593 -0.002655 -0.000759 -0.002151 0.026880 0.000916
# 6 0.002165 -0.002119 0.001759 0.001534 0.000916 0.026592
#
#
# Mechanical properties :
#
#
# Convention : Reuss Voigt Hill
#
# Bulk Modulus (GPa) = 43.60592 48.56770 46.08681
# Shear Modulus (GPa) = 31.87505 35.30366 33.58936
#
# Velocity S-wave (km/s) = 3.93459 4.14079 4.03901
# Velocity P-wave (km/s) = 6.46682 6.81541 6.64340
#
# Compressibility (1/GPa) = 0.02293267
#
# Stress axis : x y z
#
# Youngs Moduli (GPa) = 76.31946 86.01093 70.39036
#
# Poissons Ratio (x) = 0.35208 0.23150
# Poissons Ratio (y) = 0.31240 0.04359
# Poissons Ratio (z) = 0.25100 0.05327
#
# Static dielectric constant tensor:
#      x y z
#    x 4.213340 -0.010710 0.089200 
#    y -0.010710 3.957760 0.013860 
#    z 0.089200 0.013860 3.613090 
# 
# 
# High freq. dielectric constant tensor:
#      x y z
#    x 1.821670 0.002690 0.006220 
#    y 0.002690 1.809620 0.004520 
#    z 0.006220 0.004520 1.795140 
# 
# From -- ./inp_files/307534.got.cif
#   From: 2010.06.25/outbox.cif.g09.slc.cpg/sg2_154_cif.got.tgz:307534.got - 2010.06.27 13:26:56.
