data_PCOD8022864
_publ_section_title
;
Structure prediction by ZEFSAII (Michael W. Deem and Ramdas Pophale) SiO2 
 PCOD8022864
Probable space group: P -1
;
_chemical_formula_sum "Si O2"
_cell_formula_units_Z 14
_cell_length_a 22.942772
_cell_length_b 17.060093
_cell_length_c 8.682050
_cell_angle_alpha 144.481370
_cell_angle_beta 148.096886
_cell_angle_gamma 19.864792
_cell_volume 607.972481
_symmetry_space_group_name_H-M "P -1"
_symmetry_group_IT_number 2
_symmetry_cell_setting 'triclinic'
loop_
_space_group_symop_operation_xyz
x,y,z
-x,-y,-z
loop_
_atom_site_type_symbol
_atom_site_label
_atom_site_fract_x
_atom_site_fract_y
_atom_site_fract_z
Si Si1 0.943838 0.460953 0.169141
Si Si2 0.157441 0.737376 0.987706
Si Si3 0.474506 0.032805 0.257305
Si Si4 0.992582 0.899273 0.184307
Si Si5 0.799491 0.611438 0.538430
Si Si6 0.621407 0.334153 0.863919
Si Si7 0.510339 0.813059 0.732493
O O1 0.032410 0.446374 0.194874
O O2 0.000000 0.500000 0.500000
O O3 0.031804 0.224019 0.996460
O O4 0.721490 0.662187 0.977987
O O5 0.114893 0.623672 0.667193
O O6 0.348615 0.586245 0.079159
O O7 0.173245 0.730461 0.200451
O O8 0.000000 0.000000 0.000000
O O9 0.294039 0.277140 0.326948
O O10 0.568424 0.058933 0.405736
O O11 0.632871 0.807778 0.357663
O O12 0.393941 0.995622 0.903673
O O13 0.000000 0.000000 0.500000
O O14 0.820007 0.091119 0.988377
O O15 0.504326 0.331408 0.516331
O O16 0.500000 0.500000 0.000000
#
# Coordination Sequence:
#
# PCOD8022864 Si02
#       7
#     2   2   2   2   2   2   2
#     4  12  23  42  72  97 135 177 223 282 333 407
#     4  10  23  42  69  95 138 181 230 275 340 401
#     4  10  23  39  66  99 135 165 222 285 340 396
#     4  11  24  44  70 101 134 181 229 274 345 407
#     4  11  22  43  68 101 133 177 229 282 334 404
#     4  11  24  43  68  97 139 177 225 280 335 411
#     4  11  23  41  65 100 135 175 222 273 352 394
#
# _framework density 23.027358
#
# number of rings (size 3 to 8) (size 9 to 14) (size 15 to 20)
#    0.000    1.143    2.857    2.571    2.000    4.000 
#    0.000    6.429    0.000    0.000    0.000    0.000 
#    0.000    0.000    0.000    0.000    0.000    0.000 
#
# Total GULP energy -173456.382564 kJ/mol
# GULP energy per Si atom -12389.741612 kJ/mol
# Density = 2.297495 g / cm^3
# Si number density = 23.027358 Si / 1000 Ang^3
#
#
#
# Elastic Constant Matrix: (Units=GPa)
#
#
# Indices 1 2 3 4 5 6 
#
# 1 163.9833 30.6360 82.9716 23.4304 5.5966 -22.8598
# 2 30.6360 71.1944 38.9029 21.2522 3.2559 -1.5554
# 3 82.9716 38.9029 164.1488 30.1520 10.9120 -11.8572
# 4 23.4304 21.2522 30.1520 40.9074 -2.1475 -1.7266
# 5 5.5966 3.2559 10.9120 -2.1475 47.1900 12.4680
# 6 -22.8598 -1.5554 -11.8572 -1.7266 12.4680 36.3345
#
#
#
# Elastic Compliance Matrix: (Units=1/GPa)
#
#
# Indices 1 2 3 4 5 6 
#
# 1 0.009125 -0.001278 -0.003502 -0.001854 -0.001590 0.005001
# 2 -0.001278 0.017964 -0.002365 -0.006929 -0.000612 -0.000926
# 3 -0.003502 -0.002365 0.009334 -0.003701 -0.002087 0.001281
# 4 -0.001854 -0.006929 -0.003701 0.031924 0.003641 -0.002403
# 5 -0.001590 -0.000612 -0.002087 0.003641 0.024716 -0.010016
# 6 0.005001 -0.000926 0.001281 -0.002403 -0.010016 0.034370
#
#
# Mechanical properties :
#
#
# Convention : Reuss Voigt Hill
#
# Bulk Modulus (GPa) = 45.18073 78.26084 61.72078
# Shear Modulus (GPa) = 33.53423 41.34077 37.43750
#
# Velocity S-wave (km/s) = 3.82026 4.24168 4.03648
# Velocity P-wave (km/s) = 6.25478 7.61899 6.97034
#
# Compressibility (1/GPa) = 0.02213333
#
# Stress axis : x y z
#
# Youngs Moduli (GPa) = 109.58648 55.66583 107.13671
#
# Poissons Ratio (x) = 0.07112 0.37522
# Poissons Ratio (y) = 0.14001 0.25340
# Poissons Ratio (z) = 0.38380 0.13166
#
# Static dielectric constant tensor:
#      x y z
#    x 5.086630 -0.191120 0.003970 
#    y -0.191120 4.163210 0.231020 
#    z 0.003970 0.231020 4.071200 
# 
# 
# High freq. dielectric constant tensor:
#      x y z
#    x 1.931960 -0.002290 -0.004170 
#    y -0.002290 1.906840 0.021240 
#    z -0.004170 0.021240 1.899560 
# 
# From -- ./inp_files/242534.got.cif
#   From: 2010.06.25/outbox.cif.g09.slc.cpg/sg2_122_cif.got.tgz:242534.got - 2010.06.27 13:26:56.
