data_PCOD8022184
_publ_section_title
;
Structure prediction by ZEFSAII (Michael W. Deem and Ramdas Pophale) SiO2 
 PCOD8022184
Probable space group: P -1
;
_chemical_formula_sum "Si O2"
_cell_formula_units_Z 16
_cell_length_a 20.630009
_cell_length_b 6.867015
_cell_length_c 8.587789
_cell_angle_alpha 48.952026
_cell_angle_beta 55.952024
_cell_angle_gamma 62.268694
_cell_volume 750.882323
_symmetry_space_group_name_H-M "P -1"
_symmetry_group_IT_number 2
_symmetry_cell_setting 'triclinic'
loop_
_space_group_symop_operation_xyz
x,y,z
-x,-y,-z
loop_
_atom_site_type_symbol
_atom_site_label
_atom_site_fract_x
_atom_site_fract_y
_atom_site_fract_z
Si Si1 0.829656 0.024629 0.103134
Si Si2 0.593100 0.459298 0.370686
Si Si3 0.332362 0.067498 0.490793
Si Si4 0.825753 0.101321 0.706113
Si Si5 0.071014 0.468957 0.634613
Si Si6 0.407397 0.048486 0.068125
Si Si7 0.892665 0.557102 0.758746
Si Si8 0.334514 0.596962 0.362542
O O1 0.758583 0.949307 0.342691
O O2 0.899316 0.777781 0.162991
O O3 0.805963 0.056520 0.937049
O O4 0.853802 0.298441 0.984872
O O5 0.500000 0.500000 0.500000
O O6 0.647703 0.434416 0.462304
O O7 0.614201 0.195894 0.377512
O O8 0.621789 0.691314 0.120218
O O9 0.350383 0.076537 0.279009
O O10 0.361083 0.317544 0.396286
O O11 0.899465 0.258891 0.501847
O O12 0.755638 0.289603 0.614932
O O13 0.839310 0.817507 0.757995
O O14 0.098545 0.396708 0.460278
O O15 0.976755 0.521058 0.750922
O O16 0.389391 0.803254 0.117481
O O17 0.500000 0.000000 0.000000
#
# Coordination Sequence:
#
# PCOD8022184 Si02
#       8
#     2   2   2   2   2   2   2   2
#     4  11  25  41  65 100 136 175 232 269 330 400
#     4  11  25  48  69  99 131 169 222 273 335 405
#     4  11  26  43  67  98 136 175 217 283 323 396
#     4  11  25  41  65 102 137 173 230 275 327 400
#     4  10  22  45  67  98 138 175 231 273 330 397
#     4  11  25  48  68  97 132 168 222 275 332 404
#     4  10  24  42  70  96 135 187 219 279 332 382
#     4  11  26  42  67 100 133 177 217 271 339 395
#
# _framework density 21.308267000000001
#
# number of rings (size 3 to 8) (size 9 to 14) (size 15 to 20)
#    0.000    1.250    3.750    0.750    8.750    3.500 
#    0.000    0.000    0.000    0.000    0.000    0.000 
#    0.000    0.000    0.000    0.000    0.000    0.000 
#
# Total GULP energy -198321.794777 kJ/mol
# GULP energy per Si atom -12395.112174 kJ/mol
# Density = 2.125977 g / cm^3
# Si number density = 21.308267 Si / 1000 Ang^3
#
#
#
# Elastic Constant Matrix: (Units=GPa)
#
#
# Indices 1 2 3 4 5 6 
#
# 1 111.2345 43.1150 44.1880 -8.6670 1.4501 0.7447
# 2 43.1150 140.1834 53.5785 -41.4981 -4.7330 8.5166
# 3 44.1880 53.5785 132.7372 -30.8544 1.3381 8.2734
# 4 -8.6670 -41.4981 -30.8544 47.5791 -0.7506 -7.4440
# 5 1.4501 -4.7330 1.3381 -0.7506 41.1212 -13.8227
# 6 0.7447 8.5166 8.2734 -7.4440 -13.8227 30.8849
#
#
#
# Elastic Compliance Matrix: (Units=1/GPa)
#
#
# Indices 1 2 3 4 5 6 
#
# 1 0.011225 -0.003073 -0.003127 -0.002583 -0.000505 0.000566
# 2 -0.003073 0.011161 -0.001605 0.008180 0.001639 0.000131
# 3 -0.003127 -0.001605 0.010374 0.004501 -0.000854 -0.001558
# 4 -0.002583 0.008180 0.004501 0.031549 0.003385 0.005720
# 5 -0.000505 0.001639 -0.000854 0.003385 0.029212 0.013679
# 6 0.000566 0.000131 -0.001558 0.005720 0.013679 0.040247
#
#
# Mechanical properties :
#
#
# Convention : Reuss Voigt Hill
#
# Bulk Modulus (GPa) = 58.30968 73.99092 66.15030
# Shear Modulus (GPa) = 32.23810 40.13528 36.18669
#
# Velocity S-wave (km/s) = 3.89387 4.34470 4.12545
# Velocity P-wave (km/s) = 6.90221 7.74390 7.33514
#
# Compressibility (1/GPa) = 0.01714981
#
# Stress axis : x y z
#
# Youngs Moduli (GPa) = 89.08749 89.59591 96.39038
#
# Poissons Ratio (x) = 0.27536 0.30140
# Poissons Ratio (y) = 0.27379 0.15473
# Poissons Ratio (z) = 0.27856 0.14383
#
# Static dielectric constant tensor:
#      x y z
#    x 3.901410 0.131740 -0.093020 
#    y 0.131740 4.281150 -0.614050 
#    z -0.093020 -0.614050 4.182490 
# 
# 
# High freq. dielectric constant tensor:
#      x y z
#    x 1.840610 -0.002760 -0.004510 
#    y -0.002760 1.840700 -0.028520 
#    z -0.004510 -0.028520 1.846340 
# 
# From -- ./inp_files/340030.got.cif
#   From: 2010.06.25/outbox.cif.g09.slc.cpg/sg2_171_cif.got.tgz:340030.got - 2010.06.27 13:26:56.
