data_PCOD8022503
_publ_section_title
;
Structure prediction by ZEFSAII (Michael W. Deem and Ramdas Pophale) SiO2 
 PCOD8022503
Probable space group: P -1
;
_chemical_formula_sum "Si O2"
_cell_formula_units_Z 16
_cell_length_a 9.343905
_cell_length_b 14.767788
_cell_length_c 9.550247
_cell_angle_alpha 72.332388
_cell_angle_beta 139.441176
_cell_angle_gamma 118.573873
_cell_volume 748.371457
_symmetry_space_group_name_H-M "P -1"
_symmetry_group_IT_number 2
_symmetry_cell_setting 'triclinic'
loop_
_space_group_symop_operation_xyz
x,y,z
-x,-y,-z
loop_
_atom_site_type_symbol
_atom_site_label
_atom_site_fract_x
_atom_site_fract_y
_atom_site_fract_z
Si Si1 0.631830 0.120394 0.701807
Si Si2 0.404704 0.251157 0.627833
Si Si3 0.497446 0.884158 0.709932
Si Si4 0.167729 0.227459 0.965434
Si Si5 0.044314 0.474093 0.390875
Si Si6 0.444452 0.378414 0.334452
Si Si7 0.241138 0.545616 0.073044
Si Si8 0.971241 0.744238 0.458871
O O1 0.505917 0.165485 0.701816
O O2 0.532383 0.132462 0.470671
O O3 0.558656 0.001530 0.743427
O O4 0.920038 0.178954 0.891064
O O5 0.332269 0.297918 0.413864
O O6 0.609289 0.336029 0.832122
O O7 0.165765 0.202554 0.569453
O O8 0.719954 0.857419 0.935447
O O9 0.255184 0.812380 0.643863
O O10 0.357801 0.323434 0.146826
O O11 0.124486 0.267665 0.764890
O O12 0.268199 0.575935 0.456094
O O13 0.093502 0.370024 0.473594
O O14 0.000000 0.500000 0.500000
O O15 0.815879 0.460229 0.131905
O O16 0.385541 0.478192 0.255458
O O17 0.000000 0.500000 0.000000
#
# Coordination Sequence:
#
# PCOD8022503 Si02
#       8
#     2   2   2   2   2   2   2   2
#     4  10  23  44  72  98 126 173 227 272 333 396
#     4  12  24  44  63 101 139 175 214 275 335 396
#     4  10  22  46  71  95 130 172 223 282 323 393
#     4  11  23  43  71  98 128 173 226 274 325 393
#     4  12  26  41  65  95 134 181 221 267 318 386
#     4  12  24  42  65  95 131 179 222 258 321 397
#     4  12  24  41  64  89 134 175 216 264 320 386
#     4  11  26  41  65 101 140 167 219 277 334 389
#
# _framework density 21.379754999999999
#
# number of rings (size 3 to 8) (size 9 to 14) (size 15 to 20)
#    0.000    0.750    3.750    3.750    5.250    1.500 
#    0.000    0.625    0.000    0.000    0.000    0.000 
#    0.000    0.000    0.000    0.000    0.000    0.000 
#
# Total GULP energy -198473.778806 kJ/mol
# GULP energy per Si atom -12404.611175 kJ/mol
# Density = 2.133109 g / cm^3
# Si number density = 21.379755 Si / 1000 Ang^3
#
#
#
# Elastic Constant Matrix: (Units=GPa)
#
#
# Indices 1 2 3 4 5 6 
#
# 1 121.6061 28.6416 15.7026 4.0277 9.8828 -14.8326
# 2 28.6416 90.6885 18.9768 8.9900 6.4819 -13.1878
# 3 15.7026 18.9768 92.1119 -1.0862 -0.8786 -6.6974
# 4 4.0277 8.9900 -1.0862 21.6371 -2.9869 -1.5881
# 5 9.8828 6.4819 -0.8786 -2.9869 33.2063 -2.2295
# 6 -14.8326 -13.1878 -6.6974 -1.5881 -2.2295 37.0353
#
#
#
# Elastic Compliance Matrix: (Units=1/GPa)
#
#
# Indices 1 2 3 4 5 6 
#
# 1 0.009396 -0.002100 -0.001011 -0.001055 -0.002330 0.002647
# 2 -0.002100 0.013307 -0.002241 -0.005339 -0.002302 0.003125
# 3 -0.001011 -0.002241 0.011603 0.001958 0.001293 0.001057
# 4 -0.001055 -0.005339 0.001958 0.049582 0.005902 0.000512
# 5 -0.002330 -0.002302 0.001293 0.005902 0.031867 0.000652
# 6 0.002647 0.003125 0.001057 0.000512 0.000652 0.029426
#
#
# Mechanical properties :
#
#
# Convention : Reuss Voigt Hill
#
# Bulk Modulus (GPa) = 42.37145 47.89426 45.13286
# Shear Modulus (GPa) = 30.53393 34.44810 32.49102
#
# Velocity S-wave (km/s) = 3.78321 4.01839 3.90257
# Velocity P-wave (km/s) = 6.24060 6.63176 6.43915
#
# Compressibility (1/GPa) = 0.02360080
#
# Stress axis : x y z
#
# Youngs Moduli (GPa) = 106.43322 75.14775 86.18626
#
# Poissons Ratio (x) = 0.15779 0.08716
# Poissons Ratio (y) = 0.22348 0.19317
# Poissons Ratio (z) = 0.10764 0.16843
#
# Static dielectric constant tensor:
#      x y z
#    x 3.982620 -0.035120 0.158250 
#    y -0.035120 3.865450 -0.063610 
#    z 0.158250 -0.063610 4.210840 
# 
# 
# High freq. dielectric constant tensor:
#      x y z
#    x 1.843990 -0.005490 0.006490 
#    y -0.005490 1.833670 -0.001490 
#    z 0.006490 -0.001490 1.845810 
# 
# From -- ./inp_files/39177.got.cif
#   From: 2010.06.25/outbox.cif.g09.slc.cpg/sg2_20_cif.got.tgz:39177.got - 2010.06.27 13:26:56.
