data_PCOD8022221
_publ_section_title
;
Structure prediction by ZEFSAII (Michael W. Deem and Ramdas Pophale) SiO2 
 PCOD8022221
Probable space group: P -1
;
_chemical_formula_sum "Si O2"
_cell_formula_units_Z 16
_cell_length_a 8.592449
_cell_length_b 10.917526
_cell_length_c 13.646239
_cell_angle_alpha 99.826279
_cell_angle_beta 49.048724
_cell_angle_gamma 124.436872
_cell_volume 755.192516
_symmetry_space_group_name_H-M "P -1"
_symmetry_group_IT_number 2
_symmetry_cell_setting 'triclinic'
loop_
_space_group_symop_operation_xyz
x,y,z
-x,-y,-z
loop_
_atom_site_type_symbol
_atom_site_label
_atom_site_fract_x
_atom_site_fract_y
_atom_site_fract_z
Si Si1 0.109127 0.474956 0.551473
Si Si2 0.155046 0.748626 0.613851
Si Si3 0.397318 0.453002 0.276407
Si Si4 0.167323 0.738905 0.183887
Si Si5 0.607821 0.959894 0.321917
Si Si6 0.836650 0.785673 0.194967
Si Si7 0.647237 0.042847 0.100897
Si Si8 0.724490 0.346867 0.064735
O O1 0.250334 0.639889 0.575159
O O2 0.304317 0.439141 0.426928
O O3 0.000000 0.500000 0.500000
O O4 0.896582 0.337924 0.692776
O O5 0.316116 0.867809 0.472718
O O6 0.846395 0.624103 0.706583
O O7 0.211205 0.856552 0.698000
O O8 0.621042 0.639905 0.193591
O O9 0.502574 0.355451 0.197469
O O10 0.918282 0.718697 0.237843
O O11 0.401624 0.923059 0.117392
O O12 0.268332 0.668267 0.058389
O O13 0.726659 0.872706 0.298208
O O14 0.590796 0.952416 0.212334
O O15 0.086880 0.914891 0.045832
O O16 0.672801 0.199685 0.122360
O O17 0.000000 0.500000 0.000000
#
# Coordination Sequence:
#
# PCOD8022221 Si02
#       8
#     2   2   2   2   2   2   2   2
#     4  10  22  45  68  96 132 175 225 271 327 398
#     4  10  24  41  69  90 136 173 223 276 330 391
#     4  11  22  42  69  96 135 173 221 275 329 398
#     4  11  25  43  73  97 134 185 216 275 341 388
#     4  11  24  45  64  99 132 177 223 277 328 393
#     4  11  23  42  65  99 132 170 222 272 332 400
#     4  11  24  43  68  94 137 178 219 275 333 396
#     4  11  23  44  64 101 141 168 226 273 331 401
#
# _framework density 21.18665
#
# number of rings (size 3 to 8) (size 9 to 14) (size 15 to 20)
#    0.000    1.250    3.750    3.375    7.000    0.500 
#    4.500    4.375    0.000    0.000    0.000    0.000 
#    0.000    0.000    0.000    0.000    0.000    0.000 
#
# Total GULP energy -198261.544894 kJ/mol
# GULP energy per Si atom -12391.346556 kJ/mol
# Density = 2.113843 g / cm^3
# Si number density = 21.186650 Si / 1000 Ang^3
#
#
#
# Elastic Constant Matrix: (Units=GPa)
#
#
# Indices 1 2 3 4 5 6 
#
# 1 63.8188 33.6029 50.7846 5.3530 -0.5162 1.5199
# 2 33.6029 147.2343 42.9721 5.4198 -16.1682 2.4499
# 3 50.7846 42.9721 113.1558 2.1196 -5.7566 -4.6764
# 4 5.3530 5.4198 2.1196 45.5850 -8.7356 -15.9020
# 5 -0.5162 -16.1682 -5.7566 -8.7356 35.6107 -3.3251
# 6 1.5199 2.4499 -4.6764 -15.9020 -3.3251 33.0434
#
#
#
# Elastic Compliance Matrix: (Units=1/GPa)
#
#
# Indices 1 2 3 4 5 6 
#
# 1 0.026690 -0.003051 -0.011183 -0.005029 -0.004550 -0.005462
# 2 -0.003051 0.008353 -0.001643 -0.000032 0.003439 -0.000381
# 3 -0.011183 -0.001643 0.014738 0.002832 0.002575 0.004344
# 4 -0.005029 -0.000032 0.002832 0.029672 0.009127 0.015833
# 5 -0.004550 0.003439 0.002575 0.009127 0.032982 0.008030
# 6 -0.005462 -0.000381 0.004344 0.015833 0.008030 0.039585
#
#
# Mechanical properties :
#
#
# Convention : Reuss Voigt Hill
#
# Bulk Modulus (GPa) = 55.47328 64.32534 59.89931
# Shear Modulus (GPa) = 26.34610 35.97111 31.15861
#
# Velocity S-wave (km/s) = 3.53019 4.12493 3.83909
# Velocity P-wave (km/s) = 6.54647 7.28793 6.92713
#
# Compressibility (1/GPa) = 0.01802670
#
# Stress axis : x y z
#
# Youngs Moduli (GPa) = 37.46764 119.71822 67.85387
#
# Poissons Ratio (x) = 0.36528 0.75879
# Poissons Ratio (y) = 0.11432 0.11148
# Poissons Ratio (z) = 0.41899 0.19669
#
# Static dielectric constant tensor:
#      x y z
#    x 3.824510 -0.592670 -0.655620 
#    y -0.592670 5.305680 0.957610 
#    z -0.655620 0.957610 4.558900 
# 
# 
# High freq. dielectric constant tensor:
#      x y z
#    x 1.794940 0.003270 -0.012380 
#    y 0.003270 1.854440 -0.001210 
#    z -0.012380 -0.001210 1.839360 
# 
# From -- ./inp_files/500449.got.cif
#   From: 2010.06.25/outbox.cif.g09.slc.cpg/sg2_251_cif.got.tgz:500449.got - 2010.06.27 13:26:56.
