data_PCOD8022283
_publ_section_title
;
Structure prediction by ZEFSAII (Michael W. Deem and Ramdas Pophale) SiO2 
 PCOD8022283
Probable space group: P -1
;
_chemical_formula_sum "Si O2"
_cell_formula_units_Z 16
_cell_length_a 17.013341
_cell_length_b 8.763896
_cell_length_c 11.187594
_cell_angle_alpha 100.738984
_cell_angle_beta 32.883095
_cell_angle_gamma 82.343548
_cell_volume 747.119250
_symmetry_space_group_name_H-M "P -1"
_symmetry_group_IT_number 2
_symmetry_cell_setting 'triclinic'
loop_
_space_group_symop_operation_xyz
x,y,z
-x,-y,-z
loop_
_atom_site_type_symbol
_atom_site_label
_atom_site_fract_x
_atom_site_fract_y
_atom_site_fract_z
Si Si1 0.719036 0.709187 0.659205
Si Si2 0.573341 0.013231 0.070319
Si Si3 0.483185 0.899050 0.396552
Si Si4 0.842400 0.047184 0.293218
Si Si5 0.699421 0.375171 0.693855
Si Si6 0.378894 0.511076 0.761620
Si Si7 0.213535 0.815281 0.199601
Si Si8 0.004150 0.783147 0.270912
O O1 0.611700 0.792320 0.684501
O O2 0.769531 0.504670 0.594299
O O3 0.897123 0.697151 0.435837
O O4 0.585157 0.853987 0.948779
O O5 0.589830 0.934037 0.168721
O O6 0.733220 0.034968 0.841671
O O7 0.284972 0.989624 0.623765
O O8 0.567179 0.685556 0.285585
O O9 0.500000 0.000000 0.500000
O O10 0.734681 0.257000 0.510674
O O11 0.909260 0.921517 0.305470
O O12 0.000000 0.000000 0.000000
O O13 0.803365 0.243424 0.654050
O O14 0.500000 0.500000 0.000000
O O15 0.500000 0.500000 0.500000
O O16 0.370772 0.636436 0.901632
O O17 0.186919 0.611675 0.965805
O O18 0.963836 0.114891 0.641446
#
# Coordination Sequence:
#
# PCOD8022283 Si02
#       8
#     2   2   2   2   2   2   2   2
#     4  11  23  42  68 108 138 182 228 304 353 421
#     4  11  22  41  72  98 144 182 236 285 360 426
#     4  12  26  45  69 101 135 189 247 285 354 434
#     4  12  27  48  71 103 145 188 238 300 360 427
#     4  12  24  44  75 105 142 189 243 289 358 434
#     4  10  22  45  70 100 140 189 237 286 352 436
#     4  10  23  42  72 102 135 191 234 286 353 430
#     4  10  25  46  67 106 142 177 236 300 359 411
#
# _framework density 21.415590000000002
#
# number of rings (size 3 to 8) (size 9 to 14) (size 15 to 20)
#    0.750    0.250    2.500    4.500    1.750    3.500 
#    2.250    1.250    0.000    0.000    0.000    0.000 
#    0.000    0.000    0.000    0.000    0.000    0.000 
#
# Total GULP energy -198378.079761 kJ/mol
# GULP energy per Si atom -12398.629985 kJ/mol
# Density = 2.136685 g / cm^3
# Si number density = 21.415590 Si / 1000 Ang^3
#
#
#
# Elastic Constant Matrix: (Units=GPa)
#
#
# Indices 1 2 3 4 5 6 
#
# 1 137.9890 61.2015 38.3258 1.2274 -6.6945 9.2293
# 2 61.2015 158.3813 30.8610 -15.3737 0.6029 -3.2479
# 3 38.3258 30.8610 85.2417 -7.1671 -2.3751 6.7990
# 4 1.2274 -15.3737 -7.1671 28.3108 0.0105 -7.4075
# 5 -6.6945 0.6029 -2.3751 0.0105 45.4559 -3.2587
# 6 9.2293 -3.2479 6.7990 -7.4075 -3.2587 30.4883
#
#
#
# Elastic Compliance Matrix: (Units=1/GPa)
#
#
# Indices 1 2 3 4 5 6 
#
# 1 0.010166 -0.003794 -0.003233 -0.004283 0.001116 -0.003682
# 2 -0.003794 0.008634 -0.001262 0.005484 -0.000480 0.003631
# 3 -0.003233 -0.001262 0.013992 0.002569 0.000154 -0.001636
# 4 -0.004283 0.005484 0.002569 0.042166 0.000251 0.011579
# 5 0.001116 -0.000480 0.000154 0.000251 0.022323 0.002024
# 6 -0.003682 0.003631 -0.001636 0.011579 0.002024 0.037695
#
#
# Mechanical properties :
#
#
# Convention : Reuss Voigt Hill
#
# Bulk Modulus (GPa) = 61.66880 71.37649 66.52264
# Shear Modulus (GPa) = 31.85533 37.59926 34.72729
#
# Velocity S-wave (km/s) = 3.86097 4.19465 4.03126
# Velocity P-wave (km/s) = 6.98104 7.54067 7.26624
#
# Compressibility (1/GPa) = 0.01621566
#
# Stress axis : x y z
#
# Youngs Moduli (GPa) = 98.36709 115.81501 71.46719
#
# Poissons Ratio (x) = 0.43940 0.23102
# Poissons Ratio (y) = 0.37320 0.09020
# Poissons Ratio (z) = 0.31798 0.14617
#
# Static dielectric constant tensor:
#      x y z
#    x 4.016230 0.082880 -0.087370 
#    y 0.082880 4.328400 -0.488370 
#    z -0.087370 -0.488370 4.657540 
# 
# 
# High freq. dielectric constant tensor:
#      x y z
#    x 1.847730 -0.002350 -0.002260 
#    y -0.002350 1.850620 0.000340 
#    z -0.002260 0.000340 1.841430 
# 
# From -- ./inp_files/469431.got.cif
#   From: 2010.06.25/outbox.cif.g09.slc.cpg/sg2_235_cif.got.tgz:469431.got - 2010.06.27 13:26:56.
