data_PCOD8022242
_publ_section_title
;
Structure prediction by ZEFSAII (Michael W. Deem and Ramdas Pophale) SiO2 
 PCOD8022242
Probable space group: P -1
;
_chemical_formula_sum "Si O2"
_cell_formula_units_Z 16
_cell_length_a 12.459812
_cell_length_b 17.549571
_cell_length_c 8.405470
_cell_angle_alpha 128.531224
_cell_angle_beta 31.705090
_cell_angle_gamma 133.107372
_cell_volume 701.062229
_symmetry_space_group_name_H-M "P -1"
_symmetry_group_IT_number 2
_symmetry_cell_setting 'triclinic'
loop_
_space_group_symop_operation_xyz
x,y,z
-x,-y,-z
loop_
_atom_site_type_symbol
_atom_site_label
_atom_site_fract_x
_atom_site_fract_y
_atom_site_fract_z
Si Si1 0.683241 0.603739 0.826559
Si Si2 0.530148 0.662153 0.763553
Si Si3 0.000154 0.206945 0.158065
Si Si4 0.051707 0.307970 0.897935
Si Si5 0.157813 0.997420 0.080169
Si Si6 0.036995 0.517421 0.158983
Si Si7 0.857269 0.109805 0.700329
Si Si8 0.407813 0.856501 0.193998
O O1 0.608492 0.641576 0.810393
O O2 0.761744 0.708299 0.976747
O O3 0.897644 0.576028 0.493997
O O4 0.500000 0.500000 0.000000
O O5 0.684867 0.646630 0.407468
O O6 0.291948 0.576240 0.937863
O O7 0.526628 0.777373 0.891236
O O8 0.815455 0.208789 0.516612
O O9 0.969641 0.085456 0.005953
O O10 0.958715 0.236418 0.072728
O O11 0.947204 0.235589 0.781438
O O12 0.965174 0.400214 0.165039
O O13 0.175053 0.954095 0.178928
O O14 0.037019 0.080364 0.336303
O O15 0.418763 0.058925 0.796275
O O16 0.000000 0.500000 0.000000
O O17 0.643737 0.088205 0.828144
#
# Coordination Sequence:
#
# PCOD8022242 Si02
#       8
#     2   2   2   2   2   2   2   2
#     4  12  28  48  69 103 140 180 226 286 348 398
#     4  12  25  45  71  98 140 183 229 280 338 408
#     4  11  26  45  66 103 138 177 225 285 343 400
#     4  11  23  44  69  98 138 180 234 279 337 405
#     4  10  23  45  72  97 137 179 228 278 338 404
#     4  12  25  44  73 100 132 182 233 282 333 411
#     4  10  22  45  69 102 133 178 230 282 329 409
#     4  12  23  43  71 100 140 178 223 285 345 396
#
# _framework density 22.822510999999999
#
# number of rings (size 3 to 8) (size 9 to 14) (size 15 to 20)
#    0.000    0.750    3.750    3.375    3.500    1.500 
#    2.250    0.000    0.000    0.000    0.000    0.000 
#    0.000    0.000    0.000    0.000    0.000    0.000 
#
# Total GULP energy -198234.098553 kJ/mol
# GULP energy per Si atom -12389.631160 kJ/mol
# Density = 2.277057 g / cm^3
# Si number density = 22.822511 Si / 1000 Ang^3
#
#
#
# Elastic Constant Matrix: (Units=GPa)
#
#
# Indices 1 2 3 4 5 6 
#
# 1 86.1231 39.3979 38.7299 15.6817 -9.6031 11.0597
# 2 39.3979 115.3893 21.5390 10.1862 -12.9692 26.9422
# 3 38.7299 21.5390 61.9236 10.4509 -8.1830 0.3821
# 4 15.6817 10.1862 10.4509 35.6057 -5.9377 1.5585
# 5 -9.6031 -12.9692 -8.1830 -5.9377 33.9037 -2.2150
# 6 11.0597 26.9422 0.3821 1.5585 -2.2150 48.3003
#
#
#
# Elastic Compliance Matrix: (Units=1/GPa)
#
#
# Indices 1 2 3 4 5 6 
#
# 1 0.018711 -0.003683 -0.009613 -0.004160 0.000712 -0.001987
# 2 -0.003683 0.011839 -0.001309 -0.000688 0.002683 -0.005605
# 3 -0.009613 -0.001309 0.023225 -0.001964 0.002228 0.002913
# 4 -0.004160 -0.000688 -0.001964 0.031268 0.003594 0.000508
# 5 0.000712 0.002683 0.002228 0.003594 0.031869 -0.000332
# 6 -0.001987 -0.005605 0.002913 0.000508 -0.000332 0.024231
#
#
# Mechanical properties :
#
#
# Convention : Reuss Voigt Hill
#
# Bulk Modulus (GPa) = 40.70972 51.41883 46.06428
# Shear Modulus (GPa) = 28.00453 34.47990 31.24221
#
# Velocity S-wave (km/s) = 3.50674 3.89110 3.70391
# Velocity P-wave (km/s) = 5.85428 6.53960 6.20640
#
# Compressibility (1/GPa) = 0.02456416
#
# Stress axis : x y z
#
# Youngs Moduli (GPa) = 53.44354 84.46510 43.05703
#
# Poissons Ratio (x) = 0.31108 0.41393
# Poissons Ratio (y) = 0.19683 0.05638
# Poissons Ratio (z) = 0.51378 0.11059
#
# Static dielectric constant tensor:
#      x y z
#    x 4.016700 0.147500 0.005840 
#    y 0.147500 4.419680 0.095990 
#    z 0.005840 0.095990 4.017570 
# 
# 
# High freq. dielectric constant tensor:
#      x y z
#    x 1.898490 0.005650 -0.001650 
#    y 0.005650 1.926780 0.003570 
#    z -0.001650 0.003570 1.888730 
# 
# From -- ./inp_files/46764.got.cif
#   From: 2010.06.25/outbox.cif.g09.slc.cpg/sg2_24_cif.got.tgz:46764.got - 2010.06.27 13:26:56.
