data_PCOD8022817
_publ_section_title
;
Structure prediction by ZEFSAII (Michael W. Deem and Ramdas Pophale) SiO2 
 PCOD8022817
Probable space group: P -1
;
_chemical_formula_sum "Si O2"
_cell_formula_units_Z 14
_cell_length_a 10.900408
_cell_length_b 11.563477
_cell_length_c 14.270428
_cell_angle_alpha 31.861224
_cell_angle_beta 49.127232
_cell_angle_gamma 40.555343
_cell_volume 617.124833
_symmetry_space_group_name_H-M "P -1"
_symmetry_group_IT_number 2
_symmetry_cell_setting 'triclinic'
loop_
_space_group_symop_operation_xyz
x,y,z
-x,-y,-z
loop_
_atom_site_type_symbol
_atom_site_label
_atom_site_fract_x
_atom_site_fract_y
_atom_site_fract_z
Si Si1 0.947262 0.858493 0.702253
Si Si2 0.664588 0.363723 0.587482
Si Si3 0.626011 0.126592 0.118353
Si Si4 0.067556 0.429301 0.621171
Si Si5 0.948757 0.360498 0.009260
Si Si6 0.279968 0.473385 0.158571
Si Si7 0.371746 0.938633 0.044679
O O1 0.095715 0.705158 0.819211
O O2 0.769296 0.077764 0.693201
O O3 0.000000 0.000000 0.500000
O O4 0.908844 0.649543 0.820340
O O5 0.500000 0.500000 0.500000
O O6 0.797022 0.481361 0.460034
O O7 0.595707 0.332432 0.746151
O O8 0.463159 0.199258 0.228301
O O9 0.819269 0.875837 0.224317
O O10 0.662118 0.359609 0.922918
O O11 0.556155 0.088611 0.078822
O O12 0.000000 0.500000 0.500000
O O13 0.878014 0.561539 0.686962
O O14 0.155713 0.165904 0.000927
O O15 0.799525 0.360963 0.011667
O O16 0.500000 0.000000 0.000000
#
# Coordination Sequence:
#
# PCOD8022817 Si02
#       7
#     2   2   2   2   2   2   2
#     4  10  23  39  63  98 140 182 233 293 351 428
#     4  11  26  43  67 105 141 184 236 296 370 423
#     4  11  26  45  73 102 139 186 241 297 349 443
#     4  12  26  46  74 102 146 187 237 303 362 435
#     4  10  23  41  67  99 137 187 237 288 361 426
#     4  11  25  46  72 102 137 189 243 287 369 427
#     4  11  24  44  71  99 139 189 239 293 360 433
#
# _framework density 22.685846999999999
#
# number of rings (size 3 to 8) (size 9 to 14) (size 15 to 20)
#    0.000    1.143    1.429    3.000   14.000    0.571 
#    0.000    0.000    0.000    0.000    0.000    0.000 
#    0.000    0.000    0.000    0.000    0.000    0.000 
#
# Total GULP energy -173443.326490 kJ/mol
# GULP energy per Si atom -12388.809035 kJ/mol
# Density = 2.263421 g / cm^3
# Si number density = 22.685847 Si / 1000 Ang^3
#
#
#
# Elastic Constant Matrix: (Units=GPa)
#
#
# Indices 1 2 3 4 5 6 
#
# 1 127.4745 34.3685 31.5630 7.2188 4.7437 10.2954
# 2 34.3685 114.4428 45.3265 4.6086 0.3191 5.8446
# 3 31.5630 45.3265 126.0837 10.2856 8.1321 7.6352
# 4 7.2188 4.6086 10.2856 37.8784 0.9024 -1.2676
# 5 4.7437 0.3191 8.1321 0.9024 39.4614 6.3109
# 6 10.2954 5.8446 7.6352 -1.2676 6.3109 32.4393
#
#
#
# Elastic Compliance Matrix: (Units=1/GPa)
#
#
# Indices 1 2 3 4 5 6 
#
# 1 0.008961 -0.002035 -0.001258 -0.001180 -0.000432 -0.002143
# 2 -0.002035 0.010713 -0.003359 -0.000049 0.000960 -0.000683
# 3 -0.001258 -0.003359 0.009786 -0.002006 -0.001623 -0.001062
# 4 -0.001180 -0.000049 -0.002006 0.027252 -0.000387 0.001996
# 5 -0.000432 0.000960 -0.001623 -0.000387 0.026500 -0.004825
# 6 -0.002143 -0.000683 -0.001062 0.001996 -0.004825 0.032897
#
#
# Mechanical properties :
#
#
# Convention : Reuss Voigt Hill
#
# Bulk Modulus (GPa) = 61.88872 65.61302 63.75087
# Shear Modulus (GPa) = 37.09276 39.07200 38.08238
#
# Velocity S-wave (km/s) = 4.04798 4.15457 4.10162
# Velocity P-wave (km/s) = 7.01343 7.21105 7.11292
#
# Compressibility (1/GPa) = 0.01615803
#
# Stress axis : x y z
#
# Youngs Moduli (GPa) = 111.59828 93.34077 102.18556
#
# Poissons Ratio (x) = 0.18992 0.12853
# Poissons Ratio (y) = 0.22706 0.34321
# Poissons Ratio (z) = 0.14037 0.31350
#
# Static dielectric constant tensor:
#      x y z
#    x 4.116840 0.237630 0.108100 
#    y 0.237630 4.402430 0.192920 
#    z 0.108100 0.192920 4.339140 
# 
# 
# High freq. dielectric constant tensor:
#      x y z
#    x 1.906170 0.011040 0.012400 
#    y 0.011040 1.902240 -0.002080 
#    z 0.012400 -0.002080 1.888640 
# 
# From -- ./inp_files/518534.got.cif
#   From: 2010.06.25/outbox.cif.g09.slc.cpg/sg2_260_cif.got.tgz:518534.got - 2010.06.27 13:26:56.
