data_PCOD8022470
_publ_section_title
;
Structure prediction by ZEFSAII (Michael W. Deem and Ramdas Pophale) SiO2 
 PCOD8022470
Probable space group: P -1
;
_chemical_formula_sum "Si O2"
_cell_formula_units_Z 16
_cell_length_a 20.806519
_cell_length_b 8.884058
_cell_length_c 18.878971
_cell_angle_alpha 36.276727
_cell_angle_beta 20.983315
_cell_angle_gamma 36.068585
_cell_volume 713.483822
_symmetry_space_group_name_H-M "P -1"
_symmetry_group_IT_number 2
_symmetry_cell_setting 'triclinic'
loop_
_space_group_symop_operation_xyz
x,y,z
-x,-y,-z
loop_
_atom_site_type_symbol
_atom_site_label
_atom_site_fract_x
_atom_site_fract_y
_atom_site_fract_z
Si Si1 0.913576 0.722735 0.061064
Si Si2 0.240859 0.321641 0.133195
Si Si3 0.771098 0.508225 0.074472
Si Si4 0.356451 0.754138 0.198856
Si Si5 0.945163 0.216745 0.757761
Si Si6 0.506408 0.826854 0.489958
Si Si7 0.667657 0.097163 0.991758
Si Si8 0.665485 0.786728 0.603754
O O1 0.716699 0.688729 0.302970
O O2 0.000000 0.500000 0.000000
O O3 0.051762 0.695334 0.995817
O O4 0.880247 0.015442 0.953157
O O5 0.119891 0.488080 0.256710
O O6 0.219446 0.021009 0.271190
O O7 0.172709 0.457574 0.076957
O O8 0.455495 0.318644 0.922064
O O9 0.588034 0.405094 0.307183
O O10 0.725407 0.782753 0.059773
O O11 0.401298 0.813238 0.049355
O O12 0.266284 0.506845 0.389884
O O13 0.846991 0.204163 0.787756
O O14 0.168232 0.144295 0.548822
O O15 0.500000 0.000000 0.500000
O O16 0.393952 0.999707 0.476958
O O17 0.501679 0.220925 0.169203
#
# Coordination Sequence:
#
# PCOD8022470 Si02
#       8
#     2   2   2   2   2   2   2   2
#     4  12  24  42  67  98 141 177 216 276 327 399
#     4  10  23  44  68  95 130 172 220 277 324 395
#     4  11  24  42  70  98 133 175 218 265 337 395
#     4  10  22  46  69  89 130 176 219 273 334 376
#     4  12  24  40  66  98 131 168 221 267 332 387
#     4  12  26  41  68 101 137 177 222 268 336 405
#     4  11  24  44  67  96 131 173 218 275 326 394
#     4  12  24  40  68  95 131 172 221 269 329 392
#
# _framework density 22.425176
#
# number of rings (size 3 to 8) (size 9 to 14) (size 15 to 20)
#    0.000    0.750    5.000    1.875    3.500    3.000 
#    0.000    0.000    0.000    0.000    0.000    0.000 
#    0.000    0.000    0.000    0.000    0.000    0.000 
#
# Total GULP energy -198475.739588 kJ/mol
# GULP energy per Si atom -12404.733724 kJ/mol
# Density = 2.237414 g / cm^3
# Si number density = 22.425176 Si / 1000 Ang^3
#
#
#
# Elastic Constant Matrix: (Units=GPa)
#
#
# Indices 1 2 3 4 5 6 
#
# 1 106.1874 24.5645 15.3499 12.6942 -18.0390 6.7797
# 2 24.5645 103.9129 17.6740 5.3725 -2.1196 19.0139
# 3 15.3499 17.6740 73.2428 7.2491 -29.3493 7.5936
# 4 12.6942 5.3725 7.2491 23.0925 1.0512 -3.5012
# 5 -18.0390 -2.1196 -29.3493 1.0512 34.2560 -3.0477
# 6 6.7797 19.0139 7.5936 -3.5012 -3.0477 38.6821
#
#
#
# Elastic Compliance Matrix: (Units=1/GPa)
#
#
# Indices 1 2 3 4 5 6 
#
# 1 0.012006 -0.002419 0.002203 -0.007308 0.008163 -0.001366
# 2 -0.002419 0.011632 -0.003150 -0.000987 -0.003672 -0.005054
# 3 0.002203 -0.003150 0.023682 -0.009284 0.021305 -0.002649
# 4 -0.007308 -0.000987 -0.009284 0.052155 -0.012815 0.007300
# 5 0.008163 -0.003672 0.021305 -0.012815 0.051831 -0.000884
# 6 -0.001366 -0.005054 -0.002649 0.007300 -0.000884 0.029686
#
#
# Mechanical properties :
#
#
# Convention : Reuss Voigt Hill
#
# Bulk Modulus (GPa) = 24.63656 44.27999 34.45828
# Shear Modulus (GPa) = 24.84451 34.25642 29.55046
#
# Velocity S-wave (km/s) = 3.33210 3.91268 3.63400
# Velocity P-wave (km/s) = 5.08073 6.34039 5.74519
#
# Compressibility (1/GPa) = 0.04059009
#
# Stress axis : x y z
#
# Youngs Moduli (GPa) = 83.29283 85.97129 42.22628
#
# Poissons Ratio (x) = 0.20793 -0.09304
# Poissons Ratio (y) = 0.20145 0.13300
# Poissons Ratio (z) = -0.18353 0.27077
#
# Static dielectric constant tensor:
#      x y z
#    x 4.271470 0.002480 -0.268860 
#    y 0.002480 4.316540 -0.159190 
#    z -0.268860 -0.159190 3.793960 
# 
# 
# High freq. dielectric constant tensor:
#      x y z
#    x 1.901140 -0.002850 -0.016070 
#    y -0.002850 1.898570 -0.007040 
#    z -0.016070 -0.007040 1.859310 
# 
# From -- ./inp_files/242141.got.cif
#   From: 2010.06.25/outbox.cif.g09.slc.cpg/sg2_122_cif.got.tgz:242141.got - 2010.06.27 13:26:56.
