data_PCOD8022567
_publ_section_title
;
Structure prediction by ZEFSAII (Michael W. Deem and Ramdas Pophale) SiO2 
 PCOD8022567
Probable space group: P -1
;
_chemical_formula_sum "Si O2"
_cell_formula_units_Z 14
_cell_length_a 11.482743
_cell_length_b 6.336826
_cell_length_c 11.357921
_cell_angle_alpha 112.862968
_cell_angle_beta 129.968297
_cell_angle_gamma 70.899520
_cell_volume 580.090736
_symmetry_space_group_name_H-M "P -1"
_symmetry_group_IT_number 2
_symmetry_cell_setting 'triclinic'
loop_
_space_group_symop_operation_xyz
x,y,z
-x,-y,-z
loop_
_atom_site_type_symbol
_atom_site_label
_atom_site_fract_x
_atom_site_fract_y
_atom_site_fract_z
Si Si1 0.724253 0.192182 0.609356
Si Si2 0.525915 0.943694 0.270595
Si Si3 0.901028 0.853052 0.819955
Si Si4 0.761386 0.312695 0.984308
Si Si5 0.310767 0.356532 0.185440
Si Si6 0.888563 0.410109 0.559574
Si Si7 0.779754 0.576916 0.283471
O O1 0.644128 0.438018 0.656178
O O2 0.823457 0.226551 0.563650
O O3 0.600843 0.017534 0.458214
O O4 0.831658 0.089038 0.762820
O O5 0.646986 0.789495 0.235448
O O6 0.462503 0.182652 0.215511
O O7 0.385605 0.801212 0.181465
O O8 0.806457 0.792803 0.859394
O O9 0.900263 0.652892 0.681134
O O10 0.082149 0.862252 0.974596
O O11 0.746091 0.381557 0.125742
O O12 0.768491 0.547229 0.965772
O O13 0.780267 0.453722 0.384505
O O14 0.060995 0.315966 0.612497
#
# Coordination Sequence:
#
# PCOD8022567 Si02
#       7
#     2   2   2   2   2   2   2
#     4  11  24  45  74  99 131 176 234 281 328 393
#     4  12  26  43  67 105 139 177 220 277 345 397
#     4  10  22  47  73  99 130 177 234 278 329 395
#     4  11  26  45  69 101 141 178 216 282 339 403
#     4  11  26  43  69 100 137 180 226 275 334 400
#     4   9  21  44  73 101 129 174 231 282 324 393
#     4  10  22  47  69  99 139 174 226 276 331 407
#
# _framework density 24.134155
#
# number of rings (size 3 to 8) (size 9 to 14) (size 15 to 20)
#    0.000    1.429    1.429    2.143    2.000    9.143 
#    2.571    0.000    0.000    0.000    0.000    0.000 
#    0.000    0.000    0.000    0.000    0.000    0.000 
#
# Total GULP energy -173662.276951 kJ/mol
# GULP energy per Si atom -12404.448354 kJ/mol
# Density = 2.407922 g / cm^3
# Si number density = 24.134155 Si / 1000 Ang^3
#
#
#
# Elastic Constant Matrix: (Units=GPa)
#
#
# Indices 1 2 3 4 5 6 
#
# 1 114.1808 77.9032 56.6312 -10.5022 3.8315 -13.0220
# 2 77.9032 153.8906 61.4627 -22.3940 9.8533 -18.0339
# 3 56.6312 61.4627 157.7159 -2.5947 8.6188 10.5497
# 4 -10.5022 -22.3940 -2.5947 43.5064 3.2206 1.2774
# 5 3.8315 9.8533 8.6188 3.2206 33.9877 -10.8360
# 6 -13.0220 -18.0339 10.5497 1.2774 -10.8360 56.9568
#
#
#
# Elastic Compliance Matrix: (Units=1/GPa)
#
#
# Indices 1 2 3 4 5 6 
#
# 1 0.014609 -0.005943 -0.003174 0.000089 0.001623 0.002353
# 2 -0.005943 0.011444 -0.002309 0.004382 -0.001757 0.002260
# 3 -0.003174 -0.002309 0.008711 -0.001173 -0.002173 -0.003457
# 4 0.000089 0.004382 -0.001173 0.025420 -0.003253 0.000436
# 5 0.001623 -0.001757 -0.002173 -0.003253 0.032683 0.006508
# 6 0.002353 0.002260 -0.003457 0.000436 0.006508 0.020679
#
#
# Mechanical properties :
#
#
# Convention : Reuss Voigt Hill
#
# Bulk Modulus (GPa) = 83.95224 90.86461 87.40843
# Shear Modulus (GPa) = 35.62042 42.20954 38.91498
#
# Velocity S-wave (km/s) = 3.84596 4.18659 4.01988
# Velocity P-wave (km/s) = 7.38803 7.81675 7.60541
#
# Compressibility (1/GPa) = 0.01191153
#
# Stress axis : x y z
#
# Youngs Moduli (GPa) = 68.44934 87.38494 114.80020
#
# Poissons Ratio (x) = 0.51933 0.36442
# Poissons Ratio (y) = 0.40679 0.26504
# Poissons Ratio (z) = 0.21729 0.20175
#
# Static dielectric constant tensor:
#      x y z
#    x 4.389530 -0.308770 0.072350 
#    y -0.308770 4.415140 -0.028630 
#    z 0.072350 -0.028630 4.444820 
# 
# 
# High freq. dielectric constant tensor:
#      x y z
#    x 1.955210 -0.017840 -0.002500 
#    y -0.017840 1.966220 0.007040 
#    z -0.002500 0.007040 1.973220 
# 
# From -- ./inp_files/68623.got.cif
#   From: 2010.06.25/outbox.cif.g09.slc.cpg/sg2_35_cif.got.tgz:68623.got - 2010.06.27 13:26:56.
