data_PCOD8022295
_publ_section_title
;
Structure prediction by ZEFSAII (Michael W. Deem and Ramdas Pophale) SiO2 
 PCOD8022295
Probable space group: P -1
;
_chemical_formula_sum "Si O2"
_cell_formula_units_Z 14
_cell_length_a 11.773322
_cell_length_b 12.131425
_cell_length_c 12.303053
_cell_angle_alpha 142.711115
_cell_angle_beta 42.351529
_cell_angle_gamma 140.304845
_cell_volume 642.371370
_symmetry_space_group_name_H-M "P -1"
_symmetry_group_IT_number 2
_symmetry_cell_setting 'triclinic'
loop_
_space_group_symop_operation_xyz
x,y,z
-x,-y,-z
loop_
_atom_site_type_symbol
_atom_site_label
_atom_site_fract_x
_atom_site_fract_y
_atom_site_fract_z
Si Si1 0.222941 0.443520 0.848710
Si Si2 0.501515 0.247318 0.867561
Si Si3 0.485953 0.368322 0.741771
Si Si4 0.323360 0.777459 0.686276
Si Si5 0.122703 0.208036 0.520463
Si Si6 0.501988 0.205755 0.194150
Si Si7 0.057740 0.542801 0.233050
O O1 0.289861 0.303685 0.764569
O O2 0.172536 0.370056 0.706156
O O3 0.400180 0.659920 0.874578
O O4 0.060228 0.474042 0.051510
O O5 0.439476 0.225860 0.768905
O O6 0.730680 0.363220 0.796487
O O7 0.408447 0.021413 0.806978
O O8 0.428016 0.392978 0.096293
O O9 0.625495 0.324323 0.531410
O O10 0.401636 0.722344 0.698877
O O11 0.094092 0.662155 0.760474
O O12 0.296981 0.196234 0.331248
O O13 0.009245 0.278577 0.570217
O O14 0.000000 0.000000 0.500000
O O15 0.500000 0.000000 0.000000
#
# Coordination Sequence:
#
# PCOD8022295 Si02
#       7
#     2   2   2   2   2   2   2
#     4  11  22  43  61  94 132 168 214 267 330 391
#     4  10  24  47  68  95 132 175 223 278 329 385
#     4  10  22  45  70  92 132 176 225 272 326 400
#     4  12  23  43  68  96 132 176 220 271 336 387
#     4  12  23  38  62  96 132 167 216 269 329 390
#     4  12  24  40  65  93 133 177 214 264 333 398
#     4  11  25  41  65 100 131 169 222 274 323 398
#
# _framework density 21.794246999999999
#
# number of rings (size 3 to 8) (size 9 to 14) (size 15 to 20)
#    0.000    0.857    2.857    5.571    2.000    0.571 
#    0.000    6.429    0.000    0.000    0.000    0.000 
#    0.000    0.000    0.000    0.000    0.000    0.000 
#
# Total GULP energy -173493.593911 kJ/mol
# GULP energy per Si atom -12392.399565 kJ/mol
# Density = 2.174464 g / cm^3
# Si number density = 21.794247 Si / 1000 Ang^3
#
#
#
# Elastic Constant Matrix: (Units=GPa)
#
#
# Indices 1 2 3 4 5 6 
#
# 1 52.8463 17.5704 13.1145 1.9260 -8.2323 -12.7312
# 2 17.5704 132.2718 42.9962 -5.6807 -19.5092 4.4869
# 3 13.1145 42.9962 148.9375 -7.7709 -9.3845 -0.7983
# 4 1.9260 -5.6807 -7.7709 30.5061 -2.2397 -0.3528
# 5 -8.2323 -19.5092 -9.3845 -2.2397 32.9349 -4.0161
# 6 -12.7312 4.4869 -0.7983 -0.3528 -4.0161 27.9721
#
#
#
# Elastic Compliance Matrix: (Units=1/GPa)
#
#
# Indices 1 2 3 4 5 6 
#
# 1 0.023820 -0.002485 -0.001056 -0.001691 0.005527 0.011982
# 2 -0.002485 0.009340 -0.002141 0.001632 0.004160 -0.002072
# 3 -0.001056 -0.002141 0.007561 0.001652 0.000760 0.000209
# 4 -0.001691 0.001632 0.001652 0.033854 0.003307 -0.000083
# 5 0.005527 0.004160 0.000760 0.003307 0.035505 0.007009
# 6 0.011982 -0.002072 0.000209 -0.000083 0.007009 0.042547
#
#
# Mechanical properties :
#
#
# Convention : Reuss Voigt Hill
#
# Bulk Modulus (GPa) = 34.06352 53.49086 43.77719
# Shear Modulus (GPa) = 28.77255 35.64091 32.20673
#
# Velocity S-wave (km/s) = 3.63738 4.04832 3.84834
# Velocity P-wave (km/s) = 5.77099 6.81533 6.31478
#
# Compressibility (1/GPa) = 0.02935692
#
# Stress axis : x y z
#
# Youngs Moduli (GPa) = 41.98098 107.06296 132.26477
#
# Poissons Ratio (x) = 0.26603 0.13966
# Poissons Ratio (y) = 0.10431 0.28324
# Poissons Ratio (z) = 0.04433 0.22927
#
# Static dielectric constant tensor:
#      x y z
#    x 4.084740 -0.172620 0.053380 
#    y -0.172620 3.789100 -0.058840 
#    z 0.053380 -0.058840 4.143410 
# 
# 
# High freq. dielectric constant tensor:
#      x y z
#    x 1.849340 -0.014310 -0.003320 
#    y -0.014310 1.851780 -0.000580 
#    z -0.003320 -0.000580 1.872360 
# 
# From -- ./inp_files/180902.got.cif
#   From: 2010.06.25/outbox.cif.g09.slc.cpg/sg2_91_cif.got.tgz:180902.got - 2010.06.27 13:26:56.
