data_PCOD8022160
_publ_section_title
;
Structure prediction by ZEFSAII (Michael W. Deem and Ramdas Pophale) SiO2 
 PCOD8022160
Probable space group: P -1
;
_chemical_formula_sum "Si O2"
_cell_formula_units_Z 16
_cell_length_a 8.836844
_cell_length_b 12.244495
_cell_length_c 9.211201
_cell_angle_alpha 121.312056
_cell_angle_beta 116.801006
_cell_angle_gamma 57.398238
_cell_volume 696.831418
_symmetry_space_group_name_H-M "P -1"
_symmetry_group_IT_number 2
_symmetry_cell_setting 'triclinic'
loop_
_space_group_symop_operation_xyz
x,y,z
-x,-y,-z
loop_
_atom_site_type_symbol
_atom_site_label
_atom_site_fract_x
_atom_site_fract_y
_atom_site_fract_z
Si Si1 0.008438 0.470762 0.812527
Si Si2 0.663471 0.728936 0.778201
Si Si3 0.089067 0.779595 0.464621
Si Si4 0.421123 0.764833 0.424547
Si Si5 0.331948 0.744794 0.806697
Si Si6 0.156056 0.978132 0.277016
Si Si7 0.845224 0.933296 0.972166
Si Si8 0.347092 0.503985 0.829332
O O1 0.834749 0.581881 0.725634
O O2 0.020795 0.316031 0.685369
O O3 0.188768 0.476216 0.823449
O O4 0.000000 0.500000 0.000000
O O5 0.527766 0.794979 0.627695
O O6 0.550847 0.699317 0.842429
O O7 0.743018 0.843407 0.936920
O O8 0.208478 0.786886 0.381796
O O9 0.246186 0.708290 0.601582
O O10 0.943942 0.929120 0.561756
O O11 0.368770 0.878332 0.347553
O O12 0.556336 0.610704 0.330809
O O13 0.275139 0.659768 0.843963
O O14 0.257532 0.905290 0.923932
O O15 0.152172 0.082304 0.213758
O O16 0.047132 0.886021 0.102068
O O17 0.500000 0.500000 0.000000
#
# Coordination Sequence:
#
# PCOD8022160 Si02
#       8
#     2   2   2   2   2   2   2   2
#     4  12  28  45  69 101 132 176 229 284 337 406
#     4  11  25  43  69 102 136 178 226 279 338 401
#     4  10  23  44  69  97 135 178 226 273 339 399
#     4  11  24  44  69 102 140 179 222 281 339 398
#     4  10  22  45  67 100 138 178 221 277 336 397
#     4  10  23  42  69 100 138 182 225 278 333 398
#     4  10  23  40  71 100 137 182 229 274 330 399
#     4  12  26  43  70  96 135 178 226 281 342 398
#
# _framework density 22.961078000000001
#
# number of rings (size 3 to 8) (size 9 to 14) (size 15 to 20)
#    0.000    1.250    0.000    4.500   10.500    3.500 
#    4.500    0.000    0.000    0.000    0.000    0.000 
#    0.000    0.000    0.000    0.000    0.000    0.000 
#
# Total GULP energy -198307.398387 kJ/mol
# GULP energy per Si atom -12394.212399 kJ/mol
# Density = 2.290882 g / cm^3
# Si number density = 22.961078 Si / 1000 Ang^3
#
#
#
# Elastic Constant Matrix: (Units=GPa)
#
#
# Indices 1 2 3 4 5 6 
#
# 1 125.6582 17.8426 33.7759 10.2011 6.9858 7.2257
# 2 17.8426 93.0076 29.1230 -6.0381 8.5678 -5.5012
# 3 33.7759 29.1230 84.4785 5.7243 -0.7464 4.6172
# 4 10.2011 -6.0381 5.7243 39.6146 -2.9763 5.8277
# 5 6.9858 8.5678 -0.7464 -2.9763 37.2982 4.7694
# 6 7.2257 -5.5012 4.6172 5.8277 4.7694 38.7206
#
#
#
# Elastic Compliance Matrix: (Units=1/GPa)
#
#
# Indices 1 2 3 4 5 6 
#
# 1 0.009255 -0.000791 -0.003254 -0.002019 -0.001657 -0.000943
# 2 -0.000791 0.012866 -0.004435 0.002202 -0.003046 0.002548
# 3 -0.003254 -0.004435 0.014891 -0.001570 0.002033 -0.001812
# 4 -0.002019 0.002202 -0.001570 0.027023 0.002444 -0.003491
# 5 -0.001657 -0.003046 0.002033 0.002444 0.028601 -0.004257
# 6 -0.000943 0.002548 -0.001812 -0.003491 -0.004257 0.027630
#
#
# Mechanical properties :
#
#
# Convention : Reuss Voigt Hill
#
# Bulk Modulus (GPa) = 49.86754 51.62525 50.74639
# Shear Modulus (GPa) = 34.74386 37.95354 36.34870
#
# Velocity S-wave (km/s) = 3.89416 4.07006 3.98308
# Velocity P-wave (km/s) = 6.47956 6.67981 6.58045
#
# Compressibility (1/GPa) = 0.02005313
#
# Stress axis : x y z
#
# Youngs Moduli (GPa) = 108.04521 77.72147 67.15635
#
# Poissons Ratio (x) = 0.06147 0.21853
# Poissons Ratio (y) = 0.08545 0.29782
# Poissons Ratio (z) = 0.35159 0.34468
#
# Static dielectric constant tensor:
#      x y z
#    x 4.242810 -0.127400 0.011010 
#    y -0.127400 3.854060 -0.137650 
#    z 0.011010 -0.137650 4.108260 
# 
# 
# High freq. dielectric constant tensor:
#      x y z
#    x 1.908920 -0.003700 -0.001520 
#    y -0.003700 1.909230 -0.005780 
#    z -0.001520 -0.005780 1.909360 
# 
# From -- ./inp_files/169925.got.cif
#   From: 2010.06.25/outbox.cif.g09.slc.cpg/sg2_85_cif.got.tgz:169925.got - 2010.06.27 13:26:56.
