data_PCOD8022905
_publ_section_title
;
Structure prediction by ZEFSAII (Michael W. Deem and Ramdas Pophale) SiO2 
 PCOD8022905
Probable space group: P -1
;
_chemical_formula_sum "Si O2"
_cell_formula_units_Z 16
_cell_length_a 17.541022
_cell_length_b 12.270889
_cell_length_c 14.506390
_cell_angle_alpha 151.599193
_cell_angle_beta 33.306337
_cell_angle_gamma 128.672197
_cell_volume 739.226767
_symmetry_space_group_name_H-M "P -1"
_symmetry_group_IT_number 2
_symmetry_cell_setting 'triclinic'
loop_
_space_group_symop_operation_xyz
x,y,z
-x,-y,-z
loop_
_atom_site_type_symbol
_atom_site_label
_atom_site_fract_x
_atom_site_fract_y
_atom_site_fract_z
Si Si1 0.160625 0.342498 0.882377
Si Si2 0.487559 0.542633 0.152959
Si Si3 0.240292 0.654493 0.890785
Si Si4 0.186837 0.493451 0.165709
Si Si5 0.957381 0.048079 0.844756
Si Si6 0.270101 0.004966 0.825716
Si Si7 0.502345 0.971120 0.234400
Si Si8 0.509004 0.202962 0.211039
O O1 0.147575 0.536935 0.958270
O O2 0.030191 0.246032 0.929407
O O3 0.325225 0.106202 0.542278
O O4 0.126655 0.492135 0.123294
O O5 0.346573 0.803423 0.516852
O O6 0.500000 0.500000 0.000000
O O7 0.638555 0.548058 0.046886
O O8 0.460373 0.309677 0.048896
O O9 0.348453 0.450270 0.554260
O O10 0.347338 0.731806 0.909400
O O11 0.123941 0.896683 0.132180
O O12 0.082940 0.762898 0.514644
O O13 0.170605 0.275498 0.081150
O O14 0.836608 0.089987 0.079262
O O15 0.398292 0.031945 0.779959
O O16 0.540669 0.110441 0.215546
O O17 0.500000 0.000000 0.000000
#
# Coordination Sequence:
#
# PCOD8022905 Si02
#       8
#     2   2   2   2   2   2   2   2
#     4  11  25  44  70  98 141 186 230 284 348 413
#     4  12  24  42  75 101 134 182 239 280 345 413
#     4  10  24  44  67 103 139 182 232 288 341 418
#     4  12  26  44  69 101 140 186 234 284 346 419
#     4  12  27  46  67 102 147 182 227 287 357 411
#     4  12  26  45  73 102 141 179 239 294 337 408
#     4  11  22  42  70 102 134 183 230 289 342 410
#     4  10  23  39  72 104 138 173 236 288 345 401
#
# _framework density 21.644237
#
# number of rings (size 3 to 8) (size 9 to 14) (size 15 to 20)
#    0.000    0.750    5.000    1.875    3.500    3.000 
#    0.000    0.000    0.000    0.000    0.000    0.000 
#    0.000    0.000    0.000    0.000    0.000    0.000 
#
# Total GULP energy -198476.970808 kJ/mol
# GULP energy per Si atom -12404.810676 kJ/mol
# Density = 2.159497 g / cm^3
# Si number density = 21.644237 Si / 1000 Ang^3
#
#
#
# Elastic Constant Matrix: (Units=GPa)
#
#
# Indices 1 2 3 4 5 6 
#
# 1 90.2315 39.2683 35.2435 -6.6170 12.1413 4.6023
# 2 39.2683 147.0912 46.5283 -2.8531 -2.5989 8.2418
# 3 35.2435 46.5283 84.5986 9.0830 3.1871 -3.1271
# 4 -6.6170 -2.8531 9.0830 34.8563 3.4664 -4.0742
# 5 12.1413 -2.5989 3.1871 3.4664 32.9757 8.1236
# 6 4.6023 8.2418 -3.1271 -4.0742 8.1236 38.9696
#
#
#
# Elastic Compliance Matrix: (Units=1/GPa)
#
#
# Indices 1 2 3 4 5 6 
#
# 1 0.015351 -0.002415 -0.005352 0.004685 -0.005810 -0.000031
# 2 -0.002415 0.008965 -0.004197 0.000842 0.002499 -0.002380
# 3 -0.005352 -0.004197 0.017037 -0.005530 0.000006 0.002307
# 4 0.004685 0.000842 -0.005530 0.031998 -0.005294 0.003274
# 5 -0.005810 0.002499 0.000006 -0.005294 0.035118 -0.007716
# 6 -0.000031 -0.002380 0.002307 0.003274 -0.007716 0.028304
#
#
# Mechanical properties :
#
#
# Convention : Reuss Voigt Hill
#
# Bulk Modulus (GPa) = 57.39036 62.66684 60.02860
# Shear Modulus (GPa) = 30.02816 34.75239 32.39028
#
# Velocity S-wave (km/s) = 3.72876 4.01136 3.87264
# Velocity P-wave (km/s) = 6.71648 7.10427 6.91309
#
# Compressibility (1/GPa) = 0.01742453
#
# Stress axis : x y z
#
# Youngs Moduli (GPa) = 65.14154 111.54800 58.69495
#
# Poissons Ratio (x) = 0.26942 0.31414
# Poissons Ratio (y) = 0.15734 0.24634
# Poissons Ratio (z) = 0.34865 0.46815
#
# Static dielectric constant tensor:
#      x y z
#    x 3.766870 0.044190 -0.057400 
#    y 0.044190 4.158470 0.159250 
#    z -0.057400 0.159250 3.897130 
# 
# 
# High freq. dielectric constant tensor:
#      x y z
#    x 1.847920 0.002740 -0.002530 
#    y 0.002740 1.869110 0.010610 
#    z -0.002530 0.010610 1.843350 
# 
# From -- ./inp_files/226018.got.cif
#   From: 2010.06.25/outbox.cif.g09.slc.cpg/sg2_114_cif.got.tgz:226018.got - 2010.06.27 13:26:56.
