data_PCOD8022225
_publ_section_title
;
Structure prediction by ZEFSAII (Michael W. Deem and Ramdas Pophale) SiO2 
 PCOD8022225
Probable space group: P -1
;
_chemical_formula_sum "Si O2"
_cell_formula_units_Z 14
_cell_length_a 16.973024
_cell_length_b 8.369794
_cell_length_c 14.201761
_cell_angle_alpha 104.415112
_cell_angle_beta 157.693723
_cell_angle_gamma 63.077320
_cell_volume 590.418726
_symmetry_space_group_name_H-M "P -1"
_symmetry_group_IT_number 2
_symmetry_cell_setting 'triclinic'
loop_
_space_group_symop_operation_xyz
x,y,z
-x,-y,-z
loop_
_atom_site_type_symbol
_atom_site_label
_atom_site_fract_x
_atom_site_fract_y
_atom_site_fract_z
Si Si1 0.509191 0.154265 0.200533
Si Si2 0.666482 0.827743 0.799914
Si Si3 0.011081 0.745440 0.409776
Si Si4 0.459188 0.478322 0.725650
Si Si5 0.784996 0.977948 0.789558
Si Si6 0.131010 0.413654 0.233891
Si Si7 0.052337 0.864479 0.672063
O O1 0.509523 0.053910 0.285931
O O2 0.543418 0.332105 0.283398
O O3 0.755724 0.965517 0.388621
O O4 0.241103 0.252016 0.861472
O O5 0.793944 0.929315 0.904117
O O6 0.503390 0.818501 0.531082
O O7 0.891255 0.601095 0.059305
O O8 0.252331 0.547818 0.591655
O O9 0.114656 0.734264 0.626902
O O10 0.913961 0.956961 0.280519
O O11 0.384604 0.399419 0.541357
O O12 0.746705 0.288297 0.048293
O O13 0.814191 0.805943 0.726211
O O14 0.000000 0.000000 0.000000
O O15 0.000000 0.500000 0.000000
#
# Coordination Sequence:
#
# PCOD8022225 Si02
#       7
#     2   2   2   2   2   2   2
#     4  11  24  40  68  98 141 178 220 281 340 406
#     4  10  23  44  61  97 133 170 223 282 329 401
#     4  10  22  45  68  97 143 176 225 288 336 398
#     4  11  24  42  67 101 134 184 233 276 335 405
#     4  10  24  43  69  95 126 177 228 281 336 397
#     4  10  23  44  64  93 135 175 223 281 332 394
#     4  10  24  42  69 102 134 183 226 279 344 401
#
# _framework density 23.711984000000001
#
# number of rings (size 3 to 8) (size 9 to 14) (size 15 to 20)
#    0.000    1.714    1.429    0.857    6.000    3.429 
#   10.286    0.000    0.000    0.000    0.000    0.000 
#    0.000    0.000    0.000    0.000    0.000    0.000 
#
# Total GULP energy -173499.943766 kJ/mol
# GULP energy per Si atom -12392.853126 kJ/mol
# Density = 2.365801 g / cm^3
# Si number density = 23.711984 Si / 1000 Ang^3
#
#
#
# Elastic Constant Matrix: (Units=GPa)
#
#
# Indices 1 2 3 4 5 6 
#
# 1 103.2864 20.3757 27.4004 10.8964 10.2434 15.2726
# 2 20.3757 71.3071 36.1810 17.9773 4.7149 9.5965
# 3 27.4004 36.1810 142.7133 8.0316 7.6510 16.9916
# 4 10.8964 17.9773 8.0316 39.8818 5.1254 1.9025
# 5 10.2434 4.7149 7.6510 5.1254 46.2261 5.0586
# 6 15.2726 9.5965 16.9916 1.9025 5.0586 20.3006
#
#
#
# Elastic Compliance Matrix: (Units=1/GPa)
#
#
# Indices 1 2 3 4 5 6 
#
# 1 0.011515 -0.001377 -0.000880 -0.001855 -0.001319 -0.006773
# 2 -0.001377 0.018557 -0.003559 -0.007105 0.000244 -0.004152
# 3 -0.000880 -0.003559 0.008654 0.000383 -0.000387 -0.004838
# 4 -0.001855 -0.007105 0.000383 0.028903 -0.002386 0.002320
# 5 -0.001319 0.000244 -0.000387 -0.002386 0.022692 -0.004230
# 6 -0.006773 -0.004152 -0.004838 0.002320 -0.004230 0.061204
#
#
# Mechanical properties :
#
#
# Convention : Reuss Voigt Hill
#
# Bulk Modulus (GPa) = 36.91033 53.91342 45.41187
# Shear Modulus (GPa) = 29.03806 36.83834 32.93820
#
# Velocity S-wave (km/s) = 3.50325 3.94582 3.73110
# Velocity P-wave (km/s) = 5.65363 6.59890 6.14447
#
# Compressibility (1/GPa) = 0.02709269
#
# Stress axis : x y z
#
# Youngs Moduli (GPa) = 86.84320 53.88728 115.55926
#
# Poissons Ratio (x) = 0.07422 0.10171
# Poissons Ratio (y) = 0.11961 0.41128
# Poissons Ratio (z) = 0.07644 0.19179
#
# Static dielectric constant tensor:
#      x y z
#    x 4.413140 -0.556160 0.424730 
#    y -0.556160 4.853710 -0.607010 
#    z 0.424730 -0.607010 4.702470 
# 
# 
# High freq. dielectric constant tensor:
#      x y z
#    x 1.936500 -0.016920 0.003090 
#    y -0.016920 1.924070 -0.007520 
#    z 0.003090 -0.007520 1.957320 
# 
# From -- ./inp_files/537461.got.cif
#   From: 2010.06.25/outbox.cif.g09.slc.cpg/sg2_269_cif.got.tgz:537461.got - 2010.06.27 13:26:56.
