data_PCOD8022375
_publ_section_title
;
Structure prediction by ZEFSAII (Michael W. Deem and Ramdas Pophale) SiO2 
 PCOD8022375
Probable space group: P -1
;
_chemical_formula_sum "Si O2"
_cell_formula_units_Z 16
_cell_length_a 6.715185
_cell_length_b 16.808712
_cell_length_c 10.038149
_cell_angle_alpha 99.463566
_cell_angle_beta 43.541954
_cell_angle_gamma 88.703758
_cell_volume 752.961854
_symmetry_space_group_name_H-M "P -1"
_symmetry_group_IT_number 2
_symmetry_cell_setting 'triclinic'
loop_
_space_group_symop_operation_xyz
x,y,z
-x,-y,-z
loop_
_atom_site_type_symbol
_atom_site_label
_atom_site_fract_x
_atom_site_fract_y
_atom_site_fract_z
Si Si1 0.063439 0.667729 0.311248
Si Si2 0.717429 0.605790 0.077181
Si Si3 0.968033 0.257901 0.941668
Si Si4 0.396931 0.091213 0.733364
Si Si5 0.583707 0.791920 0.713972
Si Si6 0.379279 0.090591 0.028533
Si Si7 0.272097 0.919169 0.693821
Si Si8 0.782580 0.526795 0.308694
O O1 0.390199 0.626481 0.184971
O O2 0.088721 0.711268 0.171609
O O3 0.903963 0.734110 0.515775
O O4 0.867728 0.598610 0.375891
O O5 0.701598 0.557183 0.207453
O O6 0.832198 0.689735 0.062997
O O7 0.935967 0.549412 0.851558
O O8 0.129194 0.162995 0.837817
O O9 0.655859 0.265584 0.170700
O O10 0.657520 0.082906 0.497970
O O11 0.262591 0.009325 0.781828
O O12 0.537659 0.104107 0.814498
O O13 0.582940 0.841060 0.865418
O O14 0.509822 0.853205 0.641628
O O15 0.042442 0.104209 0.147798
O O16 0.500000 0.000000 0.000000
O O17 0.500000 0.500000 0.500000
#
# Coordination Sequence:
#
# PCOD8022375 Si02
#       8
#     2   2   2   2   2   2   2   2
#     4  11  25  42  67 103 134 168 223 265 324 403
#     4  10  24  43  67 101 134 168 212 270 323 393
#     4  11  24  41  65  93 136 175 216 271 336 382
#     4  11  23  44  65  89 131 179 218 285 330 387
#     4  12  25  41  65  98 132 179 226 275 333 393
#     4  12  25  40  65  95 127 173 237 283 331 391
#     4  11  24  44  65  89 132 177 228 279 338 383
#     4  10  22  45  73  97 133 171 210 260 330 394
#
# _framework density 21.249419
#
# number of rings (size 3 to 8) (size 9 to 14) (size 15 to 20)
#    0.000    1.000    3.750    2.250    3.500    2.000 
#    0.000    0.000    0.000    0.000    0.000    0.000 
#    0.000    0.000    0.000    0.000    0.000    0.000 
#
# Total GULP energy -198464.975274 kJ/mol
# GULP energy per Si atom -12404.060955 kJ/mol
# Density = 2.120105 g / cm^3
# Si number density = 21.249419 Si / 1000 Ang^3
#
#
#
# Elastic Constant Matrix: (Units=GPa)
#
#
# Indices 1 2 3 4 5 6 
#
# 1 117.8197 49.3077 53.6911 5.5477 3.2787 -11.5874
# 2 49.3077 108.8929 69.5023 -0.0738 -8.0285 -4.5637
# 3 53.6911 69.5023 97.9703 7.7696 1.0677 1.0544
# 4 5.5477 -0.0738 7.7696 37.1408 -2.2751 -8.4921
# 5 3.2787 -8.0285 1.0677 -2.2751 40.3966 6.5433
# 6 -11.5874 -4.5637 1.0544 -8.4921 6.5433 26.0153
#
#
#
# Elastic Compliance Matrix: (Units=1/GPa)
#
#
# Indices 1 2 3 4 5 6 
#
# 1 0.012485 -0.002083 -0.005450 0.000541 -0.002250 0.006159
# 2 -0.002083 0.018381 -0.012280 0.003858 0.003865 0.003082
# 3 -0.005450 -0.012280 0.022441 -0.005584 -0.001794 -0.006863
# 4 0.000541 0.003858 -0.005584 0.030566 0.000824 0.010914
# 5 -0.002250 0.003865 -0.001794 0.000824 0.026892 -0.006746
# 6 0.006159 0.003082 -0.006863 0.010914 -0.006746 0.047261
#
#
# Mechanical properties :
#
#
# Convention : Reuss Voigt Hill
#
# Bulk Modulus (GPa) = 73.07888 74.40946 73.74417
# Shear Modulus (GPa) = 24.72669 30.85598 27.79133
#
# Velocity S-wave (km/s) = 3.41492 3.81476 3.62036
# Velocity P-wave (km/s) = 7.07210 7.38217 7.22879
#
# Compressibility (1/GPa) = 0.01368384
#
# Stress axis : x y z
#
# Youngs Moduli (GPa) = 80.09297 54.40518 44.56035
#
# Poissons Ratio (x) = 0.11330 0.24284
# Poissons Ratio (y) = 0.16680 0.54718
# Poissons Ratio (z) = 0.43649 0.66807
#
# Static dielectric constant tensor:
#      x y z
#    x 3.730490 -0.023010 0.114790 
#    y -0.023010 3.988310 0.029500 
#    z 0.114790 0.029500 4.006390 
# 
# 
# High freq. dielectric constant tensor:
#      x y z
#    x 1.828830 -0.003670 0.004610 
#    y -0.003670 1.843770 0.000540 
#    z 0.004610 0.000540 1.846890 
# 
# From -- ./inp_files/48076.got.cif
#   From: 2010.06.25/outbox.cif.g09.slc.cpg/sg2_25_cif.got.tgz:48076.got - 2010.06.27 13:26:56.
