data_PCOD8022350
_publ_section_title
;
Structure prediction by ZEFSAII (Michael W. Deem and Ramdas Pophale) SiO2 
 PCOD8022350
Probable space group: P -1
;
_chemical_formula_sum "Si O2"
_cell_formula_units_Z 12
_cell_length_a 11.768361
_cell_length_b 8.351266
_cell_length_c 20.067243
_cell_angle_alpha 40.076934
_cell_angle_beta 24.343649
_cell_angle_gamma 35.542267
_cell_volume 470.236002
_symmetry_space_group_name_H-M "P -1"
_symmetry_group_IT_number 2
_symmetry_cell_setting 'triclinic'
loop_
_space_group_symop_operation_xyz
x,y,z
-x,-y,-z
loop_
_atom_site_type_symbol
_atom_site_label
_atom_site_fract_x
_atom_site_fract_y
_atom_site_fract_z
Si Si1 0.479791 0.488189 0.092722
Si Si2 0.755854 0.899098 0.973376
Si Si3 0.359798 0.185205 0.452489
Si Si4 0.804726 0.220956 0.668190
Si Si5 0.383825 0.015114 0.353849
Si Si6 0.068921 0.370550 0.896243
O O1 0.318242 0.294673 0.259257
O O2 0.500000 0.500000 0.000000
O O3 0.816482 0.351080 0.989443
O O4 0.280563 0.801798 0.124699
O O5 0.417101 0.910757 0.148606
O O6 0.897696 0.820402 0.996418
O O7 0.977614 0.683494 0.869032
O O8 0.401410 0.467400 0.348269
O O9 0.532930 0.024103 0.343704
O O10 0.997732 0.257289 0.616052
O O11 0.500000 0.000000 0.500000
O O12 0.045524 0.026952 0.544384
O O13 0.606778 0.742915 0.280420
#
# Coordination Sequence:
#
# PCOD8022350 Si02
#       6
#     2   2   2   2   2   2
#     4  12  25  45  72 105 145 193 236 292 359 429
#     4  11  25  48  72  99 154 189 229 302 360 420
#     4   9  20  42  72 104 142 186 232 298 360 417
#     4   9  22  44  69 106 137 185 239 293 351 426
#     4  10  22  45  72 106 138 181 250 288 346 434
#     4  11  25  45  68 108 144 187 240 290 358 428
#
# _framework density 25.519099000000001
#
# number of rings (size 3 to 8) (size 9 to 14) (size 15 to 20)
#    1.000    0.667    1.667    2.000    0.000    3.333 
#    6.000    0.833    0.000    2.000    0.000    0.000 
#    0.000    0.000    0.000    0.000    0.000    0.000 
#
# Total GULP energy -148743.797896 kJ/mol
# GULP energy per Si atom -12395.316491 kJ/mol
# Density = 2.546102 g / cm^3
# Si number density = 25.519099 Si / 1000 Ang^3
#
#
#
# Elastic Constant Matrix: (Units=GPa)
#
#
# Indices 1 2 3 4 5 6 
#
# 1 115.8719 32.1776 25.8482 9.8792 22.1238 -13.6936
# 2 32.1776 152.7919 59.0879 20.2847 15.2917 11.0811
# 3 25.8482 59.0879 105.2874 24.0027 18.1133 23.3756
# 4 9.8792 20.2847 24.0027 43.0062 7.2014 17.0108
# 5 22.1238 15.2917 18.1133 7.2014 44.5108 9.3574
# 6 -13.6936 11.0811 23.3756 17.0108 9.3574 46.7321
#
#
#
# Elastic Compliance Matrix: (Units=1/GPa)
#
#
# Indices 1 2 3 4 5 6 
#
# 1 0.011499 -0.001199 -0.002110 -0.002665 -0.005437 0.006768
# 2 -0.001199 0.008649 -0.004208 -0.001512 -0.000492 0.000352
# 3 -0.002110 -0.004208 0.014627 -0.003261 -0.001797 -0.005390
# 4 -0.002665 -0.001512 -0.003261 0.030243 0.000353 -0.009871
# 5 -0.005437 -0.000492 -0.001797 0.000353 0.027310 -0.006174
# 6 0.006768 0.000352 -0.005390 -0.009871 -0.006174 0.030824
#
#
# Mechanical properties :
#
#
# Convention : Reuss Voigt Hill
#
# Bulk Modulus (GPa) = 50.65632 67.57539 59.11586
# Shear Modulus (GPa) = 34.53844 43.97231 39.25537
#
# Velocity S-wave (km/s) = 3.68290 4.15554 3.92634
# Velocity P-wave (km/s) = 6.16266 7.04007 6.61593
#
# Compressibility (1/GPa) = 0.01974087
#
# Stress axis : x y z
#
# Youngs Moduli (GPa) = 86.96542 115.61651 68.36721
#
# Poissons Ratio (x) = 0.13857 0.14426
# Poissons Ratio (y) = 0.10423 0.28772
# Poissons Ratio (z) = 0.18350 0.48657
#
# Static dielectric constant tensor:
#      x y z
#    x 4.882090 0.286610 0.211150 
#    y 0.286610 5.049540 0.358190 
#    z 0.211150 0.358190 4.649360 
# 
# 
# High freq. dielectric constant tensor:
#      x y z
#    x 2.023970 -0.006800 0.016990 
#    y -0.006800 2.014440 0.009280 
#    z 0.016990 0.009280 2.010440 
# 
# From -- ./inp_files/593372.got.cif
#   From: 2010.06.25/outbox.cif.g09.slc.cpg/sg2_297_cif.got.tgz:593372.got - 2010.06.27 13:26:56.
