data_PCOD8022442
_publ_section_title
;
Structure prediction by ZEFSAII (Michael W. Deem and Ramdas Pophale) SiO2 
 PCOD8022442
Probable space group: P -1
;
_chemical_formula_sum "Si O2"
_cell_formula_units_Z 16
_cell_length_a 20.270604
_cell_length_b 6.706676
_cell_length_c 8.787110
_cell_angle_alpha 51.395003
_cell_angle_beta 52.831287
_cell_angle_gamma 70.735446
_cell_volume 741.770821
_symmetry_space_group_name_H-M "P -1"
_symmetry_group_IT_number 2
_symmetry_cell_setting 'triclinic'
loop_
_space_group_symop_operation_xyz
x,y,z
-x,-y,-z
loop_
_atom_site_type_symbol
_atom_site_label
_atom_site_fract_x
_atom_site_fract_y
_atom_site_fract_z
Si Si1 0.351165 0.011278 0.091883
Si Si2 0.433046 0.538534 0.702752
Si Si3 0.905042 0.486654 0.820852
Si Si4 0.181788 0.053667 0.143833
Si Si5 0.098216 0.501119 0.532914
Si Si6 0.187761 0.053186 0.779107
Si Si7 0.651170 0.090431 0.521810
Si Si8 0.516125 0.231260 0.172503
O O1 0.265514 0.086752 0.106469
O O2 0.336962 0.851934 0.343081
O O3 0.405182 0.268130 0.947214
O O4 0.398538 0.854302 0.976632
O O5 0.500000 0.500000 0.500000
O O6 0.349699 0.638552 0.693570
O O7 0.471927 0.739391 0.676889
O O8 0.874581 0.714931 0.854777
O O9 0.885999 0.549637 0.642395
O O10 0.001963 0.472631 0.721812
O O11 0.861859 0.215590 0.066263
O O12 0.133847 0.786965 0.388401
O O13 0.202480 0.065588 0.931823
O O14 0.140964 0.293213 0.672691
O O15 0.276792 0.075084 0.561600
O O16 0.559925 0.966032 0.668563
O O17 0.500000 0.500000 0.000000
#
# Coordination Sequence:
#
# PCOD8022442 Si02
#       8
#     2   2   2   2   2   2   2   2
#     4  12  26  45  64  94 131 171 219 268 321 380
#     4  12  25  43  66  92 124 170 219 266 322 378
#     4  10  22  46  67  97 132 169 214 265 326 393
#     4  11  25  41  66  99 133 168 217 268 323 389
#     4  10  23  43  71  95 131 172 212 265 327 391
#     4  11  25  41  65 101 131 170 216 270 324 386
#     4  12  25  44  66  93 131 172 217 268 323 378
#     4  12  25  44  67  92 128 172 219 269 318 382
#
# _framework density 21.570004000000001
#
# number of rings (size 3 to 8) (size 9 to 14) (size 15 to 20)
#    0.000    0.750    2.500    4.500    3.500    5.500 
#    0.000    0.000    0.000    0.000    0.000    0.000 
#    0.000    0.000    0.000    0.000    0.000    0.000 
#
# Total GULP energy -198470.494565 kJ/mol
# GULP energy per Si atom -12404.405910 kJ/mol
# Density = 2.152091 g / cm^3
# Si number density = 21.570004 Si / 1000 Ang^3
#
#
#
# Elastic Constant Matrix: (Units=GPa)
#
#
# Indices 1 2 3 4 5 6 
#
# 1 113.4258 39.3286 38.2396 9.3183 16.0921 -8.9022
# 2 39.3286 123.5469 35.3958 11.7329 8.9136 -1.6348
# 3 38.2396 35.3958 77.5132 11.3683 12.4709 0.6988
# 4 9.3183 11.7329 11.3683 43.2570 -3.9337 3.4530
# 5 16.0921 8.9136 12.4709 -3.9337 33.3588 -1.4098
# 6 -8.9022 -1.6348 0.6988 3.4530 -1.4098 37.2295
#
#
#
# Elastic Compliance Matrix: (Units=1/GPa)
#
#
# Indices 1 2 3 4 5 6 
#
# 1 0.011786 -0.002152 -0.004059 -0.001443 -0.003645 0.002796
# 2 -0.002152 0.009858 -0.003133 -0.001448 -0.000592 0.000089
# 3 -0.004059 -0.003133 0.017477 -0.003144 -0.004164 -0.001302
# 4 -0.001443 -0.001448 -0.003144 0.025314 0.005138 -0.002503
# 5 -0.003645 -0.000592 -0.004164 0.005138 0.034056 -0.000006
# 6 0.002796 0.000089 -0.001302 -0.002503 -0.000006 0.027789
#
#
# Mechanical properties :
#
#
# Convention : Reuss Voigt Hill
#
# Bulk Modulus (GPa) = 48.94061 60.04599 54.49330
# Shear Modulus (GPa) = 32.94252 36.20385 34.57318
#
# Velocity S-wave (km/s) = 3.91223 4.10132 4.00789
# Velocity P-wave (km/s) = 6.56855 7.09407 6.83636
#
# Compressibility (1/GPa) = 0.02043293
#
# Stress axis : x y z
#
# Youngs Moduli (GPa) = 84.84652 101.43886 57.21845
#
# Poissons Ratio (x) = 0.21829 0.23224
# Poissons Ratio (y) = 0.18259 0.17928
# Poissons Ratio (z) = 0.34437 0.31784
#
# Static dielectric constant tensor:
#      x y z
#    x 3.849590 0.207950 -0.349840 
#    y 0.207950 3.659260 0.879920 
#    z -0.349840 0.879920 2.381470 
# 
# 
# High freq. dielectric constant tensor:
#      x y z
#    x 1.856350 -0.008260 0.006170 
#    y -0.008260 1.859080 -0.002920 
#    z 0.006170 -0.002920 1.855650 
# 
# From -- ./inp_files/112371.got.cif
#   From: 2010.06.25/outbox.cif.g09.slc.cpg/sg2_57_cif.got.tgz:112371.got - 2010.06.27 13:26:56.
