data_PCOD8022615
_publ_section_title
;
Structure prediction by ZEFSAII (Michael W. Deem and Ramdas Pophale) SiO2 
 PCOD8022615
Probable space group: P -1
;
_chemical_formula_sum "Si O2"
_cell_formula_units_Z 16
_cell_length_a 17.846051
_cell_length_b 11.723665
_cell_length_c 20.857540
_cell_angle_alpha 149.770794
_cell_angle_beta 160.159371
_cell_angle_gamma 29.755647
_cell_volume 705.372697
_symmetry_space_group_name_H-M "P -1"
_symmetry_group_IT_number 2
_symmetry_cell_setting 'triclinic'
loop_
_space_group_symop_operation_xyz
x,y,z
-x,-y,-z
loop_
_atom_site_type_symbol
_atom_site_label
_atom_site_fract_x
_atom_site_fract_y
_atom_site_fract_z
Si Si1 0.725765 0.399897 0.761302
Si Si2 0.557336 0.268658 0.069455
Si Si3 0.592744 0.766390 0.369016
Si Si4 0.957435 0.680892 0.300649
Si Si5 0.744698 0.849799 0.927131
Si Si6 0.086664 0.939838 0.642282
Si Si7 0.321517 0.262999 0.435666
Si Si8 0.673252 0.043370 0.451441
O O1 0.674795 0.681874 0.842473
O O2 0.542232 0.353555 0.641002
O O3 0.702796 0.289431 0.619487
O O4 0.987091 0.275401 0.939185
O O5 0.533051 0.547851 0.181839
O O6 0.667736 0.161220 0.173735
O O7 0.302123 0.250894 0.848765
O O8 0.713692 0.107588 0.060402
O O9 0.746710 0.683036 0.517471
O O10 0.370448 0.984419 0.322096
O O11 0.717582 0.867383 0.463005
O O12 0.108921 0.790604 0.522645
O O13 0.097294 0.398089 0.277030
O O14 0.959531 0.782523 0.279848
O O15 0.581973 0.898302 0.756849
O O16 0.875029 0.913988 0.501390
#
# Coordination Sequence:
#
# PCOD8022615 Si02
#       8
#     2   2   2   2   2   2   2   2
#     4  10  23  43  68  97 135 170 218 284 330 385
#     4  12  24  44  65 104 134 173 218 272 331 390
#     4  10  25  45  66  95 135 182 222 266 320 396
#     4  11  24  42  71  98 133 172 219 278 333 395
#     4  11  23  41  68 104 130 169 222 277 336 388
#     4  11  23  42  68 103 133 168 217 280 340 383
#     4  10  22  49  67  95 131 183 222 268 329 388
#     4  11  22  46  66  95 132 181 221 265 325 395
#
# _framework density 22.683043999999999
#
# number of rings (size 3 to 8) (size 9 to 14) (size 15 to 20)
#    0.000    1.250    3.750    1.500    1.750    3.500 
#   11.250    0.000    0.000    0.000    0.000    0.000 
#    0.000    0.000    0.000    0.000    0.000    0.000 
#
# Total GULP energy -198360.811112 kJ/mol
# GULP energy per Si atom -12397.550694 kJ/mol
# Density = 2.263142 g / cm^3
# Si number density = 22.683044 Si / 1000 Ang^3
#
#
#
# Elastic Constant Matrix: (Units=GPa)
#
#
# Indices 1 2 3 4 5 6 
#
# 1 88.1573 32.7832 7.6843 2.0222 13.9878 10.7718
# 2 32.7832 119.3416 45.0853 -2.3484 2.4938 11.8016
# 3 7.6843 45.0853 73.5172 -7.5419 -5.0652 1.9772
# 4 2.0222 -2.3484 -7.5419 41.8023 -8.3746 -5.5624
# 5 13.9878 2.4938 -5.0652 -8.3746 22.2826 2.1787
# 6 10.7718 11.8016 1.9772 -5.5624 2.1787 30.3221
#
#
#
# Elastic Compliance Matrix: (Units=1/GPa)
#
#
# Indices 1 2 3 4 5 6 
#
# 1 0.014755 -0.003385 -0.000402 -0.003470 -0.009906 -0.003823
# 2 -0.003385 0.012411 -0.007354 -0.001109 -0.001032 -0.003278
# 3 -0.000402 -0.007354 0.019063 0.004727 0.006977 0.002128
# 4 -0.003470 -0.001109 0.004727 0.028323 0.013476 0.005583
# 5 -0.009906 -0.001032 0.006977 0.013476 0.057687 0.001793
# 6 -0.003823 -0.003278 0.002128 0.005583 0.001793 0.036370
#
#
# Mechanical properties :
#
#
# Convention : Reuss Voigt Hill
#
# Bulk Modulus (GPa) = 41.75854 50.23576 45.99715
# Shear Modulus (GPa) = 25.14146 31.91228 28.52687
#
# Velocity S-wave (km/s) = 3.33285 3.75491 3.55015
# Velocity P-wave (km/s) = 5.76715 6.40266 6.09320
#
# Compressibility (1/GPa) = 0.02394720
#
# Stress axis : x y z
#
# Youngs Moduli (GPa) = 67.77136 80.57165 52.45810
#
# Poissons Ratio (x) = 0.27270 0.02110
# Poissons Ratio (y) = 0.22938 0.38580
# Poissons Ratio (z) = 0.02726 0.59255
#
# Static dielectric constant tensor:
#      x y z
#    x 3.907910 0.198590 -0.182660 
#    y 0.198590 4.391380 0.045080 
#    z -0.182660 0.045080 3.947350 
# 
# 
# High freq. dielectric constant tensor:
#      x y z
#    x 1.883460 0.005220 -0.010580 
#    y 0.005220 1.909960 -0.001400 
#    z -0.010580 -0.001400 1.879590 
# 
# From -- ./inp_files/427571.got.cif
#   From: 2010.06.25/outbox.cif.g09.slc.cpg/sg2_214_cif.got.tgz:427571.got - 2010.06.27 13:26:56.
