data_PCOD8022397
_publ_section_title
;
Structure prediction by ZEFSAII (Michael W. Deem and Ramdas Pophale) SiO2 
 PCOD8022397
Probable space group: P -1
;
_chemical_formula_sum "Si O2"
_cell_formula_units_Z 16
_cell_length_a 14.270833
_cell_length_b 11.520501
_cell_length_c 14.212160
_cell_angle_alpha 64.195848
_cell_angle_beta 34.096720
_cell_angle_gamma 40.806726
_cell_volume 729.749349
_symmetry_space_group_name_H-M "P -1"
_symmetry_group_IT_number 2
_symmetry_cell_setting 'triclinic'
loop_
_space_group_symop_operation_xyz
x,y,z
-x,-y,-z
loop_
_atom_site_type_symbol
_atom_site_label
_atom_site_fract_x
_atom_site_fract_y
_atom_site_fract_z
Si Si1 0.954743 0.162782 0.026338
Si Si2 0.265029 0.108457 0.377925
Si Si3 0.997752 0.551743 0.658411
Si Si4 0.470052 0.098516 0.397143
Si Si5 0.204832 0.269300 0.042544
Si Si6 0.944535 0.047281 0.637988
Si Si7 0.673483 0.555857 0.024288
Si Si8 0.817704 0.301152 0.295000
O O1 0.741718 0.371058 0.066208
O O2 0.854172 0.205279 0.200690
O O3 0.000000 0.000000 0.000000
O O4 0.238118 0.061057 0.832780
O O5 0.067211 0.339085 0.423199
O O6 0.319132 0.107764 0.440697
O O7 0.114587 0.064430 0.526664
O O8 0.522687 0.956962 0.146337
O O9 0.886504 0.710811 0.780362
O O10 0.319038 0.325399 0.468333
O O11 0.859908 0.493087 0.805061
O O12 0.500000 0.000000 0.500000
O O13 0.952960 0.364040 0.157788
O O14 0.262702 0.389177 0.956426
O O15 0.624340 0.259893 0.836916
O O16 0.036541 0.866076 0.683709
O O17 0.000000 0.000000 0.500000
O O18 0.500000 0.500000 0.500000
#
# Coordination Sequence:
#
# PCOD8022397 Si02
#       8
#     2   2   2   2   2   2   2   2
#     4  12  29  48  70 102 149 190 238 300 361 424
#     4  12  24  43  75 106 142 187 243 298 354 431
#     4  10  23  43  73 101 138 188 237 290 359 425
#     4  12  26  49  68 100 145 196 246 287 358 429
#     4  10  22  45  75 102 141 179 241 293 362 419
#     4  12  24  43  71 111 146 178 237 302 362 419
#     4  10  24  45  73 100 142 185 234 288 365 416
#     4  12  28  45  74 111 144 187 240 295 363 427
#
# _framework density 21.925336000000001
#
# number of rings (size 3 to 8) (size 9 to 14) (size 15 to 20)
#    0.750    0.000    3.750    3.000    5.250    1.500 
#    0.000    1.250    0.000    0.000    0.000    0.000 
#    0.000    0.000    0.000    0.000    0.000    0.000 
#
# Total GULP energy -198233.630470 kJ/mol
# GULP energy per Si atom -12389.601904 kJ/mol
# Density = 2.187543 g / cm^3
# Si number density = 21.925336 Si / 1000 Ang^3
#
#
#
# Elastic Constant Matrix: (Units=GPa)
#
#
# Indices 1 2 3 4 5 6 
#
# 1 125.0296 45.5421 34.3458 -0.0291 5.0937 3.1530
# 2 45.5421 130.4085 35.2971 12.4618 2.2914 -12.8860
# 3 34.3458 35.2971 102.6626 23.2697 0.2126 -6.1392
# 4 -0.0291 12.4618 23.2697 36.1319 -1.9956 -4.3207
# 5 5.0937 2.2914 0.2126 -1.9956 43.3407 -2.0028
# 6 3.1530 -12.8860 -6.1392 -4.3207 -2.0028 33.4259
#
#
#
# Elastic Compliance Matrix: (Units=1/GPa)
#
#
# Indices 1 2 3 4 5 6 
#
# 1 0.010098 -0.003187 -0.003043 0.002720 -0.000991 -0.002448
# 2 -0.003187 0.009756 -0.001650 -0.001888 -0.000058 0.003511
# 3 -0.003043 -0.001650 0.013151 -0.007772 0.000072 0.001066
# 4 0.002720 -0.001888 -0.007772 0.033658 0.001462 0.002026
# 5 -0.000991 -0.000058 0.000072 0.001462 0.023337 0.001672
# 6 -0.002448 0.003511 0.001066 0.002026 0.001672 0.032059
#
#
# Mechanical properties :
#
#
# Convention : Reuss Voigt Hill
#
# Bulk Modulus (GPa) = 57.98974 65.38562 61.68768
# Shear Modulus (GPa) = 34.82673 38.77409 36.80041
#
# Velocity S-wave (km/s) = 3.98983 4.20987 4.10132
# Velocity P-wave (km/s) = 6.90877 7.31556 7.11507
#
# Compressibility (1/GPa) = 0.01724443
#
# Stress axis : x y z
#
# Youngs Moduli (GPa) = 99.03230 102.49872 76.03866
#
# Poissons Ratio (x) = 0.32667 0.23140
# Poissons Ratio (y) = 0.31562 0.12547
# Poissons Ratio (z) = 0.30138 0.16913
#
# Static dielectric constant tensor:
#      x y z
#    x 3.762750 0.018580 0.041240 
#    y 0.018580 3.812950 0.180360 
#    z 0.041240 0.180360 4.046420 
# 
# 
# High freq. dielectric constant tensor:
#      x y z
#    x 1.858580 -0.001370 0.000150 
#    y -0.001370 1.855070 0.007680 
#    z 0.000150 0.007680 1.877210 
# 
# From -- ./inp_files/532453.got.cif
#   From: 2010.06.25/outbox.cif.g09.slc.cpg/sg2_267_cif.got.tgz:532453.got - 2010.06.27 13:26:56.
