data_PCOD8022031
_publ_section_title
;
Structure prediction by ZEFSAII (Michael W. Deem and Ramdas Pophale) SiO2 
 PCOD8022031
Probable space group: P -1
;
_chemical_formula_sum "Si O2"
_cell_formula_units_Z 16
_cell_length_a 8.451453
_cell_length_b 17.179854
_cell_length_c 6.496091
_cell_angle_alpha 89.355850
_cell_angle_beta 74.929683
_cell_angle_gamma 50.766924
_cell_volume 690.497268
_symmetry_space_group_name_H-M "P -1"
_symmetry_group_IT_number 2
_symmetry_cell_setting 'triclinic'
loop_
_space_group_symop_operation_xyz
x,y,z
-x,-y,-z
loop_
_atom_site_type_symbol
_atom_site_label
_atom_site_fract_x
_atom_site_fract_y
_atom_site_fract_z
Si Si1 0.016596 0.053793 0.803090
Si Si2 0.750989 0.766385 0.096787
Si Si3 0.274044 0.959948 0.333264
Si Si4 0.139367 0.376735 0.610850
Si Si5 0.440186 0.653252 0.540524
Si Si6 0.984873 0.577276 0.802951
Si Si7 0.431492 0.502730 0.796474
Si Si8 0.015484 0.164340 0.149221
O O1 0.826963 0.091588 0.704209
O O2 0.236287 0.981754 0.592303
O O3 0.996298 0.143249 0.916420
O O4 0.000000 0.000000 0.000000
O O5 0.523963 0.878679 0.198018
O O6 0.842804 0.715018 0.292939
O O7 0.758404 0.681113 0.970791
O O8 0.895429 0.776812 0.904571
O O9 0.173166 0.062633 0.236534
O O10 0.378633 0.336877 0.491675
O O11 0.005738 0.409271 0.446139
O O12 0.012169 0.474352 0.813182
O O13 0.503916 0.559141 0.657516
O O14 0.438667 0.615767 0.313535
O O15 0.215142 0.764068 0.665156
O O16 0.176601 0.566269 0.847782
O O17 0.500000 0.500000 0.000000
#
# Coordination Sequence:
#
# PCOD8022031 Si02
#       8
#     2   2   2   2   2   2   2   2
#     4   9  22  43  68  93 132 173 229 283 340 402
#     4  12  25  41  68 103 137 184 224 284 349 407
#     4  10  24  43  69 100 135 179 229 288 339 415
#     4  10  25  42  70  94 145 183 232 280 340 408
#     4  10  23  42  66 106 131 184 232 282 336 414
#     4  10  23  47  64 102 139 183 228 284 341 414
#     4  10  22  44  72  98 139 177 231 284 347 408
#     4  11  24  44  67 101 141 176 234 282 346 405
#
# _framework density 23.171704999999999
#
# number of rings (size 3 to 8) (size 9 to 14) (size 15 to 20)
#    0.000    1.750    1.250    0.750    7.000    9.500 
#    0.000    0.000    0.000    0.000    0.000    0.000 
#    0.000    0.000    0.000    0.000    0.000    0.000 
#
# Total GULP energy -198261.058356 kJ/mol
# GULP energy per Si atom -12391.316147 kJ/mol
# Density = 2.311896 g / cm^3
# Si number density = 23.171705 Si / 1000 Ang^3
#
#
#
# Elastic Constant Matrix: (Units=GPa)
#
#
# Indices 1 2 3 4 5 6 
#
# 1 75.3729 38.1411 51.1409 -1.5595 1.2518 -6.6348
# 2 38.1411 142.6631 56.2991 16.6548 -4.6827 -7.3330
# 3 51.1409 56.2991 127.2841 22.9279 10.9980 -6.9410
# 4 -1.5595 16.6548 22.9279 45.7011 2.6752 -10.7249
# 5 1.2518 -4.6827 10.9980 2.6752 43.9398 -1.7228
# 6 -6.6348 -7.3330 -6.9410 -10.7249 -1.7228 25.8302
#
#
#
# Elastic Compliance Matrix: (Units=1/GPa)
#
#
# Indices 1 2 3 4 5 6 
#
# 1 0.020868 -0.002873 -0.008174 0.007059 0.000925 0.005341
# 2 -0.002873 0.009153 -0.002652 -0.002120 0.001866 0.000392
# 3 -0.008174 -0.002652 0.013636 -0.006457 -0.003151 -0.002080
# 4 0.007059 -0.002120 -0.006457 0.028825 -0.000118 0.011437
# 5 0.000925 0.001866 -0.003151 -0.000118 0.023784 0.001458
# 6 0.005341 0.000392 -0.002080 0.011437 0.001458 0.044485
#
#
# Mechanical properties :
#
#
# Convention : Reuss Voigt Hill
#
# Bulk Modulus (GPa) = 61.50440 70.72027 66.11233
# Shear Modulus (GPa) = 28.80716 36.41015 32.60866
#
# Velocity S-wave (km/s) = 3.52974 3.96829 3.75542
# Velocity P-wave (km/s) = 6.57363 7.18211 6.88460
#
# Compressibility (1/GPa) = 0.01625900
#
# Stress axis : x y z
#
# Youngs Moduli (GPa) = 47.92025 109.25313 73.33645
#
# Poissons Ratio (x) = 0.31383 0.59946
# Poissons Ratio (y) = 0.13765 0.19451
# Poissons Ratio (z) = 0.39171 0.28977
#
# Static dielectric constant tensor:
#      x y z
#    x 4.067410 0.229430 0.124240 
#    y 0.229430 4.153580 0.284910 
#    z 0.124240 0.284910 4.685870 
# 
# 
# High freq. dielectric constant tensor:
#      x y z
#    x 1.893770 0.011980 -0.006840 
#    y 0.011980 1.914340 0.006940 
#    z -0.006840 0.006940 1.939570 
# 
# From -- ./inp_files/47785.got.cif
#   From: 2010.06.25/outbox.cif.g09.slc.cpg/sg2_24_cif.got.tgz:47785.got - 2010.06.27 13:26:56.
