data_PCOD8022954
_publ_section_title
;
Structure prediction by ZEFSAII (Michael W. Deem and Ramdas Pophale) SiO2 
 PCOD8022954
Probable space group: P -1
;
_chemical_formula_sum "Si O2"
_cell_formula_units_Z 16
_cell_length_a 9.244954
_cell_length_b 10.299796
_cell_length_c 9.521043
_cell_angle_alpha 92.899971
_cell_angle_beta 97.353770
_cell_angle_gamma 124.497168
_cell_volume 732.586190
_symmetry_space_group_name_H-M "P -1"
_symmetry_group_IT_number 2
_symmetry_cell_setting 'triclinic'
loop_
_space_group_symop_operation_xyz
x,y,z
-x,-y,-z
loop_
_atom_site_type_symbol
_atom_site_label
_atom_site_fract_x
_atom_site_fract_y
_atom_site_fract_z
Si Si1 0.909386 0.170893 0.260790
Si Si2 0.419577 0.837146 0.815256
Si Si3 0.600811 0.432314 0.859367
Si Si4 0.786098 0.825807 0.186891
Si Si5 0.491369 0.379487 0.336808
Si Si6 0.218261 0.290693 0.516339
Si Si7 0.946980 0.710312 0.013522
Si Si8 0.325009 0.804683 0.123979
O O1 0.769528 0.214453 0.276491
O O2 0.027988 0.215007 0.415722
O O3 0.035390 0.264269 0.149507
O O4 0.794943 0.985481 0.191975
O O5 0.478278 0.726808 0.764115
O O6 0.573751 0.017048 0.793894
O O7 0.400503 0.818853 0.978350
O O8 0.405960 0.323857 0.902365
O O9 0.598054 0.543947 0.749713
O O10 0.758703 0.535898 0.999953
O O11 0.635111 0.306127 0.787747
O O12 0.822757 0.802854 0.349532
O O13 0.934040 0.840198 0.102431
O O14 0.350233 0.269998 0.435910
O O15 0.682430 0.520729 0.432597
O O16 0.111956 0.715906 0.097658
#
# Coordination Sequence:
#
# PCOD8022954 Si02
#       8
#     2   2   2   2   2   2   2   2
#     4  11  22  44  65  96 134 170 214 273 324 386
#     4  10  23  41  65  97 134 173 212 270 331 379
#     4  11  22  41  65  96 131 168 214 266 324 381
#     4  11  24  40  67  99 131 171 219 268 324 387
#     4  10  23  42  68  93 127 177 218 266 323 385
#     4  10  23  43  65  93 130 174 222 266 315 391
#     4  11  24  38  67 101 126 173 217 267 327 386
#     4  10  23  40  63 100 139 162 214 276 324 386
#
# _framework density 21.840433999999998
#
# number of rings (size 3 to 8) (size 9 to 14) (size 15 to 20)
#    0.000    1.500    2.500    1.500    7.000    0.500 
#    0.000    4.375    0.000    0.000    0.000    0.000 
#    0.000    0.000    0.000    0.000    0.000    0.000 
#
# Total GULP energy -198359.144458 kJ/mol
# GULP energy per Si atom -12397.446529 kJ/mol
# Density = 2.179072 g / cm^3
# Si number density = 21.840434 Si / 1000 Ang^3
#
#
#
# Elastic Constant Matrix: (Units=GPa)
#
#
# Indices 1 2 3 4 5 6 
#
# 1 126.9806 56.4725 57.6166 5.8252 13.9885 -10.0099
# 2 56.4725 98.4317 22.5299 15.5894 5.8441 -16.8009
# 3 57.6166 22.5299 45.7235 13.3543 4.6612 -5.1398
# 4 5.8252 15.5894 13.3543 23.2352 -1.0957 4.7399
# 5 13.9885 5.8441 4.6612 -1.0957 27.1311 8.5189
# 6 -10.0099 -16.8009 -5.1398 4.7399 8.5189 34.8857
#
#
#
# Elastic Compliance Matrix: (Units=1/GPa)
#
#
# Indices 1 2 3 4 5 6 
#
# 1 0.030328 -0.013198 -0.039377 0.024980 -0.003108 -0.006091
# 2 -0.013198 0.020075 0.014831 -0.021382 -0.004739 0.012128
# 3 -0.039377 0.014831 0.080850 -0.049863 -0.003638 0.015419
# 4 0.024980 -0.021382 -0.049863 0.085406 0.011562 -0.024904
# 5 -0.003108 -0.004739 -0.003638 0.011562 0.045738 -0.016450
# 6 -0.006091 0.012128 0.015419 -0.024904 -0.016450 0.042431
#
#
# Mechanical properties :
#
#
# Convention : Reuss Voigt Hill
#
# Bulk Modulus (GPa) = 17.93274 60.48596 39.20935
# Shear Modulus (GPa) = 12.53433 26.01820 19.27626
#
# Velocity S-wave (km/s) = 2.39823 3.45525 2.97407
# Velocity P-wave (km/s) = 3.98714 6.60855 5.45757
#
# Compressibility (1/GPa) = 0.05576393
#
# Stress axis : x y z
#
# Youngs Moduli (GPa) = 32.97245 49.81369 12.36863
#
# Poissons Ratio (x) = 0.65746 0.48704
# Poissons Ratio (y) = 0.43518 -0.18344
# Poissons Ratio (z) = 1.29836 -0.73879
#
# Static dielectric constant tensor:
#      x y z
#    x 3.998830 0.063370 0.140970 
#    y 0.063370 4.048480 0.101120 
#    z 0.140970 0.101120 3.666790 
# 
# 
# High freq. dielectric constant tensor:
#      x y z
#    x 1.870160 0.006010 0.013290 
#    y 0.006010 1.861250 0.008010 
#    z 0.013290 0.008010 1.832340 
# 
# From -- ./inp_files/382691.got.cif
#   From: 2010.06.25/outbox.cif.g09.slc.cpg/sg2_192_cif.got.tgz:382691.got - 2010.06.27 13:26:56.
