data_PCOD8022298
_publ_section_title
;
Structure prediction by ZEFSAII (Michael W. Deem and Ramdas Pophale) SiO2 
 PCOD8022298
Probable space group: P -1
;
_chemical_formula_sum "Si O2"
_cell_formula_units_Z 14
_cell_length_a 12.775740
_cell_length_b 15.860088
_cell_length_c 8.326332
_cell_angle_alpha 130.795118
_cell_angle_beta 121.724747
_cell_angle_gamma 28.736266
_cell_volume 608.914231
_symmetry_space_group_name_H-M "P -1"
_symmetry_group_IT_number 2
_symmetry_cell_setting 'triclinic'
loop_
_space_group_symop_operation_xyz
x,y,z
-x,-y,-z
loop_
_atom_site_type_symbol
_atom_site_label
_atom_site_fract_x
_atom_site_fract_y
_atom_site_fract_z
Si Si1 0.170463 0.035453 0.457275
Si Si2 0.308101 0.674982 0.683252
Si Si3 0.633322 0.993663 0.694506
Si Si4 0.002300 0.371427 0.912844
Si Si5 0.444920 0.369120 0.588253
Si Si6 0.541441 0.707288 0.856116
Si Si7 0.029172 0.600150 0.704592
O O1 0.323231 0.936775 0.303138
O O2 0.932132 0.168143 0.384539
O O3 0.166662 0.160183 0.697097
O O4 0.300113 0.842243 0.421053
O O5 0.500000 0.500000 0.500000
O O6 0.369892 0.555206 0.741281
O O7 0.338108 0.785757 0.860997
O O8 0.874015 0.783753 0.688930
O O9 0.500000 0.000000 0.500000
O O10 0.493033 0.140766 0.918285
O O11 0.765355 0.493726 0.846968
O O12 0.049298 0.332520 0.091485
O O13 0.000000 0.500000 0.000000
O O14 0.422498 0.320648 0.340726
O O15 0.282699 0.442406 0.684126
O O16 0.000000 0.500000 0.500000
#
# Coordination Sequence:
#
# PCOD8022298 Si02
#       7
#     2   2   2   2   2   2   2
#     4  12  23  44  70  99 139 182 227 280 343 401
#     4  10  22  45  70  96 143 175 232 282 335 403
#     4  12  25  44  68 102 138 179 228 282 342 408
#     4  12  24  42  69 100 137 180 225 285 345 403
#     4  11  23  44  70 103 136 181 228 279 343 401
#     4  11  23  44  69  99 137 179 227 280 342 403
#     4  12  24  43  66 100 139 176 229 285 336 409
#
# _framework density 22.991744000000001
#
# number of rings (size 3 to 8) (size 9 to 14) (size 15 to 20)
#    0.000    0.571    4.286    6.000    0.000    2.857 
#    2.571    5.714    0.000    0.000    0.000    0.000 
#    0.000    0.000    0.000    0.000    0.000    0.000 
#
# Total GULP energy -173444.877968 kJ/mol
# GULP energy per Si atom -12388.919855 kJ/mol
# Density = 2.293941 g / cm^3
# Si number density = 22.991744 Si / 1000 Ang^3
#
#
#
# Elastic Constant Matrix: (Units=GPa)
#
#
# Indices 1 2 3 4 5 6 
#
# 1 97.1771 26.5318 15.1097 -11.3025 0.1791 -3.2999
# 2 26.5318 163.6149 15.1351 -3.9980 6.7677 1.9375
# 3 15.1097 15.1351 87.4989 -1.5032 -6.9736 6.1094
# 4 -11.3025 -3.9980 -1.5032 32.8675 -0.8153 -0.1597
# 5 0.1791 6.7677 -6.9736 -0.8153 29.8420 -0.5129
# 6 -3.2999 1.9375 6.1094 -0.1597 -0.5129 34.5257
#
#
#
# Elastic Compliance Matrix: (Units=1/GPa)
#
#
# Indices 1 2 3 4 5 6 
#
# 1 0.011486 -0.001630 -0.001742 0.003680 0.000020 0.001515
# 2 -0.001630 0.006543 -0.000957 0.000148 -0.001700 -0.000378
# 3 -0.001742 -0.000957 0.012294 -0.000088 0.003059 -0.002243
# 4 0.003680 0.000148 -0.000088 0.031727 0.000800 0.000518
# 5 0.000020 -0.001700 0.003059 0.000800 0.034633 0.000074
# 6 0.001515 -0.000378 -0.002243 0.000518 0.000074 0.029530
#
#
# Mechanical properties :
#
#
# Convention : Reuss Voigt Hill
#
# Bulk Modulus (GPa) = 46.15916 51.31600 48.73758
# Shear Modulus (GPa) = 35.18796 38.88132 37.03464
#
# Velocity S-wave (km/s) = 3.91635 4.11676 4.01781
# Velocity P-wave (km/s) = 6.36949 6.70557 6.53969
#
# Compressibility (1/GPa) = 0.02166417
#
# Stress axis : x y z
#
# Youngs Moduli (GPa) = 87.06340 152.83057 81.34017
#
# Poissons Ratio (x) = 0.24915 0.14173
# Poissons Ratio (y) = 0.14193 0.07783
# Poissons Ratio (z) = 0.15170 0.14624
#
# Static dielectric constant tensor:
#      x y z
#    x 5.358560 -0.231750 0.784660 
#    y -0.231750 4.313510 -0.042540 
#    z 0.784660 -0.042540 4.733770 
# 
# 
# High freq. dielectric constant tensor:
#      x y z
#    x 1.908470 -0.003710 -0.003660 
#    y -0.003710 1.918390 0.002980 
#    z -0.003660 0.002980 1.907220 
# 
# From -- ./inp_files/188860.got.cif
#   From: 2010.06.25/outbox.cif.g09.slc.cpg/sg2_95_cif.got.tgz:188860.got - 2010.06.27 13:26:56.
