data_PCOD8022380
_publ_section_title
;
Structure prediction by ZEFSAII (Michael W. Deem and Ramdas Pophale) SiO2 
 PCOD8022380
Probable space group: P -1
;
_chemical_formula_sum "Si O2"
_cell_formula_units_Z 14
_cell_length_a 8.667252
_cell_length_b 10.758237
_cell_length_c 11.110379
_cell_angle_alpha 138.871105
_cell_angle_beta 69.826025
_cell_angle_gamma 122.468954
_cell_volume 571.589643
_symmetry_space_group_name_H-M "P -1"
_symmetry_group_IT_number 2
_symmetry_cell_setting 'triclinic'
loop_
_space_group_symop_operation_xyz
x,y,z
-x,-y,-z
loop_
_atom_site_type_symbol
_atom_site_label
_atom_site_fract_x
_atom_site_fract_y
_atom_site_fract_z
Si Si1 0.333737 0.509618 0.478622
Si Si2 0.470452 0.516588 0.816161
Si Si3 0.597877 0.813058 0.217604
Si Si4 0.190087 0.680867 0.222209
Si Si5 0.669186 0.224694 0.126137
Si Si6 0.963431 0.220488 0.891707
Si Si7 0.959531 0.166338 0.416174
O O1 0.500000 0.500000 0.500000
O O2 0.390181 0.534397 0.342057
O O3 0.311013 0.703139 0.686686
O O4 0.131651 0.308772 0.390698
O O5 0.351394 0.301106 0.766411
O O6 0.347421 0.597624 0.827760
O O7 0.592970 0.697205 0.009152
O O8 0.401586 0.807433 0.297446
O O9 0.753299 0.056286 0.334631
O O10 0.170885 0.783515 0.179915
O O11 0.047168 0.694441 0.367237
O O12 0.146056 0.440269 0.025068
O O13 0.844752 0.186500 0.020120
O O14 0.500000 0.000000 0.000000
O O15 0.013388 0.037183 0.706521
#
# Coordination Sequence:
#
# PCOD8022380 Si02
#       7
#     2   2   2   2   2   2   2
#     4  10  23  44  69 103 138 178 239 293 346 414
#     4  10  22  45  73  99 142 189 232 285 352 422
#     4  11  24  44  72 101 147 189 227 288 354 425
#     4  11  24  43  66 104 142 181 239 287 347 416
#     4  11  22  42  69 104 138 180 236 296 351 405
#     4  11  22  39  71 100 137 182 234 296 339 401
#     4  12  25  42  71 107 141 187 235 285 358 421
#
# _framework density 24.493093999999999
#
# number of rings (size 3 to 8) (size 9 to 14) (size 15 to 20)
#    0.000    1.143    2.857    4.286    2.000    4.000 
#    2.571    2.143    0.000    0.000    0.000    0.000 
#    0.000    0.000    0.000    0.000    0.000    0.000 
#
# Total GULP energy -173447.283170 kJ/mol
# GULP energy per Si atom -12389.091655 kJ/mol
# Density = 2.443735 g / cm^3
# Si number density = 24.493094 Si / 1000 Ang^3
#
#
#
# Elastic Constant Matrix: (Units=GPa)
#
#
# Indices 1 2 3 4 5 6 
#
# 1 89.0338 28.2921 17.7033 3.2740 -7.6706 23.8229
# 2 28.2921 59.0549 31.4757 -10.0092 11.1239 12.3759
# 3 17.7033 31.4757 118.7753 -20.5998 -6.8375 -12.1647
# 4 3.2740 -10.0092 -20.5998 51.5823 13.7877 -0.6454
# 5 -7.6706 11.1239 -6.8375 13.7877 37.4926 8.9065
# 6 23.8229 12.3759 -12.1647 -0.6454 8.9065 22.9717
#
#
#
# Elastic Compliance Matrix: (Units=1/GPa)
#
#
# Indices 1 2 3 4 5 6 
#
# 1 0.025587 -0.007289 -0.006096 -0.010728 0.018108 -0.033158
# 2 -0.007289 0.028841 -0.006816 0.006481 -0.012078 -0.006723
# 3 -0.006096 -0.006816 0.013856 0.005701 -0.003249 0.018752
# 4 -0.010728 0.006481 0.005701 0.028641 -0.017989 0.018432
# 5 0.018108 -0.012078 -0.003249 -0.017989 0.047832 -0.033043
# 6 -0.033158 -0.006723 0.018752 0.018432 -0.033043 0.104800
#
#
# Mechanical properties :
#
#
# Convention : Reuss Voigt Hill
#
# Bulk Modulus (GPa) = 35.86697 46.86736 41.36716
# Shear Modulus (GPa) = 16.70819 35.03552 25.87186
#
# Velocity S-wave (km/s) = 2.61465 3.78620 3.25359
# Velocity P-wave (km/s) = 4.87757 6.18791 5.57140
#
# Compressibility (1/GPa) = 0.02788080
#
# Stress axis : x y z
#
# Youngs Moduli (GPa) = 39.08259 34.67280 72.16849
#
# Poissons Ratio (x) = 0.25274 0.43995
# Poissons Ratio (y) = 0.28488 0.49192
# Poissons Ratio (z) = 0.23825 0.23634
#
# Static dielectric constant tensor:
#      x y z
#    x 4.462480 0.387710 -0.361610 
#    y 0.387710 4.481090 -0.318450 
#    z -0.361610 -0.318450 5.226450 
# 
# 
# High freq. dielectric constant tensor:
#      x y z
#    x 1.965260 0.030820 -0.013700 
#    y 0.030820 1.957390 -0.009540 
#    z -0.013700 -0.009540 1.995510 
# 
# From -- ./inp_files/391561.got.cif
#   From: 2010.06.25/outbox.cif.g09.slc.cpg/sg2_196_cif.got.tgz:391561.got - 2010.06.27 13:26:56.
