data_PCOD8022035
_publ_section_title
;
Structure prediction by ZEFSAII (Michael W. Deem and Ramdas Pophale) SiO2 
 PCOD8022035
Probable space group: P -1
;
_chemical_formula_sum "Si O2"
_cell_formula_units_Z 16
_cell_length_a 12.530766
_cell_length_b 14.186897
_cell_length_c 8.185497
_cell_angle_alpha 109.129733
_cell_angle_beta 83.602563
_cell_angle_gamma 148.961760
_cell_volume 664.640755
_symmetry_space_group_name_H-M "P -1"
_symmetry_group_IT_number 2
_symmetry_cell_setting 'triclinic'
loop_
_space_group_symop_operation_xyz
x,y,z
-x,-y,-z
loop_
_atom_site_type_symbol
_atom_site_label
_atom_site_fract_x
_atom_site_fract_y
_atom_site_fract_z
Si Si1 0.749880 0.589974 0.707708
Si Si2 0.319946 0.322283 0.605990
Si Si3 0.401371 0.007631 0.121624
Si Si4 0.224787 0.022765 0.904454
Si Si5 0.877593 0.045248 0.465943
Si Si6 0.608594 0.462067 0.018674
Si Si7 0.835456 0.449932 0.432279
Si Si8 0.006912 0.677720 0.207834
O O1 0.564781 0.502717 0.584022
O O2 0.824164 0.543444 0.592735
O O3 0.599328 0.456365 0.821268
O O4 0.962488 0.826951 0.863477
O O5 0.328793 0.383154 0.818032
O O6 0.140829 0.240877 0.481125
O O7 0.218074 0.131015 0.540368
O O8 0.586275 0.206435 0.320950
O O9 0.199527 0.788316 0.125531
O O10 0.307713 0.010550 0.011405
O O11 0.500000 0.000000 0.000000
O O12 0.247543 0.010098 0.701190
O O13 0.372081 0.241895 0.016853
O O14 0.871212 0.120482 0.651421
O O15 0.782846 0.515793 0.056738
O O16 0.000000 0.500000 0.500000
O O17 0.945091 0.558860 0.301295
#
# Coordination Sequence:
#
# PCOD8022035 Si02
#       8
#     2   2   2   2   2   2   2   2
#     4  12  24  44  72 101 143 186 237 290 344 421
#     4  10  23  44  69 105 146 192 234 288 355 415
#     4  12  28  47  74 107 137 183 243 291 359 425
#     4  12  24  43  70 105 139 185 243 287 346 424
#     4  10  22  44  72  99 145 188 235 285 354 419
#     4  11  24  45  70 103 147 186 232 294 350 410
#     4  12  28  48  74 106 139 185 236 288 364 425
#     4  11  24  49  73  98 148 184 223 304 350 417
#
# _framework density 24.073156000000001
#
# number of rings (size 3 to 8) (size 9 to 14) (size 15 to 20)
#    0.000    0.750    5.000    1.875    0.000    3.000 
#    0.000    0.000    0.000    0.000    0.000    0.000 
#    0.000    0.000    0.000    0.000    0.000    0.000 
#
# Total GULP energy -198252.679116 kJ/mol
# GULP energy per Si atom -12390.792445 kJ/mol
# Density = 2.401836 g / cm^3
# Si number density = 24.073156 Si / 1000 Ang^3
#
#
#
# Elastic Constant Matrix: (Units=GPa)
#
#
# Indices 1 2 3 4 5 6 
#
# 1 96.1460 27.5591 19.9886 1.0738 22.4990 26.4575
# 2 27.5591 142.1038 -3.6371 14.0942 4.5770 22.4630
# 3 19.9886 -3.6371 58.8418 15.0006 16.5255 13.2330
# 4 1.0738 14.0942 15.0006 38.6754 6.2056 0.9763
# 5 22.4990 4.5770 16.5255 6.2056 38.3189 3.2688
# 6 26.4575 22.4630 13.2330 0.9763 3.2688 34.4988
#
#
#
# Elastic Compliance Matrix: (Units=1/GPa)
#
#
# Indices 1 2 3 4 5 6 
#
# 1 0.015656 -0.001506 -0.001584 0.002236 -0.007861 -0.009737
# 2 -0.001506 0.008780 0.003602 -0.004325 -0.000525 -0.005771
# 3 -0.001584 0.003602 0.024423 -0.009263 -0.007722 -0.009505
# 4 0.002236 -0.004325 -0.009263 0.031215 -0.002196 0.003979
# 5 -0.007861 -0.000525 -0.007722 -0.002196 0.033934 0.006179
# 6 -0.009737 -0.005771 -0.009505 0.003979 0.006179 0.043159
#
#
# Mechanical properties :
#
#
# Convention : Reuss Voigt Hill
#
# Bulk Modulus (GPa) = 20.04705 42.76809 31.40757
# Shear Modulus (GPa) = 28.94030 39.17735 34.05882
#
# Velocity S-wave (km/s) = 3.47101 4.03852 3.76547
# Velocity P-wave (km/s) = 4.94060 6.28893 5.65509
#
# Compressibility (1/GPa) = 0.04988264
#
# Stress axis : x y z
#
# Youngs Moduli (GPa) = 63.87428 113.90122 40.94482
#
# Poissons Ratio (x) = 0.17155 0.06485
# Poissons Ratio (y) = 0.09621 -0.14749
# Poissons Ratio (z) = 0.10117 -0.41030
#
# Static dielectric constant tensor:
#      x y z
#    x 4.331310 0.117510 0.268270 
#    y 0.117510 4.831970 0.316240 
#    z 0.268270 0.316240 4.548950 
# 
# 
# High freq. dielectric constant tensor:
#      x y z
#    x 1.947880 0.006650 0.024340 
#    y 0.006650 1.985330 0.009120 
#    z 0.024340 0.009120 1.962090 
# 
# From -- ./inp_files/273715.got.cif
#   From: 2010.06.25/outbox.cif.g09.slc.cpg/sg2_137_cif.got.tgz:273715.got - 2010.06.27 13:26:56.
