data_PCOD8022665
_publ_section_title
;
Structure prediction by ZEFSAII (Michael W. Deem and Ramdas Pophale) SiO2 
 PCOD8022665
Probable space group: P -1
;
_chemical_formula_sum "Si O2"
_cell_formula_units_Z 16
_cell_length_a 10.449885
_cell_length_b 17.064160
_cell_length_c 14.049727
_cell_angle_alpha 15.549072
_cell_angle_beta 92.730295
_cell_angle_gamma 92.718365
_cell_volume 670.813404
_symmetry_space_group_name_H-M "P -1"
_symmetry_group_IT_number 2
_symmetry_cell_setting 'triclinic'
loop_
_space_group_symop_operation_xyz
x,y,z
-x,-y,-z
loop_
_atom_site_type_symbol
_atom_site_label
_atom_site_fract_x
_atom_site_fract_y
_atom_site_fract_z
Si Si1 0.747956 0.344497 0.865679
Si Si2 0.590041 0.754612 0.244937
Si Si3 0.876553 0.387277 0.014545
Si Si4 0.160903 0.285938 0.179740
Si Si5 0.493778 0.117663 0.103162
Si Si6 0.819450 0.114489 0.786102
Si Si7 0.653026 0.480989 0.235824
Si Si8 0.062845 0.796409 0.121418
O O1 0.663747 0.587130 0.526691
O O2 0.870311 0.229784 0.946714
O O3 0.804840 0.475412 0.811729
O O4 0.642970 0.083437 0.179560
O O5 0.513832 0.649992 0.264471
O O6 0.500000 0.000000 0.000000
O O7 0.706737 0.883489 0.033534
O O8 0.030400 0.402269 0.990173
O O9 0.833040 0.062408 0.423094
O O10 0.834359 0.621269 0.818266
O O11 0.286339 0.423672 0.973643
O O12 0.442569 0.794349 0.457641
O O13 0.422290 0.251575 0.034029
O O14 0.771871 0.418249 0.384583
O O15 0.832169 0.120732 0.893276
O O16 0.952548 0.038740 0.827210
O O17 0.000000 0.500000 0.500000
#
# Coordination Sequence:
#
# PCOD8022665 Si02
#       8
#     2   2   2   2   2   2   2   2
#     4  11  23  41  68  92 138 172 218 273 331 391
#     4   9  19  38  61  91 132 171 209 261 312 388
#     4  10  24  42  67  99 126 170 219 270 342 392
#     4  10  23  45  66  95 130 165 222 282 330 388
#     4  10  24  42  64 103 129 180 222 263 324 401
#     4  10  23  37  64  96 127 173 224 263 331 408
#     4  11  23  43  70  90 133 176 224 270 330 386
#     4  11  23  39  60  97 135 164 216 274 331 395
#
# _framework density 23.851641999999998
#
# number of rings (size 3 to 8) (size 9 to 14) (size 15 to 20)
#    0.000    1.750    1.250    1.500    3.500    7.000 
#    0.000   11.250    0.000    0.000    0.000    0.000 
#    0.000    0.000    0.000    0.000    0.000    0.000 
#
# Total GULP energy -198311.383805 kJ/mol
# GULP energy per Si atom -12394.461488 kJ/mol
# Density = 2.379735 g / cm^3
# Si number density = 23.851642 Si / 1000 Ang^3
#
#
#
# Elastic Constant Matrix: (Units=GPa)
#
#
# Indices 1 2 3 4 5 6 
#
# 1 115.7102 65.7640 16.0534 11.9702 -6.0344 -3.1016
# 2 65.7640 134.3003 15.5226 3.5691 0.2991 3.8446
# 3 16.0534 15.5226 34.7768 -1.3319 -3.4722 -1.9811
# 4 11.9702 3.5691 -1.3319 32.4998 -4.6907 -0.7554
# 5 -6.0344 0.2991 -3.4722 -4.6907 25.0846 4.2740
# 6 -3.1016 3.8446 -1.9811 -0.7554 4.2740 34.4634
#
#
#
# Elastic Compliance Matrix: (Units=1/GPa)
#
#
# Indices 1 2 3 4 5 6 
#
# 1 0.013004 -0.005928 -0.003256 -0.003985 0.001775 0.001337
# 2 -0.005928 0.010638 -0.002226 0.000676 -0.001453 -0.001653
# 3 -0.003256 -0.002226 0.031862 0.003366 0.004052 0.001358
# 4 -0.003985 0.000676 0.003366 0.033123 0.005731 -0.000225
# 5 0.001775 -0.001453 0.004052 0.005731 0.042729 -0.004619
# 6 0.001337 -0.001653 0.001358 -0.000225 -0.004619 0.029967
#
#
# Mechanical properties :
#
#
# Convention : Reuss Voigt Hill
#
# Bulk Modulus (GPa) = 30.59448 53.27414 41.93431
# Shear Modulus (GPa) = 25.63625 30.90605 28.27115
#
# Velocity S-wave (km/s) = 3.28200 3.60357 3.44654
# Velocity P-wave (km/s) = 5.21698 6.30067 5.78426
#
# Compressibility (1/GPa) = 0.03268563
#
# Stress axis : x y z
#
# Youngs Moduli (GPa) = 76.90184 93.99865 31.38538
#
# Poissons Ratio (x) = 0.55718 0.10219
# Poissons Ratio (y) = 0.45584 0.06985
# Poissons Ratio (z) = 0.25039 0.20920
#
# Static dielectric constant tensor:
#      x y z
#    x 5.028660 0.161290 -0.419360 
#    y 0.161290 4.150500 -0.019060 
#    z -0.419360 -0.019060 4.318320 
# 
# 
# High freq. dielectric constant tensor:
#      x y z
#    x 1.971650 0.009300 -0.011920 
#    y 0.009300 1.945600 -0.008270 
#    z -0.011920 -0.008270 1.931110 
# 
# From -- ./inp_files/433628.got.cif
#   From: 2010.06.25/outbox.cif.g09.slc.cpg/sg2_217_cif.got.tgz:433628.got - 2010.06.27 13:26:56.
