data_PCOD8022086
_publ_section_title
;
Structure prediction by ZEFSAII (Michael W. Deem and Ramdas Pophale) SiO2 
 PCOD8022086
Probable space group: P -1
;
_chemical_formula_sum "Si O2"
_cell_formula_units_Z 16
_cell_length_a 7.916135
_cell_length_b 24.208775
_cell_length_c 5.194520
_cell_angle_alpha 84.076797
_cell_angle_beta 96.263098
_cell_angle_gamma 145.033668
_cell_volume 566.931780
_symmetry_space_group_name_H-M "P -1"
_symmetry_group_IT_number 2
_symmetry_cell_setting 'triclinic'
loop_
_space_group_symop_operation_xyz
x,y,z
-x,-y,-z
loop_
_atom_site_type_symbol
_atom_site_label
_atom_site_fract_x
_atom_site_fract_y
_atom_site_fract_z
Si Si1 0.208592 0.325167 0.067704
Si Si2 0.613916 0.226639 0.695708
Si Si3 0.846232 0.147994 0.807362
Si Si4 0.394071 0.286241 0.483250
Si Si5 0.355042 0.109810 0.226721
Si Si6 0.839565 0.598085 0.548852
Si Si7 0.212053 0.979737 0.895168
Si Si8 0.766777 0.466483 0.797940
O O1 0.361644 0.307388 0.192156
O O2 0.103510 0.339864 0.257607
O O3 0.477674 0.420375 0.894431
O O4 0.906528 0.224185 0.922267
O O5 0.474683 0.243316 0.521766
O O6 0.543105 0.160171 0.499910
O O7 0.974078 0.332919 0.708311
O O8 0.487015 0.183297 0.979009
O O9 0.062989 0.204004 0.577400
O O10 0.918906 0.115878 0.024526
O O11 0.499782 0.052354 0.723284
O O12 0.646899 0.389060 0.618723
O O13 0.316277 0.036646 0.154491
O O14 0.032134 0.048239 0.272949
O O15 0.500000 0.500000 0.500000
O O16 0.956083 0.567696 0.656849
O O17 0.000000 0.500000 0.000000
#
# Coordination Sequence:
#
# PCOD8022086 Si02
#       8
#     2   2   2   2   2   2   2   2
#     4  11  24  44  71 100 151 186 246 306 373 441
#     4  12  28  47  75 103 155 194 247 308 382 442
#     4  10  22  45  67 108 137 193 237 308 373 440
#     4  11  24  44  69 103 147 194 243 306 376 445
#     4  11  26  49  71 110 144 197 244 310 376 444
#     4  12  27  46  72 110 143 198 251 314 365 448
#     4  10  22  44  75 100 146 183 253 302 367 455
#     4  11  26  45  74 104 144 194 253 306 373 449
#
# _framework density 28.222087999999999
#
# number of rings (size 3 to 8) (size 9 to 14) (size 15 to 20)
#    0.000    1.000    2.500    2.625    7.000    4.000 
#    4.500    1.875    0.000    0.000    0.000    0.000 
#    0.000    0.000    0.000    0.000    0.000    0.000 
#
# Total GULP energy -198357.191149 kJ/mol
# GULP energy per Si atom -12397.324447 kJ/mol
# Density = 2.815785 g / cm^3
# Si number density = 28.222088 Si / 1000 Ang^3
#
#
#
# Elastic Constant Matrix: (Units=GPa)
#
#
# Indices 1 2 3 4 5 6 
#
# 1 72.0024 28.2284 -24.1552 -11.5770 -5.9846 -11.6434
# 2 28.2284 139.4927 22.0447 -2.1915 -1.6886 4.5211
# 3 -24.1552 22.0447 60.7359 4.5219 -0.8098 -2.5715
# 4 -11.5770 -2.1915 4.5219 24.2154 -5.0726 20.4868
# 5 -5.9846 -1.6886 -0.8098 -5.0726 38.6346 -2.8190
# 6 -11.6434 4.5211 -2.5715 20.4868 -2.8190 54.1137
#
#
#
# Elastic Compliance Matrix: (Units=1/GPa)
#
#
# Indices 1 2 3 4 5 6 
#
# 1 0.021692 -0.006055 0.010634 0.005514 0.004321 0.003816
# 2 -0.006055 0.009468 -0.006090 0.001477 -0.000675 -0.002978
# 3 0.010634 -0.006090 0.023480 -0.004232 0.001726 0.005605
# 4 0.005514 0.001477 -0.004232 0.066831 0.007851 -0.024031
# 5 0.004321 -0.000675 0.001726 0.007851 0.027556 -0.000469
# 6 0.003816 -0.002978 0.005605 -0.024031 -0.000469 0.028889
#
#
# Mechanical properties :
#
#
# Convention : Reuss Voigt Hill
#
# Bulk Modulus (GPa) = 19.37308 36.05184 27.71246
# Shear Modulus (GPa) = 25.23413 39.80028 32.51720
#
# Velocity S-wave (km/s) = 2.99344 3.75941 3.39807
# Velocity P-wave (km/s) = 4.33901 5.62550 5.02361
#
# Compressibility (1/GPa) = 0.05161803
#
# Stress axis : x y z
#
# Youngs Moduli (GPa) = 46.09899 105.61806 42.59028
#
# Poissons Ratio (x) = 0.63952 -0.45289
# Poissons Ratio (y) = 0.27913 0.25936
# Poissons Ratio (z) = -0.49020 0.64318
#
# Static dielectric constant tensor:
#      x y z
#    x 5.335710 0.197170 0.177890 
#    y 0.197170 5.052170 -0.279350 
#    z 0.177890 -0.279350 4.873740 
# 
# 
# High freq. dielectric constant tensor:
#      x y z
#    x 2.170190 0.000510 0.017770 
#    y 0.000510 2.171880 -0.020110 
#    z 0.017770 -0.020110 2.115670 
# 
# From -- ./inp_files/38733.got.cif
#   From: 2010.06.25/outbox.cif.g09.slc.cpg/sg2_20_cif.got.tgz:38733.got - 2010.06.27 13:26:56.
