data_PCOD8022950
_publ_section_title
;
Structure prediction by ZEFSAII (Michael W. Deem and Ramdas Pophale) SiO2 
 PCOD8022950
Probable space group: P -1
;
_chemical_formula_sum "Si O2"
_cell_formula_units_Z 14
_cell_length_a 17.821358
_cell_length_b 5.563363
_cell_length_c 7.959662
_cell_angle_alpha 57.765713
_cell_angle_beta 124.177978
_cell_angle_gamma 116.244335
_cell_volume 540.673398
_symmetry_space_group_name_H-M "P -1"
_symmetry_group_IT_number 2
_symmetry_cell_setting 'triclinic'
loop_
_space_group_symop_operation_xyz
x,y,z
-x,-y,-z
loop_
_atom_site_type_symbol
_atom_site_label
_atom_site_fract_x
_atom_site_fract_y
_atom_site_fract_z
Si Si1 0.229165 0.137958 0.919305
Si Si2 0.345198 0.969601 0.868366
Si Si3 0.416599 0.555398 0.603292
Si Si4 0.055426 0.632587 0.258121
Si Si5 0.985513 0.062560 0.220366
Si Si6 0.739757 0.278308 0.465496
Si Si7 0.388142 0.406614 0.242096
O O1 0.240681 0.407589 0.709289
O O2 0.273130 0.905164 0.957860
O O3 0.123292 0.027369 0.865094
O O4 0.288629 0.214015 0.136884
O O5 0.286670 0.953844 0.628371
O O6 0.408878 0.291862 0.827543
O O7 0.405636 0.723816 0.055872
O O8 0.346785 0.762865 0.496073
O O9 0.387478 0.422217 0.434516
O O10 0.524286 0.725513 0.666781
O O11 0.164582 0.750074 0.313104
O O12 0.030155 0.272648 0.356079
O O13 0.993691 0.739327 0.995436
O O14 0.029623 0.774836 0.350514
#
# Coordination Sequence:
#
# PCOD8022950 Si02
#       7
#     2   2   2   2   2   2   2
#     4  10  24  41  63  94 131 172 221 276 337 401
#     4  10  23  40  62  96 132 178 214 278 335 402
#     4  10  23  41  65  96 130 174 224 275 338 404
#     4  10  24  42  67  98 131 175 226 281 343 406
#     4  10  24  42  67  98 131 175 226 281 343 406
#     4  10  24  41  63  94 131 172 221 276 337 401
#     4  10  23  41  65  96 130 174 224 275 338 404
#
# _framework density 25.893636999999998
#
# number of rings (size 3 to 8) (size 9 to 14) (size 15 to 20)
#    0.000    2.000    0.000    0.429   12.000    8.571 
#    0.000    2.857    0.000    0.000    0.000    0.000 
#    0.000    0.000    0.000    0.000    0.000    0.000 
#
# Total GULP energy -173532.366616 kJ/mol
# GULP energy per Si atom -12395.169044 kJ/mol
# Density = 2.583470 g / cm^3
# Si number density = 25.893637 Si / 1000 Ang^3
#
#
#
# Elastic Constant Matrix: (Units=GPa)
#
#
# Indices 1 2 3 4 5 6 
#
# 1 173.3037 42.2881 28.3115 36.0444 25.2219 -12.6258
# 2 42.2881 76.8430 2.1080 14.5469 6.8400 -9.0760
# 3 28.3115 2.1080 54.2421 10.7741 19.0234 -0.3680
# 4 36.0444 14.5469 10.7741 28.5638 0.6178 1.1747
# 5 25.2219 6.8400 19.0234 0.6178 33.4930 8.1489
# 6 -12.6258 -9.0760 -0.3680 1.1747 8.1489 47.4763
#
#
#
# Elastic Compliance Matrix: (Units=1/GPa)
#
#
# Indices 1 2 3 4 5 6 
#
# 1 0.010199 -0.002232 -0.000121 -0.011679 -0.007897 0.003929
# 2 -0.002232 0.016217 0.003403 -0.006775 -0.004275 0.003434
# 3 -0.000121 0.003403 0.026369 -0.011334 -0.016322 0.003905
# 4 -0.011679 -0.006775 -0.011334 0.057457 0.017735 -0.008955
# 5 -0.007897 -0.004275 -0.016322 0.017735 0.048492 -0.011806
# 6 0.003929 0.003434 0.003905 -0.008955 -0.011806 0.025043
#
#
# Mechanical properties :
#
#
# Convention : Reuss Voigt Hill
#
# Bulk Modulus (GPa) = 18.21966 49.97823 34.09894
# Shear Modulus (GPa) = 25.00361 37.35204 31.17782
#
# Velocity S-wave (km/s) = 3.11083 3.80217 3.47374
# Velocity P-wave (km/s) = 4.46706 6.21439 5.41171
#
# Compressibility (1/GPa) = 0.05488577
#
# Stress axis : x y z
#
# Youngs Moduli (GPa) = 98.04952 61.66357 37.92362
#
# Poissons Ratio (x) = 0.13760 0.00458
# Poissons Ratio (y) = 0.21880 -0.12905
# Poissons Ratio (z) = 0.01184 -0.20983
#
# Static dielectric constant tensor:
#      x y z
#    x 4.780840 -0.264700 0.013050 
#    y -0.264700 4.659580 -0.017020 
#    z 0.013050 -0.017020 4.624240 
# 
# 
# High freq. dielectric constant tensor:
#      x y z
#    x 2.039180 -0.002460 -0.003340 
#    y -0.002460 2.033850 -0.006780 
#    z -0.003340 -0.006780 2.032680 
# 
# From -- ./inp_files/43580.got.cif
#   From: 2010.06.25/outbox.cif.g09.slc.cpg/sg2_22_cif.got.tgz:43580.got - 2010.06.27 13:26:56.
