data_PCOD8022083
_publ_section_title
;
Structure prediction by ZEFSAII (Michael W. Deem and Ramdas Pophale) SiO2 
 PCOD8022083
Probable space group: P -1
;
_chemical_formula_sum "Si O2"
_cell_formula_units_Z 14
_cell_length_a 15.244735
_cell_length_b 15.454157
_cell_length_c 8.601298
_cell_angle_alpha 53.195052
_cell_angle_beta 107.809133
_cell_angle_gamma 151.882803
_cell_volume 617.512142
_symmetry_space_group_name_H-M "P -1"
_symmetry_group_IT_number 2
_symmetry_cell_setting 'triclinic'
loop_
_space_group_symop_operation_xyz
x,y,z
-x,-y,-z
loop_
_atom_site_type_symbol
_atom_site_label
_atom_site_fract_x
_atom_site_fract_y
_atom_site_fract_z
Si Si1 0.683311 0.413519 0.931080
Si Si2 0.913908 0.718635 0.297850
Si Si3 0.719515 0.664826 0.479959
Si Si4 0.919337 0.091465 0.164095
Si Si5 0.583726 0.894198 0.330593
Si Si6 0.757261 0.077669 0.580046
Si Si7 0.857464 0.389944 0.898092
O O1 0.657201 0.498757 0.737350
O O2 0.743825 0.384482 0.874793
O O3 0.877908 0.631956 0.931893
O O4 0.448754 0.123757 0.196818
O O5 0.830487 0.743827 0.292836
O O6 0.692209 0.401103 0.507275
O O7 0.106496 0.885057 0.344668
O O8 0.032170 0.854440 0.050129
O O9 0.500000 0.500000 0.500000
O O10 0.893968 0.937873 0.363666
O O11 0.681687 0.900179 0.275404
O O12 0.667846 0.971459 0.469969
O O13 0.665861 0.093730 0.075503
O O14 0.944626 0.377476 0.376556
O O15 0.000000 0.500000 0.000000
#
# Coordination Sequence:
#
# PCOD8022083 Si02
#       7
#     2   2   2   2   2   2   2
#     4  12  24  45  73 103 140 185 234 281 348 420
#     4  12  25  46  71 103 143 179 233 288 346 415
#     4  12  25  46  70  99 144 180 230 295 341 408
#     4  12  24  44  71 104 135 185 233 283 347 412
#     4  11  24  46  72 101 140 183 235 282 347 413
#     4  11  24  44  70 105 141 183 226 285 350 409
#     4  10  22  44  74  98 143 182 229 289 345 407
#
# _framework density 22.671620000000001
#
# number of rings (size 3 to 8) (size 9 to 14) (size 15 to 20)
#    0.000    0.571    7.143    1.714    0.000    4.000 
#    0.000    3.571    0.000    0.000    0.000    0.000 
#    0.000    0.000    0.000    0.000    0.000    0.000 
#
# Total GULP energy -173544.116843 kJ/mol
# GULP energy per Si atom -12396.008346 kJ/mol
# Density = 2.262002 g / cm^3
# Si number density = 22.671620 Si / 1000 Ang^3
#
#
#
# Elastic Constant Matrix: (Units=GPa)
#
#
# Indices 1 2 3 4 5 6 
#
# 1 77.9183 14.7324 47.6915 -3.3913 6.3726 -2.0424
# 2 14.7324 63.7533 15.6647 -4.6477 -3.6484 2.6625
# 3 47.6915 15.6647 151.4518 -12.1286 -4.0340 -5.9707
# 4 -3.3913 -4.6477 -12.1286 37.2929 -5.4002 -0.4612
# 5 6.3726 -3.6484 -4.0340 -5.4002 45.2470 -6.6283
# 6 -2.0424 2.6625 -5.9707 -0.4612 -6.6283 37.3552
#
#
#
# Elastic Compliance Matrix: (Units=1/GPa)
#
#
# Indices 1 2 3 4 5 6 
#
# 1 0.016737 -0.002844 -0.005151 -0.000975 -0.003204 -0.000286
# 2 -0.002844 0.016795 -0.000691 0.001849 0.001748 -0.001130
# 3 -0.005151 -0.000691 0.008613 0.002550 0.001965 0.001524
# 4 -0.000975 0.001849 0.002550 0.028395 0.004093 0.001299
# 5 -0.003204 0.001748 0.001965 0.004093 0.023990 0.004322
# 6 -0.000286 -0.001130 0.001524 0.001299 0.004322 0.027862
#
#
# Mechanical properties :
#
#
# Convention : Reuss Voigt Hill
#
# Bulk Modulus (GPa) = 40.36978 49.92225 45.14602
# Shear Modulus (GPa) = 33.77919 38.31465 36.04692
#
# Velocity S-wave (km/s) = 3.86415 4.11540 3.99175
# Velocity P-wave (km/s) = 6.14442 6.68203 6.41886
#
# Compressibility (1/GPa) = 0.02477100
#
# Stress axis : x y z
#
# Youngs Moduli (GPa) = 59.74961 59.54275 116.10530
#
# Poissons Ratio (x) = 0.16937 0.59803
# Poissons Ratio (y) = 0.16996 0.08026
# Poissons Ratio (z) = 0.30776 0.04116
#
# Static dielectric constant tensor:
#      x y z
#    x 4.323020 -0.101720 0.340930 
#    y -0.101720 4.152560 -0.430680 
#    z 0.340930 -0.430680 4.889570 
# 
# 
# High freq. dielectric constant tensor:
#      x y z
#    x 1.890550 0.010600 -0.000190 
#    y 0.010600 1.896380 -0.010960 
#    z -0.000190 -0.010960 1.912470 
# 
# From -- ./inp_files/201597.got.cif
#   From: 2010.06.25/outbox.cif.g09.slc.cpg/sg2_101_cif.got.tgz:201597.got - 2010.06.27 13:26:56.
