data_PCOD8022045
_publ_section_title
;
Structure prediction by ZEFSAII (Michael W. Deem and Ramdas Pophale) SiO2 
 PCOD8022045
Probable space group: P -1
;
_chemical_formula_sum "Si O2"
_cell_formula_units_Z 16
_cell_length_a 9.240278
_cell_length_b 8.439375
_cell_length_c 24.192927
_cell_angle_alpha 39.085391
_cell_angle_beta 47.680699
_cell_angle_gamma 76.079625
_cell_volume 700.309251
_symmetry_space_group_name_H-M "P -1"
_symmetry_group_IT_number 2
_symmetry_cell_setting 'triclinic'
loop_
_space_group_symop_operation_xyz
x,y,z
-x,-y,-z
loop_
_atom_site_type_symbol
_atom_site_label
_atom_site_fract_x
_atom_site_fract_y
_atom_site_fract_z
Si Si1 0.870664 0.213560 0.014573
Si Si2 0.882304 0.637779 0.404229
Si Si3 0.745924 0.850518 0.031501
Si Si4 0.099087 0.389818 0.716654
Si Si5 0.502277 0.409595 0.660295
Si Si6 0.223469 0.411984 0.234324
Si Si7 0.945462 0.789520 0.517317
Si Si8 0.235730 0.374146 0.120343
O O1 0.813137 0.072164 0.006327
O O2 0.664209 0.958477 0.179909
O O3 0.873744 0.518396 0.926193
O O4 0.139111 0.335503 0.934384
O O5 0.804465 0.621860 0.365101
O O6 0.653883 0.453891 0.554516
O O7 0.023576 0.483330 0.412318
O O8 0.061841 0.002623 0.275112
O O9 0.453839 0.617875 0.160686
O O10 0.864266 0.048111 0.890888
O O11 0.327647 0.515548 0.664940
O O12 0.009876 0.608806 0.677431
O O13 0.669713 0.620223 0.611883
O O14 0.277848 0.544523 0.122437
O O15 0.138587 0.053754 0.351793
O O16 0.000000 0.000000 0.500000
O O17 0.500000 0.500000 0.000000
#
# Coordination Sequence:
#
# PCOD8022045 Si02
#       8
#     2   2   2   2   2   2   2   2
#     4  10  23  44  71 105 134 181 229 290 351 401
#     4  12  26  48  67 101 148 183 233 284 352 419
#     4  10  22  44  73 102 138 173 238 295 335 406
#     4  11  24  46  71 103 137 188 235 285 345 411
#     4  11  25  46  71 103 148 179 225 294 352 414
#     4  12  24  44  69 102 136 183 235 286 342 417
#     4  12  25  46  70 100 134 186 233 282 349 416
#     4  12  26  43  71 104 140 184 233 287 352 414
#
# _framework density 22.847049999999999
#
# number of rings (size 3 to 8) (size 9 to 14) (size 15 to 20)
#    0.000    0.750    3.750    3.375    3.500    0.500 
#    4.500    1.875    0.000    0.000    0.000    0.000 
#    0.000    0.000    0.000    0.000    0.000    0.000 
#
# Total GULP energy -198326.562580 kJ/mol
# GULP energy per Si atom -12395.410161 kJ/mol
# Density = 2.279505 g / cm^3
# Si number density = 22.847050 Si / 1000 Ang^3
#
#
#
# Elastic Constant Matrix: (Units=GPa)
#
#
# Indices 1 2 3 4 5 6 
#
# 1 166.7403 56.2601 63.7695 -9.6075 -7.8693 -16.3022
# 2 56.2601 92.3101 43.0836 10.2583 2.8988 -6.3616
# 3 63.7695 43.0836 99.6757 6.3071 8.9187 -10.4527
# 4 -9.6075 10.2583 6.3071 40.7633 2.3539 9.3749
# 5 -7.8693 2.8988 8.9187 2.3539 44.9149 1.5136
# 6 -16.3022 -6.3616 -10.4527 9.3749 1.5136 39.2039
#
#
#
# Elastic Compliance Matrix: (Units=1/GPa)
#
#
# Indices 1 2 3 4 5 6 
#
# 1 0.009628 -0.004057 -0.004758 0.003617 0.002667 0.001109
# 2 -0.004057 0.015624 -0.003702 -0.004492 -0.000781 0.000966
# 3 -0.004758 -0.003702 0.015430 -0.002915 -0.003586 0.002371
# 4 0.003617 -0.004492 -0.002915 0.028523 0.000238 -0.006832
# 5 0.002667 -0.000781 -0.003586 0.000238 0.023513 -0.000939
# 6 0.001109 0.000966 0.002371 -0.006832 -0.000939 0.028428
#
#
# Mechanical properties :
#
#
# Convention : Reuss Voigt Hill
#
# Bulk Modulus (GPa) = 63.90181 76.10583 70.00382
# Shear Modulus (GPa) = 33.02570 38.01728 35.52149
#
# Velocity S-wave (km/s) = 3.80611 4.08363 3.94731
# Velocity P-wave (km/s) = 6.88080 7.45775 7.17508
#
# Compressibility (1/GPa) = 0.01564901
#
# Stress axis : x y z
#
# Youngs Moduli (GPa) = 103.85837 64.00442 64.80692
#
# Poissons Ratio (x) = 0.25967 0.30832
# Poissons Ratio (y) = 0.42136 0.23993
# Poissons Ratio (z) = 0.49412 0.23696
#
# Static dielectric constant tensor:
#      x y z
#    x 4.490230 -0.096460 0.480180 
#    y -0.096460 3.878230 0.247880 
#    z 0.480180 0.247880 4.226210 
# 
# 
# High freq. dielectric constant tensor:
#      x y z
#    x 1.926120 -0.000320 0.020240 
#    y -0.000320 1.882580 0.014990 
#    z 0.020240 0.014990 1.906390 
# 
# From -- ./inp_files/606618.got.cif
#   From: 2010.06.25/outbox.cif.g09.slc.cpg/sg2_304_cif.got.tgz:606618.got - 2010.06.27 13:26:56.
