data_PCOD8022127
_publ_section_title
;
Structure prediction by ZEFSAII (Michael W. Deem and Ramdas Pophale) SiO2 
 PCOD8022127
Probable space group: P -1
;
_chemical_formula_sum "Si O2"
_cell_formula_units_Z 14
_cell_length_a 6.540770
_cell_length_b 9.197156
_cell_length_c 19.426505
_cell_angle_alpha 50.566092
_cell_angle_beta 52.455686
_cell_angle_gamma 48.860197
_cell_volume 641.864783
_symmetry_space_group_name_H-M "P -1"
_symmetry_group_IT_number 2
_symmetry_cell_setting 'triclinic'
loop_
_space_group_symop_operation_xyz
x,y,z
-x,-y,-z
loop_
_atom_site_type_symbol
_atom_site_label
_atom_site_fract_x
_atom_site_fract_y
_atom_site_fract_z
Si Si1 0.010155 0.795423 0.373282
Si Si2 0.122772 0.441902 0.221503
Si Si3 0.906926 0.128186 0.408918
Si Si4 0.257730 0.272127 0.096129
Si Si5 0.458283 0.215018 0.810169
Si Si6 0.646117 0.588857 0.497648
Si Si7 0.369278 0.469646 0.884131
O O1 0.264810 0.760166 0.279861
O O2 0.090995 0.618617 0.467673
O O3 0.757382 0.759579 0.395182
O O4 0.917266 0.007409 0.372174
O O5 0.245639 0.379524 0.138743
O O6 0.363284 0.480929 0.201362
O O7 0.102629 0.248702 0.322030
O O8 0.816488 0.650368 0.222350
O O9 0.577311 0.296378 0.430133
O O10 0.000000 0.000000 0.500000
O O11 0.932585 0.318974 0.125605
O O12 0.471046 0.027488 0.131904
O O13 0.393958 0.372923 0.983672
O O14 0.380319 0.297794 0.878632
O O15 0.500000 0.500000 0.500000
#
# Coordination Sequence:
#
# PCOD8022127 Si02
#       7
#     2   2   2   2   2   2   2
#     4  11  24  41  63  88 126 170 202 266 317 368
#     4  11  24  41  65  96 132 166 218 265 316 384
#     4  12  24  42  64  93 129 171 216 260 318 381
#     4  10  22  45  65  94 130 168 213 263 330 378
#     4  11  23  40  66  94 131 167 212 262 325 383
#     4  11  24  42  63  90 123 162 219 259 309 377
#     4  10  24  41  67  97 128 166 214 269 316 390
#
# _framework density 21.811449
#
# number of rings (size 3 to 8) (size 9 to 14) (size 15 to 20)
#    0.000    1.143    4.286    1.286    2.000    2.857 
#    0.000    0.000    0.000    0.000    0.000    0.000 
#    0.000    0.000    0.000    0.000    0.000    0.000 
#
# Total GULP energy -173531.666128 kJ/mol
# GULP energy per Si atom -12395.119009 kJ/mol
# Density = 2.176180 g / cm^3
# Si number density = 21.811449 Si / 1000 Ang^3
#
#
#
# Elastic Constant Matrix: (Units=GPa)
#
#
# Indices 1 2 3 4 5 6 
#
# 1 75.2608 26.5887 22.1734 -8.5781 -20.2180 -1.0368
# 2 26.5887 127.1291 25.7058 -3.6623 -6.9560 -1.7007
# 3 22.1734 25.7058 82.7556 1.6960 -12.3266 -3.6312
# 4 -8.5781 -3.6623 1.6960 38.4921 0.2238 0.0623
# 5 -20.2180 -6.9560 -12.3266 0.2238 41.7633 2.2982
# 6 -1.0368 -1.7007 -3.6312 0.0623 2.2982 12.9428
#
#
#
# Elastic Compliance Matrix: (Units=1/GPa)
#
#
# Indices 1 2 3 4 5 6 
#
# 1 0.017386 -0.002561 -0.002918 0.003720 0.007167 -0.001053
# 2 -0.002561 0.008821 -0.002104 0.000363 -0.000418 0.000436
# 3 -0.002918 -0.002104 0.014013 -0.001486 0.002214 0.003035
# 4 0.003720 0.000363 -0.001486 0.026901 0.001302 -0.000432
# 5 0.007167 -0.000418 0.002214 0.001302 0.028204 -0.003874
# 6 -0.001053 0.000436 0.003035 -0.000432 -0.003874 0.078777
#
#
# Mechanical properties :
#
#
# Convention : Reuss Voigt Hill
#
# Bulk Modulus (GPa) = 39.91487 48.23125 44.07306
# Shear Modulus (GPa) = 25.30110 32.68481 28.99296
#
# Velocity S-wave (km/s) = 3.40956 3.87527 3.64985
# Velocity P-wave (km/s) = 5.81720 6.49495 6.16540
#
# Compressibility (1/GPa) = 0.02505332
#
# Stress axis : x y z
#
# Youngs Moduli (GPa) = 57.51614 113.37142 71.36468
#
# Poissons Ratio (x) = 0.29036 0.20823
# Poissons Ratio (y) = 0.14730 0.15016
# Poissons Ratio (z) = 0.16782 0.23855
#
# Static dielectric constant tensor:
#      x y z
#    x -1.438970 1.156790 2.113110 
#    y 1.156790 3.942500 -0.470780 
#    z 2.113110 -0.470780 2.957540 
# 
# 
# High freq. dielectric constant tensor:
#      x y z
#    x 1.847750 0.001120 -0.009120 
#    y 0.001120 1.868530 0.007240 
#    z -0.009120 0.007240 1.861450 
# 
# From -- ./inp_files/35639.got.cif
#   From: 2010.06.25/outbox.cif.g09.slc.cpg/sg2_18_cif.got.tgz:35639.got - 2010.06.27 13:26:56.
