data_PCOD8022979
_publ_section_title
;
Structure prediction by ZEFSAII (Michael W. Deem and Ramdas Pophale) SiO2 
 PCOD8022979
Probable space group: P -1
;
_chemical_formula_sum "Si O2"
_cell_formula_units_Z 16
_cell_length_a 17.452413
_cell_length_b 9.031658
_cell_length_c 20.534625
_cell_angle_alpha 134.671111
_cell_angle_beta 19.918259
_cell_angle_gamma 124.057431
_cell_volume 712.858705
_symmetry_space_group_name_H-M "P -1"
_symmetry_group_IT_number 2
_symmetry_cell_setting 'triclinic'
loop_
_space_group_symop_operation_xyz
x,y,z
-x,-y,-z
loop_
_atom_site_type_symbol
_atom_site_label
_atom_site_fract_x
_atom_site_fract_y
_atom_site_fract_z
Si Si1 0.957981 0.008632 0.316008
Si Si2 0.058027 0.802337 0.942882
Si Si3 0.563339 0.983834 0.714545
Si Si4 0.781127 0.748610 0.738942
Si Si5 0.155062 0.510078 0.941724
Si Si6 0.262866 0.008835 0.280607
Si Si7 0.020830 0.160273 0.181216
Si Si8 0.359013 0.514144 0.512284
O O1 0.720916 0.077537 0.572767
O O2 0.165423 0.054860 0.205129
O O3 0.877833 0.174918 0.368106
O O4 0.061936 0.744242 0.129569
O O5 0.315970 0.613028 0.650836
O O6 0.856334 0.692614 0.066766
O O7 0.076899 0.903158 0.029591
O O8 0.000000 0.000000 0.000000
O O9 0.662295 0.928104 0.690861
O O10 0.574904 0.746458 0.606411
O O11 0.280743 0.171565 0.994236
O O12 0.778078 0.791434 0.677132
O O13 0.000000 0.500000 0.500000
O O14 0.503640 0.778252 0.992141
O O15 0.431998 0.434894 0.674295
O O16 0.000000 0.500000 0.000000
O O17 0.000000 0.000000 0.500000
O O18 0.878415 0.363345 0.307663
#
# Coordination Sequence:
#
# PCOD8022979 Si02
#       8
#     2   2   2   2   2   2   2   2
#     4  12  24  45  68 101 137 183 227 283 346 407
#     4  10  23  40  63  99 134 181 230 276 336 400
#     4  12  24  44  69  97 137 178 231 281 346 415
#     4  11  26  48  74 104 143 180 231 292 355 422
#     4  12  23  42  70 100 137 184 228 281 345 404
#     4  11  24  47  73 103 138 178 230 291 356 424
#     4  11  25  43  63  99 141 176 232 283 335 412
#     4  11  25  42  68  95 138 188 227 284 343 403
#
# _framework density 22.444841
#
# number of rings (size 3 to 8) (size 9 to 14) (size 15 to 20)
#    0.000    0.750    6.250    0.000    3.500    5.500 
#    2.250    0.000    0.000    0.000    0.000    0.000 
#    0.000    0.000    0.000    0.000    0.000    0.000 
#
# Total GULP energy -198231.894467 kJ/mol
# GULP energy per Si atom -12389.493404 kJ/mol
# Density = 2.239376 g / cm^3
# Si number density = 22.444841 Si / 1000 Ang^3
#
#
#
# Elastic Constant Matrix: (Units=GPa)
#
#
# Indices 1 2 3 4 5 6 
#
# 1 86.7803 5.2546 31.2265 -10.6751 1.1678 -0.9745
# 2 5.2546 74.4044 47.4058 -21.6714 0.1391 -1.7167
# 3 31.2265 47.4058 142.9847 -25.1599 -7.9202 -9.7021
# 4 -10.6751 -21.6714 -25.1599 37.9672 -7.3414 6.5632
# 5 1.1678 0.1391 -7.9202 -7.3414 41.7351 -7.5683
# 6 -0.9745 -1.7167 -9.7021 6.5632 -7.5683 35.7901
#
#
#
# Elastic Compliance Matrix: (Units=1/GPa)
#
#
# Indices 1 2 3 4 5 6 
#
# 1 0.012830 0.001776 -0.003027 0.002664 -0.000655 -0.001013
# 2 0.001776 0.019097 -0.005429 0.008136 -0.000078 -0.002016
# 3 -0.003027 -0.005429 0.010334 0.003050 0.003062 0.002547
# 4 0.002664 0.008136 0.003050 0.035602 0.006020 -0.003966
# 5 -0.000655 -0.000078 0.003062 0.006020 0.026585 0.005326
# 6 -0.001013 -0.002016 0.002547 -0.003966 0.005326 0.030360
#
#
# Mechanical properties :
#
#
# Convention : Reuss Voigt Hill
#
# Bulk Modulus (GPa) = 34.60039 52.43813 43.51926
# Shear Modulus (GPa) = 31.68530 37.78399 34.73464
#
# Velocity S-wave (km/s) = 3.76133 4.10740 3.93817
# Velocity P-wave (km/s) = 5.85770 6.77555 6.33328
#
# Compressibility (1/GPa) = 0.02890141
#
# Stress axis : x y z
#
# Youngs Moduli (GPa) = 77.94116 52.36478 96.76884
#
# Poissons Ratio (x) = -0.09302 0.29294
# Poissons Ratio (y) = -0.13845 0.52535
# Poissons Ratio (z) = 0.23594 0.28429
#
# Static dielectric constant tensor:
#      x y z
#    x 4.656300 0.308380 0.276320 
#    y 0.308380 4.452590 -0.117710 
#    z 0.276320 -0.117710 3.990720 
# 
# 
# High freq. dielectric constant tensor:
#      x y z
#    x 1.900830 -0.011910 0.010420 
#    y -0.011910 1.873570 -0.016640 
#    z 0.010420 -0.016640 1.888680 
# 
# From -- ./inp_files/599546.got.cif
#   From: 2010.06.25/outbox.cif.g09.slc.cpg/sg2_300_cif.got.tgz:599546.got - 2010.06.27 13:26:56.
