data_PCOD8022430
_publ_section_title
;
Structure prediction by ZEFSAII (Michael W. Deem and Ramdas Pophale) SiO2 
 PCOD8022430
Probable space group: P -1
;
_chemical_formula_sum "Si O2"
_cell_formula_units_Z 14
_cell_length_a 5.486592
_cell_length_b 12.844206
_cell_length_c 12.958312
_cell_angle_alpha 135.411969
_cell_angle_beta 106.184040
_cell_angle_gamma 69.968043
_cell_volume 601.438529
_symmetry_space_group_name_H-M "P -1"
_symmetry_group_IT_number 2
_symmetry_cell_setting 'triclinic'
loop_
_space_group_symop_operation_xyz
x,y,z
-x,-y,-z
loop_
_atom_site_type_symbol
_atom_site_label
_atom_site_fract_x
_atom_site_fract_y
_atom_site_fract_z
Si Si1 0.198209 0.745008 0.829308
Si Si2 0.575105 0.122404 0.867259
Si Si3 0.417611 0.184695 0.245608
Si Si4 0.232377 0.907876 0.360132
Si Si5 0.232769 0.423751 0.545655
Si Si6 0.882133 0.669254 0.135115
Si Si7 0.763542 0.778173 0.409633
O O1 0.384375 0.817494 0.827048
O O2 0.322091 0.563061 0.712081
O O3 0.891446 0.788090 0.797698
O O4 0.218881 0.812429 0.993127
O O5 0.676765 0.069877 0.729972
O O6 0.327198 0.261246 0.926352
O O7 0.490903 0.979728 0.809598
O O8 0.451690 0.318243 0.424852
O O9 0.460771 0.862999 0.440374
O O10 0.085621 0.774010 0.243483
O O11 0.079641 0.083230 0.493384
O O12 0.137304 0.315909 0.542796
O O13 0.000000 0.500000 0.500000
O O14 0.773040 0.663857 0.234047
O O15 0.000000 0.500000 0.000000
#
# Coordination Sequence:
#
# PCOD8022430 Si02
#       7
#     2   2   2   2   2   2   2
#     4  11  26  42  71 104 148 182 237 292 362 415
#     4  11  25  42  70  98 136 186 232 292 357 427
#     4  11  24  47  67 106 139 192 239 289 348 436
#     4  10  23  44  70  95 134 179 239 287 352 424
#     4  10  23  43  69 101 139 184 235 293 355 423
#     4  11  27  41  68 104 136 182 235 298 364 422
#     4  10  22  46  66  99 133 182 235 288 354 420
#
# _framework density 23.277525000000001
#
# number of rings (size 3 to 8) (size 9 to 14) (size 15 to 20)
#    0.000    1.429    1.429    1.714    8.000    2.286 
#    5.143    0.000    0.000    0.000    0.000    0.000 
#    0.000    0.000    0.000    0.000    0.000    0.000 
#
# Total GULP energy -173477.820589 kJ/mol
# GULP energy per Si atom -12391.272899 kJ/mol
# Density = 2.322454 g / cm^3
# Si number density = 23.277525 Si / 1000 Ang^3
#
#
#
# Elastic Constant Matrix: (Units=GPa)
#
#
# Indices 1 2 3 4 5 6 
#
# 1 70.1800 25.5498 7.3341 2.0029 4.4590 -5.5836
# 2 25.5498 158.3728 47.9486 6.5391 -1.0061 -5.1519
# 3 7.3341 47.9486 118.6466 13.0171 -3.4016 -6.1484
# 4 2.0029 6.5391 13.0171 36.3125 -3.7156 -2.3881
# 5 4.4590 -1.0061 -3.4016 -3.7156 23.6291 11.4808
# 6 -5.5836 -5.1519 -6.1484 -2.3881 11.4808 20.0595
#
#
#
# Elastic Compliance Matrix: (Units=1/GPa)
#
#
# Indices 1 2 3 4 5 6 
#
# 1 0.016219 -0.002457 0.000282 -0.000758 -0.007105 0.007946
# 2 -0.002457 0.007599 -0.002883 -0.000160 0.000235 0.000230
# 3 0.000282 -0.002883 0.010008 -0.002967 -0.000275 0.002210
# 4 -0.000758 -0.000160 -0.002967 0.029108 0.004387 -0.000207
# 5 -0.007105 0.000235 -0.000275 0.004387 0.062390 -0.037188
# 6 0.007946 0.000230 0.002210 -0.000207 -0.037188 0.074059
#
#
# Mechanical properties :
#
#
# Convention : Reuss Voigt Hill
#
# Bulk Modulus (GPa) = 42.17679 56.54048 49.35863
# Shear Modulus (GPa) = 22.99859 33.75800 28.37829
#
# Velocity S-wave (km/s) = 3.14668 3.81233 3.49539
# Velocity P-wave (km/s) = 5.60005 6.61218 6.12705
#
# Compressibility (1/GPa) = 0.02370972
#
# Stress axis : x y z
#
# Youngs Moduli (GPa) = 61.65433 131.59545 99.91843
#
# Poissons Ratio (x) = 0.32337 -0.02814
# Poissons Ratio (y) = 0.15150 0.28805
# Poissons Ratio (z) = -0.01736 0.37937
#
# Static dielectric constant tensor:
#      x y z
#    x 4.010060 0.040930 -0.214240 
#    y 0.040930 4.355470 0.186320 
#    z -0.214240 0.186320 5.101300 
# 
# 
# High freq. dielectric constant tensor:
#      x y z
#    x 1.893390 0.006000 -0.006520 
#    y 0.006000 1.931120 0.008040 
#    z -0.006520 0.008040 1.948030 
# 
# From -- ./inp_files/68115.got.cif
#   From: 2010.06.25/outbox.cif.g09.slc.cpg/sg2_35_cif.got.tgz:68115.got - 2010.06.27 13:26:56.
