data_PCOD8022747
_publ_section_title
;
Structure prediction by ZEFSAII (Michael W. Deem and Ramdas Pophale) SiO2 
 PCOD8022747
Probable space group: P -1
;
_chemical_formula_sum "Si O2"
_cell_formula_units_Z 16
_cell_length_a 12.801538
_cell_length_b 30.094602
_cell_length_c 5.055832
_cell_angle_alpha 127.460507
_cell_angle_beta 120.169360
_cell_angle_gamma 29.167598
_cell_volume 751.467467
_symmetry_space_group_name_H-M "P -1"
_symmetry_group_IT_number 2
_symmetry_cell_setting 'triclinic'
loop_
_space_group_symop_operation_xyz
x,y,z
-x,-y,-z
loop_
_atom_site_type_symbol
_atom_site_label
_atom_site_fract_x
_atom_site_fract_y
_atom_site_fract_z
Si Si1 0.945478 0.353070 0.812663
Si Si2 0.074037 0.873089 0.053780
Si Si3 0.176713 0.307822 0.439213
Si Si4 0.529743 0.199501 0.852624
Si Si5 0.220590 0.394838 0.516919
Si Si6 0.136080 0.001519 0.241477
Si Si7 0.268051 0.680414 0.590515
Si Si8 0.452439 0.419869 0.925450
O O1 0.905632 0.302378 0.580629
O O2 0.010055 0.348680 0.588482
O O3 0.727298 0.470068 0.024236
O O4 0.130376 0.294929 0.053903
O O5 0.280862 0.833520 0.134726
O O6 0.930586 0.948655 0.383357
O O7 0.146967 0.782908 0.892379
O O8 0.913392 0.934250 0.817469
O O9 0.419879 0.208597 0.498907
O O10 0.151244 0.384810 0.646829
O O11 0.619296 0.115297 0.850641
O O12 0.352419 0.304192 0.157868
O O13 0.365814 0.391141 0.774071
O O14 0.000000 0.500000 0.500000
O O15 0.000000 0.000000 0.000000
O O16 0.365216 0.653335 0.328093
O O17 0.448651 0.595263 0.729476
#
# Coordination Sequence:
#
# PCOD8022747 Si02
#       8
#     2   2   2   2   2   2   2   2
#     4  12  26  44  63  92 134 182 231 263 314 387
#     4  11  23  41  66 101 130 164 215 279 339 384
#     4  12  25  42  64  94 132 180 213 264 326 392
#     4  11  23  40  67  98 135 167 212 267 340 404
#     4  12  25  41  66 100 140 171 210 266 329 400
#     4  10  23  38  66  99 134 162 207 274 346 397
#     4  12  25  43  68  93 129 177 226 282 318 377
#     4  12  24  42  66  95 132 173 226 269 334 381
#
# _framework density 21.291675000000001
#
# number of rings (size 3 to 8) (size 9 to 14) (size 15 to 20)
#    0.000    0.500    3.750    5.250    7.000    1.000 
#    0.000    0.000    0.000    4.500    0.000    0.000 
#    0.000    0.000    0.000    0.000    0.000    0.000 
#
# Total GULP energy -198371.265451 kJ/mol
# GULP energy per Si atom -12398.204091 kJ/mol
# Density = 2.124321 g / cm^3
# Si number density = 21.291675 Si / 1000 Ang^3
#
#
#
# Elastic Constant Matrix: (Units=GPa)
#
#
# Indices 1 2 3 4 5 6 
#
# 1 106.4755 33.0906 39.9501 -4.8290 9.9159 1.3153
# 2 33.0906 141.7791 42.1689 -16.2787 6.9158 13.4950
# 3 39.9501 42.1689 80.4877 -5.5270 -0.6624 -2.7850
# 4 -4.8290 -16.2787 -5.5270 40.2966 -2.2598 0.7771
# 5 9.9159 6.9158 -0.6624 -2.2598 39.0406 -6.1656
# 6 1.3153 13.4950 -2.7850 0.7771 -6.1656 21.3661
#
#
#
# Elastic Compliance Matrix: (Units=1/GPa)
#
#
# Indices 1 2 3 4 5 6 
#
# 1 0.012109 -0.000756 -0.005695 0.000216 -0.003339 -0.001982
# 2 -0.000756 0.009927 -0.004893 0.003247 -0.002686 -0.007755
# 3 -0.005695 -0.004893 0.018076 -0.000105 0.003699 0.006868
# 4 0.000216 0.003247 -0.000105 0.026219 0.000427 -0.002909
# 5 -0.003339 -0.002686 0.003699 0.000427 0.028708 0.010653
# 6 -0.001982 -0.007755 0.006868 -0.002909 0.010653 0.055898
#
#
# Mechanical properties :
#
#
# Convention : Reuss Voigt Hill
#
# Bulk Modulus (GPa) = 57.39703 62.12905 59.76304
# Shear Modulus (GPa) = 27.86547 34.37619 31.12083
#
# Velocity S-wave (km/s) = 3.62159 4.02249 3.82729
# Velocity P-wave (km/s) = 6.67112 7.12862 6.90366
#
# Compressibility (1/GPa) = 0.01742250
#
# Stress axis : x y z
#
# Youngs Moduli (GPa) = 82.58382 100.73529 55.32300
#
# Poissons Ratio (x) = 0.07615 0.31509
# Poissons Ratio (y) = 0.06243 0.27070
# Poissons Ratio (z) = 0.47035 0.49291
#
# Static dielectric constant tensor:
#      x y z
#    x 4.092100 0.307700 -0.022280 
#    y 0.307700 4.790690 -0.398820 
#    z -0.022280 -0.398820 3.971030 
# 
# 
# High freq. dielectric constant tensor:
#      x y z
#    x 1.829160 0.012110 -0.010510 
#    y 0.012110 1.844530 -0.011340 
#    z -0.010510 -0.011340 1.830430 
# 
# From -- ./inp_files/85366.got.cif
#   From: 2010.06.25/outbox.cif.g09.slc.cpg/sg2_43_cif.got.tgz:85366.got - 2010.06.27 13:26:56.
