data_PCOD8022964
_publ_section_title
;
Structure prediction by ZEFSAII (Michael W. Deem and Ramdas Pophale) SiO2 
 PCOD8022964
Probable space group: P -1
;
_chemical_formula_sum "Si O2"
_cell_formula_units_Z 14
_cell_length_a 14.489270
_cell_length_b 14.284974
_cell_length_c 8.329060
_cell_angle_alpha 69.601970
_cell_angle_beta 95.053180
_cell_angle_gamma 153.105346
_cell_volume 621.914038
_symmetry_space_group_name_H-M "P -1"
_symmetry_group_IT_number 2
_symmetry_cell_setting 'triclinic'
loop_
_space_group_symop_operation_xyz
x,y,z
-x,-y,-z
loop_
_atom_site_type_symbol
_atom_site_label
_atom_site_fract_x
_atom_site_fract_y
_atom_site_fract_z
Si Si1 0.812654 0.325509 0.933989
Si Si2 0.059004 0.070010 0.212712
Si Si3 0.112870 0.794179 0.586257
Si Si4 0.267823 0.157038 0.465259
Si Si5 0.485419 0.927944 0.374816
Si Si6 0.189747 0.335196 0.800930
Si Si7 0.986218 0.343400 0.692974
O O1 0.865117 0.488280 0.772324
O O2 0.846564 0.271012 0.842869
O O3 0.000000 0.500000 0.000000
O O4 0.552519 0.055602 0.143333
O O5 0.816960 0.878895 0.359797
O O6 0.984012 0.901248 0.196518
O O7 0.243135 0.217405 0.289411
O O8 0.198471 0.293524 0.001685
O O9 0.178465 0.840468 0.379777
O O10 0.085344 0.885016 0.554918
O O11 0.329035 0.978133 0.628334
O O12 0.539691 0.390202 0.387909
O O13 0.214162 0.627814 0.485330
O O14 0.500000 0.000000 0.500000
O O15 0.077159 0.333173 0.798596
#
# Coordination Sequence:
#
# PCOD8022964 Si02
#       7
#     2   2   2   2   2   2   2
#     4  10  23  40  63  92 124 162 206 247 301 369
#     4  10  24  42  63  92 123 157 209 261 301 359
#     4  11  23  41  62  93 128 159 207 250 305 367
#     4  11  22  42  65  90 123 163 204 253 309 361
#     4  11  23  42  65  87 125 168 203 249 309 358
#     4  11  23  40  67  89 123 163 205 249 314 360
#     4  12  23  41  63  92 129 162 201 258 303 364
#
# _framework density 22.511151000000002
#
# number of rings (size 3 to 8) (size 9 to 14) (size 15 to 20)
#    0.000    1.143    5.714    1.286    4.000    0.571 
#    0.000    0.000    0.000    0.000    0.000    0.000 
#    0.000    0.000    0.000    0.000    0.000    0.000 
#
# Total GULP energy -173567.317338 kJ/mol
# GULP energy per Si atom -12397.665524 kJ/mol
# Density = 2.245991 g / cm^3
# Si number density = 22.511151 Si / 1000 Ang^3
#
#
#
# Elastic Constant Matrix: (Units=GPa)
#
#
# Indices 1 2 3 4 5 6 
#
# 1 66.5871 7.1589 34.8024 -2.1030 3.0689 -0.9348
# 2 7.1589 38.7048 6.2588 0.0056 -2.5877 2.9663
# 3 34.8024 6.2588 113.9785 -0.9987 -5.9703 -6.6542
# 4 -2.1030 0.0056 -0.9987 33.7120 -1.9612 -1.9883
# 5 3.0689 -2.5877 -5.9703 -1.9612 29.3752 -1.4020
# 6 -0.9348 2.9663 -6.6542 -1.9883 -1.4020 30.2455
#
#
#
# Elastic Compliance Matrix: (Units=1/GPa)
#
#
# Indices 1 2 3 4 5 6 
#
# 1 0.018443 -0.002673 -0.005681 0.000761 -0.003291 -0.000520
# 2 -0.002673 0.026813 -0.000697 -0.000218 0.002353 -0.002771
# 3 -0.005681 -0.000697 0.010841 0.000277 0.002870 0.002429
# 4 0.000761 -0.000218 0.000277 0.029967 0.002062 0.002171
# 5 -0.003291 0.002353 0.002870 0.002062 0.035413 0.002076
# 6 -0.000520 -0.002771 0.002429 0.002171 0.002076 0.034092
#
#
# Mechanical properties :
#
#
# Convention : Reuss Voigt Hill
#
# Bulk Modulus (GPa) = 26.31816 35.07896 30.69856
# Shear Modulus (GPa) = 26.83341 30.06989 28.45165
#
# Velocity S-wave (km/s) = 3.45629 3.65879 3.55898
# Velocity P-wave (km/s) = 5.25780 5.78496 5.52767
#
# Compressibility (1/GPa) = 0.03799658
#
# Stress axis : x y z
#
# Youngs Moduli (GPa) = 54.22198 37.29495 92.24289
#
# Poissons Ratio (x) = 0.09968 0.52400
# Poissons Ratio (y) = 0.14493 0.06426
# Poissons Ratio (z) = 0.30802 0.02598
#
# Static dielectric constant tensor:
#      x y z
#    x 4.056350 0.103910 0.078370 
#    y 0.103910 4.824110 0.012410 
#    z 0.078370 0.012410 4.873140 
# 
# 
# High freq. dielectric constant tensor:
#      x y z
#    x 1.882100 -0.002210 0.009980 
#    y -0.002210 1.887680 0.013240 
#    z 0.009980 0.013240 1.895470 
# 
# From -- ./inp_files/224828.got.cif
#   From: 2010.06.25/outbox.cif.g09.slc.cpg/sg2_113_cif.got.tgz:224828.got - 2010.06.27 13:26:56.
