data_PCOD8022432
_publ_section_title
;
Structure prediction by ZEFSAII (Michael W. Deem and Ramdas Pophale) SiO2 
 PCOD8022432
Probable space group: P -1
;
_chemical_formula_sum "Si O2"
_cell_formula_units_Z 16
_cell_length_a 12.904799
_cell_length_b 13.400691
_cell_length_c 10.422444
_cell_angle_alpha 42.864536
_cell_angle_beta 145.256859
_cell_angle_gamma 124.639561
_cell_volume 696.082498
_symmetry_space_group_name_H-M "P -1"
_symmetry_group_IT_number 2
_symmetry_cell_setting 'triclinic'
loop_
_space_group_symop_operation_xyz
x,y,z
-x,-y,-z
loop_
_atom_site_type_symbol
_atom_site_label
_atom_site_fract_x
_atom_site_fract_y
_atom_site_fract_z
Si Si1 0.480114 0.629732 0.956062
Si Si2 0.266202 0.925311 0.710064
Si Si3 0.830658 0.216237 0.646991
Si Si4 0.840450 0.518795 0.517321
Si Si5 0.050132 0.046616 0.817420
Si Si6 0.802097 0.395496 0.097889
Si Si7 0.321335 0.123592 0.814717
Si Si8 0.692142 0.551638 0.602605
O O1 0.363912 0.770717 0.641019
O O2 0.382956 0.574883 0.036998
O O3 0.500000 0.500000 0.000000
O O4 0.688619 0.649854 0.190599
O O5 0.191763 0.766128 0.805019
O O6 0.129642 0.006113 0.389426
O O7 0.260313 0.001079 0.770680
O O8 0.475947 0.913808 0.884082
O O9 0.865853 0.377027 0.584497
O O10 0.989909 0.159093 0.764773
O O11 0.829827 0.098363 0.871816
O O12 0.773547 0.468104 0.637414
O O13 0.030612 0.591860 0.646418
O O14 0.176064 0.133816 0.770627
O O15 0.822660 0.511199 0.895348
O O16 0.318083 0.274195 0.590781
O O17 0.500000 0.500000 0.500000
#
# Coordination Sequence:
#
# PCOD8022432 Si02
#       8
#     2   2   2   2   2   2   2   2
#     4  10  22  46  67 103 142 184 233 294 342 414
#     4  11  24  45  72 102 146 182 234 289 350 429
#     4  10  25  46  72 103 142 188 245 286 341 426
#     4  11  25  43  73 104 141 186 233 297 365 403
#     4  11  24  48  71 101 146 187 236 293 341 428
#     4  12  24  45  72 109 143 178 238 296 353 428
#     4  11  26  46  74 104 140 193 226 287 374 411
#     4  12  24  44  73 108 140 174 235 302 355 422
#
# _framework density 22.985780999999999
#
# number of rings (size 3 to 8) (size 9 to 14) (size 15 to 20)
#    0.000    1.000    3.750    1.500    3.500    2.000 
#    2.250    3.750    0.000    0.000    0.000    0.000 
#    0.000    0.000    0.000    0.000    0.000    0.000 
#
# Total GULP energy -198341.462077 kJ/mol
# GULP energy per Si atom -12396.341380 kJ/mol
# Density = 2.293346 g / cm^3
# Si number density = 22.985781 Si / 1000 Ang^3
#
#
#
# Elastic Constant Matrix: (Units=GPa)
#
#
# Indices 1 2 3 4 5 6 
#
# 1 86.3863 47.5577 35.7968 -3.5297 3.1327 -8.6570
# 2 47.5577 129.0421 55.9692 10.7004 6.2256 -1.9414
# 3 35.7968 55.9692 169.1095 3.8046 -8.2672 -1.9451
# 4 -3.5297 10.7004 3.8046 40.0588 0.5395 -0.3772
# 5 3.1327 6.2256 -8.2672 0.5395 36.7117 -0.8306
# 6 -8.6570 -1.9414 -1.9451 -0.3772 -0.8306 25.1414
#
#
#
# Elastic Compliance Matrix: (Units=1/GPa)
#
#
# Indices 1 2 3 4 5 6 
#
# 1 0.015791 -0.005239 -0.001657 0.003005 -0.000765 0.004924
# 2 -0.005239 0.011162 -0.002627 -0.003178 -0.002019 -0.001260
# 3 -0.001657 -0.002627 0.007244 -0.000164 0.002217 -0.000142
# 4 0.003005 -0.003178 -0.000164 0.026105 -0.000112 0.001165
# 5 -0.000765 -0.002019 0.002217 -0.000112 0.028163 0.000681
# 6 0.004924 -0.001260 -0.000142 0.001165 0.000681 0.041402
#
#
# Mechanical properties :
#
#
# Convention : Reuss Voigt Hill
#
# Bulk Modulus (GPa) = 66.00418 73.68723 69.84571
# Shear Modulus (GPa) = 32.47540 36.73000 34.60270
#
# Velocity S-wave (km/s) = 3.76286 4.00177 3.88415
# Velocity P-wave (km/s) = 6.90336 7.31297 7.11112
#
# Compressibility (1/GPa) = 0.01515055
#
# Stress axis : x y z
#
# Youngs Moduli (GPa) = 63.32812 89.59338 138.04768
#
# Poissons Ratio (x) = 0.46939 0.22874
# Poissons Ratio (y) = 0.33178 0.36262
# Poissons Ratio (z) = 0.10493 0.23534
#
# Static dielectric constant tensor:
#      x y z
#    x 4.174270 -0.310290 -0.032140 
#    y -0.310290 3.888080 0.345410 
#    z -0.032140 0.345410 5.235770 
# 
# 
# High freq. dielectric constant tensor:
#      x y z
#    x 1.912350 -0.020890 0.007690 
#    y -0.020890 1.896260 0.016170 
#    z 0.007690 0.016170 1.928360 
# 
# From -- ./inp_files/455516.got.cif
#   From: 2010.06.25/outbox.cif.g09.slc.cpg/sg2_228_cif.got.tgz:455516.got - 2010.06.27 13:26:56.
