data_PCOD8022104
_publ_section_title
;
Structure prediction by ZEFSAII (Michael W. Deem and Ramdas Pophale) SiO2 
 PCOD8022104
Probable space group: P -1
;
_chemical_formula_sum "Si O2"
_cell_formula_units_Z 14
_cell_length_a 13.037055
_cell_length_b 12.270561
_cell_length_c 7.770304
_cell_angle_alpha 96.602695
_cell_angle_beta 100.493972
_cell_angle_gamma 140.741413
_cell_volume 704.962307
_symmetry_space_group_name_H-M "P -1"
_symmetry_group_IT_number 2
_symmetry_cell_setting 'triclinic'
loop_
_space_group_symop_operation_xyz
x,y,z
-x,-y,-z
loop_
_atom_site_type_symbol
_atom_site_label
_atom_site_fract_x
_atom_site_fract_y
_atom_site_fract_z
Si Si1 0.707940 0.182493 0.132585
Si Si2 0.455977 0.525976 0.822336
Si Si3 0.874108 0.200681 0.878217
Si Si4 0.168304 0.073312 0.125144
Si Si5 0.821547 0.523112 0.223384
Si Si6 0.806130 0.874592 0.466299
Si Si7 0.183156 0.878924 0.534838
O O1 0.762779 0.351973 0.229092
O O2 0.740518 0.136744 0.302203
O O3 0.815305 0.243528 0.002226
O O4 0.500000 0.000000 0.000000
O O5 0.645728 0.714334 0.832290
O O6 0.351064 0.546917 0.837988
O O7 0.341440 0.346594 0.634341
O O8 0.500000 0.500000 0.000000
O O9 0.759718 0.106009 0.643863
O O10 0.084848 0.394863 0.923515
O O11 0.850084 0.069258 0.961809
O O12 0.168115 0.062908 0.324460
O O13 0.000000 0.000000 0.000000
O O14 0.964884 0.688032 0.439540
O O15 0.753584 0.942578 0.362123
O O16 0.000000 0.000000 0.500000
#
# Coordination Sequence:
#
# PCOD8022104 Si02
#       7
#     2   2   2   2   2   2   2
#     4  12  24  39  68  96 125 173 220 266 327 388
#     4  12  24  39  67  96 131 166 216 273 323 398
#     4   9  22  42  63  89 130 166 217 262 323 383
#     4  11  23  40  63  97 132 170 214 264 330 396
#     4  10  22  45  61  93 127 170 221 263 324 388
#     4  11  21  42  63  94 131 170 213 267 331 388
#     4   9  23  42  64  90 130 168 212 266 323 379
#
# _framework density 19.859219
#
# number of rings (size 3 to 8) (size 9 to 14) (size 15 to 20)
#    0.857    0.571    1.429    3.857    6.000    0.571 
#    0.000    0.000    0.000    0.000    0.000    0.000 
#    0.000    0.000    0.000    0.000    0.000    0.000 
#
# Total GULP energy -173467.238330 kJ/mol
# GULP energy per Si atom -12390.517024 kJ/mol
# Density = 1.981402 g / cm^3
# Si number density = 19.859219 Si / 1000 Ang^3
#
#
#
# Elastic Constant Matrix: (Units=GPa)
#
#
# Indices 1 2 3 4 5 6 
#
# 1 126.7393 54.4438 44.8629 -1.6399 13.2521 -13.7452
# 2 54.4438 130.4682 30.9565 11.0114 15.4407 -14.8762
# 3 44.8629 30.9565 76.6572 -9.7435 22.1649 -3.3549
# 4 -1.6399 11.0114 -9.7435 34.3182 -0.8260 8.1132
# 5 13.2521 15.4407 22.1649 -0.8260 31.5516 -0.3976
# 6 -13.7452 -14.8762 -3.3549 8.1132 -0.3976 41.3499
#
#
#
# Elastic Compliance Matrix: (Units=1/GPa)
#
#
# Indices 1 2 3 4 5 6 
#
# 1 0.011404 -0.003222 -0.005539 -0.000519 0.000693 0.002291
# 2 -0.003222 0.010655 -0.002219 -0.005102 -0.002391 0.003560
# 3 -0.005539 -0.002219 0.021219 0.006755 -0.011347 -0.002352
# 4 -0.000519 -0.005102 0.006755 0.034592 -0.001229 -0.008259
# 5 0.000693 -0.002391 -0.011347 -0.001229 0.040501 -0.000920
# 6 0.002291 0.003560 -0.002352 -0.008259 -0.000920 0.027647
#
#
# Mechanical properties :
#
#
# Convention : Reuss Voigt Hill
#
# Bulk Modulus (GPa) = 46.90567 66.04347 56.47457
# Shear Modulus (GPa) = 28.55769 35.01738 31.78753
#
# Velocity S-wave (km/s) = 3.79622 4.20370 4.00514
# Velocity P-wave (km/s) = 6.54870 7.54251 7.06310
#
# Compressibility (1/GPa) = 0.02131939
#
# Stress axis : x y z
#
# Youngs Moduli (GPa) = 87.68697 93.85206 47.12663
#
# Poissons Ratio (x) = 0.30236 0.26105
# Poissons Ratio (y) = 0.28249 0.10456
# Poissons Ratio (z) = 0.48573 0.20822
#
# Static dielectric constant tensor:
#      x y z
#    x 3.329450 0.301610 0.146830 
#    y 0.301610 2.999520 -0.297960 
#    z 0.146830 -0.297960 3.449740 
# 
# 
# High freq. dielectric constant tensor:
#      x y z
#    x 1.779230 -0.014200 -0.000610 
#    y -0.014200 1.788390 -0.002260 
#    z -0.000610 -0.002260 1.762100 
# 
# From -- ./inp_files/214568.got.cif
#   From: 2010.06.25/outbox.cif.g09.slc.cpg/sg2_108_cif.got.tgz:214568.got - 2010.06.27 13:26:56.
