data_PCOD8022404
_publ_section_title
;
Structure prediction by ZEFSAII (Michael W. Deem and Ramdas Pophale) SiO2 
 PCOD8022404
Probable space group: P -1
;
_chemical_formula_sum "Si O2"
_cell_formula_units_Z 16
_cell_length_a 19.746948
_cell_length_b 16.639888
_cell_length_c 12.224498
_cell_angle_alpha 32.989900
_cell_angle_beta 29.190404
_cell_angle_gamma 21.215767
_cell_volume 701.835496
_symmetry_space_group_name_H-M "P -1"
_symmetry_group_IT_number 2
_symmetry_cell_setting 'triclinic'
loop_
_space_group_symop_operation_xyz
x,y,z
-x,-y,-z
loop_
_atom_site_type_symbol
_atom_site_label
_atom_site_fract_x
_atom_site_fract_y
_atom_site_fract_z
Si Si1 0.452459 0.896421 0.753907
Si Si2 0.835916 0.032414 0.085779
Si Si3 0.840969 0.985491 0.373841
Si Si4 0.290361 0.140910 0.929537
Si Si5 0.479939 0.554010 0.591989
Si Si6 0.224632 0.510564 0.102751
Si Si7 0.744421 0.733037 0.847128
Si Si8 0.169783 0.516101 0.770276
O O1 0.328863 0.873294 0.884070
O O2 0.319062 0.051391 0.871033
O O3 0.500000 0.000000 0.500000
O O4 0.683130 0.649801 0.740464
O O5 0.734445 0.098034 0.275219
O O6 0.026489 0.763916 0.127039
O O7 0.926105 0.125020 0.830278
O O8 0.854896 0.803535 0.595003
O O9 0.697434 0.179375 0.445784
O O10 0.251137 0.351000 0.741655
O O11 0.491126 0.943855 0.947360
O O12 0.076355 0.242054 0.167676
O O13 0.500000 0.500000 0.500000
O O14 0.703536 0.433436 0.458816
O O15 0.421977 0.451543 0.852855
O O16 0.152071 0.455910 0.173759
O O17 0.792430 0.624107 0.020254
#
# Coordination Sequence:
#
# PCOD8022404 Si02
#       8
#     2   2   2   2   2   2   2   2
#     4  11  24  41  67  93 129 165 209 263 308 372
#     4  10  22  46  62  93 131 163 209 259 315 374
#     4  10  23  39  67  92 126 166 207 262 312 373
#     4  10  23  38  58  97 121 161 215 252 308 374
#     4  11  22  41  66  93 128 169 204 264 321 368
#     4  10  23  41  67  96 123 168 212 254 318 375
#     4  11  20  40  64  93 124 164 210 257 315 371
#     4  11  22  39  64  88 130 164 208 263 310 373
#
# _framework density 22.797364999999999
#
# number of rings (size 3 to 8) (size 9 to 14) (size 15 to 20)
#    0.000    1.500    2.500    2.625    1.750    3.000 
#    4.500    8.125    0.000    0.000    0.000    0.000 
#    0.000    0.000    0.000    0.000    0.000    0.000 
#
# Total GULP energy -198378.581160 kJ/mol
# GULP energy per Si atom -12398.661323 kJ/mol
# Density = 2.274548 g / cm^3
# Si number density = 22.797365 Si / 1000 Ang^3
#
#
#
# Elastic Constant Matrix: (Units=GPa)
#
#
# Indices 1 2 3 4 5 6 
#
# 1 103.7437 4.5272 9.1634 -0.0644 -13.7977 18.2346
# 2 4.5272 62.3720 5.5650 3.0547 2.3699 9.2113
# 3 9.1634 5.5650 96.9158 -12.4715 -18.6312 4.1335
# 4 -0.0644 3.0547 -12.4715 26.8710 1.4577 -1.1077
# 5 -13.7977 2.3699 -18.6312 1.4577 38.6827 -1.4637
# 6 18.2346 9.2113 4.1335 -1.1077 -1.4637 34.0905
#
#
#
# Elastic Compliance Matrix: (Units=1/GPa)
#
#
# Indices 1 2 3 4 5 6 
#
# 1 0.011167 -0.000059 -0.000153 -0.000478 0.003712 -0.005795
# 2 -0.000059 0.017046 -0.001484 -0.002714 -0.001850 -0.004562
# 3 -0.000153 -0.001484 0.012250 0.005520 0.005706 -0.000578
# 4 -0.000478 -0.002714 0.005520 0.040088 0.001207 0.001674
# 5 0.003712 -0.001850 0.005706 0.001207 0.029959 -0.000852
# 6 -0.005795 -0.004562 -0.000578 0.001674 -0.000852 0.033754
#
#
# Mechanical properties :
#
#
# Convention : Reuss Voigt Hill
#
# Bulk Modulus (GPa) = 26.97429 33.50473 30.23951
# Shear Modulus (GPa) = 31.24735 36.18057 33.71396
#
# Velocity S-wave (km/s) = 3.70625 3.98810 3.84976
# Velocity P-wave (km/s) = 5.49299 5.99460 5.74927
#
# Compressibility (1/GPa) = 0.03707233
#
# Stress axis : x y z
#
# Youngs Moduli (GPa) = 89.54855 58.66309 81.63286
#
# Poissons Ratio (x) = 0.00344 0.01251
# Poissons Ratio (y) = 0.00525 0.12112
# Poissons Ratio (z) = 0.01373 0.08704
#
# Static dielectric constant tensor:
#      x y z
#    x 4.694360 0.196020 -0.121870 
#    y 0.196020 3.997760 0.213120 
#    z -0.121870 0.213120 3.959080 
# 
# 
# High freq. dielectric constant tensor:
#      x y z
#    x 1.919290 0.016260 -0.013360 
#    y 0.016260 1.888750 0.009590 
#    z -0.013360 0.009590 1.890530 
# 
# From -- ./inp_files/307996.got.cif
#   From: 2010.06.25/outbox.cif.g09.slc.cpg/sg2_154_cif.got.tgz:307996.got - 2010.06.27 13:26:56.
