data_PCOD8022977
_publ_section_title
;
Structure prediction by ZEFSAII (Michael W. Deem and Ramdas Pophale) SiO2 
 PCOD8022977
Probable space group: P -1
;
_chemical_formula_sum "Si O2"
_cell_formula_units_Z 16
_cell_length_a 11.843087
_cell_length_b 10.128716
_cell_length_c 9.511264
_cell_angle_alpha 50.970132
_cell_angle_beta 111.850131
_cell_angle_gamma 122.114595
_cell_volume 749.462863
_symmetry_space_group_name_H-M "P -1"
_symmetry_group_IT_number 2
_symmetry_cell_setting 'triclinic'
loop_
_space_group_symop_operation_xyz
x,y,z
-x,-y,-z
loop_
_atom_site_type_symbol
_atom_site_label
_atom_site_fract_x
_atom_site_fract_y
_atom_site_fract_z
Si Si1 0.159048 0.081702 0.878332
Si Si2 0.715016 0.679317 0.740615
Si Si3 0.626296 0.028379 0.881474
Si Si4 0.348960 0.730664 0.019560
Si Si5 0.144871 0.683768 0.722930
Si Si6 0.915263 0.807545 0.518998
Si Si7 0.093460 0.274134 0.960347
Si Si8 0.355066 0.994531 0.414674
O O1 0.105295 0.165211 0.671661
O O2 0.178882 0.216111 0.928701
O O3 0.302182 0.076824 0.920708
O O4 0.060375 0.869736 0.014963
O O5 0.767693 0.718382 0.578731
O O6 0.635488 0.800883 0.673231
O O7 0.625413 0.457134 0.861189
O O8 0.849834 0.734275 0.854667
O O9 0.469280 0.899713 0.886618
O O10 0.685801 0.059666 0.730562
O O11 0.654578 0.221777 0.847936
O O12 0.213407 0.712288 0.889971
O O13 0.113572 0.479760 0.786806
O O14 0.999335 0.684587 0.663715
O O15 0.241433 0.838871 0.557527
O O16 0.000000 0.000000 0.500000
O O17 0.500000 0.000000 0.500000
#
# Coordination Sequence:
#
# PCOD8022977 Si02
#       8
#     2   2   2   2   2   2   2   2
#     4  11  23  41  64  92 134 173 210 268 329 383
#     4  11  24  44  67  99 128 174 221 264 329 387
#     4  11  24  44  67  94 132 174 216 268 327 388
#     4  10  25  44  68  95 131 174 220 266 323 389
#     4  11  24  42  67  99 129 171 225 263 324 385
#     4  12  23  40  65  96 133 170 213 273 319 382
#     4  10  23  40  63  97 128 171 214 268 326 386
#     4  12  24  43  69  97 132 170 218 271 323 386
#
# _framework density 21.348621999999999
#
# number of rings (size 3 to 8) (size 9 to 14) (size 15 to 20)
#    0.000    1.000    5.000    0.750    3.500    4.000 
#    0.000    1.250    0.000    0.000    0.000    0.000 
#    0.000    0.000    0.000    0.000    0.000    0.000 
#
# Total GULP energy -198383.411472 kJ/mol
# GULP energy per Si atom -12398.963217 kJ/mol
# Density = 2.130003 g / cm^3
# Si number density = 21.348622 Si / 1000 Ang^3
#
#
#
# Elastic Constant Matrix: (Units=GPa)
#
#
# Indices 1 2 3 4 5 6 
#
# 1 92.2897 33.4357 28.4256 2.1331 14.6897 -21.4692
# 2 33.4357 132.6429 49.3905 -6.8271 3.4283 -25.7950
# 3 28.4256 49.3905 88.3064 -4.2619 1.4228 -13.1266
# 4 2.1331 -6.8271 -4.2619 26.9537 -8.1914 6.5206
# 5 14.6897 3.4283 1.4228 -8.1914 42.8735 3.3269
# 6 -21.4692 -25.7950 -13.1266 6.5206 3.3269 28.3266
#
#
#
# Elastic Compliance Matrix: (Units=1/GPa)
#
#
# Indices 1 2 3 4 5 6 
#
# 1 0.016579 -0.000568 -0.003293 -0.007606 -0.008004 0.013213
# 2 -0.000568 0.010952 -0.004820 -0.000087 -0.001117 0.007461
# 3 -0.003293 -0.004820 0.015075 0.001986 0.001434 -0.000525
# 4 -0.007606 -0.000087 0.001986 0.045946 0.012643 -0.016985
# 5 -0.008004 -0.001117 0.001434 0.012643 0.029517 -0.012797
# 6 0.013213 0.007461 -0.000525 -0.016985 -0.012797 0.057281
#
#
# Mechanical properties :
#
#
# Convention : Reuss Voigt Hill
#
# Bulk Modulus (GPa) = 39.61338 59.52696 49.57017
# Shear Modulus (GPa) = 24.85992 33.09656 28.97824
#
# Velocity S-wave (km/s) = 3.41614 3.94164 3.68826
# Velocity P-wave (km/s) = 5.84430 6.97562 6.43487
#
# Compressibility (1/GPa) = 0.02524399
#
# Stress axis : x y z
#
# Youngs Moduli (GPa) = 60.31683 91.30581 66.33562
#
# Poissons Ratio (x) = 0.05186 0.21845
# Poissons Ratio (y) = 0.03426 0.31974
# Poissons Ratio (z) = 0.19863 0.44010
#
# Static dielectric constant tensor:
#      x y z
#    x 3.780910 -0.226260 -0.575770 
#    y -0.226260 3.991060 0.197250 
#    z -0.575770 0.197250 4.745320 
# 
# 
# High freq. dielectric constant tensor:
#      x y z
#    x 1.836400 -0.012800 0.003320 
#    y -0.012800 1.843190 0.004950 
#    z 0.003320 0.004950 1.834890 
# 
# From -- ./inp_files/242659.got.cif
#   From: 2010.06.25/outbox.cif.g09.slc.cpg/sg2_122_cif.got.tgz:242659.got - 2010.06.27 13:26:56.
