data_PCOD8022545
_publ_section_title
;
Structure prediction by ZEFSAII (Michael W. Deem and Ramdas Pophale) SiO2 
 PCOD8022545
Probable space group: P -1
;
_chemical_formula_sum "Si O2"
_cell_formula_units_Z 14
_cell_length_a 5.337520
_cell_length_b 12.262367
_cell_length_c 12.593166
_cell_angle_alpha 88.771043
_cell_angle_beta 127.931286
_cell_angle_gamma 84.711167
_cell_volume 644.133575
_symmetry_space_group_name_H-M "P -1"
_symmetry_group_IT_number 2
_symmetry_cell_setting 'triclinic'
loop_
_space_group_symop_operation_xyz
x,y,z
-x,-y,-z
loop_
_atom_site_type_symbol
_atom_site_label
_atom_site_fract_x
_atom_site_fract_y
_atom_site_fract_z
Si Si1 0.251714 0.010490 0.839963
Si Si2 0.266625 0.198913 0.562893
Si Si3 0.442926 0.028786 0.361734
Si Si4 0.678412 0.185871 0.286964
Si Si5 0.039275 0.463014 0.836344
Si Si6 0.966903 0.248364 0.695344
Si Si7 0.472308 0.424151 0.155393
O O1 0.403307 0.922525 0.794200
O O2 0.913140 0.968720 0.778063
O O3 0.190803 0.137813 0.789755
O O4 0.500000 0.000000 0.000000
O O5 0.591075 0.242607 0.610072
O O6 0.051283 0.199927 0.399142
O O7 0.069522 0.274591 0.600512
O O8 0.335441 0.075372 0.633028
O O9 0.552999 0.149660 0.370444
O O10 0.500000 0.000000 0.500000
O O11 0.490921 0.294342 0.184591
O O12 0.180207 0.540307 0.782719
O O13 0.046636 0.343797 0.791186
O O14 0.681763 0.514369 0.779906
O O15 0.252932 0.454039 0.996697
#
# Coordination Sequence:
#
# PCOD8022545 Si02
#       7
#     2   2   2   2   2   2   2
#     4  11  24  39  63 101 134 170 217 285 333 398
#     4  11  23  39  66  96 129 181 214 265 334 409
#     4  11  22  41  65  92 142 178 216 264 335 415
#     4  12  23  41  65 101 130 170 229 272 332 403
#     4  10  22  47  64  94 127 179 223 272 342 395
#     4  11  23  43  65  93 133 175 218 270 341 392
#     4  10  24  41  72  91 129 175 224 278 332 396
#
# _framework density 21.734621000000001
#
# number of rings (size 3 to 8) (size 9 to 14) (size 15 to 20)
#    0.000    1.143    2.857    3.857    2.000    0.571 
#    5.143    4.286    0.000    0.000    0.000    0.000 
#    0.000    0.000    0.000    0.000    0.000    0.000 
#
# Total GULP energy -173474.187421 kJ/mol
# GULP energy per Si atom -12391.013387 kJ/mol
# Density = 2.168515 g / cm^3
# Si number density = 21.734621 Si / 1000 Ang^3
#
#
#
# Elastic Constant Matrix: (Units=GPa)
#
#
# Indices 1 2 3 4 5 6 
#
# 1 144.7062 52.3339 37.7907 1.7088 -12.5815 -5.0761
# 2 52.3339 133.6434 15.7452 5.7816 -15.6938 -3.9924
# 3 37.7907 15.7452 82.5938 13.1402 7.4660 -4.7095
# 4 1.7088 5.7816 13.1402 38.3922 -0.6565 -6.0265
# 5 -12.5815 -15.6938 7.4660 -0.6565 23.6396 -2.4472
# 6 -5.0761 -3.9924 -4.7095 -6.0265 -2.4472 27.8322
#
#
#
# Elastic Compliance Matrix: (Units=1/GPa)
#
#
# Indices 1 2 3 4 5 6 
#
# 1 0.009498 -0.002649 -0.004493 0.001821 0.004912 0.001418
# 2 -0.002649 0.009280 -0.000842 -0.000749 0.005099 0.000992
# 3 -0.004493 -0.000842 0.015890 -0.005268 -0.008127 -0.000107
# 4 0.001821 -0.000749 -0.005268 0.028868 0.003548 0.005896
# 5 0.004912 0.005099 -0.008127 0.003548 0.051541 0.005552
# 6 0.001418 0.000992 -0.000107 0.005896 0.005552 0.038077
#
#
# Mechanical properties :
#
#
# Convention : Reuss Voigt Hill
#
# Bulk Modulus (GPa) = 53.48084 63.63147 58.55616
# Shear Modulus (GPa) = 28.51329 34.97769 31.74549
#
# Velocity S-wave (km/s) = 3.62592 4.01597 3.82592
# Velocity P-wave (km/s) = 6.49534 7.13051 6.82032
#
# Compressibility (1/GPa) = 0.01869828
#
# Stress axis : x y z
#
# Youngs Moduli (GPa) = 105.29058 107.75847 62.93069
#
# Poissons Ratio (x) = 0.28549 0.28277
# Poissons Ratio (y) = 0.27895 0.05300
# Poissons Ratio (z) = 0.47311 0.09075
#
# Static dielectric constant tensor:
#      x y z
#    x 4.542600 0.041170 -0.006810 
#    y 0.041170 4.098020 0.178010 
#    z -0.006810 0.178010 3.699230 
# 
# 
# High freq. dielectric constant tensor:
#      x y z
#    x 1.871000 -0.006120 -0.003770 
#    y -0.006120 1.848170 0.009530 
#    z -0.003770 0.009530 1.838400 
# 
# From -- ./inp_files/74284.got.cif
#   From: 2010.06.25/outbox.cif.g09.slc.cpg/sg2_38_cif.got.tgz:74284.got - 2010.06.27 13:26:56.
