data_PCOD8022454
_publ_section_title
;
Structure prediction by ZEFSAII (Michael W. Deem and Ramdas Pophale) SiO2 
 PCOD8022454
Probable space group: P -1
;
_chemical_formula_sum "Si O2"
_cell_formula_units_Z 16
_cell_length_a 18.374575
_cell_length_b 8.782385
_cell_length_c 12.219622
_cell_angle_alpha 82.886630
_cell_angle_beta 137.261869
_cell_angle_gamma 130.869938
_cell_volume 727.443964
_symmetry_space_group_name_H-M "P -1"
_symmetry_group_IT_number 2
_symmetry_cell_setting 'triclinic'
loop_
_space_group_symop_operation_xyz
x,y,z
-x,-y,-z
loop_
_atom_site_type_symbol
_atom_site_label
_atom_site_fract_x
_atom_site_fract_y
_atom_site_fract_z
Si Si1 0.809992 0.837649 0.243975
Si Si2 0.661214 0.337063 0.358775
Si Si3 0.447757 0.214082 0.936123
Si Si4 0.016764 0.107722 0.233391
Si Si5 0.874372 0.332652 0.486278
Si Si6 0.017097 0.282891 0.837243
Si Si7 0.612588 0.095398 0.724162
Si Si8 0.885715 0.205023 0.917433
O O1 0.714939 0.851631 0.214934
O O2 0.861266 0.961774 0.169823
O O3 0.648486 0.511931 0.077641
O O4 0.000000 0.000000 0.500000
O O5 0.845478 0.462055 0.501271
O O6 0.762549 0.609142 0.499930
O O7 0.548629 0.099538 0.342629
O O8 0.496813 0.187928 0.104802
O O9 0.347558 0.980805 0.760085
O O10 0.977981 0.889013 0.172211
O O11 0.000154 0.208372 0.107262
O O12 0.000000 0.500000 0.500000
O O13 0.975856 0.334164 0.679678
O O14 0.848411 0.100716 0.760997
O O15 0.223461 0.582165 0.091747
O O16 0.698940 0.027802 0.800617
O O17 0.500000 0.000000 0.500000
O O18 0.000000 0.500000 0.000000
#
# Coordination Sequence:
#
# PCOD8022454 Si02
#       8
#     2   2   2   2   2   2   2   2
#     4  11  23  44  66 102 148 187 230 298 356 410
#     4  12  24  42  68 103 139 185 238 286 352 420
#     4  11  25  41  69  99 141 192 245 280 350 424
#     4  12  24  42  73  99 142 181 229 293 358 412
#     4  12  26  44  70 101 144 191 239 290 352 427
#     4  11  25  44  71 100 137 182 234 288 360 417
#     4  11  23  44  70  98 135 179 232 295 351 426
#     4  10  22  46  68  96 132 179 227 283 357 419
#
# _framework density 21.994823
#
# number of rings (size 3 to 8) (size 9 to 14) (size 15 to 20)
#    0.000    0.750    1.250    7.500    5.250    0.000 
#    0.000    1.250    0.000    0.000    0.000    0.000 
#    0.000    0.000    0.000    0.000    0.000    0.000 
#
# Total GULP energy -198357.779988 kJ/mol
# GULP energy per Si atom -12397.361249 kJ/mol
# Density = 2.194476 g / cm^3
# Si number density = 21.994823 Si / 1000 Ang^3
#
#
#
# Elastic Constant Matrix: (Units=GPa)
#
#
# Indices 1 2 3 4 5 6 
#
# 1 108.3488 49.7362 41.4190 2.2672 0.6998 5.7262
# 2 49.7362 121.2380 60.9055 -9.6110 -11.5092 2.5525
# 3 41.4190 60.9055 145.3182 -7.8618 -15.6859 -10.5146
# 4 2.2672 -9.6110 -7.8618 49.6918 -0.5786 -5.1933
# 5 0.6998 -11.5092 -15.6859 -0.5786 39.9332 -0.1142
# 6 5.7262 2.5525 -10.5146 -5.1933 -0.1142 43.1440
#
#
#
# Elastic Compliance Matrix: (Units=1/GPa)
#
#
# Indices 1 2 3 4 5 6 
#
# 1 0.012184 -0.004216 -0.002220 -0.001975 -0.002335 -0.002153
# 2 -0.004216 0.012172 -0.003619 0.001915 0.002186 -0.000806
# 3 -0.002220 -0.003619 0.009620 0.001271 0.002802 0.003014
# 4 -0.001975 0.001915 0.001271 0.021116 0.001400 0.003004
# 5 -0.002335 0.002186 0.002802 0.001400 0.026837 0.001103
# 6 -0.002153 -0.000806 0.003014 0.003004 0.001103 0.024611
#
#
# Mechanical properties :
#
#
# Convention : Reuss Voigt Hill
#
# Bulk Modulus (GPa) = 72.11764 75.44739 73.78252
# Shear Modulus (GPa) = 38.08934 41.41009 39.74972
#
# Velocity S-wave (km/s) = 4.16593 4.34374 4.25577
# Velocity P-wave (km/s) = 7.48329 7.71584 7.60046
#
# Compressibility (1/GPa) = 0.01386623
#
# Stress axis : x y z
#
# Youngs Moduli (GPa) = 82.07781 82.15704 103.94758
#
# Poissons Ratio (x) = 0.34634 0.23081
# Poissons Ratio (y) = 0.34601 0.37615
# Poissons Ratio (z) = 0.18225 0.29730
#
# Static dielectric constant tensor:
#      x y z
#    x 4.760630 0.096260 -0.043750 
#    y 0.096260 4.111510 0.102910 
#    z -0.043750 0.102910 4.022760 
# 
# 
# High freq. dielectric constant tensor:
#      x y z
#    x 1.875840 0.007410 -0.006730 
#    y 0.007410 1.872140 -0.003840 
#    z -0.006730 -0.003840 1.864650 
# 
# From -- ./inp_files/273279.got.cif
#   From: 2010.06.25/outbox.cif.g09.slc.cpg/sg2_137_cif.got.tgz:273279.got - 2010.06.27 13:26:56.
