data_PCOD8022276
_publ_section_title
;
Structure prediction by ZEFSAII (Michael W. Deem and Ramdas Pophale) SiO2 
 PCOD8022276
Probable space group: P -1
;
_chemical_formula_sum "Si O2"
_cell_formula_units_Z 16
_cell_length_a 8.833368
_cell_length_b 17.144985
_cell_length_c 15.232330
_cell_angle_alpha 137.649641
_cell_angle_beta 30.084105
_cell_angle_gamma 138.012527
_cell_volume 741.291144
_symmetry_space_group_name_H-M "P -1"
_symmetry_group_IT_number 2
_symmetry_cell_setting 'triclinic'
loop_
_space_group_symop_operation_xyz
x,y,z
-x,-y,-z
loop_
_atom_site_type_symbol
_atom_site_label
_atom_site_fract_x
_atom_site_fract_y
_atom_site_fract_z
Si Si1 0.128999 0.472911 0.163433
Si Si2 0.869522 0.821764 0.386752
Si Si3 0.769513 0.955105 0.712156
Si Si4 0.121825 0.437521 0.465770
Si Si5 0.052223 0.801755 0.933631
Si Si6 0.136548 0.445145 0.806537
Si Si7 0.155984 0.805529 0.687261
Si Si8 0.815072 0.993700 0.289706
O O1 0.043710 0.540001 0.344823
O O2 0.955482 0.327579 0.129259
O O3 0.035011 0.534923 0.178202
O O4 0.500000 0.500000 0.000000
O O5 0.916901 0.878630 0.507718
O O6 0.944319 0.696431 0.250635
O O7 0.515541 0.803731 0.514687
O O8 0.122404 0.905997 0.261882
O O9 0.391972 0.901638 0.860662
O O10 0.896155 0.948478 0.740672
O O11 0.493193 0.492180 0.338279
O O12 0.000000 0.500000 0.500000
O O13 0.029709 0.295110 0.373144
O O14 0.978024 0.783081 0.851590
O O15 0.800230 0.856068 0.154490
O O16 0.000000 0.500000 0.000000
O O17 0.140735 0.932396 0.761781
O O18 0.500000 0.000000 0.500000
#
# Coordination Sequence:
#
# PCOD8022276 Si02
#       8
#     2   2   2   2   2   2   2   2
#     4  12  29  48  73 103 143 189 238 300 351 423
#     4  10  22  45  69  98 144 174 230 280 350 413
#     4  10  23  44  70  98 132 186 223 290 339 406
#     4  12  23  47  73 103 143 186 234 288 357 419
#     4  11  26  48  67  99 143 179 236 284 352 414
#     4  12  28  44  73 108 141 188 234 288 363 424
#     4  11  24  44  73 101 143 183 226 290 348 419
#     4  12  26  41  71 104 134 182 235 285 348 406
#
# _framework density 21.583963000000001
#
# number of rings (size 3 to 8) (size 9 to 14) (size 15 to 20)
#    0.000    0.750    3.750    2.625    7.000    1.000 
#    0.000    0.000    0.000    0.000    0.000    0.000 
#    0.000    0.000    0.000    0.000    0.000    0.000 
#
# Total GULP energy -198478.645953 kJ/mol
# GULP energy per Si atom -12404.915372 kJ/mol
# Density = 2.153484 g / cm^3
# Si number density = 21.583963 Si / 1000 Ang^3
#
#
#
# Elastic Constant Matrix: (Units=GPa)
#
#
# Indices 1 2 3 4 5 6 
#
# 1 148.6407 42.5781 53.9363 8.9957 2.8647 -8.7382
# 2 42.5781 125.2017 44.8676 13.9600 -4.3989 -1.5042
# 3 53.9363 44.8676 141.3702 7.2679 11.6260 5.8234
# 4 8.9957 13.9600 7.2679 44.9855 3.5885 -5.5959
# 5 2.8647 -4.3989 11.6260 3.5885 31.4037 0.7690
# 6 -8.7382 -1.5042 5.8234 -5.5959 0.7690 35.7606
#
#
#
# Elastic Compliance Matrix: (Units=1/GPa)
#
#
# Indices 1 2 3 4 5 6 
#
# 1 0.008389 -0.001816 -0.002699 -0.000382 -0.000035 0.002354
# 2 -0.001816 0.009895 -0.002544 -0.002527 0.002784 -0.000069
# 3 -0.002699 -0.002544 0.009298 -0.000173 -0.003478 -0.002233
# 4 -0.000382 -0.002527 -0.000173 0.023813 -0.003065 0.003621
# 5 -0.000035 0.002784 -0.003478 -0.003065 0.033887 -0.000533
# 6 0.002354 -0.000069 -0.002233 0.003621 -0.000533 0.029478
#
#
# Mechanical properties :
#
#
# Convention : Reuss Voigt Hill
#
# Bulk Modulus (GPa) = 74.26933 77.55294 75.91114
# Shear Modulus (GPa) = 37.49096 40.68535 39.08816
#
# Velocity S-wave (km/s) = 4.17223 4.34635 4.26018
# Velocity P-wave (km/s) = 7.59567 7.82282 7.71008
#
# Compressibility (1/GPa) = 0.01346451
#
# Stress axis : x y z
#
# Youngs Moduli (GPa) = 119.19861 101.06015 107.55572
#
# Poissons Ratio (x) = 0.18354 0.29027
# Poissons Ratio (y) = 0.21648 0.27360
# Poissons Ratio (z) = 0.32169 0.25707
#
# Static dielectric constant tensor:
#      x y z
#    x 3.926790 -0.069710 0.101370 
#    y -0.069710 4.182760 0.107060 
#    z 0.101370 0.107060 3.955300 
# 
# 
# High freq. dielectric constant tensor:
#      x y z
#    x 1.858570 -0.000100 0.008760 
#    y -0.000100 1.855300 0.004820 
#    z 0.008760 0.004820 1.854730 
# 
# From -- ./inp_files/245685.got.cif
#   From: 2010.06.25/outbox.cif.g09.slc.cpg/sg2_123_cif.got.tgz:245685.got - 2010.06.27 13:26:56.
