data_PCOD8022923
_publ_section_title
;
Structure prediction by ZEFSAII (Michael W. Deem and Ramdas Pophale) SiO2 
 PCOD8022923
Probable space group: P -1
;
_chemical_formula_sum "Si O2"
_cell_formula_units_Z 14
_cell_length_a 9.226712
_cell_length_b 22.542180
_cell_length_c 6.755140
_cell_angle_alpha 41.797679
_cell_angle_beta 131.284640
_cell_angle_gamma 129.607613
_cell_volume 673.267512
_symmetry_space_group_name_H-M "P -1"
_symmetry_group_IT_number 2
_symmetry_cell_setting 'triclinic'
loop_
_space_group_symop_operation_xyz
x,y,z
-x,-y,-z
loop_
_atom_site_type_symbol
_atom_site_label
_atom_site_fract_x
_atom_site_fract_y
_atom_site_fract_z
Si Si1 0.102806 0.596458 0.742085
Si Si2 0.368491 0.109593 0.126839
Si Si3 0.034321 0.095421 0.167468
Si Si4 0.438725 0.685555 0.117561
Si Si5 0.226971 0.302119 0.922974
Si Si6 0.616540 0.021065 0.851307
Si Si7 0.441543 0.591999 0.752931
O O1 0.242022 0.575889 0.745106
O O2 0.941208 0.643617 0.386929
O O3 0.243599 0.668543 0.844199
O O4 0.000000 0.500000 0.000000
O O5 0.156661 0.095303 0.077777
O O6 0.483518 0.052430 0.497435
O O7 0.334379 0.070206 0.969508
O O8 0.508628 0.213891 0.986902
O O9 0.132485 0.190284 0.142291
O O10 0.000000 0.000000 0.500000
O O11 0.820422 0.101361 0.881836
O O12 0.630035 0.672420 0.203592
O O13 0.384953 0.616231 0.423567
O O14 0.362758 0.333206 0.163447
O O15 0.500000 0.000000 0.000000
O O16 0.500000 0.500000 0.000000
#
# Coordination Sequence:
#
# PCOD8022923 Si02
#       7
#     2   2   2   2   2   2   2
#     4  11  23  42  67  93 128 162 207 264 318 378
#     4  10  23  40  60  90 121 167 207 259 313 369
#     4  11  22  40  63  89 126 167 207 259 312 367
#     4  10  23  41  63  89 128 162 206 260 315 374
#     4  10  24  42  62  93 128 164 212 260 315 375
#     4  11  22  39  61  86 123 162 212 256 309 365
#     4  11  24  42  65  95 126 166 209 256 321 380
#
# _framework density 20.794111999999998
#
# number of rings (size 3 to 8) (size 9 to 14) (size 15 to 20)
#    0.000    1.429    1.429    3.000    2.000    8.000 
#    0.000    0.000    0.000    0.000    0.000    0.000 
#    0.000    0.000    0.000    0.000    0.000    0.000 
#
# Total GULP energy -173551.681295 kJ/mol
# GULP energy per Si atom -12396.548664 kJ/mol
# Density = 2.074678 g / cm^3
# Si number density = 20.794112 Si / 1000 Ang^3
#
#
#
# Elastic Constant Matrix: (Units=GPa)
#
#
# Indices 1 2 3 4 5 6 
#
# 1 111.8373 45.4328 28.6588 2.8829 5.7094 0.9879
# 2 45.4328 99.7085 5.0821 -1.0190 1.3444 0.4341
# 3 28.6588 5.0821 60.6205 -0.8787 -1.6605 -0.0515
# 4 2.8829 -1.0190 -0.8787 39.7325 4.9202 2.2133
# 5 5.7094 1.3444 -1.6605 4.9202 34.9835 3.9204
# 6 0.9879 0.4341 -0.0515 2.2133 3.9204 37.1313
#
#
#
# Elastic Compliance Matrix: (Units=1/GPa)
#
#
# Indices 1 2 3 4 5 6 
#
# 1 0.012748 -0.005504 -0.005634 -0.000942 -0.002002 -0.000015
# 2 -0.005504 0.012459 0.001579 0.000708 0.000404 -0.000082
# 3 -0.005634 0.001579 0.019083 0.000667 0.001677 -0.000059
# 4 -0.000942 0.000708 0.000667 0.025747 -0.003332 -0.001165
# 5 -0.002002 0.000404 0.001677 -0.003332 0.029769 -0.002894
# 6 -0.000015 -0.000082 -0.000059 -0.001165 -0.002894 0.027308
#
#
# Mechanical properties :
#
#
# Convention : Reuss Voigt Hill
#
# Bulk Modulus (GPa) = 39.72740 47.83487 43.78114
# Shear Modulus (GPa) = 32.33708 35.23562 33.78635
#
# Velocity S-wave (km/s) = 3.94776 4.12090 4.03526
# Velocity P-wave (km/s) = 6.31873 6.75991 6.54304
#
# Compressibility (1/GPa) = 0.02517154
#
# Stress axis : x y z
#
# Youngs Moduli (GPa) = 78.44477 80.26416 52.40361
#
# Poissons Ratio (x) = 0.44178 0.29523
# Poissons Ratio (y) = 0.43176 -0.08274
# Poissons Ratio (z) = 0.44194 -0.12673
#
# Static dielectric constant tensor:
#      x y z
#    x 3.996570 -0.037670 0.061610 
#    y -0.037670 4.058810 0.246470 
#    z 0.061610 0.246470 3.590690 
# 
# 
# High freq. dielectric constant tensor:
#      x y z
#    x 1.824190 -0.000490 0.004890 
#    y -0.000490 1.830680 0.007880 
#    z 0.004890 0.007880 1.811540 
# 
# From -- ./inp_files/41655.got.cif
#   From: 2010.06.25/outbox.cif.g09.slc.cpg/sg2_21_cif.got.tgz:41655.got - 2010.06.27 13:26:56.
