data_PCOD8022701
_publ_section_title
;
Structure prediction by ZEFSAII (Michael W. Deem and Ramdas Pophale) SiO2 
 PCOD8022701
Probable space group: P -1
;
_chemical_formula_sum "Si O2"
_cell_formula_units_Z 14
_cell_length_a 9.344040
_cell_length_b 9.631764
_cell_length_c 27.440899
_cell_angle_alpha 143.162814
_cell_angle_beta 28.005019
_cell_angle_gamma 136.452876
_cell_volume 693.797285
_symmetry_space_group_name_H-M "P -1"
_symmetry_group_IT_number 2
_symmetry_cell_setting 'triclinic'
loop_
_space_group_symop_operation_xyz
x,y,z
-x,-y,-z
loop_
_atom_site_type_symbol
_atom_site_label
_atom_site_fract_x
_atom_site_fract_y
_atom_site_fract_z
Si Si1 0.517896 0.666454 0.233882
Si Si2 0.780515 0.829991 0.669483
Si Si3 0.760667 0.992421 0.172270
Si Si4 0.958628 0.688112 0.248067
Si Si5 0.754973 0.613506 0.845745
Si Si6 0.878071 0.513866 0.957854
Si Si7 0.301861 0.660805 0.403220
O O1 0.570771 0.894521 0.248602
O O2 0.301357 0.472357 0.216767
O O3 0.358696 0.733469 0.350635
O O4 0.847460 0.568892 0.115522
O O5 0.781458 0.615269 0.646052
O O6 0.029265 0.805653 0.545303
O O7 0.448216 0.837318 0.746885
O O8 0.861338 0.061612 0.741115
O O9 0.846843 0.785690 0.052727
O O10 0.067423 0.135228 0.137593
O O11 0.599128 0.723657 0.364407
O O12 0.045417 0.575285 0.241194
O O13 0.058442 0.521123 0.127912
O O14 0.431885 0.632917 0.975394
#
# Coordination Sequence:
#
# PCOD8022701 Si02
#       7
#     2   2   2   2   2   2   2
#     4  10  23  42  58  89 125 154 200 248 297 355
#     4  11  22  41  66  87 120 158 201 251 294 352
#     4  11  22  38  63  90 124 159 195 244 301 353
#     4  11  21  40  63  91 118 158 202 248 295 352
#     4  11  21  37  61  90 122 158 198 240 297 358
#     4  10  23  38  61  91 124 154 202 244 295 358
#     4  10  24  42  63  91 117 155 207 248 297 350
#
# _framework density 20.178805000000001
#
# number of rings (size 3 to 8) (size 9 to 14) (size 15 to 20)
#    0.000    1.429    4.286    2.571    0.000    8.000 
#    0.000    0.714    0.000    0.000    0.000    0.000 
#    0.000    0.000    0.000    0.000    0.000    0.000 
#
# Total GULP energy -173660.855622 kJ/mol
# GULP energy per Si atom -12404.346830 kJ/mol
# Density = 2.013288 g / cm^3
# Si number density = 20.178805 Si / 1000 Ang^3
#
#
#
# Elastic Constant Matrix: (Units=GPa)
#
#
# Indices 1 2 3 4 5 6 
#
# 1 94.7408 30.4237 33.9943 1.5821 -2.5866 16.8460
# 2 30.4237 105.1071 17.5874 2.3475 9.3652 27.7943
# 3 33.9943 17.5874 60.9830 -4.8160 0.1512 7.9715
# 4 1.5821 2.3475 -4.8160 25.2270 2.0494 -6.7595
# 5 -2.5866 9.3652 0.1512 2.0494 21.3815 -5.0276
# 6 16.8460 27.7943 7.9715 -6.7595 -5.0276 38.0857
#
#
#
# Elastic Compliance Matrix: (Units=1/GPa)
#
#
# Indices 1 2 3 4 5 6 
#
# 1 0.014645 -0.002176 -0.007324 -0.003272 0.002234 -0.003642
# 2 -0.002176 0.014136 -0.001724 -0.003698 -0.008625 -0.010788
# 3 -0.007324 -0.001724 0.021259 0.004952 -0.000555 0.000854
# 4 -0.003272 -0.003698 0.004952 0.044087 -0.000481 0.010870
# 5 0.002234 -0.008625 -0.000555 -0.000481 0.053792 0.012438
# 6 -0.003642 -0.010788 0.000854 0.010870 0.012438 0.039133
#
#
# Mechanical properties :
#
#
# Convention : Reuss Voigt Hill
#
# Bulk Modulus (GPa) = 36.24335 47.20464 41.72399
# Shear Modulus (GPa) = 22.86256 28.86053 25.86155
#
# Velocity S-wave (km/s) = 3.36966 3.78595 3.58385
# Velocity P-wave (km/s) = 5.75669 6.52344 6.15202
#
# Compressibility (1/GPa) = 0.02759127
#
# Stress axis : x y z
#
# Youngs Moduli (GPa) = 68.28170 70.73934 47.03945
#
# Poissons Ratio (x) = 0.15396 0.34451
# Poissons Ratio (y) = 0.14861 0.08111
# Poissons Ratio (z) = 0.50009 0.12197
#
# Static dielectric constant tensor:
#      x y z
#    x 3.761260 0.163110 -0.147040 
#    y 0.163110 3.606390 -0.101480 
#    z -0.147040 -0.101480 3.548240 
# 
# 
# High freq. dielectric constant tensor:
#      x y z
#    x 1.794760 0.010450 -0.010930 
#    y 0.010450 1.787730 -0.003990 
#    z -0.010930 -0.003990 1.781370 
# 
# From -- ./inp_files/177178.got.cif
#   From: 2010.06.25/outbox.cif.g09.slc.cpg/sg2_89_cif.got.tgz:177178.got - 2010.06.27 13:26:56.
