data_PCOD8022365
_publ_section_title
;
Structure prediction by ZEFSAII (Michael W. Deem and Ramdas Pophale) SiO2 
 PCOD8022365
Probable space group: P -1
;
_chemical_formula_sum "Si O2"
_cell_formula_units_Z 16
_cell_length_a 30.292691
_cell_length_b 5.193928
_cell_length_c 9.378678
_cell_angle_alpha 125.924681
_cell_angle_beta 142.642474
_cell_angle_gamma 51.437220
_cell_volume 687.064176
_symmetry_space_group_name_H-M "P -1"
_symmetry_group_IT_number 2
_symmetry_cell_setting 'triclinic'
loop_
_space_group_symop_operation_xyz
x,y,z
-x,-y,-z
loop_
_atom_site_type_symbol
_atom_site_label
_atom_site_fract_x
_atom_site_fract_y
_atom_site_fract_z
Si Si1 0.836073 0.366538 0.487759
Si Si2 0.981235 0.793544 0.665655
Si Si3 0.481736 0.652115 0.847899
Si Si4 0.307162 0.598476 0.056681
Si Si5 0.068072 0.214615 0.150194
Si Si6 0.265225 0.623285 0.535028
Si Si7 0.379406 0.864026 0.082973
Si Si8 0.696402 0.144783 0.576131
O O1 0.762316 0.455448 0.226963
O O2 0.852035 0.722712 0.669771
O O3 0.817580 0.211777 0.543556
O O4 0.912064 0.109149 0.526024
O O5 0.943592 0.721079 0.690107
O O6 0.000000 0.500000 0.500000
O O7 0.058571 0.875821 0.943261
O O8 0.395011 0.688395 0.600168
O O9 0.500000 0.500000 0.000000
O O10 0.533135 0.378168 0.779745
O O11 0.500000 0.000000 0.000000
O O12 0.347696 0.822475 0.144476
O O13 0.370641 0.248913 0.152085
O O14 0.269822 0.798822 0.166863
O O15 0.000000 0.500000 0.000000
O O16 0.331481 0.760860 0.802898
O O17 0.263107 0.677972 0.378068
O O18 0.285501 0.247900 0.526477
#
# Coordination Sequence:
#
# PCOD8022365 Si02
#       8
#     2   2   2   2   2   2   2   2
#     4  10  24  43  66  95 134 188 217 272 355 414
#     4  10  22  45  73 102 137 174 231 287 334 414
#     4  12  22  39  69  98 125 180 239 284 353 403
#     4  11  26  42  64  99 143 172 228 285 354 408
#     4   9  21  44  68 100 137 176 220 280 337 416
#     4  11  23  42  68  93 133 180 227 277 340 413
#     4  11  22  42  67  93 133 184 220 290 347 413
#     4  12  24  44  64 102 134 174 236 295 330 420
#
# _framework density 23.287486999999999
#
# number of rings (size 3 to 8) (size 9 to 14) (size 15 to 20)
#    0.000    1.250    2.500    3.000    5.250    3.000 
#    9.000    0.000    0.000    0.000    0.000    0.000 
#    0.000    0.000    0.000    0.000    0.000    0.000 
#
# Total GULP energy -198286.657792 kJ/mol
# GULP energy per Si atom -12392.916112 kJ/mol
# Density = 2.323448 g / cm^3
# Si number density = 23.287487 Si / 1000 Ang^3
#
#
#
# Elastic Constant Matrix: (Units=GPa)
#
#
# Indices 1 2 3 4 5 6 
#
# 1 139.7968 36.8625 64.4156 -2.8651 -8.9484 9.7262
# 2 36.8625 83.9710 13.1865 2.0586 -5.1739 0.1704
# 3 64.4156 13.1865 87.8578 13.5713 -10.3952 -6.1484
# 4 -2.8651 2.0586 13.5713 25.6282 -4.0964 -2.5056
# 5 -8.9484 -5.1739 -10.3952 -4.0964 43.0893 -2.9434
# 6 9.7262 0.1704 -6.1484 -2.5056 -2.9434 47.2248
#
#
#
# Elastic Compliance Matrix: (Units=1/GPa)
#
#
# Indices 1 2 3 4 5 6 
#
# 1 0.013713 -0.004493 -0.010747 0.007235 0.000143 -0.003815
# 2 -0.004493 0.013717 0.001780 -0.002285 0.000998 0.001049
# 3 -0.010747 0.001780 0.021420 -0.011874 0.002329 0.004511
# 4 0.007235 -0.002285 -0.011874 0.046707 0.002778 -0.000377
# 5 0.000143 0.000998 0.002329 0.002778 0.024315 0.001933
# 6 -0.003815 0.001049 0.004511 -0.000377 0.001933 0.022645
#
#
# Mechanical properties :
#
#
# Convention : Reuss Voigt Hill
#
# Bulk Modulus (GPa) = 45.60197 60.06165 52.83181
# Shear Modulus (GPa) = 28.28884 36.33252 32.31068
#
# Velocity S-wave (km/s) = 3.48913 3.95419 3.72892
# Velocity P-wave (km/s) = 5.98805 6.83336 6.42462
#
# Compressibility (1/GPa) = 0.02192888
#
# Stress axis : x y z
#
# Youngs Moduli (GPa) = 72.92368 72.90154 46.68519
#
# Poissons Ratio (x) = 0.32755 0.50174
# Poissons Ratio (y) = 0.32764 -0.08309
# Poissons Ratio (z) = 0.78374 -0.12974
#
# Static dielectric constant tensor:
#      x y z
#    x 4.654220 -0.076810 0.446540 
#    y -0.076810 4.061250 -0.175290 
#    z 0.446540 -0.175290 4.776040 
# 
# 
# High freq. dielectric constant tensor:
#      x y z
#    x 1.931420 0.011900 0.004930 
#    y 0.011900 1.931190 -0.010830 
#    z 0.004930 -0.010830 1.909730 
# 
# From -- ./inp_files/358292.got.cif
#   From: 2010.06.25/outbox.cif.g09.slc.cpg/sg2_180_cif.got.tgz:358292.got - 2010.06.27 13:26:56.
