data_PCOD8022354
_publ_section_title
;
Structure prediction by ZEFSAII (Michael W. Deem and Ramdas Pophale) SiO2 
 PCOD8022354
Probable space group: P -1
;
_chemical_formula_sum "Si O2"
_cell_formula_units_Z 16
_cell_length_a 8.572806
_cell_length_b 18.107747
_cell_length_c 5.445283
_cell_angle_alpha 90.984609
_cell_angle_beta 77.717385
_cell_angle_gamma 126.418440
_cell_volume 658.210119
_symmetry_space_group_name_H-M "P -1"
_symmetry_group_IT_number 2
_symmetry_cell_setting 'triclinic'
loop_
_space_group_symop_operation_xyz
x,y,z
-x,-y,-z
loop_
_atom_site_type_symbol
_atom_site_label
_atom_site_fract_x
_atom_site_fract_y
_atom_site_fract_z
Si Si1 0.840640 0.256367 0.732824
Si Si2 0.383736 0.784590 0.707581
Si Si3 0.165436 0.256045 0.803288
Si Si4 0.906396 0.054866 0.034050
Si Si5 0.304443 0.402190 0.131208
Si Si6 0.103059 0.456261 0.561501
Si Si7 0.212516 0.018686 0.430509
Si Si8 0.471626 0.645212 0.630551
O O1 0.720509 0.222846 0.514685
O O2 0.004932 0.235923 0.646185
O O3 0.939030 0.364660 0.763760
O O4 0.708981 0.202049 0.018606
O O5 0.614433 0.872321 0.615493
O O6 0.372596 0.693446 0.753031
O O7 0.392703 0.299851 0.651428
O O8 0.173262 0.336843 0.946293
O O9 0.084552 0.164524 0.981165
O O10 0.775880 0.028348 0.326969
O O11 0.773023 0.026302 0.827379
O O12 0.000000 0.000000 0.000000
O O13 0.160026 0.415763 0.325772
O O14 0.369285 0.344110 0.235414
O O15 0.500000 0.500000 0.000000
O O16 0.301630 0.535011 0.646615
O O17 0.000000 0.500000 0.500000
O O18 0.000000 0.000000 0.500000
#
# Coordination Sequence:
#
# PCOD8022354 Si02
#       8
#     2   2   2   2   2   2   2   2
#     4  12  28  50  70 112 157 204 254 308 388 461
#     4  12  28  48  78 111 150 201 252 315 384 466
#     4  12  27  47  77 106 156 200 254 319 382 445
#     4  10  23  42  75 110 143 186 246 314 376 442
#     4  12  26  45  72 112 149 202 262 317 370 448
#     4  12  25  49  69 109 159 206 254 312 380 449
#     4  10  22  45  72 108 146 180 249 311 371 448
#     4  12  26  43  75 106 148 203 262 313 374 444
#
# _framework density 24.308349
#
# number of rings (size 3 to 8) (size 9 to 14) (size 15 to 20)
#    0.000    0.500    3.750    4.125    8.750    0.500 
#    0.000    3.750    0.000    0.000    0.000    0.000 
#    0.000    0.000    0.000    0.000    0.000    0.000 
#
# Total GULP energy -198315.717530 kJ/mol
# GULP energy per Si atom -12394.732346 kJ/mol
# Density = 2.425302 g / cm^3
# Si number density = 24.308349 Si / 1000 Ang^3
#
#
#
# Elastic Constant Matrix: (Units=GPa)
#
#
# Indices 1 2 3 4 5 6 
#
# 1 93.3714 6.8573 19.4017 4.2084 7.2265 10.5264
# 2 6.8573 141.3334 32.9742 -15.4543 3.6238 22.5821
# 3 19.4017 32.9742 146.3735 4.1625 16.0673 18.2238
# 4 4.2084 -15.4543 4.1625 44.3161 -0.0244 -1.8448
# 5 7.2265 3.6238 16.0673 -0.0244 27.3582 -5.0887
# 6 10.5264 22.5821 18.2238 -1.8448 -5.0887 35.0613
#
#
#
# Elastic Compliance Matrix: (Units=1/GPa)
#
#
# Indices 1 2 3 4 5 6 
#
# 1 0.011580 0.000166 -0.000701 -0.001135 -0.003371 -0.003768
# 2 0.000166 0.008492 -0.001258 0.002859 -0.001341 -0.004910
# 3 -0.000701 -0.001258 0.008349 -0.001333 -0.005327 -0.004162
# 4 -0.001135 0.002859 -0.001333 0.023819 0.000830 0.000566
# 5 -0.003371 -0.001341 -0.005327 0.000830 0.042776 0.010897
# 6 -0.003768 -0.004910 -0.004162 0.000566 0.010897 0.036590
#
#
# Mechanical properties :
#
#
# Convention : Reuss Voigt Hill
#
# Bulk Modulus (GPa) = 40.26392 55.50499 47.88445
# Shear Modulus (GPa) = 34.85032 42.80347 38.82690
#
# Velocity S-wave (km/s) = 3.79050 4.20081 4.00092
# Velocity P-wave (km/s) = 5.97971 6.81266 6.40973
#
# Compressibility (1/GPa) = 0.02483613
#
# Stress axis : x y z
#
# Youngs Moduli (GPa) = 86.35395 117.75269 119.77558
#
# Poissons Ratio (x) = -0.01956 0.08395
# Poissons Ratio (y) = -0.01435 0.15068
# Poissons Ratio (z) = 0.06052 0.14813
#
# Static dielectric constant tensor:
#      x y z
#    x 4.255290 0.246100 0.413460 
#    y 0.246100 4.533860 0.074940 
#    z 0.413460 0.074940 5.544770 
# 
# 
# High freq. dielectric constant tensor:
#      x y z
#    x 1.956840 0.007630 0.007880 
#    y 0.007630 1.976960 -0.010350 
#    z 0.007880 -0.010350 1.969620 
# 
# From -- ./inp_files/37933.got.cif
#   From: 2010.06.25/outbox.cif.g09.slc.cpg/sg2_19_cif.got.tgz:37933.got - 2010.06.27 13:26:56.
