data_PCOD8022917
_publ_section_title
;
Structure prediction by ZEFSAII (Michael W. Deem and Ramdas Pophale) SiO2 
 PCOD8022917
Probable space group: P -1
;
_chemical_formula_sum "Si O2"
_cell_formula_units_Z 16
_cell_length_a 6.630646
_cell_length_b 8.796423
_cell_length_c 14.601163
_cell_angle_alpha 69.751994
_cell_angle_beta 83.626497
_cell_angle_gamma 98.403826
_cell_volume 778.348488
_symmetry_space_group_name_H-M "P -1"
_symmetry_group_IT_number 2
_symmetry_cell_setting 'triclinic'
loop_
_space_group_symop_operation_xyz
x,y,z
-x,-y,-z
loop_
_atom_site_type_symbol
_atom_site_label
_atom_site_fract_x
_atom_site_fract_y
_atom_site_fract_z
Si Si1 0.208904 0.416331 0.770410
Si Si2 0.773648 0.892962 0.046594
Si Si3 0.282578 0.179994 0.416562
Si Si4 0.353252 0.781508 0.741907
Si Si5 0.137512 0.757708 0.299013
Si Si6 0.550353 0.946225 0.869627
Si Si7 0.582518 0.468379 0.602073
Si Si8 0.910172 0.992610 0.365526
O O1 0.214182 0.284691 0.877076
O O2 0.229160 0.593672 0.781197
O O3 0.392968 0.409803 0.692011
O O4 0.989665 0.375056 0.737250
O O5 0.653789 0.993270 0.099951
O O6 0.652372 0.858969 0.963929
O O7 0.000000 0.000000 0.000000
O O8 0.505543 0.175618 0.364173
O O9 0.269211 0.366113 0.404415
O O10 0.110136 0.120112 0.362282
O O11 0.247878 0.064316 0.531572
O O12 0.488018 0.809735 0.821766
O O13 0.198704 0.910343 0.723971
O O14 0.277332 0.671331 0.378234
O O15 0.282314 0.899181 0.205432
O O16 0.973134 0.832271 0.351312
O O17 0.500000 0.500000 0.500000
#
# Coordination Sequence:
#
# PCOD8022917 Si02
#       8
#     2   2   2   2   2   2   2   2
#     4  11  24  43  68  96 135 173 213 274 327 388
#     4  11  23  45  72  98 125 170 220 272 331 387
#     4  10  23  40  59  92 133 178 218 271 316 388
#     4  11  24  42  63  96 134 172 217 270 328 381
#     4  12  23  41  68  97 130 173 223 264 326 389
#     4  11  24  41  70  98 125 168 220 273 322 399
#     4  11  25  41  64  97 135 174 220 271 324 381
#     4  11  23  38  66  93 133 179 222 265 320 385
#
# _framework density 20.556346999999999
#
# number of rings (size 3 to 8) (size 9 to 14) (size 15 to 20)
#    0.000    1.000    3.750    2.625    1.750    6.500 
#    0.000    0.625    0.000    0.000    0.000    0.000 
#    0.000    0.000    0.000    0.000    0.000    0.000 
#
# Total GULP energy -198469.524272 kJ/mol
# GULP energy per Si atom -12404.345267 kJ/mol
# Density = 2.050956 g / cm^3
# Si number density = 20.556347 Si / 1000 Ang^3
#
#
#
# Elastic Constant Matrix: (Units=GPa)
#
#
# Indices 1 2 3 4 5 6 
#
# 1 90.2941 53.5928 43.1748 -6.1760 15.3978 -0.8614
# 2 53.5928 127.9675 47.3487 1.4772 9.4941 15.9199
# 3 43.1748 47.3487 93.6212 -8.4483 19.6587 2.6782
# 4 -6.1760 1.4772 -8.4483 32.3024 -0.3653 0.8449
# 5 15.3978 9.4941 19.6587 -0.3653 37.4134 -6.1578
# 6 -0.8614 15.9199 2.6782 0.8449 -6.1578 43.9065
#
#
#
# Elastic Compliance Matrix: (Units=1/GPa)
#
#
# Indices 1 2 3 4 5 6 
#
# 1 0.017190 -0.005698 -0.004267 0.002340 -0.003002 0.002197
# 2 -0.005698 0.012073 -0.003693 -0.002493 0.000515 -0.004144
# 3 -0.004267 -0.003693 0.016072 0.003507 -0.005818 -0.000608
# 4 0.002340 -0.002493 0.003507 0.032419 -0.001881 -0.000152
# 5 -0.003002 0.000515 -0.005818 -0.001881 0.031626 0.004581
# 6 0.002197 -0.004144 -0.000608 -0.000152 0.004581 0.025004
#
#
# Mechanical properties :
#
#
# Convention : Reuss Voigt Hill
#
# Bulk Modulus (GPa) = 55.49489 66.67948 61.08718
# Shear Modulus (GPa) = 29.81396 33.90891 31.86144
#
# Velocity S-wave (km/s) = 3.81248 4.06588 3.94122
# Velocity P-wave (km/s) = 6.81433 7.38578 7.10580
#
# Compressibility (1/GPa) = 0.01801968
#
# Stress axis : x y z
#
# Youngs Moduli (GPa) = 58.17260 82.82728 62.21870
#
# Poissons Ratio (x) = 0.47196 0.26549
# Poissons Ratio (y) = 0.33147 0.22977
# Poissons Ratio (z) = 0.24823 0.30588
#
# Static dielectric constant tensor:
#      x y z
#    x 3.798520 0.116890 -0.066620 
#    y 0.116890 3.610580 0.101900 
#    z -0.066620 0.101900 3.765010 
# 
# 
# High freq. dielectric constant tensor:
#      x y z
#    x 1.813900 0.011050 -0.000380 
#    y 0.011050 1.804780 -0.002640 
#    z -0.000380 -0.002640 1.805960 
# 
# From -- ./inp_files/38152.got.cif
#   From: 2010.06.25/outbox.cif.g09.slc.cpg/sg2_20_cif.got.tgz:38152.got - 2010.06.27 13:26:56.
