data_PCOD8022803
_publ_section_title
;
Structure prediction by ZEFSAII (Michael W. Deem and Ramdas Pophale) SiO2 
 PCOD8022803
Probable space group: P -1
;
_chemical_formula_sum "Si O2"
_cell_formula_units_Z 16
_cell_length_a 11.682877
_cell_length_b 9.854583
_cell_length_c 9.469258
_cell_angle_alpha 136.724509
_cell_angle_beta 83.682321
_cell_angle_gamma 97.455700
_cell_volume 740.823229
_symmetry_space_group_name_H-M "P -1"
_symmetry_group_IT_number 2
_symmetry_cell_setting 'triclinic'
loop_
_space_group_symop_operation_xyz
x,y,z
-x,-y,-z
loop_
_atom_site_type_symbol
_atom_site_label
_atom_site_fract_x
_atom_site_fract_y
_atom_site_fract_z
Si Si1 0.176060 0.469075 0.962216
Si Si2 0.819235 0.477244 0.320582
Si Si3 0.038258 0.834373 0.260735
Si Si4 0.418303 0.006522 0.879592
Si Si5 0.158832 0.946904 0.918561
Si Si6 0.962855 0.837498 0.691350
Si Si7 0.395385 0.571920 0.482771
Si Si8 0.405862 0.399020 0.040220
O O1 0.136632 0.686971 0.182365
O O2 0.281371 0.400270 0.986754
O O3 0.215896 0.467485 0.791584
O O4 0.071709 0.305575 0.880339
O O5 0.856087 0.254079 0.137968
O O6 0.928956 0.625446 0.464557
O O7 0.718060 0.496710 0.463168
O O8 0.090358 0.978097 0.240359
O O9 0.000000 0.000000 0.500000
O O10 0.289090 0.036749 0.969271
O O11 0.416446 0.806460 0.640285
O O12 0.452617 0.182879 0.899348
O O13 0.500000 0.000000 0.000000
O O14 0.102797 0.874950 0.718832
O O15 0.091581 0.134543 0.124698
O O16 0.500000 0.500000 0.500000
O O17 0.393487 0.495696 0.267371
O O18 0.500000 0.500000 0.000000
#
# Coordination Sequence:
#
# PCOD8022803 Si02
#       8
#     2   2   2   2   2   2   2   2
#     4  11  25  43  65  99 143 179 227 284 348 404
#     4  11  22  41  67  98 133 178 225 281 336 410
#     4  11  23  42  65  93 140 185 221 272 348 416
#     4  11  24  45  73  97 136 180 230 285 345 403
#     4  10  23  39  62  98 129 168 226 280 333 399
#     4  11  21  38  64  94 131 172 225 272 337 402
#     4  11  24  46  71 101 134 182 230 284 348 408
#     4  12  27  47  71 105 140 179 232 294 341 416
#
# _framework density 21.597594000000001
#
# number of rings (size 3 to 8) (size 9 to 14) (size 15 to 20)
#    0.000    1.000    3.750    2.625    1.750    4.500 
#    0.000    0.000    0.000    0.000    0.000    0.000 
#    0.000    0.000    0.000    0.000    0.000    0.000 
#
# Total GULP energy -198227.951981 kJ/mol
# GULP energy per Si atom -12389.246999 kJ/mol
# Density = 2.154844 g / cm^3
# Si number density = 21.597594 Si / 1000 Ang^3
#
#
#
# Elastic Constant Matrix: (Units=GPa)
#
#
# Indices 1 2 3 4 5 6 
#
# 1 104.5916 28.6455 29.3075 -7.5306 12.2785 -9.4005
# 2 28.6455 113.9752 26.6432 1.7608 8.8838 1.7360
# 3 29.3075 26.6432 105.6985 -14.4117 1.9627 5.8818
# 4 -7.5306 1.7608 -14.4117 36.3046 -1.3266 6.6787
# 5 12.2785 8.8838 1.9627 -1.3266 33.6923 -5.6892
# 6 -9.4005 1.7360 5.8818 6.6787 -5.6892 35.7896
#
#
#
# Elastic Compliance Matrix: (Units=1/GPa)
#
#
# Indices 1 2 3 4 5 6 
#
# 1 0.011559 -0.002105 -0.002677 0.000784 -0.002971 0.002960
# 2 -0.002105 0.009978 -0.002089 -0.001694 -0.001924 -0.000683
# 3 -0.002677 -0.002089 0.011554 0.004759 0.000481 -0.003312
# 4 0.000784 -0.001694 0.004759 0.030828 0.000044 -0.006240
# 5 -0.002971 -0.001924 0.000481 0.000044 0.031972 0.004308
# 6 0.002960 -0.000683 -0.003312 -0.006240 0.004308 0.031145
#
#
# Mechanical properties :
#
#
# Convention : Reuss Voigt Hill
#
# Bulk Modulus (GPa) = 51.68161 54.82864 53.25513
# Shear Modulus (GPa) = 33.96126 37.13523 35.54825
#
# Velocity S-wave (km/s) = 3.96972 4.15108 4.06141
# Velocity P-wave (km/s) = 6.70767 6.95822 6.83410
#
# Compressibility (1/GPa) = 0.01934924
#
# Stress axis : x y z
#
# Youngs Moduli (GPa) = 86.51401 100.22359 86.55044
#
# Poissons Ratio (x) = 0.21096 0.23170
# Poissons Ratio (y) = 0.18211 0.18078
# Poissons Ratio (z) = 0.23160 0.20933
#
# Static dielectric constant tensor:
#      x y z
#    x 4.146720 -0.584160 0.232570 
#    y -0.584160 5.455650 -0.456100 
#    z 0.232570 -0.456100 4.297790 
# 
# 
# High freq. dielectric constant tensor:
#      x y z
#    x 1.843670 -0.007080 0.002880 
#    y -0.007080 1.858220 0.010030 
#    z 0.002880 0.010030 1.857430 
# 
# From -- ./inp_files/246093.got.cif
#   From: 2010.06.25/outbox.cif.g09.slc.cpg/sg2_124_cif.got.tgz:246093.got - 2010.06.27 13:26:56.
