data_PCOD8022568
_publ_section_title
;
Structure prediction by ZEFSAII (Michael W. Deem and Ramdas Pophale) SiO2 
 PCOD8022568
Probable space group: P -1
;
_chemical_formula_sum "Si O2"
_cell_formula_units_Z 14
_cell_length_a 6.647057
_cell_length_b 19.401720
_cell_length_c 12.264825
_cell_angle_alpha 141.240060
_cell_angle_beta 121.518256
_cell_angle_gamma 85.989418
_cell_volume 653.677310
_symmetry_space_group_name_H-M "P -1"
_symmetry_group_IT_number 2
_symmetry_cell_setting 'triclinic'
loop_
_space_group_symop_operation_xyz
x,y,z
-x,-y,-z
loop_
_atom_site_type_symbol
_atom_site_label
_atom_site_fract_x
_atom_site_fract_y
_atom_site_fract_z
Si Si1 0.733231 0.853530 0.799841
Si Si2 0.205417 0.362359 0.508436
Si Si3 0.405257 0.399986 0.249323
Si Si4 0.658038 0.356479 0.742020
Si Si5 0.673123 0.960624 0.354571
Si Si6 0.722387 0.216653 0.776877
Si Si7 0.476061 0.805372 0.892626
O O1 0.838376 0.757489 0.731149
O O2 0.431178 0.758923 0.520438
O O3 0.664961 0.889999 0.941637
O O4 0.000000 0.000000 0.000000
O O5 0.364312 0.509928 0.673461
O O6 0.417160 0.387571 0.702368
O O7 0.874650 0.306534 0.382397
O O8 0.500000 0.500000 0.500000
O O9 0.405019 0.272080 0.117614
O O10 0.074389 0.342985 0.051911
O O11 0.604779 0.283491 0.753174
O O12 0.000000 0.500000 0.000000
O O13 0.457776 0.833558 0.222435
O O14 0.680455 0.090511 0.545606
O O15 0.535342 0.914170 0.136039
O O16 0.000000 0.000000 0.500000
#
# Coordination Sequence:
#
# PCOD8022568 Si02
#       7
#     2   2   2   2   2   2   2
#     4  10  25  44  70  98 136 187 224 283 343 409
#     4  10  24  42  67 102 130 179 226 283 340 405
#     4  12  21  43  72  95 138 179 222 288 347 404
#     4  10  22  47  70  95 141 183 226 280 354 403
#     4  11  26  43  69 105 136 182 228 290 341 406
#     4  11  24  44  70 100 143 178 225 285 347 405
#     4  12  25  44  71 102 136 175 242 278 346 413
#
# _framework density 21.417293000000001
#
# number of rings (size 3 to 8) (size 9 to 14) (size 15 to 20)
#    0.857    0.286    4.286    1.286    4.000    0.571 
#    2.571    0.714    0.000    0.000    0.000    0.000 
#    0.000    0.000    0.000    0.000    0.000    0.000 
#
# Total GULP energy -173561.007062 kJ/mol
# GULP energy per Si atom -12397.214790 kJ/mol
# Density = 2.136855 g / cm^3
# Si number density = 21.417293 Si / 1000 Ang^3
#
#
#
# Elastic Constant Matrix: (Units=GPa)
#
#
# Indices 1 2 3 4 5 6 
#
# 1 71.9454 40.7546 28.1427 -3.9070 18.7367 23.3712
# 2 40.7546 140.3554 54.1172 -2.0469 15.1342 25.2905
# 3 28.1427 54.1172 123.6148 -1.9763 10.9935 21.2269
# 4 -3.9070 -2.0469 -1.9763 36.9099 1.9698 9.5287
# 5 18.7367 15.1342 10.9935 1.9698 41.1320 -3.0034
# 6 23.3712 25.2905 21.2269 9.5287 -3.0034 39.9342
#
#
#
# Elastic Compliance Matrix: (Units=1/GPa)
#
#
# Indices 1 2 3 4 5 6 
#
# 1 0.023429 -0.002774 -0.000657 0.006472 -0.010806 -0.013963
# 2 -0.002774 0.009910 -0.002916 0.001108 -0.001912 -0.003510
# 3 -0.000657 -0.002916 0.010330 0.001373 -0.001726 -0.003717
# 4 0.006472 0.001108 0.001373 0.031663 -0.006206 -0.013241
# 5 -0.010806 -0.001912 -0.001726 -0.006206 0.031595 0.012309
# 6 -0.013963 -0.003510 -0.003717 -0.013241 0.012309 0.041497
#
#
# Mechanical properties :
#
#
# Convention : Reuss Voigt Hill
#
# Bulk Modulus (GPa) = 32.28617 64.66049 48.47333
# Shear Modulus (GPa) = 29.16423 37.78863 33.47643
#
# Velocity S-wave (km/s) = 3.69414 4.20503 3.95784
# Velocity P-wave (km/s) = 5.77089 7.33708 6.60060
#
# Compressibility (1/GPa) = 0.03097302
#
# Stress axis : x y z
#
# Youngs Moduli (GPa) = 42.68151 100.91233 96.80924
#
# Poissons Ratio (x) = 0.27995 0.06365
# Poissons Ratio (y) = 0.11841 0.28231
# Poissons Ratio (z) = 0.02806 0.29427
#
# Static dielectric constant tensor:
#      x y z
#    x 10.232790 -3.395830 -5.710580 
#    y -3.395830 5.668630 2.906360 
#    z -5.710580 2.906360 8.895790 
# 
# 
# High freq. dielectric constant tensor:
#      x y z
#    x 1.822460 -0.001580 0.012210 
#    y -0.001580 1.847070 0.000800 
#    z 0.012210 0.000800 1.851120 
# 
# From -- ./inp_files/370461.got.cif
#   From: 2010.06.25/outbox.cif.g09.slc.cpg/sg2_186_cif.got.tgz:370461.got - 2010.06.27 13:26:56.
