data_PCOD8022196
_publ_section_title
;
Structure prediction by ZEFSAII (Michael W. Deem and Ramdas Pophale) SiO2 
 PCOD8022196
Probable space group: P -1
;
_chemical_formula_sum "Si O2"
_cell_formula_units_Z 16
_cell_length_a 22.572010
_cell_length_b 12.456260
_cell_length_c 9.781166
_cell_angle_alpha 42.648341
_cell_angle_beta 145.638985
_cell_angle_gamma 153.421547
_cell_volume 694.436202
_symmetry_space_group_name_H-M "P -1"
_symmetry_group_IT_number 2
_symmetry_cell_setting 'triclinic'
loop_
_space_group_symop_operation_xyz
x,y,z
-x,-y,-z
loop_
_atom_site_type_symbol
_atom_site_label
_atom_site_fract_x
_atom_site_fract_y
_atom_site_fract_z
Si Si1 0.866394 0.252684 0.863779
Si Si2 0.346564 0.715189 0.463395
Si Si3 0.761628 0.565973 0.237566
Si Si4 0.577911 0.253989 0.940400
Si Si5 0.856462 0.991474 0.890528
Si Si6 0.716240 0.870105 0.445992
Si Si7 0.924346 0.249626 0.268623
Si Si8 0.768987 0.583025 0.747663
O O1 0.788540 0.329498 0.686135
O O2 0.780090 0.056808 0.762732
O O3 0.031600 0.511662 0.873062
O O4 0.880372 0.155409 0.115135
O O5 0.340008 0.552992 0.702418
O O6 0.307424 0.609772 0.337225
O O7 0.500000 0.000000 0.500000
O O8 0.944229 0.724384 0.453548
O O9 0.668616 0.337662 0.177703
O O10 0.757240 0.730732 0.001460
O O11 0.450895 0.254143 0.700680
O O12 0.714179 0.443168 0.914004
O O13 0.500000 0.000000 0.000000
O O14 0.837824 0.987718 0.695856
O O15 0.039648 0.192576 0.099992
O O16 0.698866 0.681877 0.513345
O O17 0.778932 0.066927 0.268559
#
# Coordination Sequence:
#
# PCOD8022196 Si02
#       8
#     2   2   2   2   2   2   2   2
#     4  10  25  43  71 105 143 181 239 288 351 420
#     4  11  27  47  73 105 146 189 233 292 358 426
#     4  11  24  46  70 104 142 181 239 288 354 418
#     4  12  29  46  68 101 147 191 237 290 354 425
#     4  12  25  45  75 109 142 184 237 299 348 419
#     4  12  27  44  72 105 145 187 239 286 361 419
#     4  10  22  45  68 102 139 183 237 289 345 419
#     4  12  25  48  73 102 145 187 236 294 350 422
#
# _framework density 23.040274
#
# number of rings (size 3 to 8) (size 9 to 14) (size 15 to 20)
#    0.000    0.750    2.500    4.500   12.250    1.500 
#    0.000    1.250    0.000    0.000    0.000    0.000 
#    0.000    0.000    0.000    0.000    0.000    0.000 
#
# Total GULP energy -198316.663404 kJ/mol
# GULP energy per Si atom -12394.791463 kJ/mol
# Density = 2.298783 g / cm^3
# Si number density = 23.040274 Si / 1000 Ang^3
#
#
#
# Elastic Constant Matrix: (Units=GPa)
#
#
# Indices 1 2 3 4 5 6 
#
# 1 103.0978 36.8388 31.8917 -0.3856 -12.7235 -18.5887
# 2 36.8388 102.5076 25.2593 -4.3075 -13.6318 -1.1815
# 3 31.8917 25.2593 66.1012 -11.1641 -19.5513 3.6458
# 4 -0.3856 -4.3075 -11.1641 36.2045 0.6729 -7.0958
# 5 -12.7235 -13.6318 -19.5513 0.6729 37.8879 -8.5243
# 6 -18.5887 -1.1815 3.6458 -7.0958 -8.5243 42.1459
#
#
#
# Elastic Compliance Matrix: (Units=1/GPa)
#
#
# Indices 1 2 3 4 5 6 
#
# 1 0.014089 -0.003391 -0.005282 -0.000562 0.002361 0.006959
# 2 -0.003391 0.011778 -0.002199 0.000553 0.001839 -0.000510
# 3 -0.005282 -0.002199 0.022100 0.006029 0.008373 -0.001594
# 4 -0.000562 0.000553 0.006029 0.030476 0.003735 0.005132
# 5 0.002361 0.001839 0.008373 0.003735 0.033869 0.007848
# 6 0.006959 -0.000510 -0.001594 0.005132 0.007848 0.029371
#
#
# Mechanical properties :
#
#
# Convention : Reuss Voigt Hill
#
# Bulk Modulus (GPa) = 38.13514 51.07625 44.60569
# Shear Modulus (GPa) = 29.04134 35.09545 32.06840
#
# Velocity S-wave (km/s) = 3.55415 3.90708 3.73479
# Velocity P-wave (km/s) = 5.78187 6.52458 6.16442
#
# Compressibility (1/GPa) = 0.02622253
#
# Stress axis : x y z
#
# Youngs Moduli (GPa) = 70.97651 84.90475 45.24912
#
# Poissons Ratio (x) = 0.28792 0.23901
# Poissons Ratio (y) = 0.24069 0.09950
# Poissons Ratio (z) = 0.37490 0.18671
#
# Static dielectric constant tensor:
#      x y z
#    x 4.407550 0.143560 -0.166010 
#    y 0.143560 4.445660 -0.062350 
#    z -0.166010 -0.062350 4.135650 
# 
# 
# High freq. dielectric constant tensor:
#      x y z
#    x 1.914090 0.002260 -0.016380 
#    y 0.002260 1.920890 -0.009040 
#    z -0.016380 -0.009040 1.906550 
# 
# From -- ./inp_files/345986.got.cif
#   From: 2010.06.25/outbox.cif.g09.slc.cpg/sg2_173_cif.got.tgz:345986.got - 2010.06.27 13:26:56.
