data_PCOD8022886
_publ_section_title
;
Structure prediction by ZEFSAII (Michael W. Deem and Ramdas Pophale) SiO2 
 PCOD8022886
Probable space group: P -1
;
_chemical_formula_sum "Si O2"
_cell_formula_units_Z 12
_cell_length_a 13.539111
_cell_length_b 17.082445
_cell_length_c 11.817886
_cell_angle_alpha 159.335290
_cell_angle_beta 38.154811
_cell_angle_gamma 145.047226
_cell_volume 550.034344
_symmetry_space_group_name_H-M "P -1"
_symmetry_group_IT_number 2
_symmetry_cell_setting 'triclinic'
loop_
_space_group_symop_operation_xyz
x,y,z
-x,-y,-z
loop_
_atom_site_type_symbol
_atom_site_label
_atom_site_fract_x
_atom_site_fract_y
_atom_site_fract_z
Si Si1 0.296682 0.421310 0.851957
Si Si2 0.949845 0.386406 0.072313
Si Si3 0.046832 0.344639 0.156746
Si Si4 0.399130 0.978672 0.177423
Si Si5 0.947985 0.894364 0.779246
Si Si6 0.451811 0.286539 0.161922
O O1 0.443626 0.633913 0.941982
O O2 0.367001 0.218950 0.546386
O O3 0.233720 0.492795 0.126555
O O4 0.121513 0.332577 0.809862
O O5 0.004781 0.673500 0.405411
O O6 0.900798 0.290758 0.116844
O O7 0.784943 0.247743 0.956895
O O8 0.000000 0.500000 0.500000
O O9 0.048764 0.101039 0.878208
O O10 0.511333 0.936487 0.121250
O O11 0.500000 0.000000 0.000000
O O12 0.744551 0.806958 0.825302
O O13 0.000000 0.000000 0.000000
O O14 0.500000 0.500000 0.500000
#
# Coordination Sequence:
#
# PCOD8022886 Si02
#       6
#     2   2   2   2   2   2
#     4  10  25  41  66 107 132 177 228 277 337 406
#     4  10  23  39  68  99 135 173 232 270 338 398
#     4  10  23  44  67  96 132 181 226 274 333 401
#     4  12  22  41  68 100 144 175 217 282 343 399
#     4  12  23  45  71  93 134 188 227 275 339 402
#     4  12  25  42  67 103 140 175 224 283 340 396
#
# _framework density 21.816818999999999
#
# number of rings (size 3 to 8) (size 9 to 14) (size 15 to 20)
#    1.000    0.000    5.000    1.500    2.333    0.667 
#    0.000    4.167    0.000    0.000    0.000    0.000 
#    0.000    0.000    0.000    0.000    0.000    0.000 
#
# Total GULP energy -148676.773580 kJ/mol
# GULP energy per Si atom -12389.731132 kJ/mol
# Density = 2.176716 g / cm^3
# Si number density = 21.816819 Si / 1000 Ang^3
#
#
#
# Elastic Constant Matrix: (Units=GPa)
#
#
# Indices 1 2 3 4 5 6 
#
# 1 123.6363 39.0556 35.1643 4.1816 -22.2946 -2.1702
# 2 39.0556 129.4254 32.2289 -13.0795 -11.4165 -26.5231
# 3 35.1643 32.2289 85.8908 -8.9985 -30.6499 -16.6203
# 4 4.1816 -13.0795 -8.9985 38.3027 -5.7685 -8.9211
# 5 -22.2946 -11.4165 -30.6499 -5.7685 41.3514 3.9473
# 6 -2.1702 -26.5231 -16.6203 -8.9211 3.9473 44.7511
#
#
#
# Elastic Compliance Matrix: (Units=1/GPa)
#
#
# Indices 1 2 3 4 5 6 
#
# 1 0.010514 -0.003231 -0.003410 -0.003568 0.002092 -0.003567
# 2 -0.003231 0.010982 -0.000360 0.005889 0.001149 0.007291
# 3 -0.003410 -0.000360 0.020555 0.008980 0.013803 0.007828
# 4 -0.003568 0.005889 0.008980 0.035103 0.010037 0.012765
# 5 0.002092 0.001149 0.013803 0.010037 0.036814 0.004662
# 6 -0.003567 0.007291 0.007828 0.012765 0.004662 0.031535
#
#
# Mechanical properties :
#
#
# Convention : Reuss Voigt Hill
#
# Bulk Modulus (GPa) = 35.65161 61.31668 48.48414
# Shear Modulus (GPa) = 29.61160 40.38129 34.99644
#
# Velocity S-wave (km/s) = 3.68813 4.30690 4.00947
# Velocity P-wave (km/s) = 5.87479 7.27316 6.61105
#
# Compressibility (1/GPa) = 0.02804923
#
# Stress axis : x y z
#
# Youngs Moduli (GPa) = 95.11274 91.06138 48.64991
#
# Poissons Ratio (x) = 0.29418 0.16588
# Poissons Ratio (y) = 0.30727 0.01753
# Poissons Ratio (z) = 0.32430 0.03282
#
# Static dielectric constant tensor:
#      x y z
#    x 4.095730 -0.320970 -0.420810 
#    y -0.320970 3.874530 0.099260 
#    z -0.420810 0.099260 3.932240 
# 
# 
# High freq. dielectric constant tensor:
#      x y z
#    x 1.858820 -0.015760 -0.035160 
#    y -0.015760 1.863230 -0.004940 
#    z -0.035160 -0.004940 1.843690 
# 
# From -- ./inp_files/456869.got.cif
#   From: 2010.06.25/outbox.cif.g09.slc.cpg/sg2_229_cif.got.tgz:456869.got - 2010.06.27 13:26:56.
