data_PCOD8022644
_publ_section_title
;
Structure prediction by ZEFSAII (Michael W. Deem and Ramdas Pophale) SiO2 
 PCOD8022644
Probable space group: P -1
;
_chemical_formula_sum "Si O2"
_cell_formula_units_Z 14
_cell_length_a 17.236993
_cell_length_b 5.150014
_cell_length_c 15.306472
_cell_angle_alpha 111.914701
_cell_angle_beta 29.877013
_cell_angle_gamma 110.558943
_cell_volume 626.830222
_symmetry_space_group_name_H-M "P -1"
_symmetry_group_IT_number 2
_symmetry_cell_setting 'triclinic'
loop_
_space_group_symop_operation_xyz
x,y,z
-x,-y,-z
loop_
_atom_site_type_symbol
_atom_site_label
_atom_site_fract_x
_atom_site_fract_y
_atom_site_fract_z
Si Si1 0.180015 0.993610 0.719481
Si Si2 0.366467 0.711229 0.370769
Si Si3 0.915191 0.605965 0.011689
Si Si4 0.949476 0.107969 0.817337
Si Si5 0.674086 0.026258 0.869775
Si Si6 0.206289 0.104239 0.442764
Si Si7 0.698624 0.662721 0.968969
O O1 0.333319 0.853321 0.515651
O O2 0.216759 0.196963 0.793671
O O3 0.105359 0.147883 0.729328
O O4 0.042532 0.770687 0.850044
O O5 0.313483 0.385756 0.387074
O O6 0.275106 0.852115 0.399059
O O7 0.550029 0.743848 0.179676
O O8 0.842194 0.358068 0.988048
O O9 0.000000 0.500000 0.000000
O O10 0.023989 0.142528 0.651513
O O11 0.850001 0.813268 0.886933
O O12 0.713652 0.329463 0.912680
O O13 0.794881 0.981018 0.668310
O O14 0.689061 0.783350 0.895696
O O15 0.500000 0.000000 0.000000
#
# Coordination Sequence:
#
# PCOD8022644 Si02
#       7
#     2   2   2   2   2   2   2
#     4   9  19  35  64  85 118 155 200 233 288 365
#     4  11  20  38  60  91 112 162 201 239 285 361
#     4   9  17  36  61  88 114 154 196 236 289 362
#     4  10  23  37  58  93 122 152 194 253 303 338
#     4  12  23  41  61  86 117 164 208 242 291 354
#     4  11  22  38  63  81 120 158 208 241 284 358
#     4  12  25  38  63  88 125 155 197 255 302 335
#
# _framework density 22.334596999999999
#
# number of rings (size 3 to 8) (size 9 to 14) (size 15 to 20)
#    0.000    1.429    4.286    1.286    2.000    1.143 
#    0.000    0.714    0.000    7.714    0.000    0.000 
#    0.000    0.000    0.000    0.000    0.000    0.000 
#
# Total GULP energy -173481.431627 kJ/mol
# GULP energy per Si atom -12391.530831 kJ/mol
# Density = 2.228376 g / cm^3
# Si number density = 22.334597 Si / 1000 Ang^3
#
#
#
# Elastic Constant Matrix: (Units=GPa)
#
#
# Indices 1 2 3 4 5 6 
#
# 1 16.1896 1.1895 17.9916 5.5946 6.5349 6.2433
# 2 1.1895 105.3377 39.7492 11.3792 9.8863 23.6992
# 3 17.9916 39.7492 177.1852 21.4822 35.2270 29.6029
# 4 5.5946 11.3792 21.4822 36.1972 6.3102 8.5059
# 5 6.5349 9.8863 35.2270 6.3102 27.5131 -0.9933
# 6 6.2433 23.6992 29.6029 8.5059 -0.9933 39.5097
#
#
#
# Elastic Compliance Matrix: (Units=1/GPa)
#
#
# Indices 1 2 3 4 5 6 
#
# 1 0.077947 0.005155 -0.003305 -0.006257 -0.015132 -0.011967
# 2 0.005155 0.011948 -0.001037 -0.001590 -0.004077 -0.006964
# 3 -0.003305 -0.001037 0.009577 -0.001530 -0.010970 -0.005978
# 4 -0.006257 -0.001590 -0.001530 0.031469 -0.003337 -0.003770
# 5 -0.015132 -0.004077 -0.010970 -0.003337 0.056765 0.015201
# 6 -0.011967 -0.006964 -0.005978 -0.003770 0.015201 0.037051
#
#
# Mechanical properties :
#
#
# Convention : Reuss Voigt Hill
#
# Bulk Modulus (GPa) = 9.89133 46.28587 28.08860
# Shear Modulus (GPa) = 19.46813 36.62949 28.04881
#
# Velocity S-wave (km/s) = 2.95559 4.05413 3.54764
# Velocity P-wave (km/s) = 4.01069 6.53326 5.42075
#
# Compressibility (1/GPa) = 0.10109863
#
# Stress axis : x y z
#
# Youngs Moduli (GPa) = 12.82921 83.69866 104.41452
#
# Poissons Ratio (x) = -0.43149 0.34510
# Poissons Ratio (y) = -0.06614 0.10827
# Poissons Ratio (z) = 0.04240 0.08679
#
# Static dielectric constant tensor:
#      x y z
#    x 3.476480 0.063780 0.464410 
#    y 0.063780 4.383220 0.527680 
#    z 0.464410 0.527680 4.703070 
# 
# 
# High freq. dielectric constant tensor:
#      x y z
#    x 1.842950 -0.013190 0.037750 
#    y -0.013190 1.891960 0.013490 
#    z 0.037750 0.013490 1.891910 
# 
# From -- ./inp_files/39499.got.cif
#   From: 2010.06.25/outbox.cif.g09.slc.cpg/sg2_20_cif.got.tgz:39499.got - 2010.06.27 13:26:56.
