data_PCOD8022998
_publ_section_title
;
Structure prediction by ZEFSAII (Michael W. Deem and Ramdas Pophale) SiO2 
 PCOD8022998
Probable space group: P -1
;
_chemical_formula_sum "Si O2"
_cell_formula_units_Z 14
_cell_length_a 5.130493
_cell_length_b 11.116765
_cell_length_c 13.851618
_cell_angle_alpha 76.493356
_cell_angle_beta 67.487758
_cell_angle_gamma 58.875519
_cell_volume 624.123466
_symmetry_space_group_name_H-M "P -1"
_symmetry_group_IT_number 2
_symmetry_cell_setting 'triclinic'
loop_
_space_group_symop_operation_xyz
x,y,z
-x,-y,-z
loop_
_atom_site_type_symbol
_atom_site_label
_atom_site_fract_x
_atom_site_fract_y
_atom_site_fract_z
Si Si1 0.540931 0.627113 0.717778
Si Si2 0.467032 0.580311 0.088384
Si Si3 0.047198 0.126262 0.915551
Si Si4 0.632643 0.803983 0.978203
Si Si5 0.804491 0.384268 0.421857
Si Si6 0.802192 0.918778 0.541332
Si Si7 0.479501 0.121105 0.222183
O O1 0.471099 0.519441 0.810753
O O2 0.332417 0.654478 0.646344
O O3 0.404913 0.772238 0.769879
O O4 0.923198 0.569057 0.651403
O O5 0.713848 0.647413 0.033687
O O6 0.111369 0.711358 0.127722
O O7 0.500000 0.500000 0.000000
O O8 0.273047 0.111681 0.976001
O O9 0.222986 0.029249 0.817861
O O10 0.244150 0.900021 0.998833
O O11 0.756329 0.803575 0.851413
O O12 0.500000 0.500000 0.500000
O O13 0.978452 0.244397 0.491069
O O14 0.713393 0.914083 0.665227
O O15 0.500000 0.000000 0.500000
O O16 0.000000 0.000000 0.500000
#
# Coordination Sequence:
#
# PCOD8022998 Si02
#       7
#     2   2   2   2   2   2   2
#     4  11  24  42  70 103 131 181 218 274 344 400
#     4  10  23  41  63  99 140 173 217 269 323 401
#     4  10  24  38  64  95 133 177 221 265 324 391
#     4  10  23  40  64  95 134 175 217 261 330 392
#     4  11  26  47  73  98 137 174 230 283 343 408
#     4  11  26  46  69  97 130 173 227 284 341 393
#     4  11  23  44  68  94 132 176 223 272 335 399
#
# _framework density 22.431459
#
# number of rings (size 3 to 8) (size 9 to 14) (size 15 to 20)
#    0.857    0.571    1.429    3.000    2.000   12.000 
#    0.000    0.000    0.000    0.000    0.000    0.000 
#    0.000    0.000    0.000    0.000    0.000    0.000 
#
# Total GULP energy -173490.867993 kJ/mol
# GULP energy per Si atom -12392.204857 kJ/mol
# Density = 2.238040 g / cm^3
# Si number density = 22.431459 Si / 1000 Ang^3
#
#
#
# Elastic Constant Matrix: (Units=GPa)
#
#
# Indices 1 2 3 4 5 6 
#
# 1 138.2047 39.2153 51.4021 -12.3845 13.2800 6.5494
# 2 39.2153 170.8657 68.1511 0.1718 8.4230 1.8612
# 3 51.4021 68.1511 130.9357 -20.1605 -0.3152 8.3018
# 4 -12.3845 0.1718 -20.1605 42.0760 9.1351 1.3348
# 5 13.2800 8.4230 -0.3152 9.1351 33.8853 -7.0042
# 6 6.5494 1.8612 8.3018 1.3348 -7.0042 32.5072
#
#
#
# Elastic Compliance Matrix: (Units=1/GPa)
#
#
# Indices 1 2 3 4 5 6 
#
# 1 0.009232 -0.000796 -0.002697 0.002492 -0.004575 -0.002214
# 2 -0.000796 0.007690 -0.004042 -0.002013 -0.000965 0.000627
# 3 -0.002697 -0.004042 0.011689 0.004812 0.000393 -0.002323
# 4 0.002492 -0.002013 0.004812 0.028970 -0.009233 -0.004795
# 5 -0.004575 -0.000965 0.000393 -0.009233 0.035895 0.008990
# 6 -0.002214 0.000627 -0.002323 -0.004795 0.008990 0.033900
#
#
# Mechanical properties :
#
#
# Convention : Reuss Voigt Hill
#
# Bulk Modulus (GPa) = 73.84842 84.17144 79.00993
# Shear Modulus (GPa) = 34.02251 40.44287 37.23269
#
# Velocity S-wave (km/s) = 3.89875 4.25073 4.07854
# Velocity P-wave (km/s) = 7.29796 7.85474 7.58146
#
# Compressibility (1/GPa) = 0.01354125
#
# Stress axis : x y z
#
# Youngs Moduli (GPa) = 108.31375 130.03399 85.54875
#
# Poissons Ratio (x) = 0.10352 0.23073
# Poissons Ratio (y) = 0.08622 0.34581
# Poissons Ratio (z) = 0.29213 0.52563
#
# Static dielectric constant tensor:
#      x y z
#    x 3.954540 -0.055610 -0.125080 
#    y -0.055610 4.405530 -0.126880 
#    z -0.125080 -0.126880 4.061180 
# 
# 
# High freq. dielectric constant tensor:
#      x y z
#    x 1.889060 0.002880 -0.004160 
#    y 0.002880 1.907870 -0.009170 
#    z -0.004160 -0.009170 1.876290 
# 
# From -- ./inp_files/482070.got.cif
#   From: 2010.06.25/outbox.cif.g09.slc.cpg/sg2_242_cif.got.tgz:482070.got - 2010.06.27 13:26:56.
