data_PCOD8022687
_publ_section_title
;
Structure prediction by ZEFSAII (Michael W. Deem and Ramdas Pophale) SiO2 
 PCOD8022687
Probable space group: P -1
;
_chemical_formula_sum "Si O2"
_cell_formula_units_Z 16
_cell_length_a 8.941339
_cell_length_b 17.300288
_cell_length_c 5.243804
_cell_angle_alpha 85.087046
_cell_angle_beta 95.320605
_cell_angle_gamma 111.951885
_cell_volume 747.958437
_symmetry_space_group_name_H-M "P -1"
_symmetry_group_IT_number 2
_symmetry_cell_setting 'triclinic'
loop_
_space_group_symop_operation_xyz
x,y,z
-x,-y,-z
loop_
_atom_site_type_symbol
_atom_site_label
_atom_site_fract_x
_atom_site_fract_y
_atom_site_fract_z
Si Si1 0.209710 0.617869 0.962131
Si Si2 0.133119 0.089397 0.945980
Si Si3 0.714226 0.122166 0.498200
Si Si4 0.851436 0.647323 0.460707
Si Si5 0.933901 0.830715 0.591729
Si Si6 0.408193 0.036953 0.163599
Si Si7 0.829672 0.565952 0.978088
Si Si8 0.777366 0.301627 0.561620
O O1 0.293937 0.661839 0.225874
O O2 0.022296 0.603211 0.966952
O O3 0.238236 0.532309 0.948122
O O4 0.293847 0.679964 0.722910
O O5 0.129688 0.154695 0.146142
O O6 0.309126 0.083297 0.984827
O O7 0.105454 0.114888 0.649764
O O8 0.000000 0.000000 0.000000
O O9 0.545149 0.103469 0.335309
O O10 0.734134 0.203804 0.645338
O O11 0.873889 0.146026 0.340527
O O12 0.713172 0.041709 0.677007
O O13 0.845231 0.736248 0.510562
O O14 0.769002 0.611336 0.184973
O O15 0.031939 0.650323 0.451164
O O16 0.761012 0.584010 0.692341
O O17 0.500000 0.000000 0.000000
#
# Coordination Sequence:
#
# PCOD8022687 Si02
#       8
#     2   2   2   2   2   2   2   2
#     4   9  16  26  43  71 106 143 180 213 272 334
#     4  12  24  40  61  84 115 149 195 243 288 337
#     4  10  23  38  58  82 115 153 196 237 288 342
#     4   9  17  29  47  73 106 143 180 220 276 328
#     4  11  23  39  60  86 115 153 195 238 284 342
#     4  11  25  40  60  82 113 156 194 239 291 340
#     4   9  15  26  44  70 107 145 175 216 269 338
#     4   9  18  29  46  72 104 145 180 224 272 330
#
# _framework density 21.391559999999998
#
# number of rings (size 3 to 8) (size 9 to 14) (size 15 to 20)
#    0.000    2.000    1.250    2.625    5.250    5.000 
#    0.000    0.000    0.000    0.000    0.000    0.000 
#    0.000   20.000    0.000    0.000    0.000    0.000 
#
# Total GULP energy -198303.432051 kJ/mol
# GULP energy per Si atom -12393.964503 kJ/mol
# Density = 2.134287 g / cm^3
# Si number density = 21.391560 Si / 1000 Ang^3
#
#
#
# Elastic Constant Matrix: (Units=GPa)
#
#
# Indices 1 2 3 4 5 6 
#
# 1 51.0742 21.3259 9.6869 4.8160 -0.3077 -7.6888
# 2 21.3259 85.0351 35.7152 9.9194 -2.8055 -16.3211
# 3 9.6869 35.7152 124.8806 8.5873 -9.7994 -4.4332
# 4 4.8160 9.9194 8.5873 37.7587 -17.5980 -4.8343
# 5 -0.3077 -2.8055 -9.7994 -17.5980 20.8140 5.9133
# 6 -7.6888 -16.3211 -4.4332 -4.8343 5.9133 15.3837
#
#
#
# Elastic Compliance Matrix: (Units=1/GPa)
#
#
# Indices 1 2 3 4 5 6 
#
# 1 0.022773 -0.003594 -0.000654 -0.003402 -0.005753 0.008523
# 2 -0.003594 0.018519 -0.004744 -0.005464 -0.009661 0.018481
# 3 -0.000654 -0.004744 0.009656 0.001601 0.006556 -0.004594
# 4 -0.003402 -0.005464 0.001601 0.046226 0.041449 -0.008442
# 5 -0.005753 -0.009661 0.006556 0.041449 0.094613 -0.034578
# 6 0.008523 0.018481 -0.004594 -0.008442 -0.034578 0.098186
#
#
# Mechanical properties :
#
#
# Convention : Reuss Voigt Hill
#
# Bulk Modulus (GPa) = 30.33407 43.82732 37.08070
# Shear Modulus (GPa) = 15.67669 27.74207 21.70938
#
# Velocity S-wave (km/s) = 2.71005 3.60511 3.18914
# Velocity P-wave (km/s) = 4.89935 6.15319 5.56172
#
# Compressibility (1/GPa) = 0.03296623
#
# Stress axis : x y z
#
# Youngs Moduli (GPa) = 43.91130 53.99737 103.55844
#
# Poissons Ratio (x) = 0.19405 0.06769
# Poissons Ratio (y) = 0.15781 0.49128
# Poissons Ratio (z) = 0.02870 0.25616
#
# Static dielectric constant tensor:
#      x y z
#    x 2.943830 -0.034030 -0.593960 
#    y -0.034030 3.722370 0.146980 
#    z -0.593960 0.146980 3.588370 
# 
# 
# High freq. dielectric constant tensor:
#      x y z
#    x 1.779500 -0.015780 -0.009090 
#    y -0.015780 1.845390 0.003600 
#    z -0.009090 0.003600 1.850470 
# 
# From -- ./inp_files/38913.got.cif
#   From: 2010.06.25/outbox.cif.g09.slc.cpg/sg2_20_cif.got.tgz:38913.got - 2010.06.27 13:26:56.
