data_PCOD8022089
_publ_section_title
;
Structure prediction by ZEFSAII (Michael W. Deem and Ramdas Pophale) SiO2 
 PCOD8022089
Probable space group: P -1
;
_chemical_formula_sum "Si O2"
_cell_formula_units_Z 16
_cell_length_a 18.273835
_cell_length_b 10.066853
_cell_length_c 15.344856
_cell_angle_alpha 36.684423
_cell_angle_beta 23.381439
_cell_angle_gamma 48.068308
_cell_volume 641.257770
_symmetry_space_group_name_H-M "P -1"
_symmetry_group_IT_number 2
_symmetry_cell_setting 'triclinic'
loop_
_space_group_symop_operation_xyz
x,y,z
-x,-y,-z
loop_
_atom_site_type_symbol
_atom_site_label
_atom_site_fract_x
_atom_site_fract_y
_atom_site_fract_z
Si Si1 0.122806 0.806201 0.804351
Si Si2 0.940099 0.764130 0.434901
Si Si3 0.962538 0.751871 0.624790
Si Si4 0.572468 0.556593 0.246665
Si Si5 0.512467 0.823583 0.327785
Si Si6 0.326215 0.681400 0.044388
Si Si7 0.364810 0.105922 0.532385
Si Si8 0.209116 0.485197 0.583213
O O1 0.283398 0.750024 0.595523
O O2 0.031270 0.978489 0.763386
O O3 0.232033 0.910342 0.719381
O O4 0.954398 0.574203 0.131485
O O5 0.943228 0.768871 0.533712
O O6 0.736395 0.588806 0.711509
O O7 0.116512 0.693259 0.233501
O O8 0.140659 0.643655 0.504051
O O9 0.765430 0.576884 0.970741
O O10 0.000000 0.000000 0.500000
O O11 0.626766 0.730312 0.178184
O O12 0.473488 0.294738 0.530371
O O13 0.416111 0.628625 0.319617
O O14 0.597586 0.103255 0.086082
O O15 0.480531 0.693310 0.794942
O O16 0.226552 0.236841 0.660882
O O17 0.500000 0.000000 0.500000
#
# Coordination Sequence:
#
# PCOD8022089 Si02
#       8
#     2   2   2   2   2   2   2   2
#     4  11  24  44  72 106 139 189 243 293 373 429
#     4  11  25  43  70 103 150 185 237 301 358 440
#     4  12  29  50  71 108 151 190 245 302 359 435
#     4  11  24  48  72 106 141 190 244 301 356 427
#     4  10  22  44  75 103 142 181 246 304 352 430
#     4  10  23  43  68  99 147 183 226 296 371 409
#     4  11  24  42  74 109 147 183 245 307 354 433
#     4  12  26  45  79 105 141 196 242 294 369 429
#
# _framework density 24.950966000000001
#
# number of rings (size 3 to 8) (size 9 to 14) (size 15 to 20)
#    0.000    1.000    1.250    4.875    7.000    4.000 
#    6.750    0.000    0.000    0.000    0.000    0.000 
#    0.000    0.000    0.000    0.000    0.000    0.000 
#
# Total GULP energy -198259.226342 kJ/mol
# GULP energy per Si atom -12391.201646 kJ/mol
# Density = 2.489418 g / cm^3
# Si number density = 24.950966 Si / 1000 Ang^3
#
#
#
# Elastic Constant Matrix: (Units=GPa)
#
#
# Indices 1 2 3 4 5 6 
#
# 1 101.8917 27.8005 16.1625 -3.6448 -1.6758 -11.5596
# 2 27.8005 94.9867 5.5601 -3.7890 -1.7491 -9.2494
# 3 16.1625 5.5601 96.7658 8.4364 -12.0160 -1.8062
# 4 -3.6448 -3.7890 8.4364 39.6843 -0.3468 -2.9088
# 5 -1.6758 -1.7491 -12.0160 -0.3468 24.9019 0.0147
# 6 -11.5596 -9.2494 -1.8062 -2.9088 0.0147 36.3347
#
#
#
# Elastic Compliance Matrix: (Units=1/GPa)
#
#
# Indices 1 2 3 4 5 6 
#
# 1 0.011252 -0.002859 -0.001817 0.001354 -0.000303 0.002870
# 2 -0.002859 0.011634 -0.000174 0.001046 0.000554 0.002127
# 3 -0.001817 -0.000174 0.011541 -0.002609 0.005398 -0.000260
# 4 0.001354 0.001046 -0.002609 0.026167 -0.000731 0.002663
# 5 -0.000303 0.000554 0.005398 -0.000731 0.042771 0.000237
# 6 0.002870 0.002127 -0.000260 0.002663 0.000237 0.029177
#
#
# Mechanical properties :
#
#
# Convention : Reuss Voigt Hill
#
# Bulk Modulus (GPa) = 40.44219 43.63227 42.03723
# Shear Modulus (GPa) = 33.22673 36.45892 34.84283
#
# Velocity S-wave (km/s) = 3.65318 3.82674 3.74097
# Velocity P-wave (km/s) = 5.83422 6.08691 5.96190
#
# Compressibility (1/GPa) = 0.02472665
#
# Stress axis : x y z
#
# Youngs Moduli (GPa) = 88.87556 85.95726 86.65027
#
# Poissons Ratio (x) = 0.24574 0.15746
# Poissons Ratio (y) = 0.25408 0.01504
# Poissons Ratio (z) = 0.16151 0.01492
#
# Static dielectric constant tensor:
#      x y z
#    x 4.212420 -0.087080 -0.011990 
#    y -0.087080 4.696040 0.188200 
#    z -0.011990 0.188200 4.850940 
# 
# 
# High freq. dielectric constant tensor:
#      x y z
#    x 1.971380 -0.002440 -0.003840 
#    y -0.002440 2.005960 0.011440 
#    z -0.003840 0.011440 2.006790 
# 
# From -- ./inp_files/577915.got.cif
#   From: 2010.06.25/outbox.cif.g09.slc.cpg/sg2_289_cif.got.tgz:577915.got - 2010.06.27 13:26:56.
