data_PCOD8022034
_publ_section_title
;
Structure prediction by ZEFSAII (Michael W. Deem and Ramdas Pophale) SiO2 
 PCOD8022034
Probable space group: P -1
;
_chemical_formula_sum "Si O2"
_cell_formula_units_Z 16
_cell_length_a 19.245057
_cell_length_b 5.487764
_cell_length_c 16.270048
_cell_angle_alpha 80.201881
_cell_angle_beta 158.400442
_cell_angle_gamma 99.969520
_cell_volume 622.790177
_symmetry_space_group_name_H-M "P -1"
_symmetry_group_IT_number 2
_symmetry_cell_setting 'triclinic'
loop_
_space_group_symop_operation_xyz
x,y,z
-x,-y,-z
loop_
_atom_site_type_symbol
_atom_site_label
_atom_site_fract_x
_atom_site_fract_y
_atom_site_fract_z
Si Si1 0.948819 0.231419 0.379064
Si Si2 0.035670 0.579475 0.779657
Si Si3 0.707358 0.215740 0.417920
Si Si4 0.333362 0.560913 0.408305
Si Si5 0.766056 0.176335 0.869596
Si Si6 0.374955 0.269019 0.163752
Si Si7 0.146724 0.029875 0.261066
Si Si8 0.703262 0.388536 0.231909
O O1 0.923073 0.196868 0.254186
O O2 0.746925 0.295742 0.193476
O O3 0.120108 0.430328 0.563236
O O4 0.000000 0.000000 0.500000
O O5 0.821353 0.474099 0.550119
O O6 0.092002 0.655335 0.928562
O O7 0.168160 0.355925 0.908952
O O8 0.494065 0.249486 0.212627
O O9 0.701412 0.177599 0.314324
O O10 0.805346 0.989302 0.586108
O O11 0.361420 0.659839 0.339669
O O12 0.530365 0.537804 0.675704
O O13 0.229211 0.292923 0.303568
O O14 0.225137 0.779586 0.323452
O O15 0.626269 0.000595 0.778895
O O16 0.919306 0.018522 0.995741
O O17 0.500000 0.500000 0.000000
#
# Coordination Sequence:
#
# PCOD8022034 Si02
#       8
#     2   2   2   2   2   2   2   2
#     4  10  24  43  68 107 138 179 238 296 356 432
#     4  11  25  44  70  99 142 186 234 294 359 432
#     4  10  23  46  67 102 140 186 235 296 357 428
#     4  11  27  45  71 104 146 188 242 303 354 421
#     4  12  25  42  71 100 138 189 239 293 358 422
#     4  11  25  44  67 103 138 183 243 290 353 422
#     4  11  24  46  71 104 143 189 240 296 360 425
#     4  10  22  44  72  99 142 185 233 294 363 435
#
# _framework density 25.690836000000001
#
# number of rings (size 3 to 8) (size 9 to 14) (size 15 to 20)
#    0.000    1.250    1.250    3.375    7.000    3.000 
#    0.000    0.000    0.000    0.000    0.000    0.000 
#    0.000    0.000    0.000    0.000    0.000    0.000 
#
# Total GULP energy -198308.580137 kJ/mol
# GULP energy per Si atom -12394.286259 kJ/mol
# Density = 2.563236 g / cm^3
# Si number density = 25.690836 Si / 1000 Ang^3
#
#
#
# Elastic Constant Matrix: (Units=GPa)
#
#
# Indices 1 2 3 4 5 6 
#
# 1 91.6105 27.6782 6.4436 6.3204 -3.4466 39.5278
# 2 27.6782 108.6525 3.8818 -8.8677 4.0044 32.5301
# 3 6.4436 3.8818 73.4392 -13.2589 15.8953 13.5146
# 4 6.3204 -8.8677 -13.2589 37.3805 11.7051 -7.9239
# 5 -3.4466 4.0044 15.8953 11.7051 44.6214 -5.3334
# 6 39.5278 32.5301 13.5146 -7.9239 -5.3334 45.7680
#
#
#
# Elastic Compliance Matrix: (Units=1/GPa)
#
#
# Indices 1 2 3 4 5 6 
#
# 1 0.019068 -0.000329 -0.000127 -0.007469 0.001437 -0.017322
# 2 -0.000329 0.012334 0.002478 0.003158 -0.003934 -0.009126
# 3 -0.000127 0.002478 0.018488 0.008853 -0.009946 -0.006737
# 4 -0.007469 0.003158 0.008853 0.037373 -0.013036 0.006543
# 5 0.001437 -0.003934 -0.009946 -0.013036 0.030530 0.005793
# 6 -0.017322 -0.009126 -0.006737 0.006543 0.005793 0.047093
#
#
# Mechanical properties :
#
#
# Convention : Reuss Voigt Hill
#
# Bulk Modulus (GPa) = 18.54191 38.85660 28.69925
# Shear Modulus (GPa) = 27.96128 41.26724 34.61426
#
# Velocity S-wave (km/s) = 3.30263 4.01222 3.67459
# Velocity P-wave (km/s) = 4.66649 6.05156 5.40359
#
# Compressibility (1/GPa) = 0.05393188
#
# Stress axis : x y z
#
# Youngs Moduli (GPa) = 52.44522 81.07766 54.09034
#
# Poissons Ratio (x) = 0.02668 0.00689
# Poissons Ratio (y) = 0.01726 -0.13403
# Poissons Ratio (z) = 0.00668 -0.20090
#
# Static dielectric constant tensor:
#      x y z
#    x 4.492620 0.642440 -0.054250 
#    y 0.642440 4.078140 -0.268420 
#    z -0.054250 -0.268420 4.720590 
# 
# 
# High freq. dielectric constant tensor:
#      x y z
#    x 2.046930 0.021360 0.009260 
#    y 0.021360 2.009750 -0.015120 
#    z 0.009260 -0.015120 2.030040 
# 
# From -- ./inp_files/53336.got.cif
#   From: 2010.06.25/outbox.cif.g09.slc.cpg/sg2_27_cif.got.tgz:53336.got - 2010.06.27 13:26:56.
