data_PCOD8022004
_publ_section_title
;
Structure prediction by ZEFSAII (Michael W. Deem and Ramdas Pophale) SiO2 
 PCOD8022004
Probable space group: P -1
;
_chemical_formula_sum "Si O2"
_cell_formula_units_Z 16
_cell_length_a 18.324792
_cell_length_b 21.401894
_cell_length_c 8.020112
_cell_angle_alpha 54.079749
_cell_angle_beta 61.265184
_cell_angle_gamma 18.477480
_cell_volume 771.425709
_symmetry_space_group_name_H-M "P -1"
_symmetry_group_IT_number 2
_symmetry_cell_setting 'triclinic'
loop_
_space_group_symop_operation_xyz
x,y,z
-x,-y,-z
loop_
_atom_site_type_symbol
_atom_site_label
_atom_site_fract_x
_atom_site_fract_y
_atom_site_fract_z
Si Si1 0.176047 0.494900 0.480927
Si Si2 0.757743 0.253623 0.310801
Si Si3 0.036586 0.558174 0.864916
Si Si4 0.668242 0.927155 0.455229
Si Si5 0.705103 0.449355 0.602682
Si Si6 0.975512 0.949490 0.989440
Si Si7 0.680188 0.637402 0.830152
Si Si8 0.580292 0.564210 0.192893
O O1 0.231497 0.404078 0.740277
O O2 0.281905 0.488691 0.388762
O O3 0.280787 0.368396 0.393923
O O4 0.889787 0.736979 0.379968
O O5 0.534660 0.389588 0.342335
O O6 0.816546 0.230350 0.097424
O O7 0.682160 0.393679 0.284541
O O8 0.000000 0.000000 0.500000
O O9 0.785510 0.819369 0.681279
O O10 0.105690 0.529295 0.015896
O O11 0.000000 0.500000 0.000000
O O12 0.500000 0.000000 0.500000
O O13 0.543853 0.116205 0.254883
O O14 0.708420 0.472228 0.370310
O O15 0.955528 0.185165 0.767000
O O16 0.705260 0.186889 0.843898
O O17 0.000000 0.000000 0.000000
O O18 0.633015 0.586659 0.968791
#
# Coordination Sequence:
#
# PCOD8022004 Si02
#       8
#     2   2   2   2   2   2   2   2
#     4  10  25  44  65 105 135 174 228 278 333 415
#     4  12  25  44  66  97 133 186 235 281 344 406
#     4  10  22  45  69  98 137 172 215 276 337 409
#     4  10  22  44  72 101 134 174 223 277 339 415
#     4  12  23  47  64  96 141 173 234 287 340 408
#     4  12  25  41  66  95 132 181 233 286 340 398
#     4  12  23  46  69  99 141 178 224 283 341 399
#     4  12  25  44  69  96 135 185 228 289 345 398
#
# _framework density 20.740818000000001
#
# number of rings (size 3 to 8) (size 9 to 14) (size 15 to 20)
#    0.750    0.000    5.000    3.000    1.750    2.000 
#    6.750    1.250    0.000    0.000    0.000    0.000 
#    0.000    0.000    0.000    0.000    0.000    0.000 
#
# Total GULP energy -198225.818575 kJ/mol
# GULP energy per Si atom -12389.113661 kJ/mol
# Density = 2.069361 g / cm^3
# Si number density = 20.740818 Si / 1000 Ang^3
#
#
#
# Elastic Constant Matrix: (Units=GPa)
#
#
# Indices 1 2 3 4 5 6 
#
# 1 88.2187 25.4618 23.8965 12.0458 -4.5177 -8.8823
# 2 25.4618 80.4099 19.2374 3.2065 -3.3671 1.7647
# 3 23.8965 19.2374 105.1365 -6.9117 -1.4895 3.9298
# 4 12.0458 3.2065 -6.9117 41.9565 4.1670 5.7141
# 5 -4.5177 -3.3671 -1.4895 4.1670 41.6335 7.4542
# 6 -8.8823 1.7647 3.9298 5.7141 7.4542 27.8077
#
#
#
# Elastic Compliance Matrix: (Units=1/GPa)
#
#
# Indices 1 2 3 4 5 6 
#
# 1 0.014708 -0.003784 -0.003234 -0.005388 0.000577 0.006348
# 2 -0.003784 0.014120 -0.001633 -0.000076 0.001064 -0.002144
# 3 -0.003234 -0.001633 0.010881 0.003264 0.000149 -0.003177
# 4 -0.005388 -0.000076 0.003264 0.027098 -0.001890 -0.007239
# 5 0.000577 0.001064 0.000149 -0.001890 0.025499 -0.006351
# 6 0.006348 -0.002144 -0.003177 -0.007239 -0.006351 0.041764
#
#
# Mechanical properties :
#
#
# Convention : Reuss Voigt Hill
#
# Bulk Modulus (GPa) = 44.63025 45.66187 45.14606
# Shear Modulus (GPa) = 31.47801 35.95749 33.71775
#
# Velocity S-wave (km/s) = 3.89997 4.16824 4.03634
# Velocity P-wave (km/s) = 6.46873 6.72524 6.59823
#
# Compressibility (1/GPa) = 0.02240633
#
# Stress axis : x y z
#
# Youngs Moduli (GPa) = 67.99054 70.82242 91.90534
#
# Poissons Ratio (x) = 0.26798 0.29721
# Poissons Ratio (y) = 0.25727 0.15011
# Poissons Ratio (z) = 0.21988 0.11568
#
# Static dielectric constant tensor:
#      x y z
#    x 3.845460 -0.265030 0.144730 
#    y -0.265030 4.257490 -0.190350 
#    z 0.144730 -0.190350 4.110450 
# 
# 
# High freq. dielectric constant tensor:
#      x y z
#    x 1.815070 -0.008740 0.000430 
#    y -0.008740 1.795960 0.000680 
#    z 0.000430 0.000680 1.829130 
# 
# From -- ./inp_files/337582.got.cif
#   From: 2010.06.25/outbox.cif.g09.slc.cpg/sg2_169_cif.got.tgz:337582.got - 2010.06.27 13:26:56.
