data_PCOD8022719
_publ_section_title
;
Structure prediction by ZEFSAII (Michael W. Deem and Ramdas Pophale) SiO2 
 PCOD8022719
Probable space group: P -1
;
_chemical_formula_sum "Si O2"
_cell_formula_units_Z 16
_cell_length_a 12.052387
_cell_length_b 12.550743
_cell_length_c 9.562299
_cell_angle_alpha 121.684899
_cell_angle_beta 47.822133
_cell_angle_gamma 92.531978
_cell_volume 795.548968
_symmetry_space_group_name_H-M "P -1"
_symmetry_group_IT_number 2
_symmetry_cell_setting 'triclinic'
loop_
_space_group_symop_operation_xyz
x,y,z
-x,-y,-z
loop_
_atom_site_type_symbol
_atom_site_label
_atom_site_fract_x
_atom_site_fract_y
_atom_site_fract_z
Si Si1 0.804524 0.308878 0.657290
Si Si2 0.536756 0.862821 0.281622
Si Si3 0.495772 0.385060 0.153521
Si Si4 0.405631 0.052160 0.263115
Si Si5 0.893341 0.934046 0.614036
Si Si6 0.643736 0.291320 0.521246
Si Si7 0.609511 0.197092 0.197137
Si Si8 0.200596 0.420083 0.237014
O O1 0.805587 0.267511 0.463557
O O2 0.768921 0.471750 0.812506
O O3 0.989047 0.206639 0.494282
O O4 0.656181 0.291003 0.850319
O O5 0.441677 0.787446 0.380417
O O6 0.500000 0.000000 0.500000
O O7 0.467232 0.918898 0.224014
O O8 0.735894 0.733175 0.003195
O O9 0.482494 0.539924 0.271944
O O10 0.540221 0.322742 0.228770
O O11 0.322908 0.386962 0.247639
O O12 0.202106 0.112548 0.453977
O O13 0.449968 0.173485 0.366693
O O14 0.500000 0.000000 0.000000
O O15 0.000000 0.000000 0.500000
O O16 0.756556 0.048422 0.912585
O O17 0.695670 0.231488 0.279399
O O18 0.000000 0.500000 0.500000
#
# Coordination Sequence:
#
# PCOD8022719 Si02
#       8
#     2   2   2   2   2   2   2   2
#     4  11  22  40  68  90 126 169 217 259 313 392
#     4  12  22  41  67  94 132 170 208 270 329 381
#     4  11  21  44  67  89 124 176 218 252 317 396
#     4  10  23  38  63  93 125 172 220 259 319 386
#     4  11  22  39  62  96 126 168 218 264 312 383
#     4  11  22  41  64  95 120 172 216 258 329 381
#     4  11  23  39  65  93 131 166 213 270 322 382
#     4  11  24  39  68  98 124 168 223 270 314 380
#
# _framework density 20.111899999999999
#
# number of rings (size 3 to 8) (size 9 to 14) (size 15 to 20)
#    0.000    1.000    5.000    3.375    5.250    0.500 
#    0.000    3.750    0.000    2.250    0.000    0.000 
#    0.000    0.000    0.000    0.000    0.000    0.000 
#
# Total GULP energy -198265.768636 kJ/mol
# GULP energy per Si atom -12391.610540 kJ/mol
# Density = 2.006612 g / cm^3
# Si number density = 20.111900 Si / 1000 Ang^3
#
#
#
# Elastic Constant Matrix: (Units=GPa)
#
#
# Indices 1 2 3 4 5 6 
#
# 1 125.1197 57.2859 62.4106 7.6499 -8.9113 -11.5698
# 2 57.2859 133.0148 41.6524 12.7357 0.8673 -16.8468
# 3 62.4106 41.6524 96.3568 13.6235 -2.3347 -1.7261
# 4 7.6499 12.7357 13.6235 35.6935 1.2442 -0.7692
# 5 -8.9113 0.8673 -2.3347 1.2442 32.7908 2.3118
# 6 -11.5698 -16.8468 -1.7261 -0.7692 2.3118 41.2886
#
#
#
# Elastic Compliance Matrix: (Units=1/GPa)
#
#
# Indices 1 2 3 4 5 6 
#
# 1 0.013551 -0.003411 -0.007341 0.001050 0.003073 0.001946
# 2 -0.003411 0.010184 -0.001880 -0.002066 -0.001475 0.003165
# 3 -0.007341 -0.001880 0.016471 -0.004074 -0.000464 -0.002186
# 4 0.001050 -0.002066 -0.004074 0.030119 -0.001086 -0.000097
# 5 0.003073 -0.001475 -0.000464 -0.001086 0.031488 -0.001543
# 6 0.001946 0.003165 -0.002186 -0.000097 -0.001543 0.026050
#
#
# Mechanical properties :
#
#
# Convention : Reuss Voigt Hill
#
# Bulk Modulus (GPa) = 66.92909 75.24322 71.08616
# Shear Modulus (GPa) = 31.62412 34.83073 33.22743
#
# Velocity S-wave (km/s) = 3.96966 4.16606 4.06905
# Velocity P-wave (km/s) = 7.37303 7.78684 7.58276
#
# Compressibility (1/GPa) = 0.01494119
#
# Stress axis : x y z
#
# Youngs Moduli (GPa) = 73.79696 98.19383 60.71164
#
# Poissons Ratio (x) = 0.33495 0.44571
# Poissons Ratio (y) = 0.25173 0.11413
# Poissons Ratio (z) = 0.54177 0.18459
#
# Static dielectric constant tensor:
#      x y z
#    x 3.446460 -0.114130 0.407070 
#    y -0.114130 3.930750 0.208000 
#    z 0.407070 0.208000 3.447840 
# 
# 
# High freq. dielectric constant tensor:
#      x y z
#    x 1.782580 -0.003700 0.002320 
#    y -0.003700 1.813030 0.005160 
#    z 0.002320 0.005160 1.755790 
# 
# From -- ./inp_files/206914.got.cif
#   From: 2010.06.25/outbox.cif.g09.slc.cpg/sg2_104_cif.got.tgz:206914.got - 2010.06.27 13:26:56.
