data_PCOD8022314
_publ_section_title
;
Structure prediction by ZEFSAII (Michael W. Deem and Ramdas Pophale) SiO2 
 PCOD8022314
Probable space group: P -1
;
_chemical_formula_sum "Si O2"
_cell_formula_units_Z 14
_cell_length_a 5.327945
_cell_length_b 11.641754
_cell_length_c 9.849419
_cell_angle_alpha 93.509963
_cell_angle_beta 84.006531
_cell_angle_gamma 87.421132
_cell_volume 605.633928
_symmetry_space_group_name_H-M "P -1"
_symmetry_group_IT_number 2
_symmetry_cell_setting 'triclinic'
loop_
_space_group_symop_operation_xyz
x,y,z
-x,-y,-z
loop_
_atom_site_type_symbol
_atom_site_label
_atom_site_fract_x
_atom_site_fract_y
_atom_site_fract_z
Si Si1 0.264497 0.221444 0.237348
Si Si2 0.003056 0.452762 0.345725
Si Si3 0.578694 0.184001 0.826661
Si Si4 0.048795 0.131087 0.981159
Si Si5 0.276538 0.579807 0.133779
Si Si6 0.650381 0.371864 0.148644
Si Si7 0.269895 0.000555 0.411110
O O1 0.194237 0.339936 0.329522
O O2 0.539489 0.243360 0.156928
O O3 0.280996 0.112904 0.326138
O O4 0.061363 0.200533 0.128202
O O5 0.056969 0.561394 0.253901
O O6 0.000000 0.500000 0.500000
O O7 0.744174 0.408320 0.294632
O O8 0.316519 0.134943 0.887491
O O9 0.543809 0.321264 0.810609
O O10 0.809291 0.182272 0.919187
O O11 0.685735 0.115007 0.685955
O O12 0.000000 0.000000 0.000000
O O13 0.419448 0.455233 0.115075
O O14 0.161236 0.616043 0.991824
O O15 0.500000 0.000000 0.500000
O O16 0.000000 0.000000 0.500000
#
# Coordination Sequence:
#
# PCOD8022314 Si02
#       7
#     2   2   2   2   2   2   2
#     4  11  26  45  73 101 142 190 243 309 367 434
#     4  11  26  42  71 102 146 196 240 296 364 452
#     4  12  26  44  75 108 143 190 239 307 364 441
#     4  12  25  45  76 111 143 182 249 307 373 422
#     4  10  23  41  70 107 137 185 239 303 364 423
#     4  10  22  45  71 102 142 183 242 303 366 424
#     4  12  30  48  70 103 148 198 240 296 367 442
#
# _framework density 23.116274000000001
#
# number of rings (size 3 to 8) (size 9 to 14) (size 15 to 20)
#    0.000    0.857    2.857    2.571    6.000    3.429 
#    0.000    0.000    0.000    0.000    0.000    0.000 
#    0.000    0.000    0.000    0.000    0.000    0.000 
#
# Total GULP energy -173448.243215 kJ/mol
# GULP energy per Si atom -12389.160230 kJ/mol
# Density = 2.306366 g / cm^3
# Si number density = 23.116274 Si / 1000 Ang^3
#
#
#
# Elastic Constant Matrix: (Units=GPa)
#
#
# Indices 1 2 3 4 5 6 
#
# 1 101.9287 8.1842 28.0847 -14.9267 -3.3360 24.7108
# 2 8.1842 117.0604 42.0174 0.4967 -12.6393 27.3134
# 3 28.0847 42.0174 142.7478 1.5513 1.0913 11.7893
# 4 -14.9267 0.4967 1.5513 44.4119 -2.7488 -6.8036
# 5 -3.3360 -12.6393 1.0913 -2.7488 41.5628 1.0610
# 6 24.7108 27.3134 11.7893 -6.8036 1.0610 38.9417
#
#
#
# Elastic Compliance Matrix: (Units=1/GPa)
#
#
# Indices 1 2 3 4 5 6 
#
# 1 0.012941 0.002215 -0.002550 0.003251 0.002211 -0.008486
# 2 0.002215 0.012145 -0.003285 -0.000415 0.004163 -0.009116
# 3 -0.002550 -0.003285 0.008394 -0.001017 -0.001523 0.001245
# 4 0.003251 -0.000415 -0.001017 0.024169 0.001691 0.002713
# 5 0.002211 0.004163 -0.001523 0.001691 0.025764 -0.004268
# 6 -0.008486 -0.009116 0.001245 0.002713 -0.004268 0.037672
#
#
# Mechanical properties :
#
#
# Convention : Reuss Voigt Hill
#
# Bulk Modulus (GPa) = 38.10791 57.58994 47.84892
# Shear Modulus (GPa) = 36.47750 43.87998 40.17874
#
# Velocity S-wave (km/s) = 3.97672 4.36159 4.17359
# Velocity P-wave (km/s) = 6.13244 7.09450 6.63094
#
# Compressibility (1/GPa) = 0.02624127
#
# Stress axis : x y z
#
# Youngs Moduli (GPa) = 77.27316 82.33819 119.13492
#
# Poissons Ratio (x) = -0.18241 0.30374
# Poissons Ratio (y) = -0.17119 0.39138
# Poissons Ratio (z) = 0.19701 0.27050
#
# Static dielectric constant tensor:
#      x y z
#    x 4.271890 0.056090 -0.203180 
#    y 0.056090 4.700470 -0.004480 
#    z -0.203180 -0.004480 4.404460 
# 
# 
# High freq. dielectric constant tensor:
#      x y z
#    x 1.912170 0.007500 -0.001300 
#    y 0.007500 1.941760 0.002480 
#    z -0.001300 0.002480 1.908710 
# 
# From -- ./inp_files/66084.got.cif
#   From: 2010.06.25/outbox.cif.g09.slc.cpg/sg2_34_cif.got.tgz:66084.got - 2010.06.27 13:26:56.
