data_PCOD8022102
_publ_section_title
;
Structure prediction by ZEFSAII (Michael W. Deem and Ramdas Pophale) SiO2 
 PCOD8022102
Probable space group: P -1
;
_chemical_formula_sum "Si O2"
_cell_formula_units_Z 14
_cell_length_a 10.954088
_cell_length_b 23.583109
_cell_length_c 6.842590
_cell_angle_alpha 43.650951
_cell_angle_beta 133.880435
_cell_angle_gamma 156.322213
_cell_volume 487.026124
_symmetry_space_group_name_H-M "P -1"
_symmetry_group_IT_number 2
_symmetry_cell_setting 'triclinic'
loop_
_space_group_symop_operation_xyz
x,y,z
-x,-y,-z
loop_
_atom_site_type_symbol
_atom_site_label
_atom_site_fract_x
_atom_site_fract_y
_atom_site_fract_z
Si Si1 0.441590 0.036631 0.599309
Si Si2 0.273218 0.228547 0.052794
Si Si3 0.609307 0.936308 0.093185
Si Si4 0.781886 0.323929 0.250531
Si Si5 0.346051 0.438103 0.692261
Si Si6 0.750691 0.731234 0.522246
Si Si7 0.748294 0.357186 0.709052
O O1 0.523994 0.094342 0.768652
O O2 0.556837 0.164052 0.294223
O O3 0.091997 0.872998 0.612848
O O4 0.624481 0.028515 0.754294
O O5 0.269594 0.311595 0.974670
O O6 0.288997 0.257266 0.772757
O O7 0.572693 0.290161 0.263769
O O8 0.965302 0.050633 0.199439
O O9 0.344502 0.772450 0.120994
O O10 0.059519 0.386409 0.504818
O O11 0.880117 0.417460 0.932551
O O12 0.500000 0.500000 0.500000
O O13 0.605775 0.581294 0.767121
O O14 0.564794 0.719522 0.479710
O O15 0.000000 0.500000 0.500000
#
# Coordination Sequence:
#
# PCOD8022102 Si02
#       7
#     2   2   2   2   2   2   2
#     4  11  25  46  75 106 141 193 244 297 356 430
#     4  10  22  44  78 106 140 188 242 297 354 428
#     4  11  25  46  71 108 147 184 246 302 356 423
#     4  11  24  47  80 102 144 192 243 290 358 437
#     4  10  23  44  71 112 145 184 239 294 357 430
#     4  10  24  45  67 105 145 181 246 290 353 435
#     4  11  27  46  69 107 145 186 242 297 362 428
#
# _framework density 28.745891
#
# number of rings (size 3 to 8) (size 9 to 14) (size 15 to 20)
#    0.000    1.429    1.429    1.714    6.000   10.857 
#    5.143    1.429    0.000    0.000    0.000    0.000 
#    0.000    0.000    0.000    0.000    0.000    0.000 
#
# Total GULP energy -173535.550693 kJ/mol
# GULP energy per Si atom -12395.396478 kJ/mol
# Density = 2.868046 g / cm^3
# Si number density = 28.745891 Si / 1000 Ang^3
#
#
#
# Elastic Constant Matrix: (Units=GPa)
#
#
# Indices 1 2 3 4 5 6 
#
# 1 88.9829 26.2810 -0.8823 1.6491 31.0828 9.2164
# 2 26.2810 136.0004 -7.5572 8.2476 0.5137 11.5776
# 3 -0.8823 -7.5572 66.4879 1.8255 20.4579 9.7968
# 4 1.6491 8.2476 1.8255 42.1369 10.3050 5.0310
# 5 31.0828 0.5137 20.4579 10.3050 31.2191 0.0820
# 6 9.2164 11.5776 9.7968 5.0310 0.0820 51.9615
#
#
#
# Elastic Compliance Matrix: (Units=1/GPa)
#
#
# Indices 1 2 3 4 5 6 
#
# 1 0.025758 -0.004163 0.011747 0.008949 -0.036211 -0.006665
# 2 -0.004163 0.008334 -0.000530 -0.002631 0.005226 -0.000772
# 3 0.011747 -0.000530 0.025461 0.006915 -0.030634 -0.007387
# 4 0.008949 -0.002631 0.006915 0.029901 -0.023255 -0.005163
# 5 -0.036211 0.005226 -0.030634 -0.023255 0.095715 0.013135
# 6 -0.006665 -0.000772 -0.007387 -0.005163 0.013135 0.022471
#
#
# Mechanical properties :
#
#
# Convention : Reuss Voigt Hill
#
# Bulk Modulus (GPa) = 13.57606 36.35047 24.96326
# Shear Modulus (GPa) = 22.92686 43.30547 33.11616
#
# Velocity S-wave (km/s) = 2.82719 3.88557 3.39784
# Velocity P-wave (km/s) = 3.92306 5.72740 4.90884
#
# Compressibility (1/GPa) = 0.07365908
#
# Stress axis : x y z
#
# Youngs Moduli (GPa) = 38.82336 119.99725 39.27641
#
# Poissons Ratio (x) = 0.49958 -0.46138
# Poissons Ratio (y) = 0.16163 0.02082
# Poissons Ratio (z) = -0.45605 0.06360
#
# Static dielectric constant tensor:
#      x y z
#    x 5.702660 -0.312170 0.474330 
#    y -0.312170 5.693820 -0.435610 
#    z 0.474330 -0.435610 5.811440 
# 
# 
# High freq. dielectric constant tensor:
#      x y z
#    x 2.179280 -0.005460 0.001600 
#    y -0.005460 2.185830 -0.020320 
#    z 0.001600 -0.020320 2.166070 
# 
# From -- ./inp_files/285801.got.cif
#   From: 2010.06.25/outbox.cif.g09.slc.cpg/sg2_143_cif.got.tgz:285801.got - 2010.06.27 13:26:56.
