data_PCOD8022185
_publ_section_title
;
Structure prediction by ZEFSAII (Michael W. Deem and Ramdas Pophale) SiO2 
 PCOD8022185
Probable space group: P -1
;
_chemical_formula_sum "Si O2"
_cell_formula_units_Z 14
_cell_length_a 7.170355
_cell_length_b 16.966413
_cell_length_c 8.978572
_cell_angle_alpha 73.567569
_cell_angle_beta 64.591351
_cell_angle_gamma 125.316977
_cell_volume 558.392542
_symmetry_space_group_name_H-M "P -1"
_symmetry_group_IT_number 2
_symmetry_cell_setting 'triclinic'
loop_
_space_group_symop_operation_xyz
x,y,z
-x,-y,-z
loop_
_atom_site_type_symbol
_atom_site_label
_atom_site_fract_x
_atom_site_fract_y
_atom_site_fract_z
Si Si1 0.165320 0.231960 0.100843
Si Si2 0.713321 0.939993 0.320249
Si Si3 0.411569 0.513601 0.368183
Si Si4 0.408212 0.064760 0.971125
Si Si5 0.541894 0.613322 0.802698
Si Si6 0.807047 0.324178 0.855834
Si Si7 0.200875 0.666509 0.810660
O O1 0.152675 0.281297 0.231494
O O2 0.284061 0.325823 0.871062
O O3 0.467888 0.267923 0.022781
O O4 0.828364 0.068704 0.265019
O O5 0.405049 0.812348 0.605179
O O6 0.021635 0.970769 0.205465
O O7 0.553941 0.896646 0.234109
O O8 0.500000 0.500000 0.500000
O O9 0.315767 0.413396 0.334666
O O10 0.058820 0.447405 0.579245
O O11 0.500000 0.000000 0.000000
O O12 0.703446 0.201658 0.896420
O O13 0.466912 0.674567 0.706640
O O14 0.159274 0.467043 0.086461
O O15 0.957300 0.364366 0.952267
#
# Coordination Sequence:
#
# PCOD8022185 Si02
#       7
#     2   2   2   2   2   2   2
#     4  10  24  45  65  97 133 179 223 271 345 403
#     4  10  24  46  72  95 141 180 221 280 338 405
#     4  12  24  40  68  98 134 171 224 286 327 396
#     4  10  24  43  67 105 134 175 228 276 340 401
#     4  10  23  41  68 100 132 175 229 273 335 403
#     4  10  23  43  66  97 133 177 223 278 334 400
#     4  10  22  45  67  99 133 181 222 271 341 402
#
# _framework density 25.071971000000001
#
# number of rings (size 3 to 8) (size 9 to 14) (size 15 to 20)
#    0.000    1.714    1.429    0.857    6.000    7.429 
#    0.000    1.429    0.000    0.000    0.000    0.000 
#    0.000    0.000    0.000    0.000    0.000    0.000 
#
# Total GULP energy -173451.478220 kJ/mol
# GULP energy per Si atom -12389.391301 kJ/mol
# Density = 2.501491 g / cm^3
# Si number density = 25.071971 Si / 1000 Ang^3
#
#
#
# Elastic Constant Matrix: (Units=GPa)
#
#
# Indices 1 2 3 4 5 6 
#
# 1 39.8851 13.7573 20.4705 -8.3161 16.7322 -9.2401
# 2 13.7573 138.9635 55.7041 -12.1787 20.5907 -5.6776
# 3 20.4705 55.7041 133.2250 0.7003 24.7678 -13.1421
# 4 -8.3161 -12.1787 0.7003 35.8965 -7.5374 6.0087
# 5 16.7322 20.5907 24.7678 -7.5374 26.0180 -7.2024
# 6 -9.2401 -5.6776 -13.1421 6.0087 -7.2024 33.5202
#
#
#
# Elastic Compliance Matrix: (Units=1/GPa)
#
#
# Indices 1 2 3 4 5 6 
#
# 1 0.035721 0.000522 -0.001659 0.003643 -0.019522 0.004437
# 2 0.000522 0.009259 -0.003313 0.002641 -0.003999 -0.000919
# 3 -0.001659 -0.003313 0.010668 -0.003544 -0.006849 0.002328
# 4 0.003643 0.002641 -0.003544 0.031833 0.007018 -0.004136
# 5 -0.019522 -0.003999 -0.006849 0.007018 0.063729 0.003691
# 6 0.004437 -0.000919 0.002328 -0.004136 0.003691 0.033347
#
#
# Mechanical properties :
#
#
# Convention : Reuss Voigt Hill
#
# Bulk Modulus (GPa) = 21.39139 54.65970 38.02555
# Shear Modulus (GPa) = 23.91905 33.89638 28.90772
#
# Velocity S-wave (km/s) = 3.09207 3.68089 3.39925
# Velocity P-wave (km/s) = 4.61501 6.31773 5.53227
#
# Compressibility (1/GPa) = 0.04674778
#
# Stress axis : x y z
#
# Youngs Moduli (GPa) = 27.99500 108.00566 93.74189
#
# Poissons Ratio (x) = -0.05636 0.15551
# Poissons Ratio (y) = -0.01461 0.31053
# Poissons Ratio (z) = 0.04644 0.35778
#
# Static dielectric constant tensor:
#      x y z
#    x 4.173290 0.087590 1.128760 
#    y 0.087590 5.707850 -0.102070 
#    z 1.128760 -0.102070 0.558940 
# 
# 
# High freq. dielectric constant tensor:
#      x y z
#    x 2.012870 -0.004820 -0.009090 
#    y -0.004820 2.011000 0.003570 
#    z -0.009090 0.003570 1.985750 
# 
# From -- ./inp_files/217455.got.cif
#   From: 2010.06.25/outbox.cif.g09.slc.cpg/sg2_109_cif.got.tgz:217455.got - 2010.06.27 13:26:56.
