data_PCOD8022658
_publ_section_title
;
Structure prediction by ZEFSAII (Michael W. Deem and Ramdas Pophale) SiO2 
 PCOD8022658
Probable space group: P -1
;
_chemical_formula_sum "Si O2"
_cell_formula_units_Z 14
_cell_length_a 18.326032
_cell_length_b 8.841579
_cell_length_c 8.051576
_cell_angle_alpha 58.849031
_cell_angle_beta 125.894993
_cell_angle_gamma 80.642568
_cell_volume 669.802982
_symmetry_space_group_name_H-M "P -1"
_symmetry_group_IT_number 2
_symmetry_cell_setting 'triclinic'
loop_
_space_group_symop_operation_xyz
x,y,z
-x,-y,-z
loop_
_atom_site_type_symbol
_atom_site_label
_atom_site_fract_x
_atom_site_fract_y
_atom_site_fract_z
Si Si1 0.545995 0.917005 0.867290
Si Si2 0.123359 0.941998 0.212677
Si Si3 0.496540 0.696015 0.194177
Si Si4 0.125880 0.291710 0.872473
Si Si5 0.322081 0.287558 0.158867
Si Si6 0.739287 0.174747 0.852100
Si Si7 0.276977 0.733437 0.864150
O O1 0.661239 0.744930 0.998944
O O2 0.547426 0.114715 0.826982
O O3 0.422775 0.040619 0.529934
O O4 0.556066 0.745906 0.109323
O O5 0.200358 0.786617 0.237207
O O6 0.188021 0.815217 0.544589
O O7 0.097662 0.187431 0.039456
O O8 0.000000 0.000000 0.000000
O O9 0.596170 0.415922 0.539304
O O10 0.378427 0.745288 0.943795
O O11 0.000000 0.500000 0.500000
O O12 0.188155 0.388044 0.969883
O O13 0.229414 0.069923 0.013782
O O14 0.338323 0.465603 0.140690
O O15 0.794382 0.124621 0.140556
#
# Coordination Sequence:
#
# PCOD8022658 Si02
#       7
#     2   2   2   2   2   2   2
#     4  10  23  37  62  92 141 162 208 260 314 387
#     4  10  24  44  67  93 124 166 221 267 314 374
#     4  11  22  41  59 101 132 171 208 260 317 388
#     4  10  23  44  64  87 129 165 216 274 314 370
#     4  11  22  37  62  97 124 176 207 258 325 372
#     4  10  24  41  68  93 131 169 212 267 316 383
#     4  12  23  40  71  97 130 171 214 256 325 387
#
# _framework density 20.901668999999998
#
# number of rings (size 3 to 8) (size 9 to 14) (size 15 to 20)
#    0.857    0.571    1.429    3.857    4.000    1.714 
#    0.000    0.714    0.000    0.000    0.000    0.000 
#    0.000    0.000    0.000    0.000    0.000    0.000 
#
# Total GULP energy -173451.739269 kJ/mol
# GULP energy per Si atom -12389.409948 kJ/mol
# Density = 2.085410 g / cm^3
# Si number density = 20.901669 Si / 1000 Ang^3
#
#
#
# Elastic Constant Matrix: (Units=GPa)
#
#
# Indices 1 2 3 4 5 6 
#
# 1 73.9072 37.0797 17.0599 14.5583 8.3018 13.8254
# 2 37.0797 83.2699 20.1991 2.8502 5.5226 8.8997
# 3 17.0599 20.1991 79.0682 8.2232 5.4910 7.7151
# 4 14.5583 2.8502 8.2232 37.3233 6.1501 -5.0385
# 5 8.3018 5.5226 5.4910 6.1501 33.4694 9.1666
# 6 13.8254 8.8997 7.7151 -5.0385 9.1666 42.1056
#
#
#
# Elastic Compliance Matrix: (Units=1/GPa)
#
#
# Indices 1 2 3 4 5 6 
#
# 1 0.020396 -0.007937 -0.000969 -0.007797 -0.000613 -0.005642
# 2 -0.007937 0.016129 -0.002640 0.002596 -0.000781 0.000161
# 3 -0.000969 -0.002640 0.014034 -0.002663 -0.000623 -0.001879
# 4 -0.007797 0.002596 -0.002663 0.032264 -0.006091 0.007686
# 5 -0.000613 -0.000781 -0.000623 -0.006091 0.033442 -0.007529
# 6 -0.005642 0.000161 -0.001879 0.007686 -0.007529 0.028471
#
#
# Mechanical properties :
#
#
# Convention : Reuss Voigt Hill
#
# Bulk Modulus (GPa) = 36.40506 42.76919 39.58712
# Shear Modulus (GPa) = 28.25109 33.37343 30.81226
#
# Velocity S-wave (km/s) = 3.68043 4.00019 3.84364
# Velocity P-wave (km/s) = 5.95951 6.46853 6.21923
#
# Compressibility (1/GPa) = 0.02746871
#
# Stress axis : x y z
#
# Youngs Moduli (GPa) = 49.02915 61.99894 71.25407
#
# Poissons Ratio (x) = 0.49207 0.06906
# Poissons Ratio (y) = 0.38913 0.18808
# Poissons Ratio (z) = 0.04752 0.16365
#
# Static dielectric constant tensor:
#      x y z
#    x 3.709400 -0.012620 -0.206970 
#    y -0.012620 3.779350 -0.030060 
#    z -0.206970 -0.030060 3.549570 
# 
# 
# High freq. dielectric constant tensor:
#      x y z
#    x 1.819820 0.007830 -0.015320 
#    y 0.007830 1.813480 0.001460 
#    z -0.015320 0.001460 1.808280 
# 
# From -- ./inp_files/241091.got.cif
#   From: 2010.06.25/outbox.cif.g09.slc.cpg/sg2_121_cif.got.tgz:241091.got - 2010.06.27 13:26:56.
