data_PCOD8022171
_publ_section_title
;
Structure prediction by ZEFSAII (Michael W. Deem and Ramdas Pophale) SiO2 
 PCOD8022171
Probable space group: P -1
;
_chemical_formula_sum "Si O2"
_cell_formula_units_Z 16
_cell_length_a 16.754544
_cell_length_b 6.804964
_cell_length_c 19.811598
_cell_angle_alpha 100.959257
_cell_angle_beta 20.838874
_cell_angle_gamma 104.039187
_cell_volume 775.148923
_symmetry_space_group_name_H-M "P -1"
_symmetry_group_IT_number 2
_symmetry_cell_setting 'triclinic'
loop_
_space_group_symop_operation_xyz
x,y,z
-x,-y,-z
loop_
_atom_site_type_symbol
_atom_site_label
_atom_site_fract_x
_atom_site_fract_y
_atom_site_fract_z
Si Si1 0.262603 0.440270 0.218535
Si Si2 0.142956 0.145463 0.039887
Si Si3 0.604806 0.335053 0.738461
Si Si4 0.713256 0.638149 0.194500
Si Si5 0.904433 0.605167 0.425529
Si Si6 0.192299 0.575466 0.647447
Si Si7 0.022319 0.688593 0.080318
Si Si8 0.944401 0.043816 0.470264
O O1 0.297008 0.496363 0.273045
O O2 0.101103 0.573343 0.319326
O O3 0.159476 0.200055 0.278903
O O4 0.500000 0.500000 0.000000
O O5 0.904660 0.216402 0.250113
O O6 0.333045 0.258841 0.949840
O O7 0.233778 0.196897 0.895851
O O8 0.116413 0.904584 0.054733
O O9 0.671499 0.452125 0.622284
O O10 0.718699 0.139494 0.648152
O O11 0.458577 0.621717 0.422753
O O12 0.884886 0.722740 0.124326
O O13 0.763763 0.420693 0.113905
O O14 0.951395 0.550210 0.307843
O O15 0.891236 0.841938 0.454051
O O16 0.151050 0.445040 0.739570
O O17 0.000000 0.000000 0.500000
#
# Coordination Sequence:
#
# PCOD8022171 Si02
#       8
#     2   2   2   2   2   2   2   2
#     4  11  23  39  59  88 126 157 204 266 307 368
#     4  11  24  41  65  97 128 168 212 257 318 380
#     4  11  22  39  62  87 126 162 208 261 310 371
#     4  10  22  45  67  92 133 168 200 267 319 370
#     4  11  22  41  62  89 123 166 209 255 314 371
#     4  11  24  40  65  95 130 165 211 264 312 371
#     4  10  24  42  67  99 125 164 217 254 316 385
#     4  11  21  40  65  85 112 173 214 245 317 374
#
# _framework density 20.641195
#
# number of rings (size 3 to 8) (size 9 to 14) (size 15 to 20)
#    0.000    1.250    3.750    2.250    1.750    5.000 
#    2.250    0.000    0.000    0.000    0.000    0.000 
#    0.000    0.000    0.000    0.000    0.000    0.000 
#
# Total GULP energy -198425.446305 kJ/mol
# GULP energy per Si atom -12401.590394 kJ/mol
# Density = 2.059421 g / cm^3
# Si number density = 20.641195 Si / 1000 Ang^3
#
#
#
# Elastic Constant Matrix: (Units=GPa)
#
#
# Indices 1 2 3 4 5 6 
#
# 1 55.4721 4.6790 6.3334 2.2606 1.7833 0.2314
# 2 4.6790 117.4381 39.3103 12.8164 -6.0918 -1.7227
# 3 6.3334 39.3103 143.8517 1.8873 -4.8931 -7.3032
# 4 2.2606 12.8164 1.8873 17.0660 7.0042 1.4465
# 5 1.7833 -6.0918 -4.8931 7.0042 27.4925 0.6260
# 6 0.2314 -1.7227 -7.3032 1.4465 0.6260 29.3059
#
#
#
# Elastic Compliance Matrix: (Units=1/GPa)
#
#
# Indices 1 2 3 4 5 6 
#
# 1 0.018240 -0.000356 -0.000729 -0.001651 -0.000966 -0.000245
# 2 -0.000356 0.010668 -0.002610 -0.009483 0.004330 0.000355
# 3 -0.000729 -0.002610 0.007796 0.000794 0.000614 0.001743
# 4 -0.001651 -0.009483 0.000794 0.074689 -0.020799 -0.003589
# 5 -0.000966 0.004330 0.000614 -0.020799 0.042792 0.000528
# 6 -0.000245 0.000355 0.001743 -0.003589 0.000528 0.034746
#
#
# Mechanical properties :
#
#
# Convention : Reuss Voigt Hill
#
# Bulk Modulus (GPa) = 34.11472 46.37860 40.24666
# Shear Modulus (GPa) = 24.26111 32.53547 28.39829
#
# Velocity S-wave (km/s) = 3.43209 3.97450 3.71321
# Velocity P-wave (km/s) = 5.68058 6.60151 6.15828
#
# Compressibility (1/GPa) = 0.02931286
#
# Stress axis : x y z
#
# Youngs Moduli (GPa) = 54.82540 93.74198 128.27365
#
# Poissons Ratio (x) = 0.03338 0.09356
# Poissons Ratio (y) = 0.01952 0.33476
# Poissons Ratio (z) = 0.03999 0.24464
#
# Static dielectric constant tensor:
#      x y z
#    x 2.815400 -0.516790 -0.571890 
#    y -0.516790 3.462760 -0.213130 
#    z -0.571890 -0.213130 3.181380 
# 
# 
# High freq. dielectric constant tensor:
#      x y z
#    x 1.820790 -0.002350 -0.000250 
#    y -0.002350 1.804920 0.002180 
#    z -0.000250 0.002180 1.804770 
# 
# From -- ./inp_files/53182.got.cif
#   From: 2010.06.25/outbox.cif.g09.slc.cpg/sg2_27_cif.got.tgz:53182.got - 2010.06.27 13:26:56.
