data_PCOD8022355
_publ_section_title
;
Structure prediction by ZEFSAII (Michael W. Deem and Ramdas Pophale) SiO2 
 PCOD8022355
Probable space group: P -1
;
_chemical_formula_sum "Si O2"
_cell_formula_units_Z 16
_cell_length_a 11.303290
_cell_length_b 8.674749
_cell_length_c 9.444800
_cell_angle_alpha 115.177516
_cell_angle_beta 74.574489
_cell_angle_gamma 127.354019
_cell_volume 666.174203
_symmetry_space_group_name_H-M "P -1"
_symmetry_group_IT_number 2
_symmetry_cell_setting 'triclinic'
loop_
_space_group_symop_operation_xyz
x,y,z
-x,-y,-z
loop_
_atom_site_type_symbol
_atom_site_label
_atom_site_fract_x
_atom_site_fract_y
_atom_site_fract_z
Si Si1 0.547056 0.382401 0.840716
Si Si2 0.648597 0.015815 0.414549
Si Si3 0.315530 0.237219 0.209474
Si Si4 0.176476 0.103210 0.506777
Si Si5 0.058575 0.870300 0.989847
Si Si6 0.089571 0.603436 0.654294
Si Si7 0.417647 0.761948 0.955172
Si Si8 0.859988 0.606718 0.212898
O O1 0.404061 0.193283 0.733642
O O2 0.676946 0.557972 0.764674
O O3 0.500000 0.500000 0.000000
O O4 0.611554 0.288291 0.887388
O O5 0.763130 0.031661 0.505076
O O6 0.500000 0.000000 0.500000
O O7 0.738610 0.222953 0.372950
O O8 0.251452 0.189173 0.366428
O O9 0.485406 0.307365 0.179844
O O10 0.226287 0.040922 0.055388
O O11 0.225274 0.286955 0.674786
O O12 0.000000 0.000000 0.500000
O O13 0.038304 0.725601 0.809925
O O14 0.972856 0.732081 0.099627
O O15 0.000000 0.000000 0.000000
O O16 0.061346 0.410926 0.680481
O O17 0.000000 0.500000 0.500000
O O18 0.255238 0.632131 0.886956
O O19 0.500000 0.000000 0.000000
#
# Coordination Sequence:
#
# PCOD8022355 Si02
#       8
#     2   2   2   2   2   2   2   2
#     4  10  22  45  72 108 147 194 253 317 377 458
#     4  12  29  49  76 114 157 201 257 321 393 458
#     4  11  25  44  77 105 147 198 260 311 386 458
#     4  12  26  49  77 112 155 206 261 323 389 465
#     4  12  26  49  81 110 149 205 262 317 393 470
#     4  12  29  50  75 114 160 204 260 325 391 462
#     4  11  24  44  72 106 146 192 257 319 388 455
#     4  12  26  47  78 111 152 203 262 321 386 472
#
# _framework density 24.017744
#
# number of rings (size 3 to 8) (size 9 to 14) (size 15 to 20)
#    0.000    0.500    1.250    7.125    7.000    2.000 
#    0.000    0.000    0.000    0.000    0.000    0.000 
#    0.000    0.000    0.000    0.000    0.000    0.000 
#
# Total GULP energy -198276.945099 kJ/mol
# GULP energy per Si atom -12392.309069 kJ/mol
# Density = 2.396308 g / cm^3
# Si number density = 24.017744 Si / 1000 Ang^3
#
#
#
# Elastic Constant Matrix: (Units=GPa)
#
#
# Indices 1 2 3 4 5 6 
#
# 1 115.7529 41.4531 43.8949 -15.3926 8.9759 -5.4715
# 2 41.4531 158.9248 63.2577 -17.3553 11.6007 -2.0144
# 3 43.8949 63.2577 139.8698 -17.6827 6.9311 1.8375
# 4 -15.3926 -17.3553 -17.6827 58.5798 -0.5013 9.0425
# 5 8.9759 11.6007 6.9311 -0.5013 38.5739 1.9859
# 6 -5.4715 -2.0144 1.8375 9.0425 1.9859 41.2793
#
#
#
# Elastic Compliance Matrix: (Units=1/GPa)
#
#
# Indices 1 2 3 4 5 6 
#
# 1 0.010435 -0.001500 -0.002357 0.001389 -0.001596 0.001187
# 2 -0.001500 0.008103 -0.002985 0.001066 -0.001546 0.000170
# 3 -0.002357 -0.002985 0.009458 0.001536 -0.000171 -0.001207
# 4 0.001389 0.001066 0.001536 0.018818 -0.000473 -0.003932
# 5 -0.001596 -0.001546 -0.000171 -0.000473 0.026861 -0.001468
# 6 0.001187 0.000170 -0.001207 -0.003932 -0.001468 0.025377
#
#
# Mechanical properties :
#
#
# Convention : Reuss Voigt Hill
#
# Bulk Modulus (GPa) = 69.87471 79.08433 74.47952
# Shear Modulus (GPa) = 42.55108 45.41606 43.98357
#
# Velocity S-wave (km/s) = 4.21367 4.35321 4.28401
# Velocity P-wave (km/s) = 7.26838 7.63323 7.45304
#
# Compressibility (1/GPa) = 0.01431133
#
# Stress axis : x y z
#
# Youngs Moduli (GPa) = 95.83290 123.40973 105.73463
#
# Poissons Ratio (x) = 0.18515 0.24923
# Poissons Ratio (y) = 0.14378 0.31559
# Poissons Ratio (z) = 0.22589 0.36834
#
# Static dielectric constant tensor:
#      x y z
#    x 12.144800 -1.731650 5.045790 
#    y -1.731650 5.409660 -0.981560 
#    z 5.045790 -0.981560 7.543220 
# 
# 
# High freq. dielectric constant tensor:
#      x y z
#    x 1.942630 -0.005050 0.012470 
#    y -0.005050 1.980560 -0.003900 
#    z 0.012470 -0.003900 1.961430 
# 
# From -- ./inp_files/244528.got.cif
#   From: 2010.06.25/outbox.cif.g09.slc.cpg/sg2_123_cif.got.tgz:244528.got - 2010.06.27 13:26:56.
