data_PCOD8022867
_publ_section_title
;
Structure prediction by ZEFSAII (Michael W. Deem and Ramdas Pophale) SiO2 
 PCOD8022867
Probable space group: P -1
;
_chemical_formula_sum "Si O2"
_cell_formula_units_Z 14
_cell_length_a 13.103133
_cell_length_b 14.726153
_cell_length_c 7.801199
_cell_angle_alpha 59.176645
_cell_angle_beta 119.621609
_cell_angle_gamma 150.265056
_cell_volume 636.840220
_symmetry_space_group_name_H-M "P -1"
_symmetry_group_IT_number 2
_symmetry_cell_setting 'triclinic'
loop_
_space_group_symop_operation_xyz
x,y,z
-x,-y,-z
loop_
_atom_site_type_symbol
_atom_site_label
_atom_site_fract_x
_atom_site_fract_y
_atom_site_fract_z
Si Si1 0.147056 0.038283 0.203711
Si Si2 0.448346 0.145302 0.734291
Si Si3 0.068260 0.717901 0.826687
Si Si4 0.402389 0.335461 0.382232
Si Si5 0.180620 0.293404 0.507971
Si Si6 0.239928 0.647194 0.897234
Si Si7 0.526981 0.893627 0.597331
O O1 0.008159 0.913217 0.374817
O O2 0.336020 0.253546 0.214563
O O3 0.252459 0.003242 0.266047
O O4 0.000000 0.000000 0.000000
O O5 0.404818 0.237406 0.607929
O O6 0.521859 0.164315 0.586307
O O7 0.242382 0.929141 0.832117
O O8 0.621610 0.252530 0.913767
O O9 0.162823 0.710258 0.770206
O O10 0.888401 0.638571 0.645067
O O11 0.959281 0.578023 0.032871
O O12 0.237629 0.292608 0.368669
O O13 0.624816 0.558988 0.342898
O O14 0.359794 0.711837 0.758164
O O15 0.500000 0.000000 0.500000
#
# Coordination Sequence:
#
# PCOD8022867 Si02
#       7
#     2   2   2   2   2   2   2
#     4  11  25  41  65  96 135 170 223 276 324 402
#     4  11  22  43  67  94 132 173 216 271 333 385
#     4  11  22  39  67  98 126 168 224 272 317 403
#     4  10  23  39  67  92 125 174 216 270 332 387
#     4  11  21  42  67  91 131 174 219 271 332 391
#     4  11  24  42  66  97 133 169 224 269 330 390
#     4  11  23  43  68  96 135 175 216 270 335 391
#
# _framework density 21.983537999999999
#
# number of rings (size 3 to 8) (size 9 to 14) (size 15 to 20)
#    0.000    1.143    5.714    0.857    2.000    0.571 
#    0.000    8.571    0.000    0.000    0.000    0.000 
#    0.000    0.000    0.000    0.000    0.000    0.000 
#
# Total GULP energy -173435.285720 kJ/mol
# GULP energy per Si atom -12388.234694 kJ/mol
# Density = 2.193350 g / cm^3
# Si number density = 21.983538 Si / 1000 Ang^3
#
#
#
# Elastic Constant Matrix: (Units=GPa)
#
#
# Indices 1 2 3 4 5 6 
#
# 1 94.5210 42.6515 60.6549 21.9216 14.3608 19.0862
# 2 42.6515 79.0037 9.3688 -8.6670 -12.1413 5.8328
# 3 60.6549 9.3688 80.4913 8.7828 10.8194 5.4076
# 4 21.9216 -8.6670 8.7828 26.9028 11.7531 -2.6290
# 5 14.3608 -12.1413 10.8194 11.7531 38.5998 -0.1795
# 6 19.0862 5.8328 5.4076 -2.6290 -0.1795 34.0938
#
#
#
# Elastic Compliance Matrix: (Units=1/GPa)
#
#
# Indices 1 2 3 4 5 6 
#
# 1 0.104454 -0.057631 -0.057796 -0.082335 -0.015932 -0.045881
# 2 -0.057631 0.045869 0.029451 0.048807 0.012862 0.023575
# 3 -0.057796 0.029451 0.045721 0.041574 0.005400 0.023299
# 4 -0.082335 0.048807 0.041574 0.109813 0.001079 0.039622
# 5 -0.015932 0.012862 0.005400 0.001079 0.034066 0.006125
# 6 -0.045881 0.023575 0.023299 0.039622 0.006125 0.050374
#
#
# Mechanical properties :
#
#
# Convention : Reuss Voigt Hill
#
# Bulk Modulus (GPa) = 41.50877 53.26292 47.38585
# Shear Modulus (GPa) = 8.76763 29.34201 19.05482
#
# Velocity S-wave (km/s) = 1.99923 3.65735 2.94730
# Velocity P-wave (km/s) = 4.92463 6.48969 5.76056
#
# Compressibility (1/GPa) = 0.02409129
#
# Stress axis : x y z
#
# Youngs Moduli (GPa) = 9.57361 21.80138 21.87180
#
# Poissons Ratio (x) = 1.25643 1.26411
# Poissons Ratio (y) = 0.55174 -0.64415
# Poissons Ratio (z) = 0.55332 -0.64207
#
# Static dielectric constant tensor:
#      x y z
#    x 4.153540 0.233600 0.353930 
#    y 0.233600 4.127050 -0.172830 
#    z 0.353930 -0.172830 3.995710 
# 
# 
# High freq. dielectric constant tensor:
#      x y z
#    x 1.869510 0.015350 0.026740 
#    y 0.015350 1.867760 -0.009710 
#    z 0.026740 -0.009710 1.850750 
# 
# From -- ./inp_files/267842.got.cif
#   From: 2010.06.25/outbox.cif.g09.slc.cpg/sg2_134_cif.got.tgz:267842.got - 2010.06.27 13:26:56.
