data_PCOD8022267
_publ_section_title
;
Structure prediction by ZEFSAII (Michael W. Deem and Ramdas Pophale) SiO2 
 PCOD8022267
Probable space group: P -1
;
_chemical_formula_sum "Si O2"
_cell_formula_units_Z 14
_cell_length_a 9.136830
_cell_length_b 17.075578
_cell_length_c 8.729659
_cell_angle_alpha 60.530418
_cell_angle_beta 46.585424
_cell_angle_gamma 94.533934
_cell_volume 647.369292
_symmetry_space_group_name_H-M "P -1"
_symmetry_group_IT_number 2
_symmetry_cell_setting 'triclinic'
loop_
_space_group_symop_operation_xyz
x,y,z
-x,-y,-z
loop_
_atom_site_type_symbol
_atom_site_label
_atom_site_fract_x
_atom_site_fract_y
_atom_site_fract_z
Si Si1 0.720890 0.408220 0.704997
Si Si2 0.722804 0.833230 0.569756
Si Si3 0.042896 0.943671 0.661828
Si Si4 0.132354 0.653730 0.639120
Si Si5 0.522746 0.482992 0.323963
Si Si6 0.610866 0.751372 0.388799
Si Si7 0.798642 0.121378 0.649148
O O1 0.765543 0.386258 0.522947
O O2 0.579474 0.463702 0.753998
O O3 0.000000 0.500000 0.500000
O O4 0.533110 0.285377 0.051241
O O5 0.700412 0.820255 0.416933
O O6 0.001095 0.870177 0.387470
O O7 0.735202 0.943735 0.496496
O O8 0.130916 0.876088 0.583699
O O9 0.000000 0.000000 0.500000
O O10 0.775015 0.845526 0.042951
O O11 0.300634 0.683530 0.643522
O O12 0.180513 0.768065 0.434019
O O13 0.824333 0.547114 0.000645
O O14 0.500000 0.500000 0.500000
O O15 0.342932 0.342698 0.549506
O O16 0.500000 0.000000 0.000000
#
# Coordination Sequence:
#
# PCOD8022267 Si02
#       7
#     2   2   2   2   2   2   2
#     4  12  27  46  73 104 141 188 229 286 348 413
#     4  11  24  45  69 102 141 175 237 292 340 413
#     4  10  22  45  69  96 137 179 231 288 343 414
#     4  12  24  45  69 101 142 189 232 277 354 410
#     4  12  26  45  69 104 146 181 237 283 343 419
#     4  12  25  43  72 103 140 184 230 293 346 408
#     4  11  22  42  71  99 135 186 232 284 347 412
#
# _framework density 21.625986999999999
#
# number of rings (size 3 to 8) (size 9 to 14) (size 15 to 20)
#    0.000    0.571    2.857    6.857    4.000    1.143 
#    0.000    1.429    0.000    0.000    0.000    0.000 
#    0.000    0.000    0.000    0.000    0.000    0.000 
#
# Total GULP energy -173627.792809 kJ/mol
# GULP energy per Si atom -12401.985201 kJ/mol
# Density = 2.157677 g / cm^3
# Si number density = 21.625987 Si / 1000 Ang^3
#
#
#
# Elastic Constant Matrix: (Units=GPa)
#
#
# Indices 1 2 3 4 5 6 
#
# 1 94.3872 48.1267 41.5559 3.0201 -15.3092 13.6393
# 2 48.1267 126.3928 33.2847 -2.5268 0.4082 16.7254
# 3 41.5559 33.2847 148.5798 0.1139 -3.3391 5.7333
# 4 3.0201 -2.5268 0.1139 41.7486 0.9034 3.4701
# 5 -15.3092 0.4082 -3.3391 0.9034 36.6052 -5.0342
# 6 13.6393 16.7254 5.7333 3.4701 -5.0342 40.3777
#
#
#
# Elastic Compliance Matrix: (Units=1/GPa)
#
#
# Indices 1 2 3 4 5 6 
#
# 1 0.015835 -0.005005 -0.003093 -0.001412 0.006163 -0.001947
# 2 -0.005005 0.010483 -0.000896 0.001306 -0.002734 -0.002977
# 3 -0.003093 -0.000896 0.007775 0.000141 -0.000546 0.000232
# 4 -0.001412 0.001306 0.000141 0.024363 -0.001519 -0.002367
# 5 0.006163 -0.002734 -0.000546 -0.001519 0.030332 0.003040
# 6 -0.001947 -0.002977 0.000232 -0.002367 0.003040 0.027206
#
#
# Mechanical properties :
#
#
# Convention : Reuss Voigt Hill
#
# Bulk Modulus (GPa) = 62.09697 68.36605 65.23151
# Shear Modulus (GPa) = 35.88082 40.17247 38.02665
#
# Velocity S-wave (km/s) = 4.07769 4.31467 4.19785
# Velocity P-wave (km/s) = 7.13768 7.51687 7.32973
#
# Compressibility (1/GPa) = 0.01610385
#
# Stress axis : x y z
#
# Youngs Moduli (GPa) = 63.15283 95.39619 128.62130
#
# Poissons Ratio (x) = 0.47750 0.39779
# Poissons Ratio (y) = 0.31611 0.11523
# Poissons Ratio (z) = 0.19531 0.08547
#
# Static dielectric constant tensor:
#      x y z
#    x 3.211240 -0.362850 -0.395640 
#    y -0.362850 4.640830 -0.301460 
#    z -0.395640 -0.301460 3.820800 
# 
# 
# High freq. dielectric constant tensor:
#      x y z
#    x 1.833600 -0.000220 0.002780 
#    y -0.000220 1.871220 -0.010230 
#    z 0.002780 -0.010230 1.864610 
# 
# From -- ./inp_files/188820.got.cif
#   From: 2010.06.25/outbox.cif.g09.slc.cpg/sg2_95_cif.got.tgz:188820.got - 2010.06.27 13:26:56.
