data_PCOD8022054
_publ_section_title
;
Structure prediction by ZEFSAII (Michael W. Deem and Ramdas Pophale) SiO2 
 PCOD8022054
Probable space group: P -1
;
_chemical_formula_sum "Si O2"
_cell_formula_units_Z 16
_cell_length_a 9.563028
_cell_length_b 8.111061
_cell_length_c 13.141796
_cell_angle_alpha 59.412225
_cell_angle_beta 101.211955
_cell_angle_gamma 63.369856
_cell_volume 655.608408
_symmetry_space_group_name_H-M "P -1"
_symmetry_group_IT_number 2
_symmetry_cell_setting 'triclinic'
loop_
_space_group_symop_operation_xyz
x,y,z
-x,-y,-z
loop_
_atom_site_type_symbol
_atom_site_label
_atom_site_fract_x
_atom_site_fract_y
_atom_site_fract_z
Si Si1 0.232850 0.157218 0.566735
Si Si2 0.972567 0.915947 0.300224
Si Si3 0.431395 0.388408 0.250415
Si Si4 0.975633 0.754328 0.697090
Si Si5 0.171592 0.912267 0.982705
Si Si6 0.698529 0.809730 0.033959
Si Si7 0.200711 0.290154 0.138638
Si Si8 0.369892 0.447121 0.452126
O O1 0.097329 0.230149 0.620596
O O2 0.112228 0.251776 0.416742
O O3 0.351332 0.253203 0.566578
O O4 0.374263 0.853335 0.692012
O O5 0.164779 0.711281 0.333272
O O6 0.845641 0.122352 0.129138
O O7 0.993619 0.042508 0.359791
O O8 0.258432 0.428229 0.163733
O O9 0.449565 0.331143 0.389743
O O10 0.373794 0.657275 0.132134
O O11 0.821851 0.857235 0.734014
O O12 0.181649 0.485254 0.831595
O O13 0.170321 0.140493 0.918927
O O14 0.000000 0.000000 0.000000
O O15 0.663616 0.870853 0.887707
O O16 0.500000 0.000000 0.000000
O O17 0.000000 0.500000 0.000000
O O18 0.500000 0.500000 0.500000
#
# Coordination Sequence:
#
# PCOD8022054 Si02
#       8
#     2   2   2   2   2   2   2   2
#     4  12  28  49  73 111 157 197 244 316 385 447
#     4  12  27  47  78 108 153 198 244 319 381 442
#     4  12  26  46  78 106 151 197 257 308 369 459
#     4  11  23  49  75 105 155 201 249 291 393 454
#     4  12  24  48  73 107 145 198 254 302 374 449
#     4  11  26  44  77 112 148 189 252 325 367 435
#     4  10  22  44  73 105 144 199 244 304 373 442
#     4  12  27  50  77 112 146 202 259 304 370 458
#
# _framework density 24.404810999999999
#
# number of rings (size 3 to 8) (size 9 to 14) (size 15 to 20)
#    0.000    0.500    2.500    6.375    5.250    0.500 
#    0.000    0.000    0.000    0.000    0.000    0.000 
#    0.000    0.000    0.000    0.000    0.000    0.000 
#
# Total GULP energy -198302.404645 kJ/mol
# GULP energy per Si atom -12393.900290 kJ/mol
# Density = 2.434926 g / cm^3
# Si number density = 24.404811 Si / 1000 Ang^3
#
#
#
# Elastic Constant Matrix: (Units=GPa)
#
#
# Indices 1 2 3 4 5 6 
#
# 1 120.2547 40.4346 28.5563 23.6298 -12.9336 2.0284
# 2 40.4346 95.3785 21.5888 14.4074 -0.4863 3.5219
# 3 28.5563 21.5888 99.6946 13.0105 -7.6240 -7.0964
# 4 23.6298 14.4074 13.0105 49.6327 2.0191 -0.8857
# 5 -12.9336 -0.4863 -7.6240 2.0191 30.8308 1.4514
# 6 2.0284 3.5219 -7.0964 -0.8857 1.4514 45.0921
#
#
#
# Elastic Compliance Matrix: (Units=1/GPa)
#
#
# Indices 1 2 3 4 5 6 
#
# 1 0.011252 -0.003751 -0.001582 -0.004051 0.004568 -0.000689
# 2 -0.003751 0.012702 -0.001694 -0.001409 -0.001650 -0.001065
# 3 -0.001582 -0.001694 0.011384 -0.001793 0.002153 0.001890
# 4 -0.004051 -0.001409 -0.001793 0.023117 -0.003707 0.000583
# 5 0.004568 -0.001650 0.002153 -0.003707 0.035145 -0.000942
# 6 -0.000689 -0.001065 0.001890 0.000583 -0.000942 0.022630
#
#
# Mechanical properties :
#
#
# Convention : Reuss Voigt Hill
#
# Bulk Modulus (GPa) = 46.98502 55.16524 51.07513
# Shear Modulus (GPa) = 36.39594 40.09431 38.24512
#
# Velocity S-wave (km/s) = 3.86598 4.05765 3.96297
# Velocity P-wave (km/s) = 6.26274 6.67877 6.47410
#
# Compressibility (1/GPa) = 0.02128338
#
# Stress axis : x y z
#
# Youngs Moduli (GPa) = 88.87684 78.72735 87.84430
#
# Poissons Ratio (x) = 0.29533 0.13893
# Poissons Ratio (y) = 0.33340 0.14882
# Poissons Ratio (z) = 0.14056 0.13338
#
# Static dielectric constant tensor:
#      x y z
#    x 4.264130 -0.234780 -0.252820 
#    y -0.234780 4.468610 0.098880 
#    z -0.252820 0.098880 4.317290 
# 
# 
# High freq. dielectric constant tensor:
#      x y z
#    x 1.969710 0.001810 0.000190 
#    y 0.001810 1.977880 0.000170 
#    z 0.000190 0.000170 1.968220 
# 
# From -- ./inp_files/494409.got.cif
#   From: 2010.06.25/outbox.cif.g09.slc.cpg/sg2_248_cif.got.tgz:494409.got - 2010.06.27 13:26:56.
