data_PCOD8022780
_publ_section_title
;
Structure prediction by ZEFSAII (Michael W. Deem and Ramdas Pophale) SiO2 
 PCOD8022780
Probable space group: P -1
;
_chemical_formula_sum "Si O2"
_cell_formula_units_Z 14
_cell_length_a 13.809492
_cell_length_b 12.082106
_cell_length_c 10.634273
_cell_angle_alpha 63.520048
_cell_angle_beta 31.714253
_cell_angle_gamma 49.820167
_cell_volume 688.805674
_symmetry_space_group_name_H-M "P -1"
_symmetry_group_IT_number 2
_symmetry_cell_setting 'triclinic'
loop_
_space_group_symop_operation_xyz
x,y,z
-x,-y,-z
loop_
_atom_site_type_symbol
_atom_site_label
_atom_site_fract_x
_atom_site_fract_y
_atom_site_fract_z
Si Si1 0.165743 0.552891 0.776804
Si Si2 0.625771 0.418054 0.228021
Si Si3 0.832016 0.793635 0.847726
Si Si4 0.118600 0.886567 0.040120
Si Si5 0.342511 0.919785 0.991597
Si Si6 0.469915 0.278242 0.896657
Si Si7 0.108569 0.022694 0.505152
O O1 0.412354 0.423885 0.516919
O O2 0.200667 0.608934 0.841745
O O3 0.055698 0.693240 0.732598
O O4 0.000000 0.500000 0.000000
O O5 0.536640 0.571601 0.173757
O O6 0.760172 0.283273 0.051167
O O7 0.873816 0.851585 0.644127
O O8 0.744726 0.691609 0.956465
O O9 0.643337 0.938395 0.068001
O O10 0.927667 0.928823 0.331543
O O11 0.312626 0.897793 0.888541
O O12 0.000000 0.000000 0.000000
O O13 0.533429 0.769118 0.929778
O O14 0.113417 0.969355 0.297826
O O15 0.678111 0.145900 0.656278
#
# Coordination Sequence:
#
# PCOD8022780 Si02
#       7
#     2   2   2   2   2   2   2
#     4  11  23  40  63  94 122 160 204 258 305 359
#     4  11  24  41  65  92 126 160 206 254 312 369
#     4  11  19  37  61  93 124 157 217 254 294 371
#     4  10  23  39  61  89 123 164 205 249 318 370
#     4   9  19  35  61  87 120 160 207 246 307 354
#     4  11  20  36  64  94 120 161 210 258 303 357
#     4   9  20  36  61  88 118 163 206 251 301 359
#
# _framework density 20.325035
#
# number of rings (size 3 to 8) (size 9 to 14) (size 15 to 20)
#    0.857    0.857    1.429    6.000    4.000    0.571 
#    0.000    3.571    0.000    6.000    0.000    0.000 
#    0.000    0.000    0.000    0.000    0.000    0.000 
#
# Total GULP energy -173493.532020 kJ/mol
# GULP energy per Si atom -12392.395144 kJ/mol
# Density = 2.027877 g / cm^3
# Si number density = 20.325035 Si / 1000 Ang^3
#
#
#
# Elastic Constant Matrix: (Units=GPa)
#
#
# Indices 1 2 3 4 5 6 
#
# 1 141.7538 52.5800 30.2373 4.0847 7.1894 -8.1132
# 2 52.5800 123.8855 38.7868 5.0543 12.8205 -1.2046
# 3 30.2373 38.7868 54.7412 -1.9297 0.7438 7.3480
# 4 4.0847 5.0543 -1.9297 24.5394 6.4557 -2.6263
# 5 7.1894 12.8205 0.7438 6.4557 32.7255 1.7547
# 6 -8.1132 -1.2046 7.3480 -2.6263 1.7547 37.5867
#
#
#
# Elastic Compliance Matrix: (Units=1/GPa)
#
#
# Indices 1 2 3 4 5 6 
#
# 1 0.008959 -0.002567 -0.003482 -0.000737 -0.000873 0.002522
# 2 -0.002567 0.011858 -0.007159 -0.001466 -0.003699 0.001296
# 3 -0.003482 -0.007159 0.026132 0.002738 0.002759 -0.006027
# 4 -0.000737 -0.001466 0.002738 0.043814 -0.008114 0.002699
# 5 -0.000873 -0.003699 0.002759 -0.008114 0.033897 -0.002996
# 6 0.002522 0.001296 -0.006027 0.002699 -0.002996 0.028698
#
#
# Mechanical properties :
#
#
# Convention : Reuss Voigt Hill
#
# Bulk Modulus (GPa) = 48.70536 62.62096 55.66316
# Shear Modulus (GPa) = 26.79225 32.22207 29.50716
#
# Velocity S-wave (km/s) = 3.63463 3.98595 3.81434
# Velocity P-wave (km/s) = 6.45207 7.21529 6.84433
#
# Compressibility (1/GPa) = 0.02053162
#
# Stress axis : x y z
#
# Youngs Moduli (GPa) = 111.61374 84.32858 38.26687
#
# Poissons Ratio (x) = 0.21650 0.13326
# Poissons Ratio (y) = 0.28655 0.27397
# Poissons Ratio (z) = 0.38869 0.60375
#
# Static dielectric constant tensor:
#      x y z
#    x 3.847230 -0.091990 -0.092100 
#    y -0.091990 3.564370 -0.029410 
#    z -0.092100 -0.029410 3.403500 
# 
# 
# High freq. dielectric constant tensor:
#      x y z
#    x 1.812710 -0.012500 -0.009400 
#    y -0.012500 1.789630 -0.009010 
#    z -0.009400 -0.009010 1.758920 
# 
# From -- ./inp_files/449849.got.cif
#   From: 2010.06.25/outbox.cif.g09.slc.cpg/sg2_225_cif.got.tgz:449849.got - 2010.06.27 13:26:56.
