data_PCOD8022131
_publ_section_title
;
Structure prediction by ZEFSAII (Michael W. Deem and Ramdas Pophale) SiO2 
 PCOD8022131
Probable space group: P -1
;
_chemical_formula_sum "Si O2"
_cell_formula_units_Z 14
_cell_length_a 11.758520
_cell_length_b 10.563408
_cell_length_c 6.359460
_cell_angle_alpha 108.053673
_cell_angle_beta 88.402765
_cell_angle_gamma 123.070321
_cell_volume 619.388186
_symmetry_space_group_name_H-M "P -1"
_symmetry_group_IT_number 2
_symmetry_cell_setting 'triclinic'
loop_
_space_group_symop_operation_xyz
x,y,z
-x,-y,-z
loop_
_atom_site_type_symbol
_atom_site_label
_atom_site_fract_x
_atom_site_fract_y
_atom_site_fract_z
Si Si1 0.289593 0.275584 0.954047
Si Si2 0.088586 0.308783 0.230226
Si Si3 0.900132 0.043443 0.437310
Si Si4 0.361688 0.839331 0.846873
Si Si5 0.407149 0.611848 0.965190
Si Si6 0.863298 0.220527 0.877227
Si Si7 0.266493 0.663268 0.353952
O O1 0.311647 0.416242 0.868077
O O2 0.225279 0.107586 0.754226
O O3 0.189466 0.251975 0.139087
O O4 0.436388 0.325430 0.060520
O O5 0.178119 0.494434 0.399162
O O6 0.983519 0.198674 0.361110
O O7 0.013832 0.304593 0.014986
O O8 0.834116 0.077194 0.653111
O O9 0.000000 0.000000 0.500000
O O10 0.357174 0.680602 0.825980
O O11 0.335454 0.818200 0.586029
O O12 0.243081 0.850208 0.960665
O O13 0.500000 0.000000 0.000000
O O14 0.390238 0.673565 0.224571
O O15 0.840820 0.338717 0.802595
#
# Coordination Sequence:
#
# PCOD8022131 Si02
#       7
#     2   2   2   2   2   2   2
#     4  10  22  45  65  95 134 171 217 265 319 389
#     4  11  24  44  68  98 134 171 220 267 328 387
#     4  12  26  39  67  98 137 174 211 266 329 390
#     4  11  26  42  68  97 131 171 220 271 326 387
#     4   9  23  44  68  93 131 172 218 271 317 384
#     4  11  25  43  67  99 129 174 216 275 322 388
#     4  10  24  45  69  97 129 173 220 271 329 382
#
# _framework density 22.602948999999999
#
# number of rings (size 3 to 8) (size 9 to 14) (size 15 to 20)
#    0.000    1.429    1.429    1.714    8.000    4.571 
#    0.000    2.143    0.000    0.000    0.000    0.000 
#    0.000    0.000    0.000    0.000    0.000    0.000 
#
# Total GULP energy -173583.415668 kJ/mol
# GULP energy per Si atom -12398.815405 kJ/mol
# Density = 2.255150 g / cm^3
# Si number density = 22.602949 Si / 1000 Ang^3
#
#
#
# Elastic Constant Matrix: (Units=GPa)
#
#
# Indices 1 2 3 4 5 6 
#
# 1 114.7085 18.5278 34.3007 -6.2233 -19.5063 7.1996
# 2 18.5278 72.9659 30.2314 8.2851 -0.2152 6.5229
# 3 34.3007 30.2314 114.4233 9.9140 -12.4171 8.2031
# 4 -6.2233 8.2851 9.9140 32.5519 -3.5992 1.7589
# 5 -19.5063 -0.2152 -12.4171 -3.5992 38.7680 -2.0350
# 6 7.1996 6.5229 8.2031 1.7589 -2.0350 31.8480
#
#
#
# Elastic Compliance Matrix: (Units=1/GPa)
#
#
# Indices 1 2 3 4 5 6 
#
# 1 0.010934 -0.002089 -0.002433 0.003988 0.005012 -0.001317
# 2 -0.002089 0.016260 -0.003489 -0.003650 -0.002518 -0.001919
# 3 -0.002433 -0.003489 0.010920 -0.002619 0.001944 -0.001279
# 4 0.003988 -0.003650 -0.002619 0.033734 0.004223 -0.001073
# 5 0.005012 -0.002518 0.001944 0.004223 0.029344 0.000524
# 6 -0.001317 -0.001919 -0.001279 -0.001073 0.000524 0.032512
#
#
# Mechanical properties :
#
#
# Convention : Reuss Voigt Hill
#
# Bulk Modulus (GPa) = 45.26544 52.02414 48.64479
# Shear Modulus (GPa) = 31.82884 35.23610 33.53247
#
# Velocity S-wave (km/s) = 3.75663 3.95259 3.85586
# Velocity P-wave (km/s) = 6.23588 6.62549 6.43364
#
# Compressibility (1/GPa) = 0.02209191
#
# Stress axis : x y z
#
# Youngs Moduli (GPa) = 91.45812 61.50226 91.57268
#
# Poissons Ratio (x) = 0.12846 0.22281
# Poissons Ratio (y) = 0.19102 0.31952
# Poissons Ratio (z) = 0.22253 0.21460
#
# Static dielectric constant tensor:
#      x y z
#    x 4.394760 -0.262270 -0.308950 
#    y -0.262270 4.257800 0.233290 
#    z -0.308950 0.233290 4.126410 
# 
# 
# High freq. dielectric constant tensor:
#      x y z
#    x 1.908370 -0.005520 -0.010510 
#    y -0.005520 1.886540 0.004980 
#    z -0.010510 0.004980 1.880360 
# 
# From -- ./inp_files/68710.got.cif
#   From: 2010.06.25/outbox.cif.g09.slc.cpg/sg2_35_cif.got.tgz:68710.got - 2010.06.27 13:26:56.
