data_PCOD8022722
_publ_section_title
;
Structure prediction by ZEFSAII (Michael W. Deem and Ramdas Pophale) SiO2 
 PCOD8022722
Probable space group: P -1
;
_chemical_formula_sum "Si O2"
_cell_formula_units_Z 16
_cell_length_a 7.671744
_cell_length_b 6.443079
_cell_length_c 20.414313
_cell_angle_alpha 51.738416
_cell_angle_beta 74.592334
_cell_angle_gamma 66.017995
_cell_volume 723.779582
_symmetry_space_group_name_H-M "P -1"
_symmetry_group_IT_number 2
_symmetry_cell_setting 'triclinic'
loop_
_space_group_symop_operation_xyz
x,y,z
-x,-y,-z
loop_
_atom_site_type_symbol
_atom_site_label
_atom_site_fract_x
_atom_site_fract_y
_atom_site_fract_z
Si Si1 0.035371 0.242047 0.735127
Si Si2 0.449661 0.595580 0.091048
Si Si3 0.066974 0.141045 0.405126
Si Si4 0.254415 0.828740 0.329209
Si Si5 0.767750 0.531040 0.973286
Si Si6 0.440184 0.218442 0.405909
Si Si7 0.446464 0.859080 0.730922
Si Si8 0.920461 0.970596 0.915453
O O1 0.064300 0.545626 0.662101
O O2 0.871171 0.172483 0.722364
O O3 0.241958 0.027820 0.745482
O O4 0.978797 0.206655 0.823022
O O5 0.373267 0.403772 0.087092
O O6 0.495782 0.454115 0.185385
O O7 0.282310 0.891090 0.055577
O O8 0.644338 0.614435 0.036312
O O9 0.258622 0.192110 0.394042
O O10 0.099392 0.922451 0.384993
O O11 0.000000 0.000000 0.500000
O O12 0.401413 0.517544 0.385250
O O13 0.388512 0.023510 0.280504
O O14 0.896915 0.732216 0.914968
O O15 0.905157 0.204522 0.020443
O O16 0.584447 0.156708 0.341749
O O17 0.500000 0.000000 0.500000
#
# Coordination Sequence:
#
# PCOD8022722 Si02
#       8
#     2   2   2   2   2   2   2   2
#     4  11  24  41  65  94 127 170 218 263 324 389
#     4  11  21  41  63  91 131 164 213 266 313 387
#     4  10  24  40  63  92 122 166 211 268 329 382
#     4  10  23  42  59  88 126 162 210 266 319 384
#     4  10  23  38  63  96 122 172 208 258 335 366
#     4  10  24  40  63  92 122 166 211 268 329 382
#     4  11  24  41  65  94 127 170 218 263 324 389
#     4  11  21  41  63  91 131 164 213 266 313 387
#
# _framework density 22.106175
#
# number of rings (size 3 to 8) (size 9 to 14) (size 15 to 20)
#    0.000    1.500    1.250    3.750    5.250    2.000 
#    0.000    0.000    0.000    0.000    0.000    0.000 
#    0.000    0.000    0.000    0.000    0.000    0.000 
#
# Total GULP energy -198252.720869 kJ/mol
# GULP energy per Si atom -12390.795054 kJ/mol
# Density = 2.205586 g / cm^3
# Si number density = 22.106175 Si / 1000 Ang^3
#
#
#
# Elastic Constant Matrix: (Units=GPa)
#
#
# Indices 1 2 3 4 5 6 
#
# 1 54.3998 14.7014 1.4489 -8.9020 1.8899 -18.2120
# 2 14.7014 104.3173 24.2481 -12.8468 2.8415 -22.5758
# 3 1.4489 24.2481 106.2169 -17.6174 9.4440 -7.6395
# 4 -8.9020 -12.8468 -17.6174 21.4021 1.6603 -0.2375
# 5 1.8899 2.8415 9.4440 1.6603 19.3257 -1.1497
# 6 -18.2120 -22.5758 -7.6395 -0.2375 -1.1497 46.3649
#
#
#
# Elastic Compliance Matrix: (Units=1/GPa)
#
#
# Indices 1 2 3 4 5 6 
#
# 1 0.023812 -0.000278 0.002888 0.012548 -0.004203 0.009654
# 2 -0.000278 0.011887 -0.001161 0.006230 -0.001362 0.005485
# 3 0.002888 -0.001161 0.012290 0.011187 -0.006931 0.002480
# 4 0.012548 0.006230 0.011187 0.065986 -0.012694 0.009829
# 5 -0.004203 -0.001362 -0.006931 -0.012694 0.056708 -0.002115
# 6 0.009654 0.005485 0.002480 0.009829 -0.002115 0.028437
#
#
# Mechanical properties :
#
#
# Convention : Reuss Voigt Hill
#
# Bulk Modulus (GPa) = 19.65146 38.41454 29.03300
# Shear Modulus (GPa) = 23.45395 32.38758 27.92076
#
# Velocity S-wave (km/s) = 3.26078 3.83180 3.55777
# Velocity P-wave (km/s) = 4.80477 6.08210 5.48078
#
# Compressibility (1/GPa) = 0.05088681
#
# Stress axis : x y z
#
# Youngs Moduli (GPa) = 41.99592 84.12788 81.36476
#
# Poissons Ratio (x) = 0.02340 -0.23497
# Poissons Ratio (y) = 0.01168 0.09444
# Poissons Ratio (z) = -0.12128 0.09765
#
# Static dielectric constant tensor:
#      x y z
#    x 4.228060 -0.399210 -0.145550 
#    y -0.399210 5.035550 0.058900 
#    z -0.145550 0.058900 3.788260 
# 
# 
# High freq. dielectric constant tensor:
#      x y z
#    x 1.869430 -0.012900 0.002900 
#    y -0.012900 1.874190 -0.001840 
#    z 0.002900 -0.001840 1.868160 
# 
# From -- ./inp_files/52069.got.cif
#   From: 2010.06.25/outbox.cif.g09.slc.cpg/sg2_27_cif.got.tgz:52069.got - 2010.06.27 13:26:56.
