data_PCOD8022335
_publ_section_title
;
Structure prediction by ZEFSAII (Michael W. Deem and Ramdas Pophale) SiO2 
 PCOD8022335
Probable space group: P -1
;
_chemical_formula_sum "Si O2"
_cell_formula_units_Z 16
_cell_length_a 8.834947
_cell_length_b 13.543202
_cell_length_c 8.004573
_cell_angle_alpha 110.852733
_cell_angle_beta 49.824932
_cell_angle_gamma 106.486673
_cell_volume 681.909368
_symmetry_space_group_name_H-M "P -1"
_symmetry_group_IT_number 2
_symmetry_cell_setting 'triclinic'
loop_
_space_group_symop_operation_xyz
x,y,z
-x,-y,-z
loop_
_atom_site_type_symbol
_atom_site_label
_atom_site_fract_x
_atom_site_fract_y
_atom_site_fract_z
Si Si1 0.527948 0.707404 0.158994
Si Si2 0.121478 0.493923 0.655597
Si Si3 0.880213 0.341199 0.503979
Si Si4 0.164759 0.183782 0.234330
Si Si5 0.700038 0.040290 0.978763
Si Si6 0.922498 0.825743 0.325547
Si Si7 0.201002 0.397574 0.859791
Si Si8 0.532448 0.897459 0.517402
O O1 0.303447 0.669330 0.240960
O O2 0.624419 0.615142 0.138888
O O3 0.488484 0.797646 0.373395
O O4 0.645395 0.746789 0.934666
O O5 0.201283 0.601403 0.568831
O O6 0.272126 0.447951 0.657993
O O7 0.065198 0.406715 0.500580
O O8 0.927643 0.518023 0.910890
O O9 0.966707 0.228828 0.320936
O O10 0.144618 0.202493 0.456453
O O11 0.186939 0.061233 0.099463
O O12 0.857283 0.113671 0.800853
O O13 0.627801 0.110370 0.223769
O O14 0.500000 0.000000 0.000000
O O15 0.916998 0.717445 0.157444
O O16 0.761407 0.903095 0.418790
O O17 0.500000 0.000000 0.500000
#
# Coordination Sequence:
#
# PCOD8022335 Si02
#       8
#     2   2   2   2   2   2   2   2
#     4  11  26  43  70 102 138 178 232 281 341 407
#     4  10  22  45  71  97 138 176 230 277 353 406
#     4  11  25  43  71 102 133 184 223 287 343 408
#     4  12  24  44  68  99 141 173 230 279 338 405
#     4  12  27  43  70 102 135 186 232 269 343 418
#     4  11  26  44  70  97 142 183 223 290 335 403
#     4  10  22  46  67 101 136 178 226 288 342 406
#     4  11  25  44  64 101 138 180 234 274 339 412
#
# _framework density 23.463526000000002
#
# number of rings (size 3 to 8) (size 9 to 14) (size 15 to 20)
#    0.000    1.000    5.000    0.375    5.250    1.500 
#    0.000    1.250    0.000    0.000    0.000    0.000 
#    0.000    0.000    0.000    0.000    0.000    0.000 
#
# Total GULP energy -198264.627529 kJ/mol
# GULP energy per Si atom -12391.539221 kJ/mol
# Density = 2.341012 g / cm^3
# Si number density = 23.463526 Si / 1000 Ang^3
#
#
#
# Elastic Constant Matrix: (Units=GPa)
#
#
# Indices 1 2 3 4 5 6 
#
# 1 55.6875 40.6588 35.6107 -16.4800 -1.6981 -15.7890
# 2 40.6588 80.4842 34.8315 -4.3506 -12.5152 -32.4834
# 3 35.6107 34.8315 132.9522 -16.7349 0.9030 -7.3251
# 4 -16.4800 -4.3506 -16.7349 44.1197 -1.7292 3.4768
# 5 -1.6981 -12.5152 0.9030 -1.7292 34.8988 -2.9135
# 6 -15.7890 -32.4834 -7.3251 3.4768 -2.9135 37.0495
#
#
#
# Elastic Compliance Matrix: (Units=1/GPa)
#
#
# Indices 1 2 3 4 5 6 
#
# 1 0.034983 -0.016860 -0.003775 0.009967 -0.003908 -0.001862
# 2 -0.016860 0.033637 -0.003835 -0.005747 0.012986 0.023109
# 3 -0.003775 -0.003835 0.009621 0.002052 -0.001992 -0.003418
# 4 0.009967 -0.005747 0.002052 0.026811 -0.000547 -0.002945
# 5 -0.003908 0.012986 -0.001992 -0.000547 0.034153 0.012063
# 6 -0.001862 0.023109 -0.003418 -0.002945 0.012063 0.047007
#
#
# Mechanical properties :
#
#
# Convention : Reuss Voigt Hill
#
# Bulk Modulus (GPa) = 34.12715 54.59175 44.35945
# Shear Modulus (GPa) = 20.41500 33.74846 27.08173
#
# Velocity S-wave (km/s) = 2.95290 3.79666 3.40105
# Velocity P-wave (km/s) = 5.11884 6.52201 5.86256
#
# Compressibility (1/GPa) = 0.02930218
#
# Stress axis : x y z
#
# Youngs Moduli (GPa) = 28.58519 29.72915 103.94150
#
# Poissons Ratio (x) = 0.50122 0.39234
# Poissons Ratio (y) = 0.48194 0.39862
# Poissons Ratio (z) = 0.10790 0.11401
#
# Static dielectric constant tensor:
#      x y z
#    x 4.393130 -0.450280 -0.118710 
#    y -0.450280 4.090750 0.132330 
#    z -0.118710 0.132330 4.531050 
# 
# 
# High freq. dielectric constant tensor:
#      x y z
#    x 1.915110 -0.030500 0.003930 
#    y -0.030500 1.928760 0.012830 
#    z 0.003930 0.012830 1.937580 
# 
# From -- ./inp_files/208113.got.cif
#   From: 2010.06.25/outbox.cif.g09.slc.cpg/sg2_105_cif.got.tgz:208113.got - 2010.06.27 13:26:56.
