data_PCOD8022201
_publ_section_title
;
Structure prediction by ZEFSAII (Michael W. Deem and Ramdas Pophale) SiO2 
 PCOD8022201
Probable space group: P -1
;
_chemical_formula_sum "Si O2"
_cell_formula_units_Z 14
_cell_length_a 21.552157
_cell_length_b 5.078271
_cell_length_c 5.317036
_cell_angle_alpha 76.903681
_cell_angle_beta 98.984284
_cell_angle_gamma 72.737643
_cell_volume 525.425484
_symmetry_space_group_name_H-M "P -1"
_symmetry_group_IT_number 2
_symmetry_cell_setting 'triclinic'
loop_
_space_group_symop_operation_xyz
x,y,z
-x,-y,-z
loop_
_atom_site_type_symbol
_atom_site_label
_atom_site_fract_x
_atom_site_fract_y
_atom_site_fract_z
Si Si1 0.124977 0.381412 0.260187
Si Si2 0.618673 0.089984 0.192651
Si Si3 0.241712 0.937186 0.674557
Si Si4 0.786935 0.565846 0.077824
Si Si5 0.487298 0.315593 0.311848
Si Si6 0.956567 0.042938 0.712323
Si Si7 0.355800 0.266912 0.215781
O O1 0.095593 0.628675 0.397007
O O2 0.202682 0.181979 0.398086
O O3 0.077198 0.198780 0.241036
O O4 0.139331 0.529502 0.983635
O O5 0.678226 0.212931 0.281591
O O6 0.540875 0.303032 0.121905
O O7 0.627070 0.849498 0.465869
O O8 0.628861 0.971829 0.941950
O O9 0.205209 0.701401 0.672217
O O10 0.229079 0.117112 0.888309
O O11 0.722973 0.544092 0.879212
O O12 0.500000 0.500000 0.500000
O O13 0.407604 0.443703 0.150248
O O14 0.500000 0.000000 0.500000
O O15 0.000000 0.000000 0.500000
O O16 0.000000 0.000000 0.000000
#
# Coordination Sequence:
#
# PCOD8022201 Si02
#       7
#     2   2   2   2   2   2   2
#     4  12  26  50  80 111 154 196 244 302 364 441
#     4  10  22  45  68 104 144 192 249 310 370 438
#     4  11  25  44  73 109 149 196 248 306 369 437
#     4  11  25  44  73 109 149 196 248 306 369 437
#     4  10  23  42  68  96 140 195 247 307 374 432
#     4  12  30  52  82 114 154 197 244 297 362 440
#     4  10  22  45  68 104 144 192 249 310 370 438
#
# _framework density 26.645074000000001
#
# number of rings (size 3 to 8) (size 9 to 14) (size 15 to 20)
#    0.000    1.143    1.429    3.000    6.000    9.143 
#    2.571    6.429    0.000    0.000    0.000    0.000 
#    0.000    0.000    0.000    0.000    0.000    0.000 
#
# Total GULP energy -173455.995907 kJ/mol
# GULP energy per Si atom -12389.713993 kJ/mol
# Density = 2.658443 g / cm^3
# Si number density = 26.645074 Si / 1000 Ang^3
#
#
#
# Elastic Constant Matrix: (Units=GPa)
#
#
# Indices 1 2 3 4 5 6 
#
# 1 173.7881 58.0549 36.7686 7.4112 -43.3334 30.4515
# 2 58.0549 133.3746 12.6361 9.3780 -16.2894 10.9558
# 3 36.7686 12.6361 71.3560 12.6073 -8.7681 -0.5349
# 4 7.4112 9.3780 12.6073 31.4079 2.1985 1.6502
# 5 -43.3334 -16.2894 -8.7681 2.1985 48.6437 -4.4539
# 6 30.4515 10.9558 -0.5349 1.6502 -4.4539 53.4434
#
#
#
# Elastic Compliance Matrix: (Units=1/GPa)
#
#
# Indices 1 2 3 4 5 6 
#
# 1 0.010023 -0.002762 -0.003817 -0.000250 0.006906 -0.004600
# 2 -0.002762 0.008916 0.000310 -0.002175 0.000667 -0.000128
# 3 -0.003817 0.000310 0.017076 -0.006198 0.000290 0.002498
# 4 -0.000250 -0.002175 -0.006198 0.035343 -0.003746 -0.000877
# 5 0.006906 0.000667 0.000290 -0.003746 0.026999 -0.001703
# 6 -0.004600 -0.000128 0.002498 -0.000877 -0.001703 0.021269
#
#
# Mechanical properties :
#
#
# Convention : Reuss Voigt Hill
#
# Bulk Modulus (GPa) = 42.59900 65.93753 54.26827
# Shear Modulus (GPa) = 35.71684 44.76961 40.24322
#
# Velocity S-wave (km/s) = 3.66521 4.10350 3.89053
# Velocity P-wave (km/s) = 5.82529 6.87400 6.37126
#
# Compressibility (1/GPa) = 0.02347473
#
# Stress axis : x y z
#
# Youngs Moduli (GPa) = 99.76888 112.16279 58.56263
#
# Poissons Ratio (x) = 0.30983 0.22355
# Poissons Ratio (y) = 0.27560 -0.01814
# Poissons Ratio (z) = 0.38085 -0.03475
#
# Static dielectric constant tensor:
#      x y z
#    x 5.637930 -0.410060 0.049530 
#    y -0.410060 4.035130 -0.307790 
#    z 0.049530 -0.307790 4.810620 
# 
# 
# High freq. dielectric constant tensor:
#      x y z
#    x 2.105890 0.004660 -0.001950 
#    y 0.004660 2.068750 -0.021560 
#    z -0.001950 -0.021560 2.074830 
# 
# From -- ./inp_files/114005.got.cif
#   From: 2010.06.25/outbox.cif.g09.slc.cpg/sg2_58_cif.got.tgz:114005.got - 2010.06.27 13:26:56.
