data_PCOD8022364
_publ_section_title
;
Structure prediction by ZEFSAII (Michael W. Deem and Ramdas Pophale) SiO2 
 PCOD8022364
Probable space group: P -1
;
_chemical_formula_sum "Si O2"
_cell_formula_units_Z 16
_cell_length_a 9.115786
_cell_length_b 19.027367
_cell_length_c 5.221903
_cell_angle_alpha 106.731120
_cell_angle_beta 56.195712
_cell_angle_gamma 116.623796
_cell_volume 671.906637
_symmetry_space_group_name_H-M "P -1"
_symmetry_group_IT_number 2
_symmetry_cell_setting 'triclinic'
loop_
_space_group_symop_operation_xyz
x,y,z
-x,-y,-z
loop_
_atom_site_type_symbol
_atom_site_label
_atom_site_fract_x
_atom_site_fract_y
_atom_site_fract_z
Si Si1 0.530065 0.209404 0.930957
Si Si2 0.182194 0.483025 0.703409
Si Si3 0.440841 0.431962 0.782762
Si Si4 0.932775 0.115705 0.937891
Si Si5 0.245061 0.757800 0.752545
Si Si6 0.872700 0.807402 0.679266
Si Si7 0.895009 0.660734 0.721440
Si Si8 0.584558 0.976081 0.142840
O O1 0.609612 0.243270 0.612570
O O2 0.461082 0.115791 0.913668
O O3 0.681613 0.251277 0.046868
O O4 0.350339 0.232929 0.187241
O O5 0.287121 0.444646 0.755455
O O6 0.357205 0.564498 0.531594
O O7 0.102533 0.419842 0.487105
O O8 0.000000 0.500000 0.000000
O O9 0.500000 0.500000 0.000000
O O10 0.313954 0.351346 0.966217
O O11 0.035221 0.137241 0.589483
O O12 0.784084 0.159487 0.159683
O O13 0.082662 0.140385 0.050261
O O14 0.812420 0.022429 0.967938
O O15 0.049473 0.683986 0.823783
O O16 0.949027 0.734838 0.550463
O O17 0.500000 0.000000 0.500000
O O18 0.500000 0.000000 0.000000
#
# Coordination Sequence:
#
# PCOD8022364 Si02
#       8
#     2   2   2   2   2   2   2   2
#     4  12  24  44  63 103 132 176 234 294 330 417
#     4  10  22  45  73 102 135 176 230 281 336 417
#     4   9  21  44  67  98 139 171 220 278 342 404
#     4  11  22  42  67  93 131 184 219 286 350 412
#     4  11  23  42  67  95 133 175 235 273 339 411
#     4  11  26  42  65  97 143 171 226 285 351 408
#     4  10  24  43  66  95 134 187 213 279 349 406
#     4  12  22  39  69  95 129 178 233 290 350 393
#
# _framework density 23.812833000000001
#
# number of rings (size 3 to 8) (size 9 to 14) (size 15 to 20)
#    0.000    1.250    2.500    3.000    5.250    3.000 
#    9.000    0.000    0.000    0.000    0.000    0.000 
#    0.000    0.000    0.000    0.000    0.000    0.000 
#
# Total GULP energy -198307.250355 kJ/mol
# GULP energy per Si atom -12394.203147 kJ/mol
# Density = 2.375863 g / cm^3
# Si number density = 23.812833 Si / 1000 Ang^3
#
#
#
# Elastic Constant Matrix: (Units=GPa)
#
#
# Indices 1 2 3 4 5 6 
#
# 1 103.7309 26.6721 44.2677 11.2351 -4.3914 33.0838
# 2 26.6721 90.3727 32.4302 -8.4619 -0.7882 35.2396
# 3 44.2677 32.4302 150.2204 -17.0594 -5.2114 12.9838
# 4 11.2351 -8.4619 -17.0594 34.6665 7.3269 -3.7176
# 5 -4.3914 -0.7882 -5.2114 7.3269 50.0064 -1.5984
# 6 33.0838 35.2396 12.9838 -3.7176 -1.5984 34.1739
#
#
#
# Elastic Compliance Matrix: (Units=1/GPa)
#
#
# Indices 1 2 3 4 5 6 
#
# 1 0.019230 0.003724 -0.005792 -0.010897 0.002058 -0.021345
# 2 0.003724 0.020232 -0.003520 -0.000403 -0.000403 -0.023193
# 3 -0.005792 -0.003520 0.009280 0.006337 -0.000321 0.006386
# 4 -0.010897 -0.000403 0.006337 0.037884 -0.005457 0.012423
# 5 0.002058 -0.000403 -0.000321 -0.005457 0.020904 -0.001070
# 6 -0.021345 -0.023193 0.006386 0.012423 -0.001070 0.072718
#
#
# Mechanical properties :
#
#
# Convention : Reuss Voigt Hill
#
# Bulk Modulus (GPa) = 26.62018 61.22934 43.92476
# Shear Modulus (GPa) = 24.51632 39.83296 32.17464
#
# Velocity S-wave (km/s) = 3.21213 4.09437 3.67978
# Velocity P-wave (km/s) = 4.99602 6.93688 6.04486
#
# Compressibility (1/GPa) = 0.03756549
#
# Stress axis : x y z
#
# Youngs Moduli (GPa) = 52.00301 49.42614 107.75586
#
# Poissons Ratio (x) = -0.18405 0.62411
# Poissons Ratio (y) = -0.19365 0.37933
# Poissons Ratio (z) = 0.30119 0.17399
#
# Static dielectric constant tensor:
#      x y z
#    x 4.585030 0.488600 -0.090820 
#    y 0.488600 4.376380 -0.425910 
#    z -0.090820 -0.425910 4.570630 
# 
# 
# High freq. dielectric constant tensor:
#      x y z
#    x 1.941960 0.032040 0.009540 
#    y 0.032040 1.936670 -0.019010 
#    z 0.009540 -0.019010 1.954610 
# 
# From -- ./inp_files/51619.got.cif
#   From: 2010.06.25/outbox.cif.g09.slc.cpg/sg2_26_cif.got.tgz:51619.got - 2010.06.27 13:26:56.
