data_PCOD8022186
_publ_section_title
;
Structure prediction by ZEFSAII (Michael W. Deem and Ramdas Pophale) SiO2 
 PCOD8022186
Probable space group: P -1
;
_chemical_formula_sum "Si O2"
_cell_formula_units_Z 16
_cell_length_a 11.737435
_cell_length_b 7.040494
_cell_length_c 9.714990
_cell_angle_alpha 96.073680
_cell_angle_beta 79.559120
_cell_angle_gamma 62.241021
_cell_volume 681.772543
_symmetry_space_group_name_H-M "P -1"
_symmetry_group_IT_number 2
_symmetry_cell_setting 'triclinic'
loop_
_space_group_symop_operation_xyz
x,y,z
-x,-y,-z
loop_
_atom_site_type_symbol
_atom_site_label
_atom_site_fract_x
_atom_site_fract_y
_atom_site_fract_z
Si Si1 0.394418 0.253537 0.011123
Si Si2 0.656170 0.523885 0.237056
Si Si3 0.363693 0.192682 0.489571
Si Si4 0.982146 0.052252 0.713126
Si Si5 0.089820 0.509871 0.145379
Si Si6 0.421006 0.458233 0.284427
Si Si7 0.206877 0.940955 0.459793
Si Si8 0.952033 0.267574 0.101820
O O1 0.239352 0.313497 0.063130
O O2 0.414517 0.419416 0.119883
O O3 0.422914 0.294933 0.851125
O O4 0.500000 0.000000 0.000000
O O5 0.691977 0.620144 0.368809
O O6 0.569431 0.409198 0.287706
O O7 0.796761 0.344277 0.133183
O O8 0.389433 0.284058 0.350140
O O9 0.500000 0.000000 0.500000
O O10 0.258690 0.113074 0.476527
O O11 0.135700 0.934155 0.617613
O O12 0.977423 0.979681 0.868617
O O13 0.910724 0.318655 0.728667
O O14 0.902450 0.967665 0.630203
O O15 0.998761 0.405031 0.202768
O O16 0.007998 0.687445 0.053810
O O17 0.325164 0.703263 0.376066
#
# Coordination Sequence:
#
# PCOD8022186 Si02
#       8
#     2   2   2   2   2   2   2   2
#     4  11  25  46  72 104 136 184 229 285 348 407
#     4  11  24  46  67 104 140 182 233 281 342 412
#     4  12  25  42  69  99 139 180 227 281 342 407
#     4  11  23  43  69  99 135 181 224 280 336 411
#     4  10  22  45  67  99 138 174 228 282 334 414
#     4  12  25  46  70  99 144 178 228 289 339 406
#     4  11  26  42  70 103 135 180 230 274 347 407
#     4  10  23  41  68  97 135 180 225 278 341 398
#
# _framework density 23.468237999999999
#
# number of rings (size 3 to 8) (size 9 to 14) (size 15 to 20)
#    0.000    1.000    2.500    3.375    3.500    0.000 
#   11.250    3.125    0.000    0.000    0.000    0.000 
#    0.000    0.000    0.000    0.000    0.000    0.000 
#
# Total GULP energy -198346.179765 kJ/mol
# GULP energy per Si atom -12396.636235 kJ/mol
# Density = 2.341482 g / cm^3
# Si number density = 23.468238 Si / 1000 Ang^3
#
#
#
# Elastic Constant Matrix: (Units=GPa)
#
#
# Indices 1 2 3 4 5 6 
#
# 1 149.7006 43.1281 15.9993 -3.1666 -13.5934 27.9110
# 2 43.1281 94.6551 8.5927 -5.1993 -4.4511 9.1082
# 3 15.9993 8.5927 54.2149 -4.1181 -6.2539 -0.4465
# 4 -3.1666 -5.1993 -4.1181 36.0820 0.7720 1.5736
# 5 -13.5934 -4.4511 -6.2539 0.7720 31.8708 1.4303
# 6 27.9110 9.1082 -0.4465 1.5736 1.4303 37.7803
#
#
#
# Elastic Compliance Matrix: (Units=1/GPa)
#
#
# Indices 1 2 3 4 5 6 
#
# 1 0.009310 -0.003293 -0.001857 0.000330 0.003419 -0.006249
# 2 -0.003293 0.012285 -0.000858 0.001407 0.000136 -0.000603
# 3 -0.001857 -0.000858 0.019606 0.001820 0.002818 0.001628
# 4 0.000330 0.001407 0.001820 0.028228 0.000089 -0.001740
# 5 0.003419 0.000136 0.002818 0.000089 0.033575 -0.003800
# 6 -0.006249 -0.000603 0.001628 -0.001740 -0.003800 0.031466
#
#
# Mechanical properties :
#
#
# Convention : Reuss Voigt Hill
#
# Bulk Modulus (GPa) = 34.26549 48.22341 41.24445
# Shear Modulus (GPa) = 32.00736 36.53665 34.27200
#
# Velocity S-wave (km/s) = 3.69705 3.94998 3.82561
# Velocity P-wave (km/s) = 5.73208 6.43398 6.09315
#
# Compressibility (1/GPa) = 0.02918388
#
# Stress axis : x y z
#
# Youngs Moduli (GPa) = 107.41440 81.40278 51.00503
#
# Poissons Ratio (x) = 0.26806 0.09474
# Poissons Ratio (y) = 0.35372 0.04375
# Poissons Ratio (z) = 0.19952 0.06982
#
# Static dielectric constant tensor:
#      x y z
#    x 5.206470 0.484420 1.185430 
#    y 0.484420 4.217680 0.280240 
#    z 1.185430 0.280240 5.640400 
# 
# 
# High freq. dielectric constant tensor:
#      x y z
#    x 1.942480 0.009390 0.007310 
#    y 0.009390 1.923200 0.002300 
#    z 0.007310 0.002300 1.926760 
# 
# From -- ./inp_files/410477.got.cif
#   From: 2010.06.25/outbox.cif.g09.slc.cpg/sg2_206_cif.got.tgz:410477.got - 2010.06.27 13:26:56.
