data_PCOD8022668
_publ_section_title
;
Structure prediction by ZEFSAII (Michael W. Deem and Ramdas Pophale) SiO2 
 PCOD8022668
Probable space group: P -1
;
_chemical_formula_sum "Si O2"
_cell_formula_units_Z 14
_cell_length_a 9.880926
_cell_length_b 12.232352
_cell_length_c 8.842980
_cell_angle_alpha 103.322810
_cell_angle_beta 117.756274
_cell_angle_gamma 45.603367
_cell_volume 668.082966
_symmetry_space_group_name_H-M "P -1"
_symmetry_group_IT_number 2
_symmetry_cell_setting 'triclinic'
loop_
_space_group_symop_operation_xyz
x,y,z
-x,-y,-z
loop_
_atom_site_type_symbol
_atom_site_label
_atom_site_fract_x
_atom_site_fract_y
_atom_site_fract_z
Si Si1 0.230031 0.278259 0.015687
Si Si2 0.357033 0.848746 0.905212
Si Si3 0.429838 0.632573 0.115434
Si Si4 0.147242 0.586505 0.583289
Si Si5 0.046322 0.801167 0.174810
Si Si6 0.035233 0.454790 0.253391
Si Si7 0.156314 0.817983 0.547102
O O1 0.474001 0.139462 0.047229
O O2 0.224620 0.308819 0.202564
O O3 0.083326 0.247676 0.889183
O O4 0.152155 0.425484 0.924993
O O5 0.351549 0.765509 0.731397
O O6 0.426799 0.751796 0.063515
O O7 0.126609 0.013886 0.870464
O O8 0.600401 0.552552 0.312745
O O9 0.195815 0.722795 0.082202
O O10 0.500000 0.500000 0.000000
O O11 0.094060 0.539623 0.394923
O O12 0.066197 0.755304 0.571493
O O13 0.030842 0.605357 0.680027
O O14 0.203416 0.745919 0.381004
O O15 0.000000 0.000000 0.500000
#
# Coordination Sequence:
#
# PCOD8022668 Si02
#       7
#     2   2   2   2   2   2   2
#     4  11  22  41  65  94 128 172 223 257 326 382
#     4  11  24  43  65  94 134 170 219 262 327 390
#     4  12  24  39  67  98 124 168 218 271 322 380
#     4  11  21  41  64  95 136 164 217 270 327 377
#     4  11  25  43  65  93 134 173 212 269 325 385
#     4  10  23  37  65  98 129 170 213 279 316 381
#     4  10  23  41  65  92 132 172 212 262 325 385
#
# _framework density 20.955480999999999
#
# number of rings (size 3 to 8) (size 9 to 14) (size 15 to 20)
#    0.000    1.143    4.286    1.714    4.000    0.571 
#    0.000    0.000    0.000    2.571    0.000    0.000 
#    0.000    0.000    0.000    0.000    0.000    0.000 
#
# Total GULP energy -173504.086527 kJ/mol
# GULP energy per Si atom -12393.149038 kJ/mol
# Density = 2.090779 g / cm^3
# Si number density = 20.955481 Si / 1000 Ang^3
#
#
#
# Elastic Constant Matrix: (Units=GPa)
#
#
# Indices 1 2 3 4 5 6 
#
# 1 139.1308 59.9828 45.9965 4.9305 0.2183 -5.1065
# 2 59.9828 88.6780 36.8642 0.0664 -11.1372 5.0395
# 3 45.9965 36.8642 100.9078 7.5218 -9.1570 0.8052
# 4 4.9305 0.0664 7.5218 30.6972 2.3869 -4.4673
# 5 0.2183 -11.1372 -9.1570 2.3869 26.5646 -0.6841
# 6 -5.1065 5.0395 0.8052 -4.4673 -0.6841 44.8664
#
#
#
# Elastic Compliance Matrix: (Units=1/GPa)
#
#
# Indices 1 2 3 4 5 6 
#
# 1 0.011277 -0.007028 -0.002911 -0.000482 -0.003947 0.002017
# 2 -0.007028 0.018205 -0.002901 0.000913 0.006541 -0.002602
# 3 -0.002911 -0.002901 0.012843 -0.003015 0.003493 -0.000483
# 4 -0.000482 0.000913 -0.003015 0.034145 -0.003637 0.003241
# 5 -0.003947 0.006541 0.003493 -0.003637 0.041925 -0.000970
# 6 0.002017 -0.002602 -0.000483 0.003241 -0.000970 0.023127
#
#
# Mechanical properties :
#
#
# Convention : Reuss Voigt Hill
#
# Bulk Modulus (GPa) = 60.08018 68.26709 64.17363
# Shear Modulus (GPa) = 28.94363 32.81718 30.88040
#
# Velocity S-wave (km/s) = 3.72048 3.96162 3.84294
# Velocity P-wave (km/s) = 6.86939 7.31941 7.09797
#
# Compressibility (1/GPa) = 0.01664442
#
# Stress axis : x y z
#
# Youngs Moduli (GPa) = 88.67529 54.92981 77.86645
#
# Poissons Ratio (x) = 0.38603 0.22670
# Poissons Ratio (y) = 0.62318 0.22590
# Poissons Ratio (z) = 0.25817 0.15935
#
# Static dielectric constant tensor:
#      x y z
#    x 3.797840 0.060370 0.086010 
#    y 0.060370 3.743510 -0.123480 
#    z 0.086010 -0.123480 4.292490 
# 
# 
# High freq. dielectric constant tensor:
#      x y z
#    x 1.820290 0.015760 -0.002440 
#    y 0.015760 1.806060 0.001740 
#    z -0.002440 0.001740 1.835210 
# 
# From -- ./inp_files/154658.got.cif
#   From: 2010.06.25/outbox.cif.g09.slc.cpg/sg2_78_cif.got.tgz:154658.got - 2010.06.27 13:26:56.
