data_PCOD8022440
_publ_section_title
;
Structure prediction by ZEFSAII (Michael W. Deem and Ramdas Pophale) SiO2 
 PCOD8022440
Probable space group: P -1
;
_chemical_formula_sum "Si O2"
_cell_formula_units_Z 16
_cell_length_a 16.491988
_cell_length_b 16.140814
_cell_length_c 9.287577
_cell_angle_alpha 78.405789
_cell_angle_beta 96.421233
_cell_angle_gamma 25.571889
_cell_volume 753.403924
_symmetry_space_group_name_H-M "P -1"
_symmetry_group_IT_number 2
_symmetry_cell_setting 'triclinic'
loop_
_space_group_symop_operation_xyz
x,y,z
-x,-y,-z
loop_
_atom_site_type_symbol
_atom_site_label
_atom_site_fract_x
_atom_site_fract_y
_atom_site_fract_z
Si Si1 0.083422 0.103559 0.860265
Si Si2 0.020722 0.309543 0.268572
Si Si3 0.019508 0.154605 0.494900
Si Si4 0.052906 0.290449 0.963055
Si Si5 0.678835 0.800587 0.976810
Si Si6 0.526950 0.885217 0.622245
Si Si7 0.488725 0.591479 0.278462
Si Si8 0.512129 0.601813 0.607605
O O1 0.102442 0.090506 0.697252
O O2 0.787881 0.378591 0.761743
O O3 0.184188 0.093898 0.950036
O O4 0.280055 0.837273 0.043030
O O5 0.010448 0.287124 0.109749
O O6 0.892591 0.363965 0.325183
O O7 0.894383 0.526358 0.182462
O O8 0.312097 0.029934 0.483328
O O9 0.788380 0.313198 0.387619
O O10 0.275983 0.875341 0.554441
O O11 0.212119 0.218945 0.057339
O O12 0.790945 0.579616 0.733457
O O13 0.521876 0.905661 0.785816
O O14 0.500000 0.000000 0.000000
O O15 0.500000 0.000000 0.500000
O O16 0.435370 0.679293 0.397202
O O17 0.443442 0.536502 0.279794
#
# Coordination Sequence:
#
# PCOD8022440 Si02
#       8
#     2   2   2   2   2   2   2   2
#     4  11  25  40  64  99 128 165 213 262 313 376
#     4  11  23  42  62  86 123 165 209 255 313 368
#     4  11  25  40  64  99 128 165 214 260 314 377
#     4  11  23  41  61  87 123 164 209 257 310 369
#     4  11  25  38  59  91 122 161 208 258 309 366
#     4  11  20  41  63  82 112 165 214 250 308 366
#     4  10  23  43  70  94 131 165 209 258 315 385
#     4  10  22  46  67  96 128 170 206 255 322 379
#
# _framework density 21.236946
#
# number of rings (size 3 to 8) (size 9 to 14) (size 15 to 20)
#    0.000    1.250    2.500    3.000    3.500    6.000 
#    0.000    0.000    0.000    0.000    0.000    0.000 
#    0.000    0.000    0.000    0.000    0.000    0.000 
#
# Total GULP energy -198396.567035 kJ/mol
# GULP energy per Si atom -12399.785440 kJ/mol
# Density = 2.118861 g / cm^3
# Si number density = 21.236946 Si / 1000 Ang^3
#
#
#
# Elastic Constant Matrix: (Units=GPa)
#
#
# Indices 1 2 3 4 5 6 
#
# 1 81.7785 25.0793 32.7102 6.3971 -14.2273 9.1415
# 2 25.0793 122.8766 37.8791 2.9350 -5.2622 -3.1447
# 3 32.7102 37.8791 119.1742 5.0118 -18.1323 -0.5879
# 4 6.3971 2.9350 5.0118 23.4490 -5.8661 1.5016
# 5 -14.2273 -5.2622 -18.1323 -5.8661 36.5211 1.1963
# 6 9.1415 -3.1447 -0.5879 1.5016 1.1963 27.2382
#
#
#
# Elastic Compliance Matrix: (Units=1/GPa)
#
#
# Indices 1 2 3 4 5 6 
#
# 1 0.015566 -0.002207 -0.002880 -0.001947 0.004187 -0.005618
# 2 -0.002207 0.009372 -0.002479 -0.000373 -0.000860 0.001828
# 3 -0.002880 -0.002479 0.010546 -0.000285 0.003686 0.000762
# 4 -0.001947 -0.000373 -0.000285 0.045010 0.006347 -0.002156
# 5 0.004187 -0.000860 0.003686 0.006347 0.031842 -0.003173
# 6 -0.005618 0.001828 0.000762 -0.002156 -0.003173 0.039084
#
#
# Mechanical properties :
#
#
# Convention : Reuss Voigt Hill
#
# Bulk Modulus (GPa) = 49.13596 57.24073 53.18835
# Shear Modulus (GPa) = 28.84572 32.65236 30.74904
#
# Velocity S-wave (km/s) = 3.68948 3.92538 3.80926
# Velocity P-wave (km/s) = 6.42938 6.89614 6.66685
#
# Compressibility (1/GPa) = 0.02035169
#
# Stress axis : x y z
#
# Youngs Moduli (GPa) = 64.24425 106.70262 94.82250
#
# Poissons Ratio (x) = 0.23552 0.27304
# Poissons Ratio (y) = 0.14180 0.23508
# Poissons Ratio (z) = 0.18499 0.26453
#
# Static dielectric constant tensor:
#      x y z
#    x -60.274250 -23.947850 24.984150 
#    y -23.947850 -5.271550 9.313900 
#    z 24.984150 9.313900 -5.747820 
# 
# 
# High freq. dielectric constant tensor:
#      x y z
#    x 1.841390 0.003000 -0.007490 
#    y 0.003000 1.825480 -0.000690 
#    z -0.007490 -0.000690 1.844470 
# 
# From -- ./inp_files/53557.got.cif
#   From: 2010.06.25/outbox.cif.g09.slc.cpg/sg2_27_cif.got.tgz:53557.got - 2010.06.27 13:26:56.
