data_PCOD8022957
_publ_section_title
;
Structure prediction by ZEFSAII (Michael W. Deem and Ramdas Pophale) SiO2 
 PCOD8022957
Probable space group: P -1
;
_chemical_formula_sum "Si O2"
_cell_formula_units_Z 16
_cell_length_a 11.301307
_cell_length_b 13.958668
_cell_length_c 14.167697
_cell_angle_alpha 32.715244
_cell_angle_beta 42.105289
_cell_angle_gamma 61.654224
_cell_volume 737.841096
_symmetry_space_group_name_H-M "P -1"
_symmetry_group_IT_number 2
_symmetry_cell_setting 'triclinic'
loop_
_space_group_symop_operation_xyz
x,y,z
-x,-y,-z
loop_
_atom_site_type_symbol
_atom_site_label
_atom_site_fract_x
_atom_site_fract_y
_atom_site_fract_z
Si Si1 0.445459 0.210869 0.799737
Si Si2 0.666632 0.185196 0.870759
Si Si3 0.310528 0.505278 0.715438
Si Si4 0.239934 0.115858 0.529219
Si Si5 0.911731 0.329879 0.035384
Si Si6 0.541870 0.379072 0.267894
Si Si7 0.937894 0.586394 0.632917
Si Si8 0.531155 0.291858 0.048826
O O1 0.516196 0.184680 0.881903
O O2 0.332247 0.346395 0.765068
O O3 0.625099 0.300582 0.546138
O O4 0.299659 0.009710 0.004935
O O5 0.552065 0.171630 0.047000
O O6 0.877562 0.364307 0.587173
O O7 0.451532 0.554393 0.682598
O O8 0.078914 0.411554 0.949874
O O9 0.339571 0.205604 0.497434
O O10 0.102412 0.219627 0.489123
O O11 0.117720 0.884936 0.805031
O O12 0.411929 0.153792 0.318994
O O13 0.711509 0.308187 0.216382
O O14 0.983902 0.496787 0.774655
O O15 0.576480 0.567216 0.027326
O O16 0.751249 0.416902 0.841598
#
# Coordination Sequence:
#
# PCOD8022957 Si02
#       8
#     2   2   2   2   2   2   2   2
#     4  10  23  40  63  85 129 173 208 264 320 387
#     4  11  22  41  64  93 124 170 216 259 323 380
#     4  11  23  42  62  93 130 166 217 265 321 378
#     4  11  24  42  68  96 134 165 215 266 319 384
#     4  12  23  40  67  95 129 171 211 268 320 375
#     4  11  22  42  64  94 127 173 208 262 325 381
#     4  11  22  42  65  95 130 165 214 269 316 376
#     4  11  22  42  66  94 130 171 207 266 322 384
#
# _framework density 21.684885999999999
#
# number of rings (size 3 to 8) (size 9 to 14) (size 15 to 20)
#    0.000    1.000    5.000    2.625    1.750    0.000 
#    0.000    0.625    0.000    6.000    0.000    0.000 
#    0.000    0.000    0.000    0.000    0.000    0.000 
#
# Total GULP energy -198284.354649 kJ/mol
# GULP energy per Si atom -12392.772166 kJ/mol
# Density = 2.163553 g / cm^3
# Si number density = 21.684886 Si / 1000 Ang^3
#
#
#
# Elastic Constant Matrix: (Units=GPa)
#
#
# Indices 1 2 3 4 5 6 
#
# 1 82.8687 17.1485 32.2029 -13.0464 -7.6384 11.9693
# 2 17.1485 53.4424 27.7167 -10.3841 0.0389 3.0788
# 3 32.2029 27.7167 79.4481 -10.5646 -8.2753 0.3212
# 4 -13.0464 -10.3841 -10.5646 21.2369 -4.8031 1.3236
# 5 -7.6384 0.0389 -8.2753 -4.8031 22.8836 -1.0075
# 6 11.9693 3.0788 0.3212 1.3236 -1.0075 29.3889
#
#
#
# Elastic Compliance Matrix: (Units=1/GPa)
#
#
# Indices 1 2 3 4 5 6 
#
# 1 0.017126 -0.000761 -0.004796 0.009484 0.005662 -0.007076
# 2 -0.000761 0.024388 -0.007324 0.007645 -0.001452 -0.002559
# 3 -0.004796 -0.007324 0.018177 0.003683 0.005870 0.002557
# 4 0.009484 0.007645 0.003683 0.062845 0.017370 -0.006939
# 5 0.005662 -0.001452 0.005870 0.017370 0.051306 -0.001242
# 6 -0.007076 -0.002559 0.002557 -0.006939 -0.001242 0.037418
#
#
# Mechanical properties :
#
#
# Convention : Reuss Voigt Hill
#
# Bulk Modulus (GPa) = 29.47471 41.09948 35.28709
# Shear Modulus (GPa) = 20.13423 23.94796 22.04109
#
# Velocity S-wave (km/s) = 3.05042 3.32680 3.19160
# Velocity P-wave (km/s) = 5.10182 5.80956 5.46715
#
# Compressibility (1/GPa) = 0.03392740
#
# Stress axis : x y z
#
# Youngs Moduli (GPa) = 58.39135 41.00317 55.01478
#
# Poissons Ratio (x) = 0.03122 0.26388
# Poissons Ratio (y) = 0.04446 0.40293
# Poissons Ratio (z) = 0.28007 0.30031
#
# Static dielectric constant tensor:
#      x y z
#    x 3.932050 0.000910 0.030410 
#    y 0.000910 3.940000 -0.202000 
#    z 0.030410 -0.202000 3.951260 
# 
# 
# High freq. dielectric constant tensor:
#      x y z
#    x 1.851250 -0.006700 -0.004050 
#    y -0.006700 1.848610 -0.009300 
#    z -0.004050 -0.009300 1.845290 
# 
# From -- ./inp_files/260377.got.cif
#   From: 2010.06.25/outbox.cif.g09.slc.cpg/sg2_131_cif.got.tgz:260377.got - 2010.06.27 13:26:56.
