data_PCOD8022821
_publ_section_title
;
Structure prediction by ZEFSAII (Michael W. Deem and Ramdas Pophale) SiO2 
 PCOD8022821
Probable space group: P -1
;
_chemical_formula_sum "Si O2"
_cell_formula_units_Z 16
_cell_length_a 9.193032
_cell_length_b 16.131707
_cell_length_c 9.287890
_cell_angle_alpha 116.745455
_cell_angle_beta 96.849026
_cell_angle_gamma 130.710488
_cell_volume 738.968974
_symmetry_space_group_name_H-M "P -1"
_symmetry_group_IT_number 2
_symmetry_cell_setting 'triclinic'
loop_
_space_group_symop_operation_xyz
x,y,z
-x,-y,-z
loop_
_atom_site_type_symbol
_atom_site_label
_atom_site_fract_x
_atom_site_fract_y
_atom_site_fract_z
Si Si1 0.469680 0.599490 0.153555
Si Si2 0.812000 0.710797 0.056877
Si Si3 0.396544 0.187447 0.445887
Si Si4 0.635971 0.043275 0.694493
Si Si5 0.114672 0.064760 0.908265
Si Si6 0.207210 0.656552 0.563365
Si Si7 0.897353 0.486539 0.126995
Si Si8 0.580087 0.175580 0.007747
O O1 0.731642 0.708098 0.202529
O O2 0.479341 0.700657 0.317740
O O3 0.371939 0.466964 0.141376
O O4 0.285923 0.521983 0.937295
O O5 0.793901 0.783983 0.993878
O O6 0.077536 0.801711 0.172291
O O7 0.558461 0.292730 0.404164
O O8 0.431685 0.095107 0.383986
O O9 0.116612 0.075685 0.329151
O O10 0.500000 0.000000 0.500000
O O11 0.549926 0.063882 0.833283
O O12 0.317815 0.091490 0.923329
O O13 0.000000 0.000000 0.000000
O O14 0.307678 0.785870 0.787960
O O15 0.000000 0.500000 0.500000
O O16 0.097975 0.631658 0.374520
O O17 0.759958 0.332338 0.064714
O O18 0.000000 0.500000 0.000000
#
# Coordination Sequence:
#
# PCOD8022821 Si02
#       8
#     2   2   2   2   2   2   2   2
#     4  11  22  42  71  98 137 174 225 294 346 399
#     4  10  25  43  67  99 137 173 230 286 343 408
#     4  11  24  42  69  99 133 180 231 275 346 400
#     4  11  26  41  66 104 135 176 230 281 340 408
#     4  11  23  45  69  93 138 189 225 270 338 423
#     4  10  23  39  64 103 132 177 222 280 342 408
#     4  11  20  37  72 100 130 175 224 284 345 400
#     4  11  23  44  68  96 142 183 223 283 344 403
#
# _framework density 21.651789000000001
#
# number of rings (size 3 to 8) (size 9 to 14) (size 15 to 20)
#    0.000    1.250    3.750    1.500    5.250    1.500 
#    0.000    0.625    0.000    0.000    0.000    0.000 
#    0.000    0.000    0.000    0.000    0.000    0.000 
#
# Total GULP energy -198225.987269 kJ/mol
# GULP energy per Si atom -12389.124204 kJ/mol
# Density = 2.160251 g / cm^3
# Si number density = 21.651789 Si / 1000 Ang^3
#
#
#
# Elastic Constant Matrix: (Units=GPa)
#
#
# Indices 1 2 3 4 5 6 
#
# 1 149.6783 55.2925 80.1990 0.8288 -10.8656 17.3851
# 2 55.2925 124.1297 47.1884 3.2439 -2.0140 10.5350
# 3 80.1990 47.1884 161.7166 -13.2097 -18.5786 2.6017
# 4 0.8288 3.2439 -13.2097 28.6895 2.7061 -1.6538
# 5 -10.8656 -2.0140 -18.5786 2.7061 33.7363 4.1258
# 6 17.3851 10.5350 2.6017 -1.6538 4.1258 36.9431
#
#
#
# Elastic Compliance Matrix: (Units=1/GPa)
#
#
# Indices 1 2 3 4 5 6 
#
# 1 0.010661 -0.002593 -0.004489 -0.002470 0.001524 -0.004242
# 2 -0.002593 0.010098 -0.001903 -0.001941 -0.000940 -0.001507
# 3 -0.004489 -0.001903 0.009677 0.004606 0.003177 0.001825
# 4 -0.002470 -0.001941 0.004606 0.037626 -0.001794 0.003276
# 5 0.001524 -0.000940 0.003177 -0.001794 0.032506 -0.004383
# 6 -0.004242 -0.001507 0.001825 0.003276 -0.004383 0.030002
#
#
# Mechanical properties :
#
#
# Convention : Reuss Voigt Hill
#
# Bulk Modulus (GPa) = 80.21690 88.98713 84.60202
# Shear Modulus (GPa) = 32.74499 36.73010 34.73754
#
# Velocity S-wave (km/s) = 3.89311 4.12321 4.00981
# Velocity P-wave (km/s) = 7.57215 7.99101 7.78440
#
# Compressibility (1/GPa) = 0.01246620
#
# Stress axis : x y z
#
# Youngs Moduli (GPa) = 93.79873 99.02984 103.33858
#
# Poissons Ratio (x) = 0.25680 0.46387
# Poissons Ratio (y) = 0.24323 0.19664
# Poissons Ratio (z) = 0.42105 0.18844
#
# Static dielectric constant tensor:
#      x y z
#    x 4.000530 0.330520 0.239470 
#    y 0.330520 4.279280 0.056090 
#    z 0.239470 0.056090 4.323470 
# 
# 
# High freq. dielectric constant tensor:
#      x y z
#    x 1.848740 0.028720 0.007130 
#    y 0.028720 1.862870 0.007950 
#    z 0.007130 0.007950 1.846500 
# 
# From -- ./inp_files/208431.got.cif
#   From: 2010.06.25/outbox.cif.g09.slc.cpg/sg2_105_cif.got.tgz:208431.got - 2010.06.27 13:26:56.
