data_PCOD8022465
_publ_section_title
;
Structure prediction by ZEFSAII (Michael W. Deem and Ramdas Pophale) SiO2 
 PCOD8022465
Probable space group: P -1
;
_chemical_formula_sum "Si O2"
_cell_formula_units_Z 14
_cell_length_a 19.514378
_cell_length_b 17.572116
_cell_length_c 15.368984
_cell_angle_alpha 21.840063
_cell_angle_beta 22.427031
_cell_angle_gamma 21.465577
_cell_volume 642.657711
_symmetry_space_group_name_H-M "P -1"
_symmetry_group_IT_number 2
_symmetry_cell_setting 'triclinic'
loop_
_space_group_symop_operation_xyz
x,y,z
-x,-y,-z
loop_
_atom_site_type_symbol
_atom_site_label
_atom_site_fract_x
_atom_site_fract_y
_atom_site_fract_z
Si Si1 0.337792 0.635931 0.296372
Si Si2 0.550637 0.369790 0.487340
Si Si3 0.526990 0.623643 0.753953
Si Si4 0.145356 0.113983 0.709670
Si Si5 0.049775 0.422950 0.661728
Si Si6 0.985540 0.837980 0.865492
Si Si7 0.177392 0.366672 0.862702
O O1 0.485954 0.576366 0.270600
O O2 0.498794 0.497389 0.174545
O O3 0.174361 0.546339 0.602587
O O4 0.191232 0.912433 0.151776
O O5 0.500000 0.500000 0.500000
O O6 0.407970 0.247517 0.766362
O O7 0.798212 0.172795 0.402426
O O8 0.757059 0.571757 0.531213
O O9 0.375943 0.905597 0.636407
O O10 0.500000 0.500000 0.000000
O O11 0.127248 0.219256 0.714328
O O12 0.101533 0.315143 0.476953
O O13 0.000000 0.000000 0.000000
O O14 0.946439 0.363470 0.926460
O O15 0.875007 0.812056 0.936197
O O16 0.000000 0.500000 0.000000
#
# Coordination Sequence:
#
# PCOD8022465 Si02
#       7
#     2   2   2   2   2   2   2
#     4  10  26  43  66 106 135 177 235 283 332 419
#     4  10  23  43  70 101 134 180 220 284 353 397
#     4  12  23  44  69  95 141 180 221 282 340 397
#     4  11  25  42  66  97 137 170 234 281 322 411
#     4  11  25  42  67 100 125 190 221 271 352 393
#     4  12  23  46  70  96 145 175 227 285 341 412
#     4  10  22  46  69 101 135 172 233 277 342 423
#
# _framework density 21.784535999999999
#
# number of rings (size 3 to 8) (size 9 to 14) (size 15 to 20)
#    0.857    0.286    4.286    1.286    2.000    3.429 
#    2.571    1.429    0.000    0.000    0.000    0.000 
#    0.000    0.000    0.000    0.000    0.000    0.000 
#
# Total GULP energy -173472.831648 kJ/mol
# GULP energy per Si atom -12390.916546 kJ/mol
# Density = 2.173495 g / cm^3
# Si number density = 21.784536 Si / 1000 Ang^3
#
#
#
# Elastic Constant Matrix: (Units=GPa)
#
#
# Indices 1 2 3 4 5 6 
#
# 1 137.2025 58.0359 28.8735 -1.4664 -5.2843 15.2766
# 2 58.0359 141.6092 27.2860 -6.8541 0.6973 8.3694
# 3 28.8735 27.2860 64.9605 8.3844 -10.6771 3.4960
# 4 -1.4664 -6.8541 8.3844 34.3865 -3.2268 -2.3265
# 5 -5.2843 0.6973 -10.6771 -3.2268 38.3474 8.0986
# 6 15.2766 8.3694 3.4960 -2.3265 8.0986 33.6551
#
#
#
# Elastic Compliance Matrix: (Units=1/GPa)
#
#
# Indices 1 2 3 4 5 6 
#
# 1 0.009662 -0.003252 -0.002523 0.000271 0.001482 -0.003653
# 2 -0.003252 0.009060 -0.002847 0.002245 -0.001209 -0.000035
# 3 -0.002523 -0.002847 0.019274 -0.005020 0.005007 -0.001701
# 4 0.000271 0.002245 -0.005020 0.030962 0.000828 0.001781
# 5 0.001482 -0.001209 0.005007 0.000828 0.029440 -0.007919
# 6 -0.003653 -0.000035 -0.001701 0.001781 -0.007919 0.033585
#
#
# Mechanical properties :
#
#
# Convention : Reuss Voigt Hill
#
# Bulk Modulus (GPa) = 48.18959 63.57367 55.88163
# Shear Modulus (GPa) = 32.02185 36.58293 34.30239
#
# Velocity S-wave (km/s) = 3.83813 4.10238 3.97245
# Velocity P-wave (km/s) = 6.46612 7.18927 6.83726
#
# Compressibility (1/GPa) = 0.02075137
#
# Stress axis : x y z
#
# Youngs Moduli (GPa) = 103.50169 110.38035 51.88424
#
# Poissons Ratio (x) = 0.35893 0.13092
# Poissons Ratio (y) = 0.33656 0.14770
# Poissons Ratio (z) = 0.26117 0.31422
#
# Static dielectric constant tensor:
#      x y z
#    x 4.225440 0.406600 -0.095830 
#    y 0.406600 5.123430 0.206410 
#    z -0.095830 0.206410 3.904360 
# 
# 
# High freq. dielectric constant tensor:
#      x y z
#    x 1.871730 0.009450 -0.003980 
#    y 0.009450 1.847460 0.011940 
#    z -0.003980 0.011940 1.848230 
# 
# From -- ./inp_files/578389.got.cif
#   From: 2010.06.25/outbox.cif.g09.slc.cpg/sg2_290_cif.got.tgz:578389.got - 2010.06.27 13:26:56.
