data_PCOD8022239
_publ_section_title
;
Structure prediction by ZEFSAII (Michael W. Deem and Ramdas Pophale) SiO2 
 PCOD8022239
Probable space group: P -1
;
_chemical_formula_sum "Si O2"
_cell_formula_units_Z 14
_cell_length_a 15.155957
_cell_length_b 8.134348
_cell_length_c 6.093600
_cell_angle_alpha 95.198441
_cell_angle_beta 54.754253
_cell_angle_gamma 110.747615
_cell_volume 567.332257
_symmetry_space_group_name_H-M "P -1"
_symmetry_group_IT_number 2
_symmetry_cell_setting 'triclinic'
loop_
_space_group_symop_operation_xyz
x,y,z
-x,-y,-z
loop_
_atom_site_type_symbol
_atom_site_label
_atom_site_fract_x
_atom_site_fract_y
_atom_site_fract_z
Si Si1 0.967061 0.621949 0.730774
Si Si2 0.801498 0.716830 0.681799
Si Si3 0.114612 0.974715 0.744977
Si Si4 0.548802 0.125366 0.148257
Si Si5 0.222588 0.552122 0.687291
Si Si6 0.612625 0.506297 0.213579
Si Si7 0.682683 0.054691 0.308110
O O1 0.898241 0.735098 0.729813
O O2 0.000000 0.500000 0.500000
O O3 0.082666 0.772304 0.684542
O O4 0.897515 0.493294 0.011657
O O5 0.801591 0.549756 0.519173
O O6 0.829700 0.893567 0.520890
O O7 0.675366 0.672625 0.978213
O O8 0.211142 0.013291 0.807387
O O9 0.000000 0.000000 0.000000
O O10 0.590935 0.335040 0.066795
O O11 0.659843 0.090148 0.090077
O O12 0.440201 0.090782 0.462735
O O13 0.500000 0.000000 0.000000
O O14 0.301074 0.478215 0.710776
O O15 0.287786 0.762088 0.575981
O O16 0.500000 0.500000 0.500000
#
# Coordination Sequence:
#
# PCOD8022239 Si02
#       7
#     2   2   2   2   2   2   2
#     4  11  25  44  70 102 140 190 242 287 352 422
#     4  11  24  45  71 100 144 187 237 292 357 428
#     4  12  26  46  69 106 149 190 235 292 356 425
#     4  10  22  48  74 101 134 185 242 294 355 421
#     4  10  22  45  69 101 138 186 239 289 353 433
#     4  10  24  44  72 103 137 177 238 303 364 416
#     4  10  24  43  70 104 140 184 237 296 349 426
#
# _framework density 24.676898999999999
#
# number of rings (size 3 to 8) (size 9 to 14) (size 15 to 20)
#    0.000    1.429    1.429    2.143    4.000    4.000 
#   12.857    0.000    0.000    0.000    0.000    0.000 
#    0.000    0.000    0.000    0.000    0.000    0.000 
#
# Total GULP energy -173532.124020 kJ/mol
# GULP energy per Si atom -12395.151716 kJ/mol
# Density = 2.462073 g / cm^3
# Si number density = 24.676899 Si / 1000 Ang^3
#
#
#
# Elastic Constant Matrix: (Units=GPa)
#
#
# Indices 1 2 3 4 5 6 
#
# 1 151.1364 22.3034 33.0566 -3.3622 -12.4871 8.3950
# 2 22.3034 75.1863 14.8843 -17.0174 -3.8785 7.9449
# 3 33.0566 14.8843 125.1614 -16.5816 -29.1265 -3.7908
# 4 -3.3622 -17.0174 -16.5816 49.4583 4.1242 5.4417
# 5 -12.4871 -3.8785 -29.1265 4.1242 30.9535 6.2459
# 6 8.3950 7.9449 -3.7908 5.4417 6.2459 32.4176
#
#
#
# Elastic Compliance Matrix: (Units=1/GPa)
#
#
# Indices 1 2 3 4 5 6 
#
# 1 0.007442 -0.001736 -0.001449 -0.000520 0.001884 -0.001947
# 2 -0.001736 0.015712 -0.000614 0.005512 0.000878 -0.004567
# 3 -0.001449 -0.000614 0.010968 0.002633 0.009398 -0.000445
# 4 -0.000520 0.005512 0.002633 0.023443 0.000845 -0.005006
# 5 0.001884 0.000878 0.009398 0.000845 0.043549 -0.008136
# 6 -0.001947 -0.004567 -0.000445 -0.005006 -0.008136 0.034827
#
#
# Mechanical properties :
#
#
# Convention : Reuss Voigt Hill
#
# Bulk Modulus (GPa) = 37.69958 54.66361 46.18159
# Shear Modulus (GPa) = 32.81315 41.31519 37.06417
#
# Velocity S-wave (km/s) = 3.65048 4.09619 3.87974
# Velocity P-wave (km/s) = 5.75138 6.67619 6.23097
#
# Compressibility (1/GPa) = 0.02652550
#
# Stress axis : x y z
#
# Youngs Moduli (GPa) = 134.37827 63.64524 91.17816
#
# Poissons Ratio (x) = 0.11046 0.13207
# Poissons Ratio (y) = 0.23321 0.05597
# Poissons Ratio (z) = 0.19465 0.03907
#
# Static dielectric constant tensor:
#      x y z
#    x 4.925590 0.570400 -0.404610 
#    y 0.570400 4.739500 -0.671300 
#    z -0.404610 -0.671300 4.854470 
# 
# 
# High freq. dielectric constant tensor:
#      x y z
#    x 1.990460 0.017130 -0.000730 
#    y 0.017130 1.988720 -0.012690 
#    z -0.000730 -0.012690 1.972770 
# 
# From -- ./inp_files/90287.got.cif
#   From: 2010.06.25/outbox.cif.g09.slc.cpg/sg2_46_cif.got.tgz:90287.got - 2010.06.27 13:26:56.
