data_PCOD8022893
_publ_section_title
;
Structure prediction by ZEFSAII (Michael W. Deem and Ramdas Pophale) SiO2 
 PCOD8022893
Probable space group: P -1
;
_chemical_formula_sum "Si O2"
_cell_formula_units_Z 16
_cell_length_a 14.620600
_cell_length_b 15.055889
_cell_length_c 14.594868
_cell_angle_alpha 160.106275
_cell_angle_beta 138.062775
_cell_angle_gamma 39.298860
_cell_volume 690.441997
_symmetry_space_group_name_H-M "P -1"
_symmetry_group_IT_number 2
_symmetry_cell_setting 'triclinic'
loop_
_space_group_symop_operation_xyz
x,y,z
-x,-y,-z
loop_
_atom_site_type_symbol
_atom_site_label
_atom_site_fract_x
_atom_site_fract_y
_atom_site_fract_z
Si Si1 0.954597 0.099842 0.325554
Si Si2 0.582697 0.704325 0.732298
Si Si3 0.778345 0.134915 0.813241
Si Si4 0.860378 0.753255 0.047978
Si Si5 0.280310 0.420157 0.470884
Si Si6 0.650063 0.731685 0.219916
Si Si7 0.138718 0.256247 0.759929
Si Si8 0.322229 0.878081 0.077814
O O1 0.869392 0.405137 0.521456
O O2 0.066819 0.085592 0.476969
O O3 0.838822 0.971352 0.159286
O O4 0.053456 0.922922 0.145653
O O5 0.500000 0.500000 0.500000
O O6 0.592405 0.709941 0.634499
O O7 0.746071 0.592888 0.787270
O O8 0.500000 0.000000 0.000000
O O9 0.775239 0.135580 0.921225
O O10 0.718286 0.897790 0.501266
O O11 0.678535 0.426534 0.983358
O O12 0.823741 0.891841 0.256309
O O13 0.026378 0.561919 0.985969
O O14 0.247076 0.169757 0.254383
O O15 0.331994 0.619827 0.769642
O O16 0.717151 0.721289 0.158304
O O17 0.479101 0.876031 0.225692
#
# Coordination Sequence:
#
# PCOD8022893 Si02
#       8
#     2   2   2   2   2   2   2   2
#     4  11  23  45  68 100 148 185 242 287 358 414
#     4  12  27  47  70 100 140 190 227 282 353 422
#     4  11  24  44  75 101 139 186 235 297 362 404
#     4  11  22  44  68 100 138 182 235 290 348 418
#     4  12  27  45  70  98 146 186 233 293 348 423
#     4  11  23  45  69 104 141 180 235 299 356 415
#     4  10  23  39  70 100 134 184 237 290 349 414
#     4  12  26  45  70 106 140 187 239 291 350 428
#
# _framework density 23.173562
#
# number of rings (size 3 to 8) (size 9 to 14) (size 15 to 20)
#    0.000    0.750    2.500    4.875    3.500    1.000 
#    0.000    0.000    0.000    0.000    0.000    0.000 
#    0.000    0.000    0.000    0.000    0.000    0.000 
#
# Total GULP energy -198440.252237 kJ/mol
# GULP energy per Si atom -12402.515765 kJ/mol
# Density = 2.312082 g / cm^3
# Si number density = 23.173562 Si / 1000 Ang^3
#
#
#
# Elastic Constant Matrix: (Units=GPa)
#
#
# Indices 1 2 3 4 5 6 
#
# 1 191.4371 65.8753 61.0876 0.8542 -2.8699 30.6288
# 2 65.8753 84.8840 23.7165 12.9650 2.7093 10.9587
# 3 61.0876 23.7165 108.9107 5.2493 -7.3926 9.1254
# 4 0.8542 12.9650 5.2493 39.7559 3.4746 1.7824
# 5 -2.8699 2.7093 -7.3926 3.4746 40.1066 -3.4075
# 6 30.6288 10.9587 9.1254 1.7824 -3.4075 26.6959
#
#
#
# Elastic Compliance Matrix: (Units=1/GPa)
#
#
# Indices 1 2 3 4 5 6 
#
# 1 0.009577 -0.005815 -0.003623 0.002549 -0.000455 -0.007591
# 2 -0.005815 0.017247 -0.000308 -0.005351 -0.001183 -0.000097
# 3 -0.003623 -0.000308 0.011434 -0.001545 0.002066 0.000742
# 4 0.002549 -0.005351 -0.001545 0.027354 -0.002308 -0.002321
# 5 -0.000455 -0.001183 0.002066 -0.002308 0.025881 0.003759
# 6 -0.007591 -0.000097 0.000742 -0.002321 0.003759 0.046589
#
#
# Mechanical properties :
#
#
# Convention : Reuss Voigt Hill
#
# Bulk Modulus (GPa) = 53.29106 76.28783 64.78945
# Shear Modulus (GPa) = 30.51948 36.94849 33.73399
#
# Velocity S-wave (km/s) = 3.63298 3.99736 3.81952
# Velocity P-wave (km/s) = 6.37530 7.36864 6.88989
#
# Compressibility (1/GPa) = 0.01876487
#
# Stress axis : x y z
#
# Youngs Moduli (GPa) = 104.41618 57.98026 87.46002
#
# Poissons Ratio (x) = 0.33715 0.31689
# Poissons Ratio (y) = 0.60717 0.02698
# Poissons Ratio (z) = 0.37833 0.01789
#
# Static dielectric constant tensor:
#      x y z
#    x 4.676540 0.122360 -0.094600 
#    y 0.122360 4.034630 -0.058250 
#    z -0.094600 -0.058250 3.964280 
# 
# 
# High freq. dielectric constant tensor:
#      x y z
#    x 1.937010 0.006230 -0.005220 
#    y 0.006230 1.904520 -0.001130 
#    z -0.005220 -0.001130 1.916690 
# 
# From -- ./inp_files/94377.got.cif
#   From: 2010.06.25/outbox.cif.g09.slc.cpg/sg2_48_cif.got.tgz:94377.got - 2010.06.27 13:26:56.
