data_PCOD8022843
_publ_section_title
;
Structure prediction by ZEFSAII (Michael W. Deem and Ramdas Pophale) SiO2 
 PCOD8022843
Probable space group: P -1
;
_chemical_formula_sum "Si O2"
_cell_formula_units_Z 16
_cell_length_a 12.428002
_cell_length_b 9.181548
_cell_length_c 14.595344
_cell_angle_alpha 150.096820
_cell_angle_beta 68.993242
_cell_angle_gamma 101.424093
_cell_volume 752.041536
_symmetry_space_group_name_H-M "P -1"
_symmetry_group_IT_number 2
_symmetry_cell_setting 'triclinic'
loop_
_space_group_symop_operation_xyz
x,y,z
-x,-y,-z
loop_
_atom_site_type_symbol
_atom_site_label
_atom_site_fract_x
_atom_site_fract_y
_atom_site_fract_z
Si Si1 0.938369 0.773215 0.951046
Si Si2 0.301022 0.340893 0.084006
Si Si3 0.834385 0.090129 0.851340
Si Si4 0.713355 0.058325 0.680465
Si Si5 0.304712 0.335501 0.279016
Si Si6 0.146639 0.320313 0.730474
Si Si7 0.515298 0.810216 0.700301
Si Si8 0.895237 0.091206 0.318738
O O1 0.871105 0.909850 0.138393
O O2 0.835909 0.678572 0.872474
O O3 0.033623 0.472082 0.786293
O O4 0.000000 0.000000 0.000000
O O5 0.320484 0.593581 0.146919
O O6 0.340300 0.430543 0.220582
O O7 0.384125 0.022881 0.857179
O O8 0.805721 0.046029 0.729121
O O9 0.744405 0.964607 0.873817
O O10 0.816355 0.433660 0.079990
O O11 0.967815 0.891336 0.718645
O O12 0.758599 0.842341 0.462260
O O13 0.596351 0.962980 0.695453
O O14 0.426181 0.263958 0.258923
O O15 0.197855 0.592068 0.493581
O O16 0.120482 0.067768 0.667662
O O17 0.500000 0.500000 0.500000
#
# Coordination Sequence:
#
# PCOD8022843 Si02
#       8
#     2   2   2   2   2   2   2   2
#     4  11  25  38  71 104 138 174 220 273 331 406
#     4  12  23  45  67  98 135 172 224 278 335 392
#     4  10  23  39  65  96 141 172 214 277 325 406
#     4  11  25  44  71  99 133 178 227 273 337 401
#     4  11  24  41  66  96 128 173 221 278 332 396
#     4  11  23  42  65 102 138 176 220 266 340 397
#     4  11  27  46  70  91 131 177 227 284 331 397
#     4  11  21  41  62  98 139 175 215 267 335 393
#
# _framework density 21.27542
#
# number of rings (size 3 to 8) (size 9 to 14) (size 15 to 20)
#    0.000    1.000    1.250    6.375    8.750    1.000 
#    0.000    0.625    0.000    0.000    0.000    0.000 
#    0.000    0.000    0.000    0.000    0.000    0.000 
#
# Total GULP energy -198353.666081 kJ/mol
# GULP energy per Si atom -12397.104130 kJ/mol
# Density = 2.122700 g / cm^3
# Si number density = 21.275420 Si / 1000 Ang^3
#
#
#
# Elastic Constant Matrix: (Units=GPa)
#
#
# Indices 1 2 3 4 5 6 
#
# 1 93.4377 38.2250 22.2950 16.3158 3.4190 7.5705
# 2 38.2250 102.0390 11.9851 5.5164 0.1082 -14.5290
# 3 22.2950 11.9851 93.4658 7.0167 -9.1454 -2.2426
# 4 16.3158 5.5164 7.0167 39.5120 -2.5670 3.1225
# 5 3.4190 0.1082 -9.1454 -2.5670 28.3758 3.7499
# 6 7.5705 -14.5290 -2.2426 3.1225 3.7499 19.7295
#
#
#
# Elastic Compliance Matrix: (Units=1/GPa)
#
#
# Indices 1 2 3 4 5 6 
#
# 1 0.015904 -0.006852 -0.003022 -0.004371 -0.001879 -0.010443
# 2 -0.006852 0.014286 0.000047 -0.000298 -0.001011 0.013394
# 3 -0.003022 0.000047 0.011897 -0.000773 0.003873 0.001933
# 4 -0.004371 -0.000298 -0.000773 0.027794 0.003276 -0.003651
# 5 -0.001879 -0.001011 0.003873 0.003276 0.037984 -0.007321
# 6 -0.010443 0.013394 0.001933 -0.003651 -0.007321 0.066745
#
#
# Mechanical properties :
#
#
# Convention : Reuss Voigt Hill
#
# Bulk Modulus (GPa) = 44.57230 48.21697 46.39463
# Shear Modulus (GPa) = 24.78439 31.95261 28.36850
#
# Velocity S-wave (km/s) = 3.41681 3.87958 3.65553
# Velocity P-wave (km/s) = 6.04663 6.54069 6.29851
#
# Compressibility (1/GPa) = 0.02243546
#
# Stress axis : x y z
#
# Youngs Moduli (GPa) = 62.87549 70.00056 84.05396
#
# Poissons Ratio (x) = 0.47962 0.25397
# Poissons Ratio (y) = 0.43081 -0.00398
# Poissons Ratio (z) = 0.18998 -0.00332
#
# Static dielectric constant tensor:
#      x y z
#    x 3.960720 -0.207960 0.039400 
#    y -0.207960 3.989070 0.014320 
#    z 0.039400 0.014320 3.780820 
# 
# 
# High freq. dielectric constant tensor:
#      x y z
#    x 1.831830 -0.011240 0.001840 
#    y -0.011240 1.849920 0.001480 
#    z 0.001840 0.001480 1.838850 
# 
# From -- ./inp_files/186430.got.cif
#   From: 2010.06.25/outbox.cif.g09.slc.cpg/sg2_94_cif.got.tgz:186430.got - 2010.06.27 13:26:56.
