data_PCOD8022789
_publ_section_title
;
Structure prediction by ZEFSAII (Michael W. Deem and Ramdas Pophale) SiO2 
 PCOD8022789
Probable space group: P -1
;
_chemical_formula_sum "Si O2"
_cell_formula_units_Z 16
_cell_length_a 7.092443
_cell_length_b 5.211639
_cell_length_c 30.045639
_cell_angle_alpha 59.709577
_cell_angle_beta 128.792025
_cell_angle_gamma 109.976379
_cell_volume 746.900764
_symmetry_space_group_name_H-M "P -1"
_symmetry_group_IT_number 2
_symmetry_cell_setting 'triclinic'
loop_
_space_group_symop_operation_xyz
x,y,z
-x,-y,-z
loop_
_atom_site_type_symbol
_atom_site_label
_atom_site_fract_x
_atom_site_fract_y
_atom_site_fract_z
Si Si1 0.096040 0.638518 0.732105
Si Si2 0.157736 0.305118 0.677817
Si Si3 0.079212 0.664900 0.042208
Si Si4 0.709282 0.353573 0.071857
Si Si5 0.639021 0.667143 0.124403
Si Si6 0.268654 0.080702 0.515672
Si Si7 0.440621 0.425167 0.352043
Si Si8 0.343350 0.526009 0.421558
O O1 0.145815 0.515189 0.700922
O O2 0.212247 0.415879 0.803108
O O3 0.812391 0.669256 0.700752
O O4 0.221024 0.966425 0.727458
O O5 0.373182 0.431192 0.667396
O O6 0.900507 0.308448 0.612936
O O7 0.358696 0.654401 0.094874
O O8 0.963688 0.494570 0.081797
O O9 0.000000 0.500000 0.000000
O O10 0.000000 0.000000 0.000000
O O11 0.684884 0.429652 0.113327
O O12 0.713386 0.004005 0.092657
O O13 0.500000 0.500000 0.000000
O O14 0.280393 0.173637 0.456556
O O15 0.389186 0.384235 0.527855
O O16 0.445073 0.830676 0.578772
O O17 0.000000 0.000000 0.500000
O O18 0.360731 0.630626 0.363167
#
# Coordination Sequence:
#
# PCOD8022789 Si02
#       8
#     2   2   2   2   2   2   2   2
#     4  11  27  45  67  94 133 175 223 271 321 386
#     4  11  24  44  68  92 128 177 223 271 327 389
#     4  12  23  39  66  98 134 169 208 261 322 380
#     4  12  23  41  71 100 135 172 213 265 333 384
#     4  12  25  44  66 100 135 172 220 270 319 395
#     4  11  21  39  63  97 128 167 217 273 337 396
#     4  11  24  41  67  90 134 172 220 272 335 384
#     4  10  23  39  61  97 130 165 216 276 335 394
#
# _framework density 21.421855999999998
#
# number of rings (size 3 to 8) (size 9 to 14) (size 15 to 20)
#    0.000    0.750    5.000    2.250    1.750    2.500 
#    0.000    0.000    0.000    0.000    0.000    0.000 
#    0.000    0.000    0.000    0.000    0.000    0.000 
#
# Total GULP energy -198237.783708 kJ/mol
# GULP energy per Si atom -12389.861482 kJ/mol
# Density = 2.137310 g / cm^3
# Si number density = 21.421856 Si / 1000 Ang^3
#
#
#
# Elastic Constant Matrix: (Units=GPa)
#
#
# Indices 1 2 3 4 5 6 
#
# 1 154.1137 44.0841 46.4930 3.1530 -3.7349 31.1860
# 2 44.0841 104.6131 25.5364 -11.6500 0.2288 9.9065
# 3 46.4930 25.5364 112.8053 -7.9435 7.0852 13.3515
# 4 3.1530 -11.6500 -7.9435 34.4625 -1.0749 -1.5418
# 5 -3.7349 0.2288 7.0852 -1.0749 30.0940 -1.3423
# 6 31.1860 9.9065 13.3515 -1.5418 -1.3423 41.5646
#
#
#
# Elastic Compliance Matrix: (Units=1/GPa)
#
#
# Indices 1 2 3 4 5 6 
#
# 1 0.009423 -0.003071 -0.002828 -0.002750 0.001516 -0.005483
# 2 -0.003071 0.011550 -0.001072 0.003938 -0.000074 0.000039
# 3 -0.002828 -0.001072 0.010737 0.002234 -0.002839 -0.001080
# 4 -0.002750 0.003938 0.002234 0.031194 0.000287 0.001574
# 5 0.001516 -0.000074 -0.002839 0.000287 0.034137 0.000905
# 6 -0.005483 0.000039 -0.001080 0.001574 0.000905 0.028598
#
#
# Mechanical properties :
#
#
# Convention : Reuss Voigt Hill
#
# Bulk Modulus (GPa) = 56.28276 67.08435 61.68355
# Shear Modulus (GPa) = 34.36378 38.25214 36.30796
#
# Velocity S-wave (km/s) = 4.00952 4.23029 4.12139
# Velocity P-wave (km/s) = 6.91127 7.43265 7.17670
#
# Compressibility (1/GPa) = 0.01776743
#
# Stress axis : x y z
#
# Youngs Moduli (GPa) = 106.12522 86.58307 93.13877
#
# Poissons Ratio (x) = 0.26587 0.26344
# Poissons Ratio (y) = 0.32588 0.09981
# Poissons Ratio (z) = 0.30017 0.09278
#
# Static dielectric constant tensor:
#      x y z
#    x 4.030790 0.053070 0.069690 
#    y 0.053070 3.942760 -0.022360 
#    z 0.069690 -0.022360 3.869910 
# 
# 
# High freq. dielectric constant tensor:
#      x y z
#    x 1.854800 0.010000 0.002390 
#    y 0.010000 1.840750 -0.006780 
#    z 0.002390 -0.006780 1.839000 
# 
# From -- ./inp_files/14952.got.cif
#   From: 2010.06.25/outbox.cif.g09.slc.cpg/sg2_8_cif.got.tgz:14952.got - 2010.06.27 13:26:56.
