data_PCOD8022256
_publ_section_title
;
Structure prediction by ZEFSAII (Michael W. Deem and Ramdas Pophale) SiO2 
 PCOD8022256
Probable space group: P -1
;
_chemical_formula_sum "Si O2"
_cell_formula_units_Z 14
_cell_length_a 14.405081
_cell_length_b 13.983221
_cell_length_c 14.402889
_cell_angle_alpha 34.151189
_cell_angle_beta 28.495014
_cell_angle_gamma 28.814404
_cell_volume 645.891593
_symmetry_space_group_name_H-M "P -1"
_symmetry_group_IT_number 2
_symmetry_cell_setting 'triclinic'
loop_
_space_group_symop_operation_xyz
x,y,z
-x,-y,-z
loop_
_atom_site_type_symbol
_atom_site_label
_atom_site_fract_x
_atom_site_fract_y
_atom_site_fract_z
Si Si1 0.829028 0.897307 0.793199
Si Si2 0.659898 0.773743 0.580011
Si Si3 0.911615 0.610413 0.781427
Si Si4 0.681967 0.821847 0.168976
Si Si5 0.335067 0.736754 0.478281
Si Si6 0.121001 0.626339 0.399101
Si Si7 0.543518 0.227894 0.053945
O O1 0.830727 0.779187 0.795736
O O2 0.090668 0.788918 0.693415
O O3 0.726499 0.132115 0.668036
O O4 0.667904 0.894811 0.016351
O O5 0.723452 0.614440 0.569020
O O6 0.524190 0.729341 0.812719
O O7 0.892599 0.746207 0.439029
O O8 0.500000 0.000000 0.500000
O O9 0.685223 0.628693 0.922717
O O10 0.069979 0.386004 0.865215
O O11 0.051073 0.649071 0.549931
O O12 0.468467 0.791583 0.391449
O O13 0.647888 0.989213 0.137100
O O14 0.500000 0.500000 0.500000
O O15 0.262990 0.729054 0.175875
#
# Coordination Sequence:
#
# PCOD8022256 Si02
#       7
#     2   2   2   2   2   2   2
#     4  11  25  40  61  88 127 168 216 260 303 365
#     4  10  22  45  69  92 124 157 204 254 313 381
#     4  11  24  41  60  93 127 163 213 256 307 371
#     4  12  25  39  61  92 127 169 213 258 307 363
#     4  11  24  40  63  85 120 173 218 255 312 353
#     4  10  24  42  66  93 125 160 200 259 313 370
#     4  11  25  40  65  94 127 161 206 257 314 372
#
# _framework density 21.675463000000001
#
# number of rings (size 3 to 8) (size 9 to 14) (size 15 to 20)
#    0.000    1.143    2.857    2.143    4.000    2.857 
#    0.000    0.000    0.000    0.000    0.000    0.000 
#    0.000    0.000    0.000    0.000    0.000    0.000 
#
# Total GULP energy -173678.502421 kJ/mol
# GULP energy per Si atom -12405.607316 kJ/mol
# Density = 2.162613 g / cm^3
# Si number density = 21.675463 Si / 1000 Ang^3
#
#
#
# Elastic Constant Matrix: (Units=GPa)
#
#
# Indices 1 2 3 4 5 6 
#
# 1 66.5062 26.2894 31.1461 1.1251 -2.6299 5.6491
# 2 26.2894 126.1970 18.1346 -13.8580 -1.3751 -6.7557
# 3 31.1461 18.1346 95.0652 13.7802 -21.2860 1.8568
# 4 1.1251 -13.8580 13.7802 34.8550 1.8828 9.1948
# 5 -2.6299 -1.3751 -21.2860 1.8828 33.1600 -1.0403
# 6 5.6491 -6.7557 1.8568 9.1948 -1.0403 32.0770
#
#
#
# Elastic Compliance Matrix: (Units=1/GPa)
#
#
# Indices 1 2 3 4 5 6 
#
# 1 0.019678 -0.003164 -0.006778 0.002134 -0.003183 -0.004454
# 2 -0.003164 0.009333 -0.001616 0.004143 -0.001093 0.001393
# 3 -0.006778 -0.001616 0.016557 -0.008226 0.010572 0.002596
# 4 0.002134 0.004143 -0.008226 0.036480 -0.007315 -0.009721
# 5 -0.003183 -0.001093 0.010572 -0.007315 0.037156 0.003020
# 6 -0.004454 0.001393 0.002596 -0.009721 0.003020 0.034987
#
#
# Mechanical properties :
#
#
# Convention : Reuss Voigt Hill
#
# Bulk Modulus (GPa) = 44.54224 48.76762 46.65493
# Shear Modulus (GPa) = 27.05744 34.16496 30.61120
#
# Velocity S-wave (km/s) = 3.53696 3.97445 3.76207
# Velocity P-wave (km/s) = 6.10527 6.60375 6.35940
#
# Compressibility (1/GPa) = 0.02245060
#
# Stress axis : x y z
#
# Youngs Moduli (GPa) = 50.81894 107.14438 60.39733
#
# Poissons Ratio (x) = 0.33901 0.40939
# Poissons Ratio (y) = 0.16079 0.09762
# Poissons Ratio (z) = 0.34447 0.17318
#
# Static dielectric constant tensor:
#      x y z
#    x 3.924390 -0.089330 -0.116060 
#    y -0.089330 4.083720 0.141490 
#    z -0.116060 0.141490 3.958080 
# 
# 
# High freq. dielectric constant tensor:
#      x y z
#    x 1.846390 -0.007960 -0.007720 
#    y -0.007960 1.871120 0.005680 
#    z -0.007720 0.005680 1.851060 
# 
# From -- ./inp_files/529805.got.cif
#   From: 2010.06.25/outbox.cif.g09.slc.cpg/sg2_265_cif.got.tgz:529805.got - 2010.06.27 13:26:56.
