data_PCOD8022512
_publ_section_title
;
Structure prediction by ZEFSAII (Michael W. Deem and Ramdas Pophale) SiO2 
 PCOD8022512
Probable space group: P -1
;
_chemical_formula_sum "Si O2"
_cell_formula_units_Z 16
_cell_length_a 8.688977
_cell_length_b 12.968297
_cell_length_c 7.813475
_cell_angle_alpha 47.653749
_cell_angle_beta 73.825147
_cell_angle_gamma 79.320743
_cell_volume 624.955045
_symmetry_space_group_name_H-M "P -1"
_symmetry_group_IT_number 2
_symmetry_cell_setting 'triclinic'
loop_
_space_group_symop_operation_xyz
x,y,z
-x,-y,-z
loop_
_atom_site_type_symbol
_atom_site_label
_atom_site_fract_x
_atom_site_fract_y
_atom_site_fract_z
Si Si1 0.883314 0.776865 0.095518
Si Si2 0.812896 0.221930 0.205616
Si Si3 0.698976 0.977866 0.724534
Si Si4 0.676087 0.047983 0.132881
Si Si5 0.180427 0.192790 0.445145
Si Si6 0.126587 0.765530 0.345268
Si Si7 0.321098 0.477941 0.025744
Si Si8 0.683449 0.518435 0.367978
O O1 0.769338 0.642743 0.303836
O O2 0.999897 0.781252 0.214117
O O3 0.772141 0.913968 0.949312
O O4 0.997445 0.780293 0.887188
O O5 0.708163 0.158010 0.153774
O O6 0.775776 0.383406 0.060413
O O7 0.765732 0.134205 0.490303
O O8 0.509578 0.983797 0.791764
O O9 0.747543 0.874657 0.670967
O O10 0.769764 0.904109 0.300270
O O11 0.736378 0.117237 0.857523
O O12 0.984877 0.206046 0.484002
O O13 0.248407 0.346267 0.295797
O O14 0.211950 0.617986 0.481832
O O15 0.312541 0.436583 0.878407
O O16 0.500000 0.500000 0.000000
O O17 0.500000 0.500000 0.500000
#
# Coordination Sequence:
#
# PCOD8022512 Si02
#       8
#     2   2   2   2   2   2   2   2
#     4  11  24  43  69  98 141 186 230 281 352 416
#     4  10  23  40  71 104 136 181 235 292 342 414
#     4  11  21  44  74 100 140 186 237 285 348 411
#     4  10  22  46  72 101 143 190 227 285 356 412
#     4  11  23  43  74 102 140 180 238 289 343 405
#     4  11  26  44  70 104 143 185 233 285 348 419
#     4  12  26  43  73 106 136 175 243 293 345 410
#     4  12  28  47  70 101 146 189 225 290 360 418
#
# _framework density 25.601842999999999
#
# number of rings (size 3 to 8) (size 9 to 14) (size 15 to 20)
#    0.000    1.000    1.250    5.625    7.000    1.000 
#    2.250    0.625    0.000    0.000    0.000    0.000 
#    0.000    0.000    0.000    0.000    0.000    0.000 
#
# Total GULP energy -198434.177951 kJ/mol
# GULP energy per Si atom -12402.136122 kJ/mol
# Density = 2.554357 g / cm^3
# Si number density = 25.601843 Si / 1000 Ang^3
#
#
#
# Elastic Constant Matrix: (Units=GPa)
#
#
# Indices 1 2 3 4 5 6 
#
# 1 121.7974 5.3829 14.1967 7.2590 -25.4983 -23.0839
# 2 5.3829 66.6091 21.3500 -23.6686 -13.2741 -21.6148
# 3 14.1967 21.3500 118.2243 -16.6065 -20.1799 -0.9167
# 4 7.2590 -23.6686 -16.6065 31.3846 -5.1691 -5.0150
# 5 -25.4983 -13.2741 -20.1799 -5.1691 56.8976 -3.6708
# 6 -23.0839 -21.6148 -0.9167 -5.0150 -3.6708 40.8450
#
#
#
# Elastic Compliance Matrix: (Units=1/GPa)
#
#
# Indices 1 2 3 4 5 6 
#
# 1 0.011271 0.005595 -0.000446 0.004249 0.007261 0.010495
# 2 0.005595 0.042150 0.000510 0.038838 0.018106 0.031874
# 3 -0.000446 0.000510 0.010099 0.006756 0.004208 0.001452
# 4 0.004249 0.038838 0.006756 0.072836 0.022174 0.034041
# 5 0.007261 0.018106 0.004208 0.022174 0.029798 0.019180
# 6 0.010495 0.031874 0.001452 0.034041 0.019180 0.053218
#
#
# Mechanical properties :
#
#
# Convention : Reuss Voigt Hill
#
# Bulk Modulus (GPa) = 13.36269 43.16554 28.26412
# Shear Modulus (GPa) = 21.45927 43.53886 32.49906
#
# Velocity S-wave (km/s) = 2.89830 4.12832 3.56673
# Velocity P-wave (km/s) = 4.05351 6.29452 5.29396
#
# Compressibility (1/GPa) = 0.07483521
#
# Stress axis : x y z
#
# Youngs Moduli (GPa) = 88.72291 23.72505 99.02395
#
# Poissons Ratio (x) = -0.13273 0.04418
# Poissons Ratio (y) = -0.49637 -0.05045
# Poissons Ratio (z) = 0.03958 -0.01209
#
# Static dielectric constant tensor:
#      x y z
#    x 5.564950 -0.854110 0.703040 
#    y -0.854110 5.251190 -0.375140 
#    z 0.703040 -0.375140 5.809650 
# 
# 
# High freq. dielectric constant tensor:
#      x y z
#    x 2.041400 0.000270 -0.000270 
#    y 0.000270 2.038490 0.002630 
#    z -0.000270 0.002630 2.044510 
# 
# From -- ./inp_files/205022.got.cif
#   From: 2010.06.25/outbox.cif.g09.slc.cpg/sg2_103_cif.got.tgz:205022.got - 2010.06.27 13:26:56.
