data_PCOD8022525
_publ_section_title
;
Structure prediction by ZEFSAII (Michael W. Deem and Ramdas Pophale) SiO2 
 PCOD8022525
Probable space group: P -1
;
_chemical_formula_sum "Si O2"
_cell_formula_units_Z 12
_cell_length_a 22.468896
_cell_length_b 6.880369
_cell_length_c 5.158016
_cell_angle_alpha 70.663476
_cell_angle_beta 56.634610
_cell_angle_gamma 45.912588
_cell_volume 476.585992
_symmetry_space_group_name_H-M "P -1"
_symmetry_group_IT_number 2
_symmetry_cell_setting 'triclinic'
loop_
_space_group_symop_operation_xyz
x,y,z
-x,-y,-z
loop_
_atom_site_type_symbol
_atom_site_label
_atom_site_fract_x
_atom_site_fract_y
_atom_site_fract_z
Si Si1 0.205538 0.025130 0.931915
Si Si2 0.055826 0.593133 0.903597
Si Si3 0.755084 0.386252 0.345356
Si Si4 0.600484 0.902341 0.742688
Si Si5 0.932839 0.998858 0.440865
Si Si6 0.320792 0.088804 0.940564
O O1 0.165681 0.315304 0.776574
O O2 0.116343 0.048997 0.205790
O O3 0.266236 0.975303 0.062428
O O4 0.265924 0.788663 0.678873
O O5 0.040746 0.809013 0.629459
O O6 0.020955 0.723141 0.216124
O O7 0.000000 0.500000 0.000000
O O8 0.674979 0.572749 0.676126
O O9 0.858167 0.188685 0.306710
O O10 0.750071 0.582437 0.060730
O O11 0.598769 0.037796 0.420606
O O12 0.632385 0.998826 0.851113
O O13 0.500000 0.000000 0.000000
#
# Coordination Sequence:
#
# PCOD8022525 Si02
#       6
#     2   2   2   2   2   2
#     4  12  24  42  69 102 137 189 238 292 349 419
#     4  11  23  43  63  96 138 188 238 289 349 412
#     4  10  23  41  68 100 138 182 231 289 349 417
#     4  10  22  46  73 104 144 183 228 293 358 423
#     4  11  24  41  64  96 142 181 241 288 349 413
#     4  10  24  43  73 101 141 189 230 288 358 422
#
# _framework density 25.179089999999999
#
# number of rings (size 3 to 8) (size 9 to 14) (size 15 to 20)
#    1.000    0.333    3.333    2.000    2.333    3.333 
#    0.000    1.667    0.000    0.000    0.000    0.000 
#    0.000    0.000    0.000    0.000    0.000    0.000 
#
# Total GULP energy -148725.785120 kJ/mol
# GULP energy per Si atom -12393.815427 kJ/mol
# Density = 2.512178 g / cm^3
# Si number density = 25.179090 Si / 1000 Ang^3
#
#
#
# Elastic Constant Matrix: (Units=GPa)
#
#
# Indices 1 2 3 4 5 6 
#
# 1 93.8734 42.4244 18.7587 21.9441 -15.9517 39.0649
# 2 42.4244 89.2380 41.3563 7.4559 -8.4886 38.0457
# 3 18.7587 41.3563 99.5515 12.8093 -1.0425 17.2674
# 4 21.9441 7.4559 12.8093 41.6437 0.3731 3.4333
# 5 -15.9517 -8.4886 -1.0425 0.3731 38.8068 -0.0749
# 6 39.0649 38.0457 17.2674 3.4333 -0.0749 40.8646
#
#
#
# Elastic Compliance Matrix: (Units=1/GPa)
#
#
# Indices 1 2 3 4 5 6 
#
# 1 0.024218 -0.000819 0.001126 -0.011244 0.009872 -0.021902
# 2 -0.000819 0.022180 -0.005972 -0.000314 0.004324 -0.017310
# 3 0.001126 -0.005972 0.012865 -0.003422 -0.000466 -0.000666
# 4 -0.011244 -0.000314 -0.003422 0.030273 -0.005055 0.009935
# 5 0.009872 0.004324 -0.000466 -0.005055 0.030784 -0.012785
# 6 -0.021902 -0.017310 -0.000666 0.009935 -0.012785 0.060947
#
#
# Mechanical properties :
#
#
# Convention : Reuss Voigt Hill
#
# Bulk Modulus (GPa) = 20.86242 54.19353 37.52797
# Shear Modulus (GPa) = 23.97216 36.27125 30.12170
#
# Velocity S-wave (km/s) = 3.08890 3.79955 3.46251
# Velocity P-wave (km/s) = 4.58534 6.38895 5.56076
#
# Compressibility (1/GPa) = 0.04793307
#
# Stress axis : x y z
#
# Youngs Moduli (GPa) = 41.29130 45.08507 77.73227
#
# Poissons Ratio (x) = 0.03693 -0.08752
# Poissons Ratio (y) = 0.03382 0.46420
# Poissons Ratio (z) = -0.04649 0.26924
#
# Static dielectric constant tensor:
#      x y z
#    x 5.792990 -1.249600 0.066160 
#    y -1.249600 6.777390 -0.030230 
#    z 0.066160 -0.030230 4.209210 
# 
# 
# High freq. dielectric constant tensor:
#      x y z
#    x 2.010100 0.023820 0.009260 
#    y 0.023820 1.996000 -0.004430 
#    z 0.009260 -0.004430 1.991820 
# 
# From -- ./inp_files/5936.got.cif
#   From: 2010.06.25/outbox.cif.g09.slc.cpg/sg2_3_cif.got.tgz:5936.got - 2010.06.27 13:26:56.
