data_PCOD8022507
_publ_section_title
;
Structure prediction by ZEFSAII (Michael W. Deem and Ramdas Pophale) SiO2 
 PCOD8022507
Probable space group: P -1
;
_chemical_formula_sum "Si O2"
_cell_formula_units_Z 14
_cell_length_a 8.752977
_cell_length_b 5.159086
_cell_length_c 28.489564
_cell_angle_alpha 123.896245
_cell_angle_beta 151.879148
_cell_angle_gamma 60.786613
_cell_volume 503.298130
_symmetry_space_group_name_H-M "P -1"
_symmetry_group_IT_number 2
_symmetry_cell_setting 'triclinic'
loop_
_space_group_symop_operation_xyz
x,y,z
-x,-y,-z
loop_
_atom_site_type_symbol
_atom_site_label
_atom_site_fract_x
_atom_site_fract_y
_atom_site_fract_z
Si Si1 0.644678 0.495081 0.381312
Si Si2 0.160857 0.664666 0.933261
Si Si3 0.362947 0.709468 0.741672
Si Si4 0.895646 0.011962 0.808295
Si Si5 0.767559 0.243489 0.933882
Si Si6 0.267815 0.895457 0.385600
Si Si7 0.221914 0.597468 0.789780
O O1 0.676630 0.523224 0.336352
O O2 0.453437 0.166866 0.307439
O O3 0.458937 0.804762 0.380121
O O4 0.000000 0.500000 0.500000
O O5 0.089623 0.897814 0.895260
O O6 0.500000 0.500000 0.000000
O O7 0.155688 0.872279 0.002313
O O8 0.878799 0.392901 0.838734
O O9 0.442079 0.564505 0.799230
O O10 0.659986 0.961551 0.839387
O O11 0.011348 0.855762 0.673071
O O12 0.126882 0.935033 0.818392
O O13 0.425961 0.420887 0.867681
O O14 0.000000 0.500000 0.000000
O O15 0.116127 0.573616 0.330129
O O16 0.500000 0.000000 0.500000
#
# Coordination Sequence:
#
# PCOD8022507 Si02
#       7
#     2   2   2   2   2   2   2
#     4  11  24  48  74 108 144 196 249 309 383 445
#     4  12  24  45  73 106 145 202 250 307 374 450
#     4  11  24  46  70 101 148 185 247 304 367 452
#     4  11  26  45  72 110 150 192 259 311 369 457
#     4  11  25  41  67  99 144 193 238 303 370 437
#     4  10  22  46  71  98 139 186 242 305 373 438
#     4  10  24  42  66 101 141 191 242 302 370 443
#
# _framework density 27.816513
#
# number of rings (size 3 to 8) (size 9 to 14) (size 15 to 20)
#    0.000    1.143    2.857    2.143    8.000    1.143 
#    0.000    1.429    0.000    0.000    0.000    0.000 
#    0.000    0.000    0.000    0.000    0.000    0.000 
#
# Total GULP energy -173483.685119 kJ/mol
# GULP energy per Si atom -12391.691794 kJ/mol
# Density = 2.775320 g / cm^3
# Si number density = 27.816513 Si / 1000 Ang^3
#
#
#
# Elastic Constant Matrix: (Units=GPa)
#
#
# Indices 1 2 3 4 5 6 
#
# 1 184.8711 23.7608 59.4107 3.4273 -33.8641 -21.9521
# 2 23.7608 83.0540 36.4035 13.7620 -20.1498 2.9715
# 3 59.4107 36.4035 180.2368 -1.7662 -12.0237 -8.4273
# 4 3.4273 13.7620 -1.7662 40.6862 -9.7460 -3.7455
# 5 -33.8641 -20.1498 -12.0237 -9.7460 48.3545 5.3053
# 6 -21.9521 2.9715 -8.4273 -3.7455 5.3053 50.4925
#
#
#
# Elastic Compliance Matrix: (Units=1/GPa)
#
#
# Indices 1 2 3 4 5 6 
#
# 1 0.007105 -0.000392 -0.001862 0.000687 0.004224 0.002408
# 2 -0.000392 0.015354 -0.002805 -0.004348 0.004810 -0.002370
# 3 -0.001862 -0.002805 0.006731 0.001312 -0.000605 0.000640
# 4 0.000687 -0.004348 0.001312 0.027279 0.004235 0.002352
# 5 0.004224 0.004810 -0.000605 0.004235 0.026457 -0.001013
# 6 0.002408 -0.002370 0.000640 0.002352 -0.001013 0.021379
#
#
# Mechanical properties :
#
#
# Convention : Reuss Voigt Hill
#
# Bulk Modulus (GPa) = 52.42896 76.36799 64.39847
# Shear Modulus (GPa) = 41.39788 49.81243 45.60516
#
# Velocity S-wave (km/s) = 3.86197 4.23632 4.05347
# Velocity P-wave (km/s) = 6.22699 7.17233 6.71631
#
# Compressibility (1/GPa) = 0.01907343
#
# Stress axis : x y z
#
# Youngs Moduli (GPa) = 140.75152 65.12984 148.57092
#
# Poissons Ratio (x) = 0.02552 0.27659
# Poissons Ratio (y) = 0.05515 0.41667
# Poissons Ratio (z) = 0.26203 0.18266
#
# Static dielectric constant tensor:
#      x y z
#    x 5.577480 -0.221010 0.074880 
#    y -0.221010 6.038440 -0.093530 
#    z 0.074880 -0.093530 5.412840 
# 
# 
# High freq. dielectric constant tensor:
#      x y z
#    x 2.150090 -0.034960 0.002600 
#    y -0.034960 2.123880 -0.014790 
#    z 0.002600 -0.014790 2.143860 
# 
# From -- ./inp_files/143054.got.cif
#   From: 2010.06.25/outbox.cif.g09.slc.cpg/sg2_72_cif.got.tgz:143054.got - 2010.06.27 13:26:56.
