data_PCOD8022662
_publ_section_title
;
Structure prediction by ZEFSAII (Michael W. Deem and Ramdas Pophale) SiO2 
 PCOD8022662
Probable space group: P -1
;
_chemical_formula_sum "Si O2"
_cell_formula_units_Z 16
_cell_length_a 19.770007
_cell_length_b 8.942634
_cell_length_c 11.611570
_cell_angle_alpha 41.221933
_cell_angle_beta 147.552038
_cell_angle_gamma 125.525893
_cell_volume 717.413589
_symmetry_space_group_name_H-M "P -1"
_symmetry_group_IT_number 2
_symmetry_cell_setting 'triclinic'
loop_
_space_group_symop_operation_xyz
x,y,z
-x,-y,-z
loop_
_atom_site_type_symbol
_atom_site_label
_atom_site_fract_x
_atom_site_fract_y
_atom_site_fract_z
Si Si1 0.702453 0.040967 0.447019
Si Si2 0.369310 0.600904 0.686516
Si Si3 0.472784 0.771557 0.284749
Si Si4 0.689595 0.378676 0.037085
Si Si5 0.975727 0.329873 0.461647
Si Si6 0.052981 0.155661 0.220182
Si Si7 0.880144 0.578358 0.616657
Si Si8 0.478905 0.781572 0.529376
O O1 0.690017 0.144187 0.499010
O O2 0.686179 0.283394 0.215776
O O3 0.595287 0.883373 0.358754
O O4 0.837736 0.896380 0.690639
O O5 0.264485 0.429674 0.629880
O O6 0.399214 0.625966 0.579690
O O7 0.500000 0.500000 0.000000
O O8 0.500000 0.500000 0.500000
O O9 0.411524 0.870997 0.260424
O O10 0.369105 0.812910 0.011370
O O11 0.828380 0.389743 0.180826
O O12 0.615351 0.636172 0.775189
O O13 0.000000 0.500000 0.500000
O O14 0.051122 0.356441 0.437712
O O15 0.008447 0.070528 0.706670
O O16 0.112623 0.238780 0.376471
O O17 0.942685 0.334300 0.900591
O O18 0.500000 0.000000 0.500000
#
# Coordination Sequence:
#
# PCOD8022662 Si02
#       8
#     2   2   2   2   2   2   2   2
#     4  11  22  43  68  97 140 182 226 281 344 415
#     4  12  26  44  68 102 140 179 229 281 352 416
#     4  10  23  37  63  96 131 176 222 275 339 402
#     4  10  23  41  66  97 134 179 227 278 342 413
#     4  11  25  46  73 103 137 182 237 289 351 419
#     4  10  26  47  72 105 137 185 242 284 351 418
#     4  11  26  47  74 101 143 185 230 301 343 416
#     4  11  23  41  62  99 137 174 222 279 339 407
#
# _framework density 22.302336
#
# number of rings (size 3 to 8) (size 9 to 14) (size 15 to 20)
#    0.000    1.250    2.500    2.250    7.000    6.000 
#    0.000    0.000    0.000    0.000    0.000    0.000 
#    0.000    0.000    0.000    0.000    0.000    0.000 
#
# Total GULP energy -198291.575398 kJ/mol
# GULP energy per Si atom -12393.223462 kJ/mol
# Density = 2.225157 g / cm^3
# Si number density = 22.302336 Si / 1000 Ang^3
#
#
#
# Elastic Constant Matrix: (Units=GPa)
#
#
# Indices 1 2 3 4 5 6 
#
# 1 131.5956 30.4282 32.7309 5.6907 7.4423 9.7745
# 2 30.4282 129.9268 36.2260 4.9333 8.0279 5.8001
# 3 32.7309 36.2260 70.0207 5.5744 4.3759 2.9102
# 4 5.6907 4.9333 5.5744 35.1766 0.1734 4.2584
# 5 7.4423 8.0279 4.3759 0.1734 21.5583 2.1904
# 6 9.7745 5.8001 2.9102 4.2584 2.1904 49.7186
#
#
#
# Elastic Compliance Matrix: (Units=1/GPa)
#
#
# Indices 1 2 3 4 5 6 
#
# 1 0.008904 -0.000921 -0.003466 -0.000595 -0.001890 -0.001306
# 2 -0.000921 0.009249 -0.004161 -0.000415 -0.002225 -0.000521
# 3 -0.003466 -0.004161 0.018244 -0.001778 -0.000973 0.000294
# 4 -0.000595 -0.000415 -0.001778 0.029134 0.000716 -0.002258
# 5 -0.001890 -0.002225 -0.000973 0.000716 0.048211 -0.001497
# 6 -0.001306 -0.000521 0.000294 -0.002258 -0.001497 0.020673
#
#
# Mechanical properties :
#
#
# Convention : Reuss Voigt Hill
#
# Bulk Modulus (GPa) = 51.80915 58.92371 55.36643
# Shear Modulus (GPa) = 31.65696 36.76791 34.21244
#
# Velocity S-wave (km/s) = 3.77164 4.06472 3.92092
# Velocity P-wave (km/s) = 6.49983 6.96470 6.73628
#
# Compressibility (1/GPa) = 0.01930161
#
# Stress axis : x y z
#
# Youngs Moduli (GPa) = 112.31390 108.12023 54.81203
#
# Poissons Ratio (x) = 0.09961 0.18996
# Poissons Ratio (y) = 0.10347 0.22806
# Poissons Ratio (z) = 0.38924 0.44985
#
# Static dielectric constant tensor:
#      x y z
#    x 3.800250 -0.068940 0.178050 
#    y -0.068940 4.225380 0.074960 
#    z 0.178050 0.074960 3.829440 
# 
# 
# High freq. dielectric constant tensor:
#      x y z
#    x 1.899420 -0.005640 -0.009270 
#    y -0.005640 1.891300 -0.001330 
#    z -0.009270 -0.001330 1.861420 
# 
# From -- ./inp_files/353793.got.cif
#   From: 2010.06.25/outbox.cif.g09.slc.cpg/sg2_177_cif.got.tgz:353793.got - 2010.06.27 13:26:56.
