data_PCOD8022807
_publ_section_title
;
Structure prediction by ZEFSAII (Michael W. Deem and Ramdas Pophale) SiO2 
 PCOD8022807
Probable space group: P -1
;
_chemical_formula_sum "Si O2"
_cell_formula_units_Z 16
_cell_length_a 26.216278
_cell_length_b 14.938126
_cell_length_c 8.098850
_cell_angle_alpha 131.733938
_cell_angle_beta 55.017992
_cell_angle_gamma 161.025242
_cell_volume 748.672512
_symmetry_space_group_name_H-M "P -1"
_symmetry_group_IT_number 2
_symmetry_cell_setting 'triclinic'
loop_
_space_group_symop_operation_xyz
x,y,z
-x,-y,-z
loop_
_atom_site_type_symbol
_atom_site_label
_atom_site_fract_x
_atom_site_fract_y
_atom_site_fract_z
Si Si1 0.377116 0.880225 0.001351
Si Si2 0.086617 0.271165 0.241006
Si Si3 0.552538 0.079274 0.679049
Si Si4 0.473855 0.215477 0.493645
Si Si5 0.933546 0.755670 0.374913
Si Si6 0.220688 0.084623 0.280542
Si Si7 0.788199 0.095749 0.241579
Si Si8 0.905284 0.191952 0.471428
O O1 0.198603 0.515249 0.848153
O O2 0.473084 0.062024 0.874898
O O3 0.500000 0.000000 0.000000
O O4 0.365619 0.984103 0.250476
O O5 0.257671 0.591861 0.224823
O O6 0.131079 0.345155 0.442691
O O7 0.969302 0.172198 0.297864
O O8 0.000000 0.000000 0.000000
O O9 0.500000 0.000000 0.500000
O O10 0.465763 0.801808 0.559812
O O11 0.621734 0.553298 0.563582
O O12 0.366029 0.093689 0.677044
O O13 0.000000 0.000000 0.500000
O O14 0.066610 0.889548 0.283758
O O15 0.197919 0.983910 0.381522
O O16 0.244747 0.033413 0.024942
O O17 0.800290 0.036032 0.311875
O O18 0.948091 0.455514 0.353549
#
# Coordination Sequence:
#
# PCOD8022807 Si02
#       8
#     2   2   2   2   2   2   2   2
#     4  10  23  39  63  91 135 176 218 279 337 413
#     4  11  25  40  69 101 137 175 232 290 337 422
#     4  11  22  42  63  99 137 180 226 278 350 413
#     4  11  25  45  67 100 138 184 231 285 355 412
#     4  11  24  40  64 100 133 181 226 281 353 406
#     4  11  26  45  70 103 139 177 239 294 340 420
#     4  11  24  46  75  96 142 185 233 284 352 419
#     4  10  25  46  69 108 134 184 234 285 351 413
#
# _framework density 21.371162000000002
#
# number of rings (size 3 to 8) (size 9 to 14) (size 15 to 20)
#    0.000    1.250    2.500    2.250   12.250    0.500 
#    2.250    0.000    0.000    0.000    0.000    0.000 
#    0.000    0.000    0.000    0.000    0.000    0.000 
#
# Total GULP energy -198226.204907 kJ/mol
# GULP energy per Si atom -12389.137807 kJ/mol
# Density = 2.132252 g / cm^3
# Si number density = 21.371162 Si / 1000 Ang^3
#
#
#
# Elastic Constant Matrix: (Units=GPa)
#
#
# Indices 1 2 3 4 5 6 
#
# 1 81.2071 26.1286 45.8887 0.5014 4.9866 -18.8389
# 2 26.1286 125.8436 61.4331 1.3560 2.0037 -11.6589
# 3 45.8887 61.4331 170.5811 -4.9238 6.4381 -7.1567
# 4 0.5014 1.3560 -4.9238 46.2989 3.0480 0.4100
# 5 4.9866 2.0037 6.4381 3.0480 30.6025 -0.0951
# 6 -18.8389 -11.6589 -7.1567 0.4100 -0.0951 35.0885
#
#
#
# Elastic Compliance Matrix: (Units=1/GPa)
#
#
# Indices 1 2 3 4 5 6 
#
# 1 0.016678 -0.000842 -0.003799 -0.000512 -0.001788 0.007901
# 2 -0.000842 0.009932 -0.003287 -0.000667 0.000252 0.002186
# 3 -0.003799 -0.003287 0.008073 0.001073 -0.000976 -0.001501
# 4 -0.000512 -0.000667 0.001073 0.021893 -0.002281 -0.000540
# 5 -0.001788 0.000252 -0.000976 -0.002281 0.033381 -0.000958
# 6 0.007901 0.002186 -0.001501 -0.000540 -0.000958 0.033165
#
#
# Mechanical properties :
#
#
# Convention : Reuss Voigt Hill
#
# Bulk Modulus (GPa) = 53.11993 71.61472 62.36732
# Shear Modulus (GPa) = 34.42241 38.67674 36.54957
#
# Velocity S-wave (km/s) = 4.01770 4.25875 4.13998
# Velocity P-wave (km/s) = 6.81413 7.60035 7.21795
#
# Compressibility (1/GPa) = 0.01882533
#
# Stress axis : x y z
#
# Youngs Moduli (GPa) = 59.96013 100.68783 123.86884
#
# Poissons Ratio (x) = 0.08480 0.47059
# Poissons Ratio (y) = 0.05050 0.40719
# Poissons Ratio (z) = 0.22779 0.33099
#
# Static dielectric constant tensor:
#      x y z
#    x 3.914150 -0.140880 0.268480 
#    y -0.140880 3.876430 -0.248190 
#    z 0.268480 -0.248190 4.166380 
# 
# 
# High freq. dielectric constant tensor:
#      x y z
#    x 1.831730 -0.004520 0.009340 
#    y -0.004520 1.852860 -0.014940 
#    z 0.009340 -0.014940 1.852310 
# 
# From -- ./inp_files/357457.got.cif
#   From: 2010.06.25/outbox.cif.g09.slc.cpg/sg2_179_cif.got.tgz:357457.got - 2010.06.27 13:26:56.
