data_PCOD8022791
_publ_section_title
;
Structure prediction by ZEFSAII (Michael W. Deem and Ramdas Pophale) SiO2 
 PCOD8022791
Probable space group: P -1
;
_chemical_formula_sum "Si O2"
_cell_formula_units_Z 16
_cell_length_a 15.719755
_cell_length_b 9.125714
_cell_length_c 12.113642
_cell_angle_alpha 48.219217
_cell_angle_beta 35.398460
_cell_angle_gamma 46.062861
_cell_volume 703.428791
_symmetry_space_group_name_H-M "P -1"
_symmetry_group_IT_number 2
_symmetry_cell_setting 'triclinic'
loop_
_space_group_symop_operation_xyz
x,y,z
-x,-y,-z
loop_
_atom_site_type_symbol
_atom_site_label
_atom_site_fract_x
_atom_site_fract_y
_atom_site_fract_z
Si Si1 0.586264 0.921242 0.564786
Si Si2 0.359881 0.787579 0.025097
Si Si3 0.174772 0.221378 0.956920
Si Si4 0.286604 0.829164 0.330156
Si Si5 0.092148 0.282917 0.375888
Si Si6 0.773268 0.550992 0.663430
Si Si7 0.505330 0.724839 0.355326
Si Si8 0.083779 0.548187 0.722973
O O1 0.747806 0.714530 0.500518
O O2 0.500000 0.000000 0.500000
O O3 0.595999 0.124749 0.514450
O O4 0.504266 0.811232 0.794344
O O5 0.363827 0.837039 0.126322
O O6 0.357244 0.555203 0.125070
O O7 0.209916 0.973047 0.038900
O O8 0.318806 0.270563 0.839786
O O9 0.167462 0.308481 0.795293
O O10 0.006613 0.322603 0.140338
O O11 0.424795 0.794539 0.288190
O O12 0.214881 0.642840 0.496493
O O13 0.144582 0.043801 0.400361
O O14 0.224970 0.323397 0.288661
O O15 0.931832 0.350252 0.582425
O O16 0.047814 0.432309 0.240040
O O17 0.500000 0.500000 0.500000
#
# Coordination Sequence:
#
# PCOD8022791 Si02
#       8
#     2   2   2   2   2   2   2   2
#     4  11  27  47  67  95 141 182 219 274 348 416
#     4  11  24  42  69  97 129 178 228 273 342 398
#     4  10  23  39  62 101 134 169 222 277 341 396
#     4  12  22  43  74 102 133 173 235 289 331 397
#     4  11  23  40  69  97 133 178 220 282 333 397
#     4  11  24  44  63  99 138 174 228 266 337 414
#     4  11  24  44  69 104 133 175 229 287 336 392
#     4  11  21  40  66  96 137 174 216 277 344 393
#
# _framework density 22.745726999999999
#
# number of rings (size 3 to 8) (size 9 to 14) (size 15 to 20)
#    0.000    1.000    5.000    1.500    5.250    3.000 
#    2.250    0.625    0.000    0.000    0.000    0.000 
#    0.000    0.000    0.000    0.000    0.000    0.000 
#
# Total GULP energy -198244.817144 kJ/mol
# GULP energy per Si atom -12390.301071 kJ/mol
# Density = 2.269396 g / cm^3
# Si number density = 22.745727 Si / 1000 Ang^3
#
#
#
# Elastic Constant Matrix: (Units=GPa)
#
#
# Indices 1 2 3 4 5 6 
#
# 1 163.1537 46.0658 31.4233 -29.2613 29.8777 -16.3095
# 2 46.0658 92.2855 21.3788 -36.1340 8.9671 -6.9508
# 3 31.4233 21.3788 81.4452 -13.7050 14.8542 -3.7560
# 4 -29.2613 -36.1340 -13.7050 36.8425 -7.8137 1.2792
# 5 29.8777 8.9671 14.8542 -7.8137 37.0649 -5.4068
# 6 -16.3095 -6.9508 -3.7560 1.2792 -5.4068 40.8145
#
#
#
# Elastic Compliance Matrix: (Units=1/GPa)
#
#
# Indices 1 2 3 4 5 6 
#
# 1 0.008682 -0.002142 -0.001237 0.003200 -0.004985 0.002230
# 2 -0.002142 0.018610 -0.001518 0.016246 0.001530 0.001867
# 3 -0.001237 -0.001518 0.014200 0.001982 -0.003912 -0.000026
# 4 0.003200 0.016246 0.001982 0.046890 0.003042 0.003161
# 5 -0.004985 0.001530 -0.003912 0.003042 0.033159 0.002206
# 6 0.002230 0.001867 -0.000026 0.003161 0.002206 0.025901
#
#
# Mechanical properties :
#
#
# Convention : Reuss Voigt Hill
#
# Bulk Modulus (GPa) = 31.54781 59.40226 45.47503
# Shear Modulus (GPa) = 29.79744 38.81216 34.30480
#
# Velocity S-wave (km/s) = 3.62335 4.13528 3.88775
# Velocity P-wave (km/s) = 5.60400 6.99809 6.33948
#
# Compressibility (1/GPa) = 0.03169792
#
# Stress axis : x y z
#
# Youngs Moduli (GPa) = 115.18341 53.73580 70.42385
#
# Poissons Ratio (x) = 0.11510 0.08712
# Poissons Ratio (y) = 0.24671 0.10688
# Poissons Ratio (z) = 0.14248 0.08155
#
# Static dielectric constant tensor:
#      x y z
#    x 4.298490 -0.287250 0.145630 
#    y -0.287250 4.667050 -0.035250 
#    z 0.145630 -0.035250 3.928560 
# 
# 
# High freq. dielectric constant tensor:
#      x y z
#    x 1.894920 -0.020040 0.015860 
#    y -0.020040 1.927070 0.001900 
#    z 0.015860 0.001900 1.879530 
# 
# From -- ./inp_files/298539.got.cif
#   From: 2010.06.25/outbox.cif.g09.slc.cpg/sg2_150_cif.got.tgz:298539.got - 2010.06.27 13:26:56.
