data_PCOD8022618
_publ_section_title
;
Structure prediction by ZEFSAII (Michael W. Deem and Ramdas Pophale) SiO2 
 PCOD8022618
Probable space group: P -1
;
_chemical_formula_sum "Si O2"
_cell_formula_units_Z 14
_cell_length_a 9.595774
_cell_length_b 23.477436
_cell_length_c 5.283282
_cell_angle_alpha 133.101388
_cell_angle_beta 125.119366
_cell_angle_gamma 41.056402
_cell_volume 566.301873
_symmetry_space_group_name_H-M "P -1"
_symmetry_group_IT_number 2
_symmetry_cell_setting 'triclinic'
loop_
_space_group_symop_operation_xyz
x,y,z
-x,-y,-z
loop_
_atom_site_type_symbol
_atom_site_label
_atom_site_fract_x
_atom_site_fract_y
_atom_site_fract_z
Si Si1 0.929289 0.095194 0.367428
Si Si2 0.395060 0.994475 0.624672
Si Si3 0.863379 0.365393 0.742563
Si Si4 0.560065 0.172512 0.590948
Si Si5 0.803363 0.555079 0.276768
Si Si6 0.597094 0.295180 0.358064
Si Si7 0.119086 0.306487 0.354625
O O1 0.786479 0.105238 0.482007
O O2 0.801405 0.192856 0.365058
O O3 0.141562 0.082962 0.639268
O O4 0.000000 0.000000 0.000000
O O5 0.500000 0.000000 0.500000
O O6 0.428807 0.891331 0.357030
O O7 0.500000 0.000000 0.000000
O O8 0.661912 0.364505 0.558175
O O9 0.996297 0.299385 0.437055
O O10 0.764688 0.477582 0.908361
O O11 0.008553 0.322907 0.018047
O O12 0.361854 0.205404 0.297140
O O13 0.515781 0.271321 0.953892
O O14 0.590186 0.648599 0.464748
O O15 0.868945 0.603437 0.288145
O O16 0.000000 0.500000 0.500000
#
# Coordination Sequence:
#
# PCOD8022618 Si02
#       7
#     2   2   2   2   2   2   2
#     4  12  27  52  75 108 153 200 251 310 383 453
#     4  12  30  48  77 108 147 194 250 313 375 443
#     4  11  27  45  77 112 157 195 254 311 378 442
#     4  12  27  48  78 107 152 199 254 306 387 446
#     4  10  22  50  75 110 153 202 248 309 378 449
#     4  12  27  47  76 113 153 197 256 311 375 449
#     4  11  25  47  76 112 149 201 250 312 373 450
#
# _framework density 24.721799000000001
#
# number of rings (size 3 to 8) (size 9 to 14) (size 15 to 20)
#    0.000    0.571    2.857    3.857    8.000    1.143 
#    0.000    4.286    0.000    0.000    0.000    0.000 
#    0.000    0.000    0.000    0.000    0.000    0.000 
#
# Total GULP energy -173586.776750 kJ/mol
# GULP energy per Si atom -12399.055482 kJ/mol
# Density = 2.466553 g / cm^3
# Si number density = 24.721799 Si / 1000 Ang^3
#
#
#
# Elastic Constant Matrix: (Units=GPa)
#
#
# Indices 1 2 3 4 5 6 
#
# 1 135.2737 3.0347 33.6127 -5.6927 -10.2473 7.7440
# 2 3.0347 78.9548 5.6049 -8.5855 -11.5402 -14.0823
# 3 33.6127 5.6049 82.6182 -5.9270 -10.6267 -6.3463
# 4 -5.6927 -8.5855 -5.9270 39.4995 6.8934 1.3525
# 5 -10.2473 -11.5402 -10.6267 6.8934 39.8399 0.9192
# 6 7.7440 -14.0823 -6.3463 1.3525 0.9192 44.3972
#
#
#
# Elastic Compliance Matrix: (Units=1/GPa)
#
#
# Indices 1 2 3 4 5 6 
#
# 1 0.008472 -0.000227 -0.003404 0.000529 0.001162 -0.002077
# 2 -0.000227 0.014231 0.000093 0.002297 0.003589 0.004422
# 3 -0.003404 0.000093 0.014099 0.001093 0.002664 0.002550
# 4 0.000529 0.002297 0.001093 0.026669 -0.003523 0.000053
# 5 0.001162 0.003589 0.002664 -0.003523 0.027740 0.000850
# 6 -0.002077 0.004422 0.002550 0.000053 0.000850 0.024634
#
#
# Mechanical properties :
#
#
# Convention : Reuss Voigt Hill
#
# Bulk Modulus (GPa) = 33.63918 42.37238 38.00578
# Shear Modulus (GPa) = 37.64217 41.72026 39.68122
#
# Velocity S-wave (km/s) = 3.90632 4.11249 4.01073
# Velocity P-wave (km/s) = 5.82945 6.30293 6.07081
#
# Compressibility (1/GPa) = 0.02972724
#
# Stress axis : x y z
#
# Youngs Moduli (GPa) = 118.03015 70.27051 70.92552
#
# Poissons Ratio (x) = 0.01595 0.24140
# Poissons Ratio (y) = 0.02679 -0.00660
# Poissons Ratio (z) = 0.40173 -0.00654
#
# Static dielectric constant tensor:
#      x y z
#    x 4.630030 0.052560 0.443690 
#    y 0.052560 4.858360 0.181120 
#    z 0.443690 0.181120 4.364300 
# 
# 
# High freq. dielectric constant tensor:
#      x y z
#    x 1.999400 0.001390 0.011940 
#    y 0.001390 2.001370 0.000600 
#    z 0.011940 0.000600 1.970740 
# 
# From -- ./inp_files/55765.got.cif
#   From: 2010.06.25/outbox.cif.g09.slc.cpg/sg2_28_cif.got.tgz:55765.got - 2010.06.27 13:26:56.
