data_PCOD8022700
_publ_section_title
;
Structure prediction by ZEFSAII (Michael W. Deem and Ramdas Pophale) SiO2 
 PCOD8022700
Probable space group: P -1
;
_chemical_formula_sum "Si O2"
_cell_formula_units_Z 14
_cell_length_a 6.787309
_cell_length_b 13.691460
_cell_length_c 14.589644
_cell_angle_alpha 149.585837
_cell_angle_beta 82.971200
_cell_angle_gamma 84.577719
_cell_volume 624.897489
_symmetry_space_group_name_H-M "P -1"
_symmetry_group_IT_number 2
_symmetry_cell_setting 'triclinic'
loop_
_space_group_symop_operation_xyz
x,y,z
-x,-y,-z
loop_
_atom_site_type_symbol
_atom_site_label
_atom_site_fract_x
_atom_site_fract_y
_atom_site_fract_z
Si Si1 0.710557 0.520963 0.115871
Si Si2 0.111310 0.610604 0.456693
Si Si3 0.872335 0.023575 0.119508
Si Si4 0.233437 0.734090 0.358853
Si Si5 0.841763 0.418288 0.224492
Si Si6 0.069270 0.201800 0.735500
Si Si7 0.487448 0.673888 0.711435
O O1 0.453294 0.583894 0.172030
O O2 0.760688 0.547023 0.240140
O O3 0.778479 0.669280 0.164460
O O4 0.862423 0.284102 0.883263
O O5 0.076286 0.812563 0.684946
O O6 0.220569 0.630130 0.371146
O O7 0.270373 0.388216 0.314543
O O8 0.892016 0.574849 0.419556
O O9 0.620550 0.110384 0.167866
O O10 0.000000 0.000000 0.000000
O O11 0.940895 0.796290 0.979902
O O12 0.022991 0.770594 0.340006
O O13 0.228459 0.966302 0.563309
O O14 0.662799 0.340051 0.207774
O O15 0.500000 0.500000 0.500000
#
# Coordination Sequence:
#
# PCOD8022700 Si02
#       7
#     2   2   2   2   2   2   2
#     4  11  21  39  62  88 124 159 200 252 301 360
#     4  11  21  38  63  86 119 159 199 249 303 362
#     4   9  21  38  59  86 117 153 198 250 301 356
#     4  11  21  39  62  88 122 160 202 249 304 359
#     4  11  21  38  62  87 119 158 197 248 303 358
#     4  10  23  38  61  90 120 161 203 246 305 359
#     4   9  20  38  59  84 115 153 195 247 301 356
#
# _framework density 22.403676999999998
#
# number of rings (size 3 to 8) (size 9 to 14) (size 15 to 20)
#    0.000    1.714    2.857    1.714    0.000    5.714 
#    0.000    4.286    0.000    0.000    0.000    0.000 
#    0.000    0.000    0.000    0.000    0.000    0.000 
#
# Total GULP energy -173442.147260 kJ/mol
# GULP energy per Si atom -12388.724804 kJ/mol
# Density = 2.235268 g / cm^3
# Si number density = 22.403677 Si / 1000 Ang^3
#
#
#
# Elastic Constant Matrix: (Units=GPa)
#
#
# Indices 1 2 3 4 5 6 
#
# 1 37.2927 -3.6400 -4.7974 1.1646 -3.0087 -2.5240
# 2 -3.6400 46.1019 -2.8549 6.6395 -3.4993 -11.2648
# 3 -4.7974 -2.8549 70.8772 -2.7610 -8.8913 2.4181
# 4 1.1646 6.6395 -2.7610 33.0740 -3.0020 -2.8418
# 5 -3.0087 -3.4993 -8.8913 -3.0020 32.6954 -3.2427
# 6 -2.5240 -11.2648 2.4181 -2.8418 -3.2427 31.3798
#
#
#
# Elastic Compliance Matrix: (Units=1/GPa)
#
#
# Indices 1 2 3 4 5 6 
#
# 1 0.028077 0.003696 0.002380 -0.000856 0.003918 0.003729
# 2 0.003696 0.025199 0.001291 -0.003924 0.003950 0.009297
# 3 0.002380 0.001291 0.014941 0.001326 0.004551 0.000094
# 4 -0.000856 -0.003924 0.001326 0.031564 0.002917 0.001580
# 5 0.003918 0.003950 0.004551 0.002917 0.033380 0.005096
# 6 0.003729 0.009297 0.000094 0.001580 0.005096 0.036167
#
#
# Mechanical properties :
#
#
# Convention : Reuss Voigt Hill
#
# Bulk Modulus (GPa) = 12.05521 14.63192 13.34357
# Shear Modulus (GPa) = 27.43548 30.46744 28.95146
#
# Velocity S-wave (km/s) = 3.50322 3.69172 3.59871
# Velocity P-wave (km/s) = 4.66433 4.97162 4.82042
#
# Compressibility (1/GPa) = 0.08295166
#
# Stress axis : x y z
#
# Youngs Moduli (GPa) = 35.61629 39.68354 66.92808
#
# Poissons Ratio (x) = -0.14667 -0.15930
# Poissons Ratio (y) = -0.13164 -0.08638
# Poissons Ratio (z) = -0.08477 -0.05122
#
# Static dielectric constant tensor:
#      x y z
#    x 4.159910 -0.962180 -0.562600 
#    y -0.962180 4.797540 0.469280 
#    z -0.562600 0.469280 4.385760 
# 
# 
# High freq. dielectric constant tensor:
#      x y z
#    x 1.860340 -0.019370 -0.012960 
#    y -0.019370 1.886800 -0.002640 
#    z -0.012960 -0.002640 1.881660 
# 
# From -- ./inp_files/44339.got.cif
#   From: 2010.06.25/outbox.cif.g09.slc.cpg/sg2_23_cif.got.tgz:44339.got - 2010.06.27 13:26:56.
