data_PCOD8022968
_publ_section_title
;
Structure prediction by ZEFSAII (Michael W. Deem and Ramdas Pophale) SiO2 
 PCOD8022968
Probable space group: P -1
;
_chemical_formula_sum "Si O2"
_cell_formula_units_Z 16
_cell_length_a 21.049985
_cell_length_b 6.870895
_cell_length_c 11.233765
_cell_angle_alpha 101.598231
_cell_angle_beta 30.089196
_cell_angle_gamma 106.011942
_cell_volume 780.580382
_symmetry_space_group_name_H-M "P -1"
_symmetry_group_IT_number 2
_symmetry_cell_setting 'triclinic'
loop_
_space_group_symop_operation_xyz
x,y,z
-x,-y,-z
loop_
_atom_site_type_symbol
_atom_site_label
_atom_site_fract_x
_atom_site_fract_y
_atom_site_fract_z
Si Si1 0.600941 0.137532 0.437556
Si Si2 0.003304 0.274501 0.758264
Si Si3 0.788225 0.532797 0.139866
Si Si4 0.208505 0.095015 0.977313
Si Si5 0.781000 0.729159 0.425914
Si Si6 0.731470 0.507093 0.705205
Si Si7 0.349576 0.962491 0.209994
Si Si8 0.374476 0.185551 0.955779
O O1 0.662215 0.353109 0.301975
O O2 0.524888 0.179669 0.685169
O O3 0.500000 0.000000 0.500000
O O4 0.714375 0.012307 0.260815
O O5 0.066948 0.231915 0.777060
O O6 0.120153 0.375152 0.491741
O O7 0.913238 0.436583 0.941974
O O8 0.929587 0.057732 0.798676
O O9 0.805956 0.684026 0.017038
O O10 0.765338 0.658280 0.308089
O O11 0.284603 0.111815 0.979605
O O12 0.698640 0.558350 0.627771
O O13 0.724210 0.932526 0.557574
O O14 0.717286 0.270805 0.712870
O O15 0.635584 0.585666 0.963293
O O16 0.500000 0.000000 0.000000
O O17 0.323244 0.042687 0.132252
#
# Coordination Sequence:
#
# PCOD8022968 Si02
#       8
#     2   2   2   2   2   2   2   2
#     4   9  22  40  59  90 128 157 204 253 299 363
#     4   9  22  42  60  92 129 155 205 259 300 363
#     4  11  22  37  68  89 122 170 200 248 315 361
#     4  10  23  40  63  93 123 162 206 251 305 367
#     4   9  23  40  60  94 122 156 208 252 301 363
#     4   9  23  41  61  88 123 161 199 258 304 354
#     4  11  25  40  65  90 122 166 205 250 312 364
#     4  10  23  41  61  90 127 157 206 257 299 368
#
# _framework density 20.497567
#
# number of rings (size 3 to 8) (size 9 to 14) (size 15 to 20)
#    0.750    1.500    0.000    0.375    7.000    8.000 
#    0.000    1.250    0.000    0.000    0.000    0.000 
#    0.000    0.000    0.000    0.000    0.000    0.000 
#
# Total GULP energy -198289.764610 kJ/mol
# GULP energy per Si atom -12393.110288 kJ/mol
# Density = 2.045091 g / cm^3
# Si number density = 20.497567 Si / 1000 Ang^3
#
#
#
# Elastic Constant Matrix: (Units=GPa)
#
#
# Indices 1 2 3 4 5 6 
#
# 1 87.0159 35.2560 20.3524 1.6600 -5.9470 0.8108
# 2 35.2560 149.6549 36.4237 2.0816 -10.2737 -1.2347
# 3 20.3524 36.4237 81.6514 12.2851 -7.0190 2.2575
# 4 1.6600 2.0816 12.2851 34.4702 4.3515 -5.6139
# 5 -5.9470 -10.2737 -7.0190 4.3515 29.7923 -1.5220
# 6 0.8108 -1.2347 2.2575 -5.6139 -1.5220 17.7592
#
#
#
# Elastic Compliance Matrix: (Units=1/GPa)
#
#
# Indices 1 2 3 4 5 6 
#
# 1 0.013069 -0.002504 -0.002026 0.000022 0.001244 -0.000400
# 2 -0.002504 0.008113 -0.003013 0.000741 0.001553 0.001429
# 3 -0.002026 -0.003013 0.015379 -0.006182 0.002890 -0.003778
# 4 0.000022 0.000741 -0.006182 0.033660 -0.005551 0.011001
# 5 0.001244 0.001553 0.002890 -0.005551 0.035893 0.001005
# 6 -0.000400 0.001429 -0.003778 0.011001 0.001005 0.060471
#
#
# Mechanical properties :
#
#
# Convention : Reuss Voigt Hill
#
# Bulk Modulus (GPa) = 46.56254 55.82071 51.19162
# Shear Modulus (GPa) = 26.47913 31.49033 28.98473
#
# Velocity S-wave (km/s) = 3.59809 3.92381 3.76447
# Velocity P-wave (km/s) = 6.32670 6.91523 6.62750
#
# Compressibility (1/GPa) = 0.02147649
#
# Stress axis : x y z
#
# Youngs Moduli (GPa) = 76.51791 123.25556 65.02378
#
# Poissons Ratio (x) = 0.30862 0.13173
# Poissons Ratio (y) = 0.19159 0.19589
# Poissons Ratio (z) = 0.15501 0.37132
#
# Static dielectric constant tensor:
#      x y z
#    x 3.419260 0.002890 -0.162740 
#    y 0.002890 3.746770 0.181070 
#    z -0.162740 0.181070 4.081240 
# 
# 
# High freq. dielectric constant tensor:
#      x y z
#    x 1.780830 0.005450 -0.012060 
#    y 0.005450 1.807880 0.012820 
#    z -0.012060 0.012820 1.804780 
# 
# From -- ./inp_files/473439.got.cif
#   From: 2010.06.25/outbox.cif.g09.slc.cpg/sg2_237_cif.got.tgz:473439.got - 2010.06.27 13:26:56.
