data_PCOD8022519
_publ_section_title
;
Structure prediction by ZEFSAII (Michael W. Deem and Ramdas Pophale) SiO2 
 PCOD8022519
Probable space group: P -1
;
_chemical_formula_sum "Si O2"
_cell_formula_units_Z 14
_cell_length_a 13.837101
_cell_length_b 5.157921
_cell_length_c 7.357619
_cell_angle_alpha 94.384696
_cell_angle_beta 71.043938
_cell_angle_gamma 87.803430
_cell_volume 494.074368
_symmetry_space_group_name_H-M "P -1"
_symmetry_group_IT_number 2
_symmetry_cell_setting 'triclinic'
loop_
_space_group_symop_operation_xyz
x,y,z
-x,-y,-z
loop_
_atom_site_type_symbol
_atom_site_label
_atom_site_fract_x
_atom_site_fract_y
_atom_site_fract_z
Si Si1 0.883292 0.591525 0.064024
Si Si2 0.138131 0.592256 0.321985
Si Si3 0.637714 0.909215 0.141865
Si Si4 0.923713 0.850991 0.405306
Si Si5 0.359469 0.622857 0.099432
Si Si6 0.546241 0.283763 0.591411
Si Si7 0.224406 0.846287 0.684984
O O1 0.893177 0.845956 0.203621
O O2 0.808331 0.390847 0.188173
O O3 0.866743 0.605463 0.857561
O O4 0.000000 0.500000 0.000000
O O5 0.118929 0.404274 0.494521
O O6 0.249649 0.697736 0.263952
O O7 0.047050 0.844841 0.369948
O O8 0.540114 0.930387 0.343455
O O9 0.750861 0.915049 0.171689
O O10 0.644461 0.639965 0.021383
O O11 0.613898 0.145790 0.034660
O O12 0.847762 0.120330 0.462023
O O13 0.443832 0.593470 0.205242
O O14 0.500000 0.500000 0.500000
O O15 0.658524 0.191048 0.450831
#
# Coordination Sequence:
#
# PCOD8022519 Si02
#       7
#     2   2   2   2   2   2   2
#     4  10  22  46  72 111 157 202 256 321 397 475
#     4  10  22  46  74 109 156 206 253 321 397 481
#     4  12  28  51  80 117 158 214 273 331 403 477
#     4  10  24  45  71 114 155 199 263 316 395 486
#     4  12  27  53  81 114 161 209 270 335 408 481
#     4  12  30  52  79 114 158 208 272 342 405 473
#     4  12  26  48  79 114 157 210 262 331 404 474
#
# _framework density 28.335816999999999
#
# number of rings (size 3 to 8) (size 9 to 14) (size 15 to 20)
#    0.000    0.857    1.429    3.857    6.000    3.429 
#    5.143    4.286    0.000    0.000    0.000    0.000 
#    0.000    0.000    0.000    0.000    0.000    0.000 
#
# Total GULP energy -173448.649379 kJ/mol
# GULP energy per Si atom -12389.189241 kJ/mol
# Density = 2.827132 g / cm^3
# Si number density = 28.335817 Si / 1000 Ang^3
#
#
#
# Elastic Constant Matrix: (Units=GPa)
#
#
# Indices 1 2 3 4 5 6 
#
# 1 213.5360 32.9311 62.7047 -15.8789 19.8892 -4.7603
# 2 32.9311 122.0846 32.3529 -23.4240 -0.9455 -11.5784
# 3 62.7047 32.3529 114.8191 -15.1211 0.3967 -8.0387
# 4 -15.8789 -23.4240 -15.1211 46.8878 2.0429 2.3311
# 5 19.8892 -0.9455 0.3967 2.0429 69.0925 -10.3747
# 6 -4.7603 -11.5784 -8.0387 2.3311 -10.3747 45.2120
#
#
#
# Elastic Compliance Matrix: (Units=1/GPa)
#
#
# Indices 1 2 3 4 5 6 
#
# 1 0.005867 -0.000720 -0.002929 0.000787 -0.001786 -0.000538
# 2 -0.000720 0.009798 -0.001702 0.003976 0.000541 0.002050
# 3 -0.002929 -0.001702 0.011095 0.001629 0.000911 0.001353
# 4 0.000787 0.003976 0.001629 0.024148 -0.000905 -0.000062
# 5 -0.001786 0.000541 0.000911 -0.000905 0.015577 0.003734
# 6 -0.000538 0.002050 0.001353 -0.000062 0.003734 0.023687
#
#
# Mechanical properties :
#
#
# Convention : Reuss Voigt Hill
#
# Bulk Modulus (GPa) = 62.27830 78.49076 70.38453
# Shear Modulus (GPa) = 47.06893 53.73520 50.40207
#
# Velocity S-wave (km/s) = 4.08009 4.35946 4.22209
# Velocity P-wave (km/s) = 6.65001 7.28699 6.97577
#
# Compressibility (1/GPa) = 0.01605696
#
# Stress axis : x y z
#
# Youngs Moduli (GPa) = 170.44138 102.06217 90.13346
#
# Poissons Ratio (x) = 0.07351 0.26400
# Poissons Ratio (y) = 0.12276 0.15342
# Poissons Ratio (z) = 0.49923 0.17372
#
# Static dielectric constant tensor:
#      x y z
#    x 6.339030 0.161800 -0.044450 
#    y 0.161800 3.273070 0.379520 
#    z -0.044450 0.379520 5.885100 
# 
# 
# High freq. dielectric constant tensor:
#      x y z
#    x 2.218390 0.007010 0.012260 
#    y 0.007010 2.156490 0.053590 
#    z 0.012260 0.053590 2.185760 
# 
# From -- ./inp_files/288596.got.cif
#   From: 2010.06.25/outbox.cif.g09.slc.cpg/sg2_145_cif.got.tgz:288596.got - 2010.06.27 13:26:56.
