data_PCOD8022228
_publ_section_title
;
Structure prediction by ZEFSAII (Michael W. Deem and Ramdas Pophale) SiO2 
 PCOD8022228
Probable space group: P -1
;
_chemical_formula_sum "Si O2"
_cell_formula_units_Z 14
_cell_length_a 12.294530
_cell_length_b 19.077907
_cell_length_c 16.973260
_cell_angle_alpha 158.322753
_cell_angle_beta 29.411219
_cell_angle_gamma 153.474184
_cell_volume 637.484480
_symmetry_space_group_name_H-M "P -1"
_symmetry_group_IT_number 2
_symmetry_cell_setting 'triclinic'
loop_
_space_group_symop_operation_xyz
x,y,z
-x,-y,-z
loop_
_atom_site_type_symbol
_atom_site_label
_atom_site_fract_x
_atom_site_fract_y
_atom_site_fract_z
Si Si1 0.210348 0.837862 0.019822
Si Si2 0.394913 0.668160 0.342780
Si Si3 0.894499 0.859538 0.496307
Si Si4 0.019689 0.864464 0.773547
Si Si5 0.500037 0.463396 0.702535
Si Si6 0.150495 0.229327 0.953398
Si Si7 0.932550 0.451332 0.901714
O O1 0.076338 0.759166 0.938222
O O2 0.101314 0.982768 0.276116
O O3 0.144899 0.630416 0.898896
O O4 0.500000 0.000000 0.000000
O O5 0.249031 0.808167 0.573904
O O6 0.473640 0.688840 0.406739
O O7 0.627649 0.749969 0.222155
O O8 0.226228 0.415339 0.165413
O O9 0.629699 0.664900 0.430266
O O10 0.068896 0.775863 0.344426
O O11 0.000000 0.000000 0.500000
O O12 0.764666 0.645640 0.697356
O O13 0.051055 0.999833 0.816897
O O14 0.000000 0.000000 0.000000
O O15 0.339751 0.563979 0.954018
O O16 0.000000 0.500000 0.000000
#
# Coordination Sequence:
#
# PCOD8022228 Si02
#       7
#     2   2   2   2   2   2   2
#     4  12  27  43  69 106 140 181 226 287 352 404
#     4  11  24  49  70 100 140 183 235 281 350 413
#     4  11  23  44  72 100 136 187 229 280 345 412
#     4  12  27  43  71 106 134 182 234 290 345 407
#     4  11  23  44  72 103 132 179 237 289 333 413
#     4  11  26  47  68 100 145 183 227 285 352 413
#     4  10  22  45  68  98 134 181 231 273 338 421
#
# _framework density 21.961319
#
# number of rings (size 3 to 8) (size 9 to 14) (size 15 to 20)
#    0.000    0.857    5.714    0.857    6.000    4.000 
#    0.000    0.000    0.000    0.000    0.000    0.000 
#    0.000    0.000    0.000    0.000    0.000    0.000 
#
# Total GULP energy -173519.444791 kJ/mol
# GULP energy per Si atom -12394.246056 kJ/mol
# Density = 2.191133 g / cm^3
# Si number density = 21.961319 Si / 1000 Ang^3
#
#
#
# Elastic Constant Matrix: (Units=GPa)
#
#
# Indices 1 2 3 4 5 6 
#
# 1 85.0284 15.2791 13.8004 5.4315 -24.8417 -6.7701
# 2 15.2791 96.8144 16.0636 6.5863 -31.5616 -12.9649
# 3 13.8004 16.0636 98.5758 10.2789 -24.7658 -11.3772
# 4 5.4315 6.5863 10.2789 26.8507 -5.0187 -11.9426
# 5 -24.8417 -31.5616 -24.7658 -5.0187 42.5673 8.3329
# 6 -6.7701 -12.9649 -11.3772 -11.9426 8.3329 36.6697
#
#
#
# Elastic Compliance Matrix: (Units=1/GPa)
#
#
# Indices 1 2 3 4 5 6 
#
# 1 0.014274 0.000722 0.000287 -0.001282 0.008770 0.000569
# 2 0.000722 0.013944 0.000650 -0.000665 0.010541 0.002653
# 3 0.000287 0.000650 0.012273 -0.002903 0.007150 0.001520
# 4 -0.001282 -0.000665 -0.002903 0.044606 -0.000258 0.013213
# 5 0.008770 0.010541 0.007150 -0.000258 0.040911 -0.001816
# 6 0.000569 0.002653 0.001520 0.013213 -0.001816 0.033501
#
#
# Mechanical properties :
#
#
# Convention : Reuss Voigt Hill
#
# Bulk Modulus (GPa) = 22.82628 41.18944 32.00786
# Shear Modulus (GPa) = 29.27519 36.90257 33.08888
#
# Velocity S-wave (km/s) = 3.65504 4.10365 3.88582
# Velocity P-wave (km/s) = 5.31308 6.42257 5.89399
#
# Compressibility (1/GPa) = 0.04380916
#
# Stress axis : x y z
#
# Youngs Moduli (GPa) = 70.05842 71.71510 81.48025
#
# Poissons Ratio (x) = -0.05179 -0.02335
# Poissons Ratio (y) = -0.05059 -0.05300
# Poissons Ratio (z) = -0.02008 -0.04665
#
# Static dielectric constant tensor:
#      x y z
#    x 4.022380 0.203630 0.058750 
#    y 0.203630 4.147590 -0.064960 
#    z 0.058750 -0.064960 2.927200 
# 
# 
# High freq. dielectric constant tensor:
#      x y z
#    x 1.868490 -0.002090 -0.009440 
#    y -0.002090 1.869380 0.006700 
#    z -0.009440 0.006700 1.870450 
# 
# From -- ./inp_files/236835.got.cif
#   From: 2010.06.25/outbox.cif.g09.slc.cpg/sg2_119_cif.got.tgz:236835.got - 2010.06.27 13:26:56.
