data_PCOD8022819
_publ_section_title
;
Structure prediction by ZEFSAII (Michael W. Deem and Ramdas Pophale) SiO2 
 PCOD8022819
Probable space group: P -1
;
_chemical_formula_sum "Si O2"
_cell_formula_units_Z 16
_cell_length_a 13.305415
_cell_length_b 14.439363
_cell_length_c 10.945292
_cell_angle_alpha 147.457545
_cell_angle_beta 42.305927
_cell_angle_gamma 128.425496
_cell_volume 761.362127
_symmetry_space_group_name_H-M "P -1"
_symmetry_group_IT_number 2
_symmetry_cell_setting 'triclinic'
loop_
_space_group_symop_operation_xyz
x,y,z
-x,-y,-z
loop_
_atom_site_type_symbol
_atom_site_label
_atom_site_fract_x
_atom_site_fract_y
_atom_site_fract_z
Si Si1 0.830990 0.438182 0.061929
Si Si2 0.897317 0.042066 0.525464
Si Si3 0.834251 0.164637 0.305207
Si Si4 0.931230 0.865364 0.751448
Si Si5 0.722430 0.705555 0.256165
Si Si6 0.777882 0.535438 0.475319
Si Si7 0.021238 0.384374 0.233027
Si Si8 0.429094 0.615733 0.297780
O O1 0.749428 0.555852 0.165145
O O2 0.732556 0.463506 0.303075
O O3 0.826499 0.234976 0.806933
O O4 0.000000 0.500000 0.000000
O O5 0.006015 0.020959 0.288947
O O6 0.769184 0.895497 0.471729
O O7 0.000000 0.000000 0.500000
O O8 0.931858 0.212710 0.152132
O O9 0.669926 0.245696 0.534095
O O10 0.919454 0.221644 0.416665
O O11 0.839323 0.959353 0.049447
O O12 0.806128 0.739050 0.669457
O O13 0.550416 0.714451 0.380482
O O14 0.808156 0.654011 0.996477
O O15 0.944439 0.463865 0.271053
O O16 0.667161 0.492560 0.638474
O O17 0.000000 0.500000 0.500000
O O18 0.500000 0.500000 0.000000
#
# Coordination Sequence:
#
# PCOD8022819 Si02
#       8
#     2   2   2   2   2   2   2   2
#     4  12  23  41  72 103 130 176 237 294 333 395
#     4  12  23  40  71 107 130 173 233 296 339 387
#     4  10  23  39  64 100 129 168 229 276 344 404
#     4  11  21  39  70 101 127 170 229 297 330 395
#     4  12  24  45  66 101 140 180 228 283 350 407
#     4  11  22  42  67  96 132 174 231 280 334 406
#     4  11  18  34  67  90 125 171 221 280 329 391
#     4  11  28  44  67  97 144 187 214 274 362 426
#
# _framework density 21.014966000000001
#
# number of rings (size 3 to 8) (size 9 to 14) (size 15 to 20)
#    0.000    0.750    6.250    1.500    3.500    0.500 
#    2.250    1.875    0.000    0.000    0.000    0.000 
#    0.000    0.000    0.000    0.000    0.000    0.000 
#
# Total GULP energy -198223.576197 kJ/mol
# GULP energy per Si atom -12388.973512 kJ/mol
# Density = 2.096713 g / cm^3
# Si number density = 21.014966 Si / 1000 Ang^3
#
#
#
# Elastic Constant Matrix: (Units=GPa)
#
#
# Indices 1 2 3 4 5 6 
#
# 1 129.4503 44.8393 56.4952 3.6489 -4.9781 5.0527
# 2 44.8393 82.1468 41.3309 7.2891 0.6660 2.2423
# 3 56.4952 41.3309 118.0080 4.1917 10.5026 -1.6011
# 4 3.6489 7.2891 4.1917 38.4962 0.9622 5.4310
# 5 -4.9781 0.6660 10.5026 0.9622 38.4173 -0.4682
# 6 5.0527 2.2423 -1.6011 5.4310 -0.4682 32.7296
#
#
#
# Elastic Compliance Matrix: (Units=1/GPa)
#
#
# Indices 1 2 3 4 5 6 
#
# 1 0.011075 -0.003942 -0.004188 0.000322 0.002620 -0.001660
# 2 -0.003942 0.016461 -0.003828 -0.002288 0.000304 -0.000322
# 3 -0.004188 -0.003828 0.012188 -0.000323 -0.003782 0.001505
# 4 0.000322 -0.002288 -0.000323 0.027050 -0.000562 -0.004405
# 5 0.002620 0.000304 -0.003782 -0.000562 0.027411 -0.000125
# 6 -0.001660 -0.000322 0.001505 -0.004405 -0.000125 0.031635
#
#
# Mechanical properties :
#
#
# Convention : Reuss Voigt Hill
#
# Bulk Modulus (GPa) = 63.26473 68.32621 65.79547
# Shear Modulus (GPa) = 32.25697 34.39125 33.32411
#
# Velocity S-wave (km/s) = 3.92210 4.04977 3.98645
# Velocity P-wave (km/s) = 7.11902 7.37911 7.25023
#
# Compressibility (1/GPa) = 0.01580660
#
# Stress axis : x y z
#
# Youngs Moduli (GPa) = 90.29394 60.75139 82.04572
#
# Poissons Ratio (x) = 0.23950 0.34364
# Poissons Ratio (y) = 0.35596 0.31406
# Poissons Ratio (z) = 0.37819 0.23255
#
# Static dielectric constant tensor:
#      x y z
#    x 3.984520 -0.029360 0.339420 
#    y -0.029360 4.143540 0.410970 
#    z 0.339420 0.410970 4.166930 
# 
# 
# High freq. dielectric constant tensor:
#      x y z
#    x 1.818540 -0.018490 0.021280 
#    y -0.018490 1.822720 0.012530 
#    z 0.021280 0.012530 1.822740 
# 
# From -- ./inp_files/455986.got.cif
#   From: 2010.06.25/outbox.cif.g09.slc.cpg/sg2_228_cif.got.tgz:455986.got - 2010.06.27 13:26:56.
