data_PCOD8022931
_publ_section_title
;
Structure prediction by ZEFSAII (Michael W. Deem and Ramdas Pophale) SiO2 
 PCOD8022931
Probable space group: P -1
;
_chemical_formula_sum "Si O2"
_cell_formula_units_Z 16
_cell_length_a 8.949152
_cell_length_b 21.064223
_cell_length_c 20.910848
_cell_angle_alpha 160.677314
_cell_angle_beta 39.532898
_cell_angle_gamma 131.257085
_cell_volume 785.251974
_symmetry_space_group_name_H-M "P -1"
_symmetry_group_IT_number 2
_symmetry_cell_setting 'triclinic'
loop_
_space_group_symop_operation_xyz
x,y,z
-x,-y,-z
loop_
_atom_site_type_symbol
_atom_site_label
_atom_site_fract_x
_atom_site_fract_y
_atom_site_fract_z
Si Si1 0.405175 0.449580 0.720860
Si Si2 0.821233 0.253508 0.495989
Si Si3 0.462780 0.415970 0.000230
Si Si4 0.060747 0.858280 0.246372
Si Si5 0.017091 0.254228 0.700900
Si Si6 0.121365 0.165268 0.854558
Si Si7 0.395918 0.506008 0.635895
Si Si8 0.358890 0.237131 0.277808
O O1 0.618344 0.305305 0.556523
O O2 0.142436 0.415603 0.789632
O O3 0.488539 0.404107 0.576900
O O4 0.333683 0.690433 0.987250
O O5 0.740026 0.406739 0.727068
O O6 0.067663 0.276123 0.405640
O O7 0.866304 0.026951 0.289463
O O8 0.500000 0.500000 0.000000
O O9 0.369304 0.222791 0.839227
O O10 0.719898 0.350835 0.891565
O O11 0.907903 0.812199 0.313617
O O12 0.895372 0.881679 0.259581
O O13 0.110864 0.067906 0.443441
O O14 0.888411 0.351950 0.131856
O O15 0.428875 0.319505 0.399849
O O16 0.566226 0.641086 0.688531
O O17 0.500000 0.000000 0.000000
#
# Coordination Sequence:
#
# PCOD8022931 Si02
#       8
#     2   2   2   2   2   2   2   2
#     4  11  25  42  65  95 133 174 217 265 322 387
#     4  12  26  41  66 101 132 169 219 275 321 386
#     4  12  25  40  63  97 137 176 222 268 314 379
#     4  10  23  40  61  88 129 181 217 258 314 378
#     4  11  24  40  61  91 136 182 215 263 316 380
#     4  11  24  40  66  98 126 171 224 265 319 388
#     4  10  23  44  71  94 124 167 215 268 330 402
#     4  11  23  46  73  97 125 164 214 275 340 383
#
# _framework density 20.375627000000001
#
# number of rings (size 3 to 8) (size 9 to 14) (size 15 to 20)
#    0.000    1.000    3.750    2.625    7.000    1.500 
#    0.000    0.625    0.000    0.000    0.000    0.000 
#    0.000    0.000    0.000    0.000    0.000    0.000 
#
# Total GULP energy -198466.268178 kJ/mol
# GULP energy per Si atom -12404.141761 kJ/mol
# Density = 2.032925 g / cm^3
# Si number density = 20.375627 Si / 1000 Ang^3
#
#
#
# Elastic Constant Matrix: (Units=GPa)
#
#
# Indices 1 2 3 4 5 6 
#
# 1 108.2108 55.7766 40.3415 -0.7379 -3.7193 -5.6364
# 2 55.7766 115.8585 26.1433 -4.8140 -6.9315 11.7598
# 3 40.3415 26.1433 105.3845 1.7301 7.1712 0.5716
# 4 -0.7379 -4.8140 1.7301 31.8749 -0.5383 -1.0088
# 5 -3.7193 -6.9315 7.1712 -0.5383 29.0610 1.7540
# 6 -5.6364 11.7598 0.5716 -1.0088 1.7540 35.3508
#
#
#
# Elastic Compliance Matrix: (Units=1/GPa)
#
#
# Indices 1 2 3 4 5 6 
#
# 1 0.014266 -0.006369 -0.003970 -0.000260 0.001016 0.004400
# 2 -0.006369 0.012675 -0.000894 0.001694 0.002780 -0.005307
# 3 -0.003970 -0.000894 0.011490 -0.000922 -0.003551 -0.000371
# 4 -0.000260 0.001694 -0.000922 0.031700 0.001170 0.000256
# 5 0.001016 0.002780 -0.003551 0.001170 0.036251 -0.002471
# 6 0.004400 -0.005307 -0.000371 0.000256 -0.002471 0.030891
#
#
# Mechanical properties :
#
#
# Convention : Reuss Voigt Hill
#
# Bulk Modulus (GPa) = 62.64178 63.77519 63.20849
# Shear Modulus (GPa) = 30.29196 33.07016 31.68106
#
# Velocity S-wave (km/s) = 3.85993 4.03305 3.94744
# Velocity P-wave (km/s) = 7.11868 7.28389 7.20176
#
# Compressibility (1/GPa) = 0.01596379
#
# Stress axis : x y z
#
# Youngs Moduli (GPa) = 70.09482 78.89814 87.03594
#
# Poissons Ratio (x) = 0.50249 0.34553
# Poissons Ratio (y) = 0.44643 0.07785
# Poissons Ratio (z) = 0.27828 0.07057
#
# Static dielectric constant tensor:
#      x y z
#    x 3.779560 -0.074130 0.071010 
#    y -0.074130 3.801970 0.018350 
#    z 0.071010 0.018350 3.799350 
# 
# 
# High freq. dielectric constant tensor:
#      x y z
#    x 1.793710 -0.007620 0.012200 
#    y -0.007620 1.799860 0.006630 
#    z 0.012200 0.006630 1.805420 
# 
# From -- ./inp_files/216840.got.cif
#   From: 2010.06.25/outbox.cif.g09.slc.cpg/sg2_109_cif.got.tgz:216840.got - 2010.06.27 13:26:56.
