data_PCOD8022804
_publ_section_title
;
Structure prediction by ZEFSAII (Michael W. Deem and Ramdas Pophale) SiO2 
 PCOD8022804
Probable space group: P -1
;
_chemical_formula_sum "Si O2"
_cell_formula_units_Z 16
_cell_length_a 9.217417
_cell_length_b 7.900153
_cell_length_c 12.499234
_cell_angle_alpha 115.992341
_cell_angle_beta 90.202151
_cell_angle_gamma 116.152663
_cell_volume 712.206226
_symmetry_space_group_name_H-M "P -1"
_symmetry_group_IT_number 2
_symmetry_cell_setting 'triclinic'
loop_
_space_group_symop_operation_xyz
x,y,z
-x,-y,-z
loop_
_atom_site_type_symbol
_atom_site_label
_atom_site_fract_x
_atom_site_fract_y
_atom_site_fract_z
Si Si1 0.465210 0.747216 0.266916
Si Si2 0.741160 0.020652 0.201064
Si Si3 0.333108 0.281489 0.074842
Si Si4 0.347399 0.635089 0.788851
Si Si5 0.940279 0.953964 0.833979
Si Si6 0.232641 0.948523 0.313159
Si Si7 0.067366 0.397075 0.885595
Si Si8 0.406381 0.347632 0.559079
O O1 0.378355 0.531732 0.132735
O O2 0.379994 0.892640 0.284721
O O3 0.458031 0.671913 0.369354
O O4 0.660600 0.901293 0.279830
O O5 0.685356 0.195383 0.226050
O O6 0.944435 0.145916 0.235201
O O7 0.655207 0.825329 0.063050
O O8 0.459954 0.260148 0.150768
O O9 0.142077 0.140423 0.078127
O O10 0.242156 0.561892 0.878992
O O11 0.305514 0.439001 0.652130
O O12 0.078059 0.212265 0.905051
O O13 0.784651 0.910889 0.745134
O O14 0.060509 0.717798 0.247421
O O15 0.270733 0.102334 0.458156
O O16 0.000000 0.500000 0.000000
O O17 0.500000 0.500000 0.500000
#
# Coordination Sequence:
#
# PCOD8022804 Si02
#       8
#     2   2   2   2   2   2   2   2
#     4  11  24  40  69  98 125 173 229 269 342 399
#     4  12  24  39  63 100 139 171 223 278 334 402
#     4  11  23  39  66  95 140 177 222 273 338 399
#     4  11  25  43  67 100 133 183 227 272 329 398
#     4  10  23  39  62  99 133 176 220 267 339 391
#     4  10  24  41  71  91 134 176 223 268 341 380
#     4  10  24  42  68  99 141 173 221 274 338 395
#     4  11  23  47  71  95 131 171 234 283 323 398
#
# _framework density 22.465405000000001
#
# number of rings (size 3 to 8) (size 9 to 14) (size 15 to 20)
#    0.750    0.500    0.000    6.750    5.250    0.500 
#    0.000    0.625    0.000    0.000    0.000    0.000 
#    0.000    0.000    0.000    0.000    0.000    0.000 
#
# Total GULP energy -198226.166666 kJ/mol
# GULP energy per Si atom -12389.135417 kJ/mol
# Density = 2.241427 g / cm^3
# Si number density = 22.465405 Si / 1000 Ang^3
#
#
#
# Elastic Constant Matrix: (Units=GPa)
#
#
# Indices 1 2 3 4 5 6 
#
# 1 118.0386 52.6793 36.7991 -0.0443 -18.5186 -11.0337
# 2 52.6793 108.7895 31.8717 -13.7754 -9.0503 5.6043
# 3 36.7991 31.8717 92.1234 22.8412 -13.8232 -17.2078
# 4 -0.0443 -13.7754 22.8412 40.7033 2.8016 -6.9770
# 5 -18.5186 -9.0503 -13.8232 2.8016 27.8120 -0.7749
# 6 -11.0337 5.6043 -17.2078 -6.9770 -0.7749 43.6441
#
#
#
# Elastic Compliance Matrix: (Units=1/GPa)
#
#
# Indices 1 2 3 4 5 6 
#
# 1 0.012618 -0.005485 -0.001377 -0.000923 0.006118 0.003312
# 2 -0.005485 0.014591 -0.006030 0.007746 -0.002805 -0.004449
# 3 -0.001377 -0.006030 0.018797 -0.012095 0.007850 0.006043
# 4 -0.000923 0.007746 -0.012095 0.034389 -0.007587 -0.000634
# 5 0.006118 -0.002805 0.007850 -0.007587 0.043909 0.004569
# 6 0.003312 -0.004449 0.006043 -0.000634 0.004569 0.026684
#
#
# Mechanical properties :
#
#
# Convention : Reuss Voigt Hill
#
# Bulk Modulus (GPa) = 49.45080 62.40572 55.92826
# Shear Modulus (GPa) = 27.24595 35.60533 31.42564
#
# Velocity S-wave (km/s) = 3.48630 3.98539 3.74417
# Velocity P-wave (km/s) = 6.18591 7.00119 6.60614
#
# Compressibility (1/GPa) = 0.02022212
#
# Stress axis : x y z
#
# Youngs Moduli (GPa) = 79.25058 68.53346 53.20114
#
# Poissons Ratio (x) = 0.37593 0.07326
# Poissons Ratio (y) = 0.43471 0.32079
# Poissons Ratio (z) = 0.10913 0.41324
#
# Static dielectric constant tensor:
#      x y z
#    x 4.160670 -0.151330 -0.011660 
#    y -0.151330 3.953930 0.079250 
#    z -0.011660 0.079250 3.939040 
# 
# 
# High freq. dielectric constant tensor:
#      x y z
#    x 1.894880 -0.010830 -0.001870 
#    y -0.010830 1.885810 0.001160 
#    z -0.001870 0.001160 1.869960 
# 
# From -- ./inp_files/383219.got.cif
#   From: 2010.06.25/outbox.cif.g09.slc.cpg/sg2_192_cif.got.tgz:383219.got - 2010.06.27 13:26:56.
