data_PCOD8022108
_publ_section_title
;
Structure prediction by ZEFSAII (Michael W. Deem and Ramdas Pophale) SiO2 
 PCOD8022108
Probable space group: P -1
;
_chemical_formula_sum "Si O2"
_cell_formula_units_Z 16
_cell_length_a 14.995976
_cell_length_b 11.858677
_cell_length_c 9.217863
_cell_angle_alpha 79.169840
_cell_angle_beta 86.634424
_cell_angle_gamma 28.221479
_cell_volume 740.933285
_symmetry_space_group_name_H-M "P -1"
_symmetry_group_IT_number 2
_symmetry_cell_setting 'triclinic'
loop_
_space_group_symop_operation_xyz
x,y,z
-x,-y,-z
loop_
_atom_site_type_symbol
_atom_site_label
_atom_site_fract_x
_atom_site_fract_y
_atom_site_fract_z
Si Si1 0.063596 0.339026 0.259376
Si Si2 0.308623 0.159630 0.533178
Si Si3 0.583563 0.126542 0.838587
Si Si4 0.614425 0.355921 0.804134
Si Si5 0.749090 0.892507 0.167286
Si Si6 0.771520 0.124411 0.150891
Si Si7 0.898197 0.162547 0.615204
Si Si8 0.784519 0.515867 0.386699
O O1 0.203645 0.205680 0.411978
O O2 0.918008 0.610184 0.175668
O O3 0.954471 0.339648 0.293969
O O4 0.200450 0.159690 0.153817
O O5 0.359119 0.019716 0.696560
O O6 0.173630 0.417281 0.538840
O O7 0.500000 0.000000 0.500000
O O8 0.550957 0.299499 0.781527
O O9 0.421730 0.245496 0.732509
O O10 0.576595 0.096978 0.014952
O O11 0.419559 0.650674 0.783103
O O12 0.732168 0.272085 0.675359
O O13 0.739788 0.215966 0.973339
O O14 0.840052 0.914999 0.175968
O O15 0.941472 0.002240 0.238134
O O16 0.795962 0.396369 0.521001
O O17 0.000000 0.000000 0.500000
#
# Coordination Sequence:
#
# PCOD8022108 Si02
#       8
#     2   2   2   2   2   2   2   2
#     4  11  22  42  64  91 128 159 205 256 312 369
#     4  11  22  40  62  92 120 160 201 251 304 368
#     4  11  23  43  61  92 126 161 211 254 311 366
#     4  10  24  41  66  91 124 170 206 263 309 366
#     4  10  23  41  65  90 125 165 203 259 308 369
#     4  10  22  45  63  91 128 162 216 254 308 378
#     4  12  24  39  65  96 125 166 209 258 318 367
#     4  11  24  39  63  91 126 164 205 255 307 369
#
# _framework density 21.594387999999999
#
# number of rings (size 3 to 8) (size 9 to 14) (size 15 to 20)
#    0.000    1.250    1.250    5.250    1.750    5.000 
#    2.250    2.500    0.000    0.000    0.000    0.000 
#    0.000    0.000    0.000    0.000    0.000    0.000 
#
# Total GULP energy -198354.942428 kJ/mol
# GULP energy per Si atom -12397.183902 kJ/mol
# Density = 2.154524 g / cm^3
# Si number density = 21.594388 Si / 1000 Ang^3
#
#
#
# Elastic Constant Matrix: (Units=GPa)
#
#
# Indices 1 2 3 4 5 6 
#
# 1 67.5517 19.7730 32.2442 -5.7895 -10.7325 -6.1324
# 2 19.7730 67.9853 21.3797 -0.0570 -10.2997 -6.3093
# 3 32.2442 21.3797 94.0068 -2.0395 -17.0443 -4.6258
# 4 -5.7895 -0.0570 -2.0395 30.6562 0.0665 -1.4915
# 5 -10.7325 -10.2997 -17.0443 0.0665 38.8425 1.3194
# 6 -6.1324 -6.3093 -4.6258 -1.4915 1.3194 40.2462
#
#
#
# Elastic Compliance Matrix: (Units=1/GPa)
#
#
# Indices 1 2 3 4 5 6 
#
# 1 0.019076 -0.003426 -0.005240 0.003332 0.001995 0.001825
# 2 -0.003426 0.016928 -0.002141 -0.000677 0.002544 0.001777
# 3 -0.005240 -0.002141 0.013654 -0.000079 0.003966 0.000302
# 4 0.003332 -0.000677 -0.000079 0.033319 0.000595 0.001608
# 5 0.001995 0.002544 0.003966 0.000595 0.028702 0.000240
# 6 0.001825 0.001777 0.000302 0.001608 0.000240 0.025490
#
#
# Mechanical properties :
#
#
# Convention : Reuss Voigt Hill
#
# Bulk Modulus (GPa) = 35.65738 41.81529 38.73634
# Shear Modulus (GPa) = 29.73868 32.35878 31.04873
#
# Velocity S-wave (km/s) = 3.71502 3.87522 3.79597
# Velocity P-wave (km/s) = 5.91185 6.27926 6.09833
#
# Compressibility (1/GPa) = 0.02804468
#
# Stress axis : x y z
#
# Youngs Moduli (GPa) = 52.42280 59.07224 73.23894
#
# Poissons Ratio (x) = 0.20236 0.38377
# Poissons Ratio (y) = 0.17959 0.15681
# Poissons Ratio (z) = 0.27469 0.12648
#
# Static dielectric constant tensor:
#      x y z
#    x 3.447600 2.333640 1.909320 
#    y 2.333640 -6.632650 -9.106700 
#    z 1.909320 -9.106700 -3.902330 
# 
# 
# High freq. dielectric constant tensor:
#      x y z
#    x 1.850770 0.004080 0.000090 
#    y 0.004080 1.845500 0.004300 
#    z 0.000090 0.004300 1.858870 
# 
# From -- ./inp_files/307019.got.cif
#   From: 2010.06.25/outbox.cif.g09.slc.cpg/sg2_154_cif.got.tgz:307019.got - 2010.06.27 13:26:56.
