data_PCOD8022955
_publ_section_title
;
Structure prediction by ZEFSAII (Michael W. Deem and Ramdas Pophale) SiO2 
 PCOD8022955
Probable space group: P -1
;
_chemical_formula_sum "Si O2"
_cell_formula_units_Z 16
_cell_length_a 12.609545
_cell_length_b 15.569536
_cell_length_c 5.262202
_cell_angle_alpha 73.973999
_cell_angle_beta 94.430340
_cell_angle_gamma 46.843559
_cell_volume 670.160495
_symmetry_space_group_name_H-M "P -1"
_symmetry_group_IT_number 2
_symmetry_cell_setting 'triclinic'
loop_
_space_group_symop_operation_xyz
x,y,z
-x,-y,-z
loop_
_atom_site_type_symbol
_atom_site_label
_atom_site_fract_x
_atom_site_fract_y
_atom_site_fract_z
Si Si1 0.047764 0.292806 0.383271
Si Si2 0.232968 0.349383 0.333956
Si Si3 0.761344 0.492145 0.478599
Si Si4 0.373521 0.658041 0.805814
Si Si5 0.536226 0.723800 0.936667
Si Si6 0.130874 0.140557 0.014523
Si Si7 0.804768 0.275370 0.795713
Si Si8 0.532505 0.083915 0.886641
O O1 0.097478 0.361509 0.256188
O O2 0.135315 0.210037 0.728696
O O3 0.862366 0.405102 0.316307
O O4 0.087593 0.204826 0.229301
O O5 0.157917 0.476549 0.378299
O O6 0.294942 0.348898 0.079571
O O7 0.385896 0.211186 0.602421
O O8 0.756814 0.408632 0.726779
O O9 0.583854 0.629484 0.259509
O O10 0.445245 0.713850 0.736551
O O11 0.269647 0.708907 0.496003
O O12 0.500000 0.500000 0.000000
O O13 0.261269 0.737482 0.966383
O O14 0.444820 0.869840 0.890867
O O15 0.996435 0.149367 0.918769
O O16 0.309372 0.994984 0.182982
O O17 0.500000 0.000000 0.000000
#
# Coordination Sequence:
#
# PCOD8022955 Si02
#       8
#     2   2   2   2   2   2   2   2
#     4  11  24  41  68  98 140 180 224 272 349 408
#     4  11  24  40  67  98 140 179 225 284 337 411
#     4  10  23  40  63 104 139 173 220 279 349 417
#     4  12  24  43  72 101 136 176 223 282 345 404
#     4  11  26  40  68 102 136 178 229 283 338 407
#     4  11  25  44  69  98 133 184 232 278 329 408
#     4  11  24  44  69  98 136 177 223 276 347 398
#     4  11  24  46  68  97 137 183 236 277 334 397
#
# _framework density 23.874877999999999
#
# number of rings (size 3 to 8) (size 9 to 14) (size 15 to 20)
#    0.000    1.000    2.500    3.750   10.500    1.500 
#    0.000    1.250    0.000    0.000    0.000    0.000 
#    0.000    0.000    0.000    0.000    0.000    0.000 
#
# Total GULP energy -198305.183756 kJ/mol
# GULP energy per Si atom -12394.073985 kJ/mol
# Density = 2.382054 g / cm^3
# Si number density = 23.874878 Si / 1000 Ang^3
#
#
#
# Elastic Constant Matrix: (Units=GPa)
#
#
# Indices 1 2 3 4 5 6 
#
# 1 90.7204 19.3326 0.0148 17.2112 3.0676 6.7416
# 2 19.3326 115.4280 18.3585 27.3388 3.0256 6.4819
# 3 0.0148 18.3585 63.3596 24.6079 0.2943 1.3309
# 4 17.2112 27.3388 24.6079 38.4588 1.0747 -3.8210
# 5 3.0676 3.0256 0.2943 1.0747 35.6996 8.6667
# 6 6.7416 6.4819 1.3309 -3.8210 8.6667 38.0004
#
#
#
# Elastic Compliance Matrix: (Units=1/GPa)
#
#
# Indices 1 2 3 4 5 6 
#
# 1 0.012841 -0.000687 0.003216 -0.007612 -0.000111 -0.003014
# 2 -0.000687 0.010704 -0.000160 -0.007441 -0.000031 -0.002440
# 3 0.003216 -0.000160 0.021998 -0.015728 0.000775 -0.003072
# 4 -0.007612 -0.007441 -0.015728 0.045631 -0.001951 0.008204
# 5 -0.000111 -0.000031 0.000775 -0.001951 0.029773 -0.006989
# 6 -0.003014 -0.002440 -0.003072 0.008204 -0.006989 0.029793
#
#
# Mechanical properties :
#
#
# Convention : Reuss Voigt Hill
#
# Bulk Modulus (GPa) = 19.88813 38.32442 29.10627
# Shear Modulus (GPa) = 30.71994 37.88524 34.30259
#
# Velocity S-wave (km/s) = 3.59096 3.98782 3.79458
# Velocity P-wave (km/s) = 5.05386 6.10661 5.60501
#
# Compressibility (1/GPa) = 0.05028124
#
# Stress axis : x y z
#
# Youngs Moduli (GPa) = 77.87746 93.42269 45.45867
#
# Poissons Ratio (x) = 0.06419 -0.14622
# Poissons Ratio (y) = 0.05351 0.00728
# Poissons Ratio (z) = -0.25049 0.01496
#
# Static dielectric constant tensor:
#      x y z
#    x 4.596550 0.047420 -0.075470 
#    y 0.047420 4.356500 0.030310 
#    z -0.075470 0.030310 4.269050 
# 
# 
# High freq. dielectric constant tensor:
#      x y z
#    x 1.951970 -0.006500 0.002730 
#    y -0.006500 1.936040 0.012080 
#    z 0.002730 0.012080 1.945940 
# 
# From -- ./inp_files/77646.got.cif
#   From: 2010.06.25/outbox.cif.g09.slc.cpg/sg2_39_cif.got.tgz:77646.got - 2010.06.27 13:26:56.
