data_PCOD8022410
_publ_section_title
;
Structure prediction by ZEFSAII (Michael W. Deem and Ramdas Pophale) SiO2 
 PCOD8022410
Probable space group: P -1
;
_chemical_formula_sum "Si O2"
_cell_formula_units_Z 16
_cell_length_a 8.917566
_cell_length_b 12.970901
_cell_length_c 19.379513
_cell_angle_alpha 37.606397
_cell_angle_beta 125.000647
_cell_angle_gamma 95.294593
_cell_volume 772.401142
_symmetry_space_group_name_H-M "P -1"
_symmetry_group_IT_number 2
_symmetry_cell_setting 'triclinic'
loop_
_space_group_symop_operation_xyz
x,y,z
-x,-y,-z
loop_
_atom_site_type_symbol
_atom_site_label
_atom_site_fract_x
_atom_site_fract_y
_atom_site_fract_z
Si Si1 0.167989 0.089220 0.313783
Si Si2 0.890856 0.554612 0.167596
Si Si3 0.695697 0.355520 0.468431
Si Si4 0.628906 0.574526 0.958569
Si Si5 0.124331 0.734090 0.182736
Si Si6 0.614515 0.676370 0.170139
Si Si7 0.921073 0.783182 0.246690
Si Si8 0.635097 0.005756 0.434843
O O1 0.351630 0.112055 0.318839
O O2 0.866104 0.354891 0.087944
O O3 0.193890 0.906104 0.371711
O O4 0.244702 0.996402 0.462380
O O5 0.953269 0.711983 0.105824
O O6 0.743021 0.626784 0.018012
O O7 0.695282 0.623960 0.139474
O O8 0.163917 0.267405 0.397694
O O9 0.424940 0.532034 0.345419
O O10 0.657440 0.462052 0.326417
O O11 0.907298 0.326977 0.580452
O O12 0.500000 0.500000 0.000000
O O13 0.406129 0.817885 0.725227
O O14 0.116514 0.688338 0.284876
O O15 0.000000 0.000000 0.000000
O O16 0.788025 0.689520 0.254328
O O17 0.305042 0.923442 0.965165
#
# Coordination Sequence:
#
# PCOD8022410 Si02
#       8
#     2   2   2   2   2   2   2   2
#     4  10  24  41  66  95 125 165 212 262 323 372
#     4  10  24  43  64  93 132 172 206 261 331 369
#     4  12  23  39  69  93 119 170 216 257 316 383
#     4  11  26  42  66  98 126 169 218 264 322 387
#     4  11  22  45  64  95 131 166 213 269 316 377
#     4  10  23  41  61  90 132 165 207 264 315 374
#     4  10  23  41  61  90 128 166 211 260 315 377
#     4  10  22  46  65  90 133 165 209 268 315 384
#
# _framework density 20.714627
#
# number of rings (size 3 to 8) (size 9 to 14) (size 15 to 20)
#    0.000    1.500    2.500    1.125    5.250    2.000 
#    4.500    0.000    0.000    0.000    0.000    0.000 
#    0.000    0.000    0.000    0.000    0.000    0.000 
#
# Total GULP energy -198487.009234 kJ/mol
# GULP energy per Si atom -12405.438077 kJ/mol
# Density = 2.066748 g / cm^3
# Si number density = 20.714627 Si / 1000 Ang^3
#
#
#
# Elastic Constant Matrix: (Units=GPa)
#
#
# Indices 1 2 3 4 5 6 
#
# 1 83.7507 26.0655 31.6912 -4.5515 2.6552 -1.0702
# 2 26.0655 92.9718 37.6452 -18.0141 5.7285 -10.4422
# 3 31.6912 37.6452 66.2753 -2.6855 -14.1340 -1.6042
# 4 -4.5515 -18.0141 -2.6855 26.7085 -0.0382 -0.3381
# 5 2.6552 5.7285 -14.1340 -0.0382 34.1282 -6.9778
# 6 -1.0702 -10.4422 -1.6042 -0.3381 -6.9778 25.1470
#
#
#
# Elastic Compliance Matrix: (Units=1/GPa)
#
#
# Indices 1 2 3 4 5 6 
#
# 1 0.015355 -0.000728 -0.007899 0.001307 -0.004633 -0.001420
# 2 -0.000728 0.018645 -0.011047 0.011399 -0.006542 0.005344
# 3 -0.007899 -0.011047 0.027940 -0.005958 0.014179 0.000713
# 4 0.001307 0.011399 -0.005958 0.044799 -0.003613 0.004009
# 5 -0.004633 -0.006542 0.014179 -0.003613 0.038385 0.008593
# 6 -0.001420 0.005344 0.000713 0.004009 0.008593 0.044409
#
#
# Mechanical properties :
#
#
# Convention : Reuss Voigt Hill
#
# Bulk Modulus (GPa) = 44.25885 48.20016 46.22951
# Shear Modulus (GPa) = 21.14974 27.03646 24.09310
#
# Velocity S-wave (km/s) = 3.19878 3.61666 3.41412
# Velocity P-wave (km/s) = 5.92075 6.38431 6.15690
#
# Compressibility (1/GPa) = 0.02259435
#
# Stress axis : x y z
#
# Youngs Moduli (GPa) = 65.12441 53.63412 35.79119
#
# Poissons Ratio (x) = 0.03902 0.28270
# Poissons Ratio (y) = 0.04738 0.39537
# Poissons Ratio (z) = 0.51439 0.59248
#
# Static dielectric constant tensor:
#      x y z
#    x 4.252250 -0.883390 0.768390 
#    y -0.883390 5.288790 -1.159140 
#    z 0.768390 -1.159140 4.447330 
# 
# 
# High freq. dielectric constant tensor:
#      x y z
#    x 1.821210 -0.003690 0.008700 
#    y -0.003690 1.816680 -0.006360 
#    z 0.008700 -0.006360 1.804490 
# 
# From -- ./inp_files/37389.got.cif
#   From: 2010.06.25/outbox.cif.g09.slc.cpg/sg2_19_cif.got.tgz:37389.got - 2010.06.27 13:26:56.
