data_PCOD8022060
_publ_section_title
;
Structure prediction by ZEFSAII (Michael W. Deem and Ramdas Pophale) SiO2 
 PCOD8022060
Probable space group: P -1
;
_chemical_formula_sum "Si O2"
_cell_formula_units_Z 14
_cell_length_a 17.385671
_cell_length_b 23.600576
_cell_length_c 11.761655
_cell_angle_alpha 159.635362
_cell_angle_beta 148.298891
_cell_angle_gamma 20.411060
_cell_volume 570.082554
_symmetry_space_group_name_H-M "P -1"
_symmetry_group_IT_number 2
_symmetry_cell_setting 'triclinic'
loop_
_space_group_symop_operation_xyz
x,y,z
-x,-y,-z
loop_
_atom_site_type_symbol
_atom_site_label
_atom_site_fract_x
_atom_site_fract_y
_atom_site_fract_z
Si Si1 0.501855 0.171216 0.770306
Si Si2 0.344964 0.828740 0.810724
Si Si3 0.458081 0.865627 0.636948
Si Si4 0.762755 0.709896 0.530695
Si Si5 0.055435 0.047352 0.377367
Si Si6 0.664329 0.470075 0.338060
Si Si7 0.026046 0.292886 0.608462
O O1 0.267682 0.374928 0.783239
O O2 0.500000 0.000000 0.500000
O O3 0.720963 0.986346 0.616999
O O4 0.522004 0.283573 0.110849
O O5 0.489905 0.609367 0.486369
O O6 0.111354 0.928769 0.718564
O O7 0.294213 0.053247 0.122599
O O8 0.574702 0.781874 0.504898
O O9 0.561096 0.632853 0.401633
O O10 0.189647 0.056900 0.647580
O O11 0.500000 0.000000 0.000000
O O12 0.000000 0.500000 0.500000
O O13 0.921280 0.268989 0.532197
O O14 0.252948 0.779455 0.057375
O O15 0.881799 0.393591 0.502126
O O16 0.000000 0.500000 0.000000
#
# Coordination Sequence:
#
# PCOD8022060 Si02
#       7
#     2   2   2   2   2   2   2
#     4  10  22  44  73 108 153 193 252 312 369 447
#     4  11  25  50  73 114 154 194 253 312 378 450
#     4  12  25  50  75 104 150 205 251 305 378 453
#     4  11  23  45  76 110 151 200 254 310 367 445
#     4  12  27  50  76 109 155 200 248 322 383 443
#     4  12  26  47  76 110 157 198 252 312 383 448
#     4  12  24  47  75 108 149 199 254 310 376 451
#
# _framework density 24.557845
#
# number of rings (size 3 to 8) (size 9 to 14) (size 15 to 20)
#    0.000    0.571    4.286    4.286    2.000    1.143 
#    7.714    0.000    0.000    0.000    0.000    0.000 
#    0.000    0.000    0.000    0.000    0.000    0.000 
#
# Total GULP energy -173500.403580 kJ/mol
# GULP energy per Si atom -12392.885970 kJ/mol
# Density = 2.450195 g / cm^3
# Si number density = 24.557845 Si / 1000 Ang^3
#
#
#
# Elastic Constant Matrix: (Units=GPa)
#
#
# Indices 1 2 3 4 5 6 
#
# 1 142.3227 57.6952 39.5199 -7.3162 12.0795 -3.0145
# 2 57.6952 153.6964 18.8717 -29.2476 -8.4122 -1.6449
# 3 39.5199 18.8717 88.7746 -7.2764 -8.7000 -10.2585
# 4 -7.3162 -29.2476 -7.2764 43.2120 -0.5054 1.1114
# 5 12.0795 -8.4122 -8.7000 -0.5054 26.2661 -3.2259
# 6 -3.0145 -1.6449 -10.2585 1.1114 -3.2259 42.7390
#
#
#
# Elastic Compliance Matrix: (Units=1/GPa)
#
#
# Indices 1 2 3 4 5 6 
#
# 1 0.010670 -0.004224 -0.004936 -0.001949 -0.008074 -0.001154
# 2 -0.004224 0.009392 0.000962 0.005853 0.005450 0.000554
# 3 -0.004936 0.000962 0.014655 0.002279 0.007936 0.003746
# 4 -0.001949 0.005853 0.002279 0.027199 0.004078 0.000235
# 5 -0.008074 0.005450 0.007936 0.004078 0.046849 0.004975
# 6 -0.001154 0.000554 0.003746 0.000235 0.004975 0.024606
#
#
# Mechanical properties :
#
#
# Convention : Reuss Voigt Hill
#
# Bulk Modulus (GPa) = 54.58686 68.55192 61.56939
# Shear Modulus (GPa) = 32.07684 40.35721 36.21702
#
# Velocity S-wave (km/s) = 3.61802 4.05823 3.84443
# Velocity P-wave (km/s) = 6.30314 7.06640 6.69566
#
# Compressibility (1/GPa) = 0.01831943
#
# Stress axis : x y z
#
# Youngs Moduli (GPa) = 93.71901 106.47314 68.23589
#
# Poissons Ratio (x) = 0.44978 0.33684
# Poissons Ratio (y) = 0.39591 -0.06563
# Poissons Ratio (z) = 0.46263 -0.10241
#
# Static dielectric constant tensor:
#      x y z
#    x 4.566770 -0.002410 0.069040 
#    y -0.002410 4.665590 -0.253920 
#    z 0.069040 -0.253920 4.391640 
# 
# 
# High freq. dielectric constant tensor:
#      x y z
#    x 1.991870 0.007020 0.008040 
#    y 0.007020 1.986930 -0.017650 
#    z 0.008040 -0.017650 1.970440 
# 
# From -- ./inp_files/467412.got.cif
#   From: 2010.06.25/outbox.cif.g09.slc.cpg/sg2_234_cif.got.tgz:467412.got - 2010.06.27 13:26:56.
