data_PCOD8022669
_publ_section_title
;
Structure prediction by ZEFSAII (Michael W. Deem and Ramdas Pophale) SiO2 
 PCOD8022669
Probable space group: P -1
;
_chemical_formula_sum "Si O2"
_cell_formula_units_Z 16
_cell_length_a 9.368397
_cell_length_b 14.456451
_cell_length_c 11.565523
_cell_angle_alpha 112.090407
_cell_angle_beta 123.255720
_cell_angle_gamma 115.793770
_cell_volume 681.036601
_symmetry_space_group_name_H-M "P -1"
_symmetry_group_IT_number 2
_symmetry_cell_setting 'triclinic'
loop_
_space_group_symop_operation_xyz
x,y,z
-x,-y,-z
loop_
_atom_site_type_symbol
_atom_site_label
_atom_site_fract_x
_atom_site_fract_y
_atom_site_fract_z
Si Si1 0.577783 0.153526 0.091348
Si Si2 0.037779 0.992203 0.674644
Si Si3 0.921955 0.537485 0.702416
Si Si4 0.141068 0.437868 0.829932
Si Si5 0.826476 0.759009 0.297232
Si Si6 0.297107 0.024003 0.357099
Si Si7 0.886224 0.281794 0.879539
Si Si8 0.636224 0.842621 0.770299
O O1 0.496823 0.174600 0.180160
O O2 0.920107 0.331117 0.275781
O O3 0.374033 0.108886 0.881920
O O4 0.500000 0.000000 0.000000
O O5 0.991031 0.067801 0.609599
O O6 0.825497 0.797365 0.447259
O O7 0.912467 0.976355 0.731481
O O8 0.554992 0.353675 0.431544
O O9 0.017842 0.467907 0.712855
O O10 0.015179 0.633637 0.910349
O O11 0.994303 0.259388 0.645530
O O12 0.099861 0.435733 0.948826
O O13 0.488853 0.592122 0.020049
O O14 0.536750 0.137365 0.623093
O O15 0.463090 0.122484 0.354446
O O16 0.080925 0.822408 0.160889
O O17 0.000000 0.000000 0.000000
#
# Coordination Sequence:
#
# PCOD8022669 Si02
#       8
#     2   2   2   2   2   2   2   2
#     4  12  28  49  73 101 138 201 253 295 350 432
#     4  11  22  42  68  97 142 183 232 299 358 420
#     4  12  26  46  73 105 148 187 246 303 361 429
#     4  11  21  39  64 107 142 177 219 296 367 441
#     4  10  23  37  66 105 141 174 229 290 376 425
#     4  11  23  43  70 104 143 187 233 294 360 440
#     4  11  24  40  72 108 142 182 231 296 373 433
#     4  12  27  49  73  99 144 196 246 298 358 423
#
# _framework density 23.493597999999999
#
# number of rings (size 3 to 8) (size 9 to 14) (size 15 to 20)
#    0.000    0.750    5.000    2.250    5.250    0.000 
#    0.000    2.500    0.000    0.000    0.000    0.000 
#    0.000    0.000    0.000    0.000    0.000    0.000 
#
# Total GULP energy -198217.678392 kJ/mol
# GULP energy per Si atom -12388.604899 kJ/mol
# Density = 2.344013 g / cm^3
# Si number density = 23.493598 Si / 1000 Ang^3
#
#
#
# Elastic Constant Matrix: (Units=GPa)
#
#
# Indices 1 2 3 4 5 6 
#
# 1 109.5827 37.7069 49.9862 2.9826 -15.9926 -1.7803
# 2 37.7069 112.0052 37.0360 14.3870 -8.2496 8.7542
# 3 49.9862 37.0360 126.2035 17.6052 -12.3289 0.3167
# 4 2.9826 14.3870 17.6052 25.7974 4.4422 0.6617
# 5 -15.9926 -8.2496 -12.3289 4.4422 37.1573 3.4659
# 6 -1.7803 8.7542 0.3167 0.6617 3.4659 41.2168
#
#
#
# Elastic Compliance Matrix: (Units=1/GPa)
#
#
# Indices 1 2 3 4 5 6 
#
# 1 0.012400 -0.002998 -0.004098 0.002507 0.002926 0.000917
# 2 -0.002998 0.011362 -0.001222 -0.005384 0.001712 -0.002591
# 3 -0.004098 -0.001222 0.011102 -0.006845 0.002477 -0.000101
# 4 0.002507 -0.005384 -0.006845 0.047526 -0.008184 0.001230
# 5 0.002926 0.001712 0.002477 -0.008184 0.030604 -0.002698
# 6 0.000917 -0.002591 -0.000101 0.001230 -0.002698 0.025060
#
#
# Mechanical properties :
#
#
# Convention : Reuss Voigt Hill
#
# Bulk Modulus (GPa) = 54.85771 66.36106 60.60939
# Shear Modulus (GPa) = 31.10128 35.70512 33.40320
#
# Velocity S-wave (km/s) = 3.64238 3.90267 3.77477
# Velocity P-wave (km/s) = 6.41015 6.97248 6.69722
#
# Compressibility (1/GPa) = 0.01822898
#
# Stress axis : x y z
#
# Youngs Moduli (GPa) = 80.64526 88.01568 90.06989
#
# Poissons Ratio (x) = 0.26385 0.36909
# Poissons Ratio (y) = 0.24175 0.11007
# Poissons Ratio (z) = 0.33047 0.10756
#
# Static dielectric constant tensor:
#      x y z
#    x 4.606390 0.036290 -0.169480 
#    y 0.036290 4.359200 0.025350 
#    z -0.169480 0.025350 4.282560 
# 
# 
# High freq. dielectric constant tensor:
#      x y z
#    x 1.936050 0.006770 -0.007650 
#    y 0.006770 1.928160 0.010760 
#    z -0.007650 0.010760 1.923480 
# 
# From -- ./inp_files/399475.got.cif
#   From: 2010.06.25/outbox.cif.g09.slc.cpg/sg2_200_cif.got.tgz:399475.got - 2010.06.27 13:26:56.
