data_PCOD8022484
_publ_section_title
;
Structure prediction by ZEFSAII (Michael W. Deem and Ramdas Pophale) SiO2 
 PCOD8022484
Probable space group: P -1
;
_chemical_formula_sum "Si O2"
_cell_formula_units_Z 12
_cell_length_a 13.530195
_cell_length_b 7.689158
_cell_length_c 5.079410
_cell_angle_alpha 63.571200
_cell_angle_beta 96.418042
_cell_angle_gamma 113.218036
_cell_volume 433.583284
_symmetry_space_group_name_H-M "P -1"
_symmetry_group_IT_number 2
_symmetry_cell_setting 'triclinic'
loop_
_space_group_symop_operation_xyz
x,y,z
-x,-y,-z
loop_
_atom_site_type_symbol
_atom_site_label
_atom_site_fract_x
_atom_site_fract_y
_atom_site_fract_z
Si Si1 0.596032 0.568545 0.199054
Si Si2 0.064006 0.217116 0.513006
Si Si3 0.563366 0.248663 0.854612
Si Si4 0.768455 0.484386 0.026662
Si Si5 0.770221 0.939979 0.205119
Si Si6 0.154110 0.789867 0.439712
O O1 0.566176 0.349893 0.498200
O O2 0.490874 0.625632 0.041591
O O3 0.695175 0.615570 0.992916
O O4 0.648259 0.765615 0.288504
O O5 0.975750 0.288237 0.578989
O O6 0.147974 0.179033 0.765755
O O7 0.129716 0.392213 0.203666
O O8 0.000000 0.000000 0.500000
O O9 0.681986 0.285130 0.973813
O O10 0.500000 0.000000 0.000000
O O11 0.814440 0.408243 0.348419
O O12 0.798729 0.034396 0.440214
O O13 0.788614 0.123763 0.876544
#
# Coordination Sequence:
#
# PCOD8022484 Si02
#       6
#     2   2   2   2   2   2
#     4  11  25  45  75 104 144 196 247 306 375 444
#     4  10  22  46  70 106 146 198 243 299 367 440
#     4  11  26  48  72 105 146 189 254 306 378 438
#     4  12  25  46  71 108 148 191 250 308 368 443
#     4  11  23  47  73 107 150 198 245 303 368 439
#     4  11  26  42  76 110 152 195 249 300 368 440
#
# _framework density 27.676347
#
# number of rings (size 3 to 8) (size 9 to 14) (size 15 to 20)
#    0.000    1.000    1.667    4.500    4.667    2.000 
#    0.000    5.000    0.000    0.000    0.000    0.000 
#    0.000    0.000    0.000    0.000    0.000    0.000 
#
# Total GULP energy -148789.952371 kJ/mol
# GULP energy per Si atom -12399.162698 kJ/mol
# Density = 2.761335 g / cm^3
# Si number density = 27.676347 Si / 1000 Ang^3
#
#
#
# Elastic Constant Matrix: (Units=GPa)
#
#
# Indices 1 2 3 4 5 6 
#
# 1 122.3568 19.7724 18.8615 -11.0924 9.6292 8.7467
# 2 19.7724 49.1765 14.7974 -31.4631 -12.8037 2.6699
# 3 18.8615 14.7974 147.3357 -23.8866 6.9079 14.7568
# 4 -11.0924 -31.4631 -23.8866 42.6728 7.6715 -3.2233
# 5 9.6292 -12.8037 6.9079 7.6715 51.4894 2.0831
# 6 8.7467 2.6699 14.7568 -3.2233 2.0831 45.4597
#
#
#
# Elastic Compliance Matrix: (Units=1/GPa)
#
#
# Indices 1 2 3 4 5 6 
#
# 1 0.009253 -0.004910 -0.000636 -0.001191 -0.002638 -0.001249
# 2 -0.004910 0.042712 0.000776 0.029377 0.007061 -0.000056
# 3 -0.000636 0.000776 0.007857 0.004899 -0.001389 -0.002063
# 4 -0.001191 0.029377 0.004899 0.047591 -0.000232 0.000299
# 5 -0.002638 0.007061 -0.001389 -0.000232 0.021911 -0.000477
# 6 -0.001249 -0.000056 -0.002063 0.000299 -0.000477 0.022954
#
#
# Mechanical properties :
#
#
# Convention : Reuss Voigt Hill
#
# Bulk Modulus (GPa) = 19.88768 47.30351 33.59559
# Shear Modulus (GPa) = 27.99904 45.62023 36.80963
#
# Velocity S-wave (km/s) = 3.18411 4.06439 3.65088
# Velocity P-wave (km/s) = 4.55187 6.25735 5.47147
#
# Compressibility (1/GPa) = 0.05028239
#
# Stress axis : x y z
#
# Youngs Moduli (GPa) = 108.07032 23.41249 127.28273
#
# Poissons Ratio (x) = 0.11496 0.08091
# Poissons Ratio (y) = 0.53065 -0.09879
# Poissons Ratio (z) = 0.06870 -0.01817
#
# Static dielectric constant tensor:
#      x y z
#    x 6.243450 0.444720 0.463330 
#    y 0.444720 5.321780 0.080170 
#    z 0.463330 0.080170 4.660920 
# 
# 
# High freq. dielectric constant tensor:
#      x y z
#    x 2.148990 0.012730 0.010770 
#    y 0.012730 2.142140 -0.003000 
#    z 0.010770 -0.003000 2.098960 
# 
# From -- ./inp_files/89586.got.cif
#   From: 2010.06.25/outbox.cif.g09.slc.cpg/sg2_45_cif.got.tgz:89586.got - 2010.06.27 13:26:56.
