data_PCOD8022399
_publ_section_title
;
Structure prediction by ZEFSAII (Michael W. Deem and Ramdas Pophale) SiO2 
 PCOD8022399
Probable space group: P -1
;
_chemical_formula_sum "Si O2"
_cell_formula_units_Z 14
_cell_length_a 19.347283
_cell_length_b 8.373019
_cell_length_c 6.099730
_cell_angle_alpha 117.867276
_cell_angle_beta 122.629865
_cell_angle_gamma 42.391207
_cell_volume 556.860481
_symmetry_space_group_name_H-M "P -1"
_symmetry_group_IT_number 2
_symmetry_cell_setting 'triclinic'
loop_
_space_group_symop_operation_xyz
x,y,z
-x,-y,-z
loop_
_atom_site_type_symbol
_atom_site_label
_atom_site_fract_x
_atom_site_fract_y
_atom_site_fract_z
Si Si1 0.392867 0.085131 0.488644
Si Si2 0.073009 0.989122 0.936535
Si Si3 0.154081 0.185934 0.496277
Si Si4 0.505543 0.677435 0.750979
Si Si5 0.985699 0.372861 0.710338
Si Si6 0.338342 0.873736 0.921554
Si Si7 0.283477 0.567655 0.825840
O O1 0.308560 0.368304 0.573443
O O2 0.500000 0.000000 0.500000
O O3 0.434472 0.935817 0.687098
O O4 0.325804 0.034494 0.200393
O O5 0.161281 0.724216 0.813775
O O6 0.991720 0.172983 0.720121
O O7 0.141658 0.051298 0.202846
O O8 0.000000 0.000000 0.000000
O O9 0.123245 0.424038 0.484721
O O10 0.082883 0.240854 0.620302
O O11 0.275219 0.027256 0.691273
O O12 0.500000 0.500000 0.500000
O O13 0.462990 0.697562 0.938737
O O14 0.629992 0.562982 0.910784
O O15 0.000000 0.500000 0.000000
O O16 0.294778 0.741741 0.831607
#
# Coordination Sequence:
#
# PCOD8022399 Si02
#       7
#     2   2   2   2   2   2   2
#     4  12  27  48  75 113 160 196 256 310 380 468
#     4  11  25  49  74 109 155 203 257 322 382 450
#     4  10  22  45  75 105 145 200 257 314 383 455
#     4  12  24  46  77 111 154 198 249 312 383 460
#     4   9  20  45  72 102 140 192 264 309 371 452
#     4  12  25  48  76 112 155 199 249 314 388 459
#     4  12  25  50  75 113 155 200 256 317 380 460
#
# _framework density 25.140946
#
# number of rings (size 3 to 8) (size 9 to 14) (size 15 to 20)
#    0.000    0.857    4.286    2.571    0.000    0.571 
#   10.286    1.429    0.000    0.000    0.000    0.000 
#    0.000    0.000    0.000    0.000    0.000    0.000 
#
# Total GULP energy -173563.982020 kJ/mol
# GULP energy per Si atom -12397.427287 kJ/mol
# Density = 2.508372 g / cm^3
# Si number density = 25.140946 Si / 1000 Ang^3
#
#
#
# Elastic Constant Matrix: (Units=GPa)
#
#
# Indices 1 2 3 4 5 6 
#
# 1 124.8476 69.9410 13.7548 5.3188 -25.7762 8.2860
# 2 69.9410 176.5669 71.1361 3.7967 -11.1959 11.3221
# 3 13.7548 71.1361 107.9737 8.7906 -3.3469 18.2292
# 4 5.3188 3.7967 8.7906 65.1759 0.4899 -10.1049
# 5 -25.7762 -11.1959 -3.3469 0.4899 37.5245 3.1681
# 6 8.2860 11.3221 18.2292 -10.1049 3.1681 35.0386
#
#
#
# Elastic Compliance Matrix: (Units=1/GPa)
#
#
# Indices 1 2 3 4 5 6 
#
# 1 0.012671 -0.005462 0.003053 -0.001812 0.007711 -0.004040
# 2 -0.005462 0.010198 -0.006449 0.001007 -0.001447 0.001773
# 3 0.003053 -0.006449 0.014670 -0.003005 0.002139 -0.007330
# 4 -0.001812 0.001007 -0.003005 0.016894 -0.002000 0.006719
# 5 0.007711 -0.001447 0.002139 -0.002000 0.032234 -0.005960
# 6 -0.004040 0.001773 -0.007330 0.006719 -0.005960 0.035213
#
#
# Mechanical properties :
#
#
# Convention : Reuss Voigt Hill
#
# Bulk Modulus (GPa) = 50.44852 79.89470 65.17161
# Shear Modulus (GPa) = 34.19850 44.51822 39.35836
#
# Velocity S-wave (km/s) = 3.69219 4.21259 3.96094
# Velocity P-wave (km/s) = 6.18758 7.45043 6.84818
#
# Compressibility (1/GPa) = 0.01982219
#
# Stress axis : x y z
#
# Youngs Moduli (GPa) = 78.92247 98.05387 68.16558
#
# Poissons Ratio (x) = 0.53558 -0.20811
# Poissons Ratio (y) = 0.43109 0.43963
# Poissons Ratio (z) = -0.24095 0.63239
#
# Static dielectric constant tensor:
#      x y z
#    x 4.614700 0.143120 -0.257910 
#    y 0.143120 4.928970 0.032330 
#    z -0.257910 0.032330 4.549240 
# 
# 
# High freq. dielectric constant tensor:
#      x y z
#    x 1.998540 0.002040 -0.010310 
#    y 0.002040 2.018530 0.002870 
#    z -0.010310 0.002870 2.011600 
# 
# From -- ./inp_files/99486.got.cif
#   From: 2010.06.25/outbox.cif.g09.slc.cpg/sg2_50_cif.got.tgz:99486.got - 2010.06.27 13:26:56.
