data_PCOD8022510
_publ_section_title
;
Structure prediction by ZEFSAII (Michael W. Deem and Ramdas Pophale) SiO2 
 PCOD8022510
Probable space group: P -1
;
_chemical_formula_sum "Si O2"
_cell_formula_units_Z 12
_cell_length_a 17.399757
_cell_length_b 5.324728
_cell_length_c 6.644494
_cell_angle_alpha 97.328070
_cell_angle_beta 92.223157
_cell_angle_gamma 117.800752
_cell_volume 536.701904
_symmetry_space_group_name_H-M "P -1"
_symmetry_group_IT_number 2
_symmetry_cell_setting 'triclinic'
loop_
_space_group_symop_operation_xyz
x,y,z
-x,-y,-z
loop_
_atom_site_type_symbol
_atom_site_label
_atom_site_fract_x
_atom_site_fract_y
_atom_site_fract_z
Si Si1 0.060272 0.304257 0.634601
Si Si2 0.337052 0.781788 0.709082
Si Si3 0.888877 0.285128 0.671227
Si Si4 0.592926 0.622784 0.419929
Si Si5 0.801345 0.482974 0.007940
Si Si6 0.249002 0.315989 0.352940
O O1 0.119758 0.532996 0.495468
O O2 0.123629 0.293354 0.812379
O O3 0.991523 0.396368 0.735002
O O4 0.000000 0.000000 0.500000
O O5 0.400187 0.633081 0.728701
O O6 0.282431 0.749490 0.902401
O O7 0.270348 0.613183 0.501121
O O8 0.393488 0.119130 0.701591
O O9 0.836962 0.943406 0.578100
O O10 0.842115 0.318531 0.868237
O O11 0.500000 0.500000 0.500000
O O12 0.667963 0.742887 0.614100
O O13 0.769904 0.663209 0.881295
#
# Coordination Sequence:
#
# PCOD8022510 Si02
#       6
#     2   2   2   2   2   2
#     4  11  25  43  61  92 134 179 231 275 334 391
#     4  10  24  43  71  99 136 178 219 274 334 399
#     4  11  24  41  64  91 133 179 224 283 328 398
#     4  10  22  46  72 100 135 178 219 273 336 401
#     4  12  23  40  65  99 131 175 228 273 339 389
#     4  10  24  40  68  95 133 176 220 280 334 397
#
# _framework density 22.358781
#
# number of rings (size 3 to 8) (size 9 to 14) (size 15 to 20)
#    1.000    0.333    0.000    6.000    2.333    5.333 
#    0.000    1.667    0.000    0.000    0.000    0.000 
#    0.000    0.000    0.000    0.000    0.000    0.000 
#
# Total GULP energy -148744.099283 kJ/mol
# GULP energy per Si atom -12395.341607 kJ/mol
# Density = 2.230789 g / cm^3
# Si number density = 22.358781 Si / 1000 Ang^3
#
#
#
# Elastic Constant Matrix: (Units=GPa)
#
#
# Indices 1 2 3 4 5 6 
#
# 1 111.7048 37.1772 41.9164 -24.5349 -25.6863 8.6033
# 2 37.1772 141.7441 43.2643 -43.2709 -10.5407 -4.8918
# 3 41.9164 43.2643 103.5851 -28.8432 -15.7056 4.2114
# 4 -24.5349 -43.2709 -28.8432 32.3912 2.0352 -6.6924
# 5 -25.6863 -10.5407 -15.7056 2.0352 43.0551 -6.2661
# 6 8.6033 -4.8918 4.2114 -6.6924 -6.2661 39.8338
#
#
#
# Elastic Compliance Matrix: (Units=1/GPa)
#
#
# Indices 1 2 3 4 5 6 
#
# 1 0.012907 0.000005 -0.002169 0.007382 0.006519 -0.000292
# 2 0.000005 0.013053 -0.000137 0.018192 0.003038 0.005151
# 3 -0.002169 -0.000137 0.014055 0.010743 0.003483 0.001319
# 4 0.007382 0.018192 0.010743 0.072400 0.011311 0.013447
# 5 0.006519 0.003038 0.003483 0.011311 0.029339 0.005112
# 6 -0.000292 0.005151 0.001319 0.013447 0.005112 0.028724
#
#
# Mechanical properties :
#
#
# Convention : Reuss Voigt Hill
#
# Bulk Modulus (GPa) = 28.23903 66.86110 47.55007
# Shear Modulus (GPa) = 26.75445 38.70109 32.72777
#
# Velocity S-wave (km/s) = 3.46294 4.16494 3.83006
# Velocity P-wave (km/s) = 5.35225 7.28681 6.39313
#
# Compressibility (1/GPa) = 0.03541198
#
# Stress axis : x y z
#
# Youngs Moduli (GPa) = 77.47486 76.61224 71.15016
#
# Poissons Ratio (x) = -0.00037 0.15436
# Poissons Ratio (y) = -0.00038 0.00974
# Poissons Ratio (z) = 0.16808 0.01049
#
# Static dielectric constant tensor:
#      x y z
#    x 4.184480 -0.034110 -0.034760 
#    y -0.034110 3.855600 -0.137910 
#    z -0.034760 -0.137910 3.735490 
# 
# 
# High freq. dielectric constant tensor:
#      x y z
#    x 1.896610 -0.001700 -0.008880 
#    y -0.001700 1.874440 -0.015750 
#    z -0.008880 -0.015750 1.856290 
# 
# From -- ./inp_files/5737.got.cif
#   From: 2010.06.25/outbox.cif.g09.slc.cpg/sg2_3_cif.got.tgz:5737.got - 2010.06.27 13:26:56.
