data_PCOD8022915
_publ_section_title
;
Structure prediction by ZEFSAII (Michael W. Deem and Ramdas Pophale) SiO2 
 PCOD8022915
Probable space group: P -1
;
_chemical_formula_sum "Si O2"
_cell_formula_units_Z 16
_cell_length_a 14.953684
_cell_length_b 9.615970
_cell_length_c 11.946561
_cell_angle_alpha 71.964117
_cell_angle_beta 29.342863
_cell_angle_gamma 79.551141
_cell_volume 785.859225
_symmetry_space_group_name_H-M "P -1"
_symmetry_group_IT_number 2
_symmetry_cell_setting 'triclinic'
loop_
_space_group_symop_operation_xyz
x,y,z
-x,-y,-z
loop_
_atom_site_type_symbol
_atom_site_label
_atom_site_fract_x
_atom_site_fract_y
_atom_site_fract_z
Si Si1 0.666919 0.433705 0.786855
Si Si2 0.260064 0.218007 0.899100
Si Si3 0.474452 0.999873 0.396885
Si Si4 0.661790 0.324195 0.053147
Si Si5 0.055455 0.319150 0.702468
Si Si6 0.815795 0.546495 0.240713
Si Si7 0.068564 0.993584 0.799077
Si Si8 0.495959 0.393442 0.765533
O O1 0.834462 0.564770 0.534743
O O2 0.587296 0.330906 0.791841
O O3 0.500000 0.500000 0.000000
O O4 0.730689 0.341947 0.843488
O O5 0.406691 0.112669 0.752295
O O6 0.288766 0.362872 0.753660
O O7 0.305909 0.284486 0.958700
O O8 0.056103 0.124779 0.118381
O O9 0.263752 0.940615 0.604275
O O10 0.500000 0.000000 0.500000
O O11 0.530835 0.164626 0.245466
O O12 0.546247 0.445531 0.193023
O O13 0.840931 0.332367 0.932817
O O14 0.123613 0.347674 0.746901
O O15 0.079628 0.152576 0.687206
O O16 0.654389 0.409738 0.491107
O O17 0.000000 0.500000 0.000000
O O18 0.000000 0.000000 0.000000
#
# Coordination Sequence:
#
# PCOD8022915 Si02
#       8
#     2   2   2   2   2   2   2   2
#     4   9  20  39  65  88 118 162 217 267 303 361
#     4  12  24  39  59  91 126 164 199 254 314 376
#     4  12  23  39  65  90 127 167 205 253 314 378
#     4  11  21  41  66  91 121 166 213 264 309 366
#     4  11  20  38  62  95 121 163 216 258 304 378
#     4  11  23  37  60  91 130 166 202 256 314 376
#     4  12  22  38  59  88 128 164 208 248 311 384
#     4  10  23  40  59  90 125 161 214 259 316 362
#
# _framework density 20.359881000000001
#
# number of rings (size 3 to 8) (size 9 to 14) (size 15 to 20)
#    0.000    1.000    3.750    4.500    1.750    0.000 
#    0.000    0.625    0.000    3.750    0.000    0.000 
#    0.000    0.000    0.000    0.000    0.000    0.000 
#
# Total GULP energy -198298.155686 kJ/mol
# GULP energy per Si atom -12393.634730 kJ/mol
# Density = 2.031354 g / cm^3
# Si number density = 20.359881 Si / 1000 Ang^3
#
#
#
# Elastic Constant Matrix: (Units=GPa)
#
#
# Indices 1 2 3 4 5 6 
#
# 1 117.6658 36.6777 39.7642 -17.2715 -13.5985 11.1336
# 2 36.6777 85.8523 27.8349 -2.6966 0.3839 2.3054
# 3 39.7642 27.8349 95.3643 -0.6313 -14.8243 5.7002
# 4 -17.2715 -2.6966 -0.6313 31.7181 -6.0766 -10.8695
# 5 -13.5985 0.3839 -14.8243 -6.0766 43.7054 -2.7215
# 6 11.1336 2.3054 5.7002 -10.8695 -2.7215 31.9913
#
#
#
# Elastic Compliance Matrix: (Units=1/GPa)
#
#
# Indices 1 2 3 4 5 6 
#
# 1 0.012351 -0.003979 -0.003330 0.006736 0.003634 -0.000821
# 2 -0.003979 0.014255 -0.002916 -0.001441 -0.002542 0.000171
# 3 -0.003330 -0.002916 0.013288 -0.001624 0.003191 -0.001279
# 4 0.006736 -0.001441 -0.001624 0.040908 0.008032 0.012631
# 5 0.003634 -0.002542 0.003191 0.008032 0.026440 0.003328
# 6 -0.000821 0.000171 -0.001279 0.012631 0.003328 0.036334
#
#
# Mechanical properties :
#
#
# Convention : Reuss Voigt Hill
#
# Bulk Modulus (GPa) = 51.43565 56.38179 53.90872
# Shear Modulus (GPa) = 29.32420 34.45668 31.89044
#
# Velocity S-wave (km/s) = 3.79924 4.11832 3.96199
# Velocity P-wave (km/s) = 6.67560 7.09696 6.88950
#
# Compressibility (1/GPa) = 0.01944177
#
# Stress axis : x y z
#
# Youngs Moduli (GPa) = 80.96728 70.15047 75.25835
#
# Poissons Ratio (x) = 0.27916 0.25060
# Poissons Ratio (y) = 0.32221 0.21949
# Poissons Ratio (z) = 0.26961 0.20459
#
# Static dielectric constant tensor:
#      x y z
#    x 4.392760 -0.075010 -0.027890 
#    y -0.075010 3.583650 -0.018770 
#    z -0.027890 -0.018770 3.849180 
# 
# 
# High freq. dielectric constant tensor:
#      x y z
#    x 1.811640 -0.007800 -0.021440 
#    y -0.007800 1.778400 -0.003920 
#    z -0.021440 -0.003920 1.790290 
# 
# From -- ./inp_files/282841.got.cif
#   From: 2010.06.25/outbox.cif.g09.slc.cpg/sg2_142_cif.got.tgz:282841.got - 2010.06.27 13:26:56.
