data_PCOD8022072
_publ_section_title
;
Structure prediction by ZEFSAII (Michael W. Deem and Ramdas Pophale) SiO2 
 PCOD8022072
Probable space group: P -1
;
_chemical_formula_sum "Si O2"
_cell_formula_units_Z 14
_cell_length_a 14.668134
_cell_length_b 9.914351
_cell_length_c 8.738091
_cell_angle_alpha 116.765421
_cell_angle_beta 82.625975
_cell_angle_gamma 141.872502
_cell_volume 638.987311
_symmetry_space_group_name_H-M "P -1"
_symmetry_group_IT_number 2
_symmetry_cell_setting 'triclinic'
loop_
_space_group_symop_operation_xyz
x,y,z
-x,-y,-z
loop_
_atom_site_type_symbol
_atom_site_label
_atom_site_fract_x
_atom_site_fract_y
_atom_site_fract_z
Si Si1 0.565714 0.734389 0.191180
Si Si2 0.495011 0.945812 0.152652
Si Si3 0.137046 0.841690 0.010518
Si Si4 0.220474 0.466327 0.565841
Si Si5 0.168617 0.548999 0.924846
Si Si6 0.062023 0.750692 0.645372
Si Si7 0.618592 0.589240 0.641733
O O1 0.537666 0.832455 0.128238
O O2 0.474307 0.632728 0.320967
O O3 0.755587 0.978860 0.315810
O O4 0.500000 0.500000 0.000000
O O5 0.621003 0.221334 0.358856
O O6 0.304196 0.715940 0.116131
O O7 0.500000 0.000000 0.000000
O O8 0.011805 0.701052 0.101613
O O9 0.293337 0.153905 0.162766
O O10 0.193813 0.744384 0.935029
O O11 0.051961 0.774794 0.838608
O O12 0.192064 0.446041 0.743942
O O13 0.254676 0.341935 0.444017
O O14 0.055480 0.290696 0.430993
O O15 0.000000 0.500000 0.500000
O O16 0.500000 0.500000 0.500000
#
# Coordination Sequence:
#
# PCOD8022072 Si02
#       7
#     2   2   2   2   2   2   2
#     4  12  27  46  75 110 147 197 241 306 382 425
#     4  10  22  44  74 102 142 192 246 294 360 445
#     4  11  24  46  70 108 146 197 242 311 371 435
#     4  11  25  44  73 106 141 197 246 301 368 442
#     4  10  23  42  77 100 141 196 254 295 369 441
#     4  12  23  46  74 105 148 186 249 306 359 446
#     4  12  30  47  70 108 158 190 248 313 374 438
#
# _framework density 21.909666999999999
#
# number of rings (size 3 to 8) (size 9 to 14) (size 15 to 20)
#    0.000    0.857    4.286    1.714    8.000    4.000 
#    0.000    0.000    0.000    0.000    0.000    0.000 
#    0.000    0.000    0.000    0.000    0.000    0.000 
#
# Total GULP energy -173579.826898 kJ/mol
# GULP energy per Si atom -12398.559064 kJ/mol
# Density = 2.185980 g / cm^3
# Si number density = 21.909667 Si / 1000 Ang^3
#
#
#
# Elastic Constant Matrix: (Units=GPa)
#
#
# Indices 1 2 3 4 5 6 
#
# 1 129.5266 33.7444 34.7877 -2.5608 24.9633 11.1399
# 2 33.7444 102.2126 40.6389 -1.5971 5.2184 1.3130
# 3 34.7877 40.6389 113.8837 4.1014 12.1301 8.2330
# 4 -2.5608 -1.5971 4.1014 38.1872 10.2771 2.9289
# 5 24.9633 5.2184 12.1301 10.2771 47.6596 1.1201
# 6 11.1399 1.3130 8.2330 2.9289 1.1201 29.7423
#
#
#
# Elastic Compliance Matrix: (Units=1/GPa)
#
#
# Indices 1 2 3 4 5 6 
#
# 1 0.010051 -0.002372 -0.001534 0.002348 -0.005044 -0.003276
# 2 -0.002372 0.012010 -0.003754 0.000441 0.000756 0.001325
# 3 -0.001534 -0.003754 0.010917 -0.000914 -0.001317 -0.002142
# 4 0.002348 0.000441 -0.000914 0.028629 -0.007144 -0.003196
# 5 -0.005044 0.000756 -0.001317 -0.007144 0.025370 0.001968
# 6 -0.003276 0.001325 -0.002142 -0.003196 0.001968 0.035624
#
#
# Mechanical properties :
#
#
# Convention : Reuss Voigt Hill
#
# Bulk Modulus (GPa) = 56.62982 62.66278 59.64630
# Shear Modulus (GPa) = 34.76893 38.88127 36.82510
#
# Velocity S-wave (km/s) = 3.98794 4.21719 4.10417
# Velocity P-wave (km/s) = 6.86352 7.23709 7.05278
#
# Compressibility (1/GPa) = 0.01765854
#
# Stress axis : x y z
#
# Youngs Moduli (GPa) = 99.49629 83.26267 91.60038
#
# Poissons Ratio (x) = 0.19748 0.14054
# Poissons Ratio (y) = 0.23599 0.34382
# Poissons Ratio (z) = 0.15266 0.31253
#
# Static dielectric constant tensor:
#      x y z
#    x 4.026760 0.258610 0.820060 
#    y 0.258610 4.089390 0.176420 
#    z 0.820060 0.176420 3.622980 
# 
# 
# High freq. dielectric constant tensor:
#      x y z
#    x 1.870450 0.014140 0.011200 
#    y 0.014140 1.861090 0.009750 
#    z 0.011200 0.009750 1.864640 
# 
# From -- ./inp_files/299499.got.cif
#   From: 2010.06.25/outbox.cif.g09.slc.cpg/sg2_150_cif.got.tgz:299499.got - 2010.06.27 13:26:56.
