data_PCOD8022037
_publ_section_title
;
Structure prediction by ZEFSAII (Michael W. Deem and Ramdas Pophale) SiO2 
 PCOD8022037
Probable space group: P -1
;
_chemical_formula_sum "Si O2"
_cell_formula_units_Z 12
_cell_length_a 10.294229
_cell_length_b 17.423043
_cell_length_c 13.865622
_cell_angle_alpha 157.053196
_cell_angle_beta 42.310065
_cell_angle_gamma 146.085253
_cell_volume 537.491450
_symmetry_space_group_name_H-M "P -1"
_symmetry_group_IT_number 2
_symmetry_cell_setting 'triclinic'
loop_
_space_group_symop_operation_xyz
x,y,z
-x,-y,-z
loop_
_atom_site_type_symbol
_atom_site_label
_atom_site_fract_x
_atom_site_fract_y
_atom_site_fract_z
Si Si1 0.966326 0.985988 0.767312
Si Si2 0.548600 0.246422 0.224594
Si Si3 0.347390 0.685102 0.977251
Si Si4 0.674690 0.061197 0.383844
Si Si5 0.004818 0.536096 0.653934
Si Si6 0.997407 0.825655 0.373768
O O1 0.691979 0.767793 0.648947
O O2 0.098938 0.989444 0.602624
O O3 0.092144 0.930539 0.714876
O O4 0.992916 0.231376 0.056666
O O5 0.768381 0.442756 0.397534
O O6 0.596169 0.288231 0.134488
O O7 0.500000 0.000000 0.000000
O O8 0.157426 0.744045 0.156740
O O9 0.561578 0.866498 0.136784
O O10 0.257693 0.419949 0.755158
O O11 0.768471 0.318937 0.583923
O O12 0.500000 0.000000 0.500000
O O13 0.000000 0.500000 0.500000
O O14 0.000000 0.000000 0.500000
#
# Coordination Sequence:
#
# PCOD8022037 Si02
#       6
#     2   2   2   2   2   2
#     4  11  25  45  73 102 137 192 237 283 358 416
#     4  10  22  44  73 100 137 180 241 288 340 426
#     4  11  25  44  67 101 144 180 231 295 345 413
#     4  12  26  44  69 105 151 183 232 297 351 422
#     4  11  26  46  73 105 146 182 235 300 355 419
#     4  11  24  42  69  97 134 187 238 281 348 420
#
# _framework density 22.325935999999999
#
# number of rings (size 3 to 8) (size 9 to 14) (size 15 to 20)
#    0.000    1.000    1.667    5.000    4.667    8.667 
#    0.000    0.000    0.000    0.000    0.000    0.000 
#    0.000    0.000    0.000    0.000    0.000    0.000 
#
# Total GULP energy -148676.146941 kJ/mol
# GULP energy per Si atom -12389.678912 kJ/mol
# Density = 2.227512 g / cm^3
# Si number density = 22.325936 Si / 1000 Ang^3
#
#
#
# Elastic Constant Matrix: (Units=GPa)
#
#
# Indices 1 2 3 4 5 6 
#
# 1 32.1943 -90.9191 -231.7826 203.7847 -121.0478 -30.9565
# 2 -90.9191 -52.6105 -305.3816 266.2249 -180.4695 -54.1018
# 3 -231.7826 -305.3816 -525.4698 469.9574 -317.6417 -70.1973
# 4 203.7847 266.2249 469.9574 -296.8184 229.7943 39.8490
# 5 -121.0478 -180.4695 -317.6417 229.7943 -123.1916 -32.1731
# 6 -30.9565 -54.1018 -70.1973 39.8490 -32.1731 34.0788
#
#
#
# Elastic Compliance Matrix: (Units=1/GPa)
#
#
# Indices 1 2 3 4 5 6 
#
# 1 0.008926 -0.003217 -0.001317 -0.001611 -0.003396 -0.001035
# 2 -0.003217 0.009561 -0.003841 0.001535 0.001006 0.003500
# 3 -0.001317 -0.003841 0.008007 0.005080 -0.004091 -0.000603
# 4 -0.001611 0.001535 0.005080 0.013660 0.010349 0.005235
# 5 -0.003396 0.001006 -0.004091 0.010349 0.023544 0.000211
# 6 -0.001035 0.003500 -0.000603 0.005235 0.000211 0.026796
#
#
# Mechanical properties :
#
#
# Convention : Reuss Voigt Hill
#
# Bulk Modulus (GPa) = 102.62831 -200.22806 -48.79988
# Shear Modulus (GPa) = 45.25243 -71.70641 -13.22699
#
# Velocity S-wave (km/s) = 4.50699 -5.67342 -2.43667
# Velocity P-wave (km/s) = 8.55289 11.52370 5.46094
#
# Compressibility (1/GPa) = 0.00974390
#
# Stress axis : x y z
#
# Youngs Moduli (GPa) = 112.03465 104.59091 124.89304
#
# Poissons Ratio (x) = 0.33644 0.16454
# Poissons Ratio (y) = 0.36038 0.47969
# Poissons Ratio (z) = 0.14760 0.40171
#
# Static dielectric constant tensor:
#      x y z
#    x 4.501270 0.201770 0.237970 
#    y 0.201770 4.343840 0.163480 
#    z 0.237970 0.163480 4.346030 
# 
# 
# High freq. dielectric constant tensor:
#      x y z
#    x 1.890820 -0.006090 0.003570 
#    y -0.006090 1.890230 0.003280 
#    z 0.003570 0.003280 1.890180 
# 
# From -- ./inp_files/230239.got.cif
#   From: 2010.06.25/outbox.cif.g09.slc.cpg/sg2_116_cif.got.tgz:230239.got - 2010.06.27 13:26:56.
