data_PCOD8022932
_publ_section_title
;
Structure prediction by ZEFSAII (Michael W. Deem and Ramdas Pophale) SiO2 
 PCOD8022932
Probable space group: P -1
;
_chemical_formula_sum "Si O2"
_cell_formula_units_Z 16
_cell_length_a 19.480515
_cell_length_b 8.451406
_cell_length_c 9.164630
_cell_angle_alpha 75.906489
_cell_angle_beta 142.343423
_cell_angle_gamma 122.026854
_cell_volume 734.808917
_symmetry_space_group_name_H-M "P -1"
_symmetry_group_IT_number 2
_symmetry_cell_setting 'triclinic'
loop_
_space_group_symop_operation_xyz
x,y,z
-x,-y,-z
loop_
_atom_site_type_symbol
_atom_site_label
_atom_site_fract_x
_atom_site_fract_y
_atom_site_fract_z
Si Si1 0.352879 0.575377 0.906274
Si Si2 0.901178 0.573512 0.319168
Si Si3 0.357600 0.587286 0.578723
Si Si4 0.924939 0.089892 0.924432
Si Si5 0.116262 0.492233 0.012135
Si Si6 0.337040 0.188515 0.622701
Si Si7 0.907032 0.157779 0.195713
Si Si8 0.334168 0.177286 0.954358
O O1 0.249067 0.591111 0.830447
O O2 0.325274 0.605773 0.687234
O O3 0.322411 0.359236 0.924300
O O4 0.509904 0.744862 0.175489
O O5 0.000000 0.500000 0.500000
O O6 0.972425 0.771507 0.496946
O O7 0.880911 0.613337 0.108932
O O8 0.264023 0.615383 0.308659
O O9 0.325730 0.372264 0.545917
O O10 0.513801 0.757150 0.767051
O O11 0.770242 0.982195 0.629768
O O12 0.926516 0.061187 0.108038
O O13 0.003840 0.322320 0.968484
O O14 0.000000 0.000000 0.000000
O O15 0.081030 0.647729 0.882445
O O16 0.300043 0.108562 0.744023
O O17 0.763015 0.004155 0.062818
#
# Coordination Sequence:
#
# PCOD8022932 Si02
#       8
#     2   2   2   2   2   2   2   2
#     4   9  19  37  66  90 123 165 201 256 309 357
#     4  10  23  40  61  89 125 166 208 247 309 369
#     4   9  18  38  64  93 125 160 204 253 309 364
#     4  12  24  38  63  93 123 160 210 259 302 364
#     4  11  23  41  62  86 128 166 202 259 308 360
#     4   9  19  39  62  95 124 156 208 256 302 367
#     4  11  25  41  59  88 127 166 205 253 313 366
#     4   9  20  37  63  93 125 162 204 252 307 371
#
# _framework density 21.774369
#
# number of rings (size 3 to 8) (size 9 to 14) (size 15 to 20)
#    0.000    2.000    1.250    3.375    3.500    3.000 
#    0.000    3.750    0.000   10.500    0.000    0.000 
#    0.000    0.000    0.000    0.000    0.000    0.000 
#
# Total GULP energy -198389.417443 kJ/mol
# GULP energy per Si atom -12399.338590 kJ/mol
# Density = 2.172481 g / cm^3
# Si number density = 21.774369 Si / 1000 Ang^3
#
#
#
# Elastic Constant Matrix: (Units=GPa)
#
#
# Indices 1 2 3 4 5 6 
#
# 1 125.1746 12.3990 46.9626 17.0607 3.8902 20.3502
# 2 12.3990 53.5396 3.8512 15.7571 4.0827 18.6161
# 3 46.9626 3.8512 143.7951 19.5291 -11.0542 6.2049
# 4 17.0607 15.7571 19.5291 24.0820 0.2002 5.0323
# 5 3.8902 4.0827 -11.0542 0.2002 38.4159 3.6047
# 6 20.3502 18.6161 6.2049 5.0323 3.6047 31.4876
#
#
#
# Elastic Compliance Matrix: (Units=1/GPa)
#
#
# Indices 1 2 3 4 5 6 
#
# 1 0.010574 0.001486 -0.002651 -0.004999 -0.001381 -0.006233
# 2 0.001486 0.029036 0.001794 -0.018272 -0.001177 -0.015425
# 3 -0.002651 0.001794 0.008869 -0.006432 0.002699 -0.000376
# 4 -0.004999 -0.018272 -0.006432 0.061076 -0.000243 0.005568
# 5 -0.001381 -0.001177 0.002699 -0.000243 0.027264 -0.002026
# 6 -0.006233 -0.015425 -0.000376 0.005568 -0.002026 0.044322
#
#
# Mechanical properties :
#
#
# Convention : Reuss Voigt Hill
#
# Bulk Modulus (GPa) = 20.10653 49.88167 34.99410
# Shear Modulus (GPa) = 25.44997 36.08353 30.76675
#
# Velocity S-wave (km/s) = 3.42249 4.07523 3.76304
# Velocity P-wave (km/s) = 4.98718 6.71577 5.91496
#
# Compressibility (1/GPa) = 0.04973508
#
# Stress axis : x y z
#
# Youngs Moduli (GPa) = 94.57168 34.44054 112.74650
#
# Poissons Ratio (x) = -0.05117 0.29894
# Poissons Ratio (y) = -0.14050 -0.20225
# Poissons Ratio (z) = 0.25075 -0.06178
#
# Static dielectric constant tensor:
#      x y z
#    x 4.167670 0.140120 -0.306500 
#    y 0.140120 3.572450 0.206360 
#    z -0.306500 0.206360 4.449310 
# 
# 
# High freq. dielectric constant tensor:
#      x y z
#    x 1.857050 0.012750 -0.002160 
#    y 0.012750 1.831010 0.008500 
#    z -0.002160 0.008500 1.869050 
# 
# From -- ./inp_files/182409.got.cif
#   From: 2010.06.25/outbox.cif.g09.slc.cpg/sg2_92_cif.got.tgz:182409.got - 2010.06.27 13:26:56.
