data_PCOD8022124
_publ_section_title
;
Structure prediction by ZEFSAII (Michael W. Deem and Ramdas Pophale) SiO2 
 PCOD8022124
Probable space group: P -1
;
_chemical_formula_sum "Si O2"
_cell_formula_units_Z 16
_cell_length_a 21.755062
_cell_length_b 19.253124
_cell_length_c 12.353445
_cell_angle_alpha 148.680725
_cell_angle_beta 28.718217
_cell_angle_gamma 162.417411
_cell_volume 745.079893
_symmetry_space_group_name_H-M "P -1"
_symmetry_group_IT_number 2
_symmetry_cell_setting 'triclinic'
loop_
_space_group_symop_operation_xyz
x,y,z
-x,-y,-z
loop_
_atom_site_type_symbol
_atom_site_label
_atom_site_fract_x
_atom_site_fract_y
_atom_site_fract_z
Si Si1 0.560912 0.410253 0.740993
Si Si2 0.965048 0.834901 0.551124
Si Si3 0.621187 0.845400 0.529199
Si Si4 0.162467 0.437884 0.807553
Si Si5 0.099964 0.980305 0.235540
Si Si6 0.270582 0.666235 0.473750
Si Si7 0.786337 0.261938 0.753530
Si Si8 0.486362 0.109497 0.822199
O O1 0.804042 0.618677 0.591651
O O2 0.380857 0.218897 0.673174
O O3 0.566942 0.304143 0.683549
O O4 0.500000 0.500000 0.000000
O O5 0.006848 0.769772 0.297475
O O6 0.870992 0.903816 0.762011
O O7 0.188259 0.057052 0.564792
O O8 0.406247 0.618276 0.626304
O O9 0.656659 0.033618 0.710790
O O10 0.092215 0.299501 0.843216
O O11 0.137381 0.573255 0.048671
O O12 0.000000 0.000000 0.500000
O O13 0.339843 0.118953 0.076028
O O14 0.328225 0.717074 0.325858
O O15 0.010247 0.405403 0.537921
O O16 0.317056 0.847149 0.701047
O O17 0.614149 0.187419 0.839796
#
# Coordination Sequence:
#
# PCOD8022124 Si02
#       8
#     2   2   2   2   2   2   2   2
#     4  11  23  45  67  97 134 176 220 273 336 393
#     4  10  23  44  64  96 137 170 225 264 334 394
#     4  11  24  42  66 101 130 175 218 271 328 406
#     4  10  24  40  65  98 132 174 216 273 328 386
#     4  10  22  45  65  93 136 176 216 277 330 387
#     4  11  23  44  68  95 136 172 224 282 326 392
#     4  12  23  43  68 102 131 176 222 269 339 398
#     4  11  24  43  68  97 132 177 226 274 333 389
#
# _framework density 21.474205999999999
#
# number of rings (size 3 to 8) (size 9 to 14) (size 15 to 20)
#    0.000    1.250    3.750    1.500    3.500    1.500 
#    6.750    0.000    0.000    0.000    0.000    0.000 
#    0.000    0.000    0.000    0.000    0.000    0.000 
#
# Total GULP energy -198296.751698 kJ/mol
# GULP energy per Si atom -12393.546981 kJ/mol
# Density = 2.142533 g / cm^3
# Si number density = 21.474206 Si / 1000 Ang^3
#
#
#
# Elastic Constant Matrix: (Units=GPa)
#
#
# Indices 1 2 3 4 5 6 
#
# 1 104.8849 29.4142 26.9901 0.2279 -23.0211 10.7066
# 2 29.4142 82.8540 11.0164 8.8838 -2.3674 6.5477
# 3 26.9901 11.0164 104.8199 8.7245 -11.6155 11.2041
# 4 0.2279 8.8838 8.7245 30.2713 1.6543 -8.6480
# 5 -23.0211 -2.3674 -11.6155 1.6543 29.1689 -1.2718
# 6 10.7066 6.5477 11.2041 -8.6480 -1.2718 35.0880
#
#
#
# Elastic Compliance Matrix: (Units=1/GPa)
#
#
# Indices 1 2 3 4 5 6 
#
# 1 0.013462 -0.004138 -0.001773 0.000445 0.009457 -0.002317
# 2 -0.004138 0.014202 0.000041 -0.004801 -0.001940 -0.002654
# 3 -0.001773 0.000041 0.011147 -0.004533 0.003124 -0.004030
# 4 0.000445 -0.004801 -0.004533 0.039302 -0.003560 0.011765
# 5 0.009457 -0.001940 0.003124 -0.003560 0.042911 -0.002843
# 6 -0.002317 -0.002654 -0.004030 0.011765 -0.002843 0.033786
#
#
# Mechanical properties :
#
#
# Convention : Reuss Voigt Hill
#
# Bulk Modulus (GPa) = 36.93927 47.48893 42.21410
# Shear Modulus (GPa) = 28.47814 33.91484 31.19649
#
# Velocity S-wave (km/s) = 3.64559 3.97839 3.81562
# Velocity P-wave (km/s) = 5.91266 6.57768 6.25401
#
# Compressibility (1/GPa) = 0.02707146
#
# Stress axis : x y z
#
# Youngs Moduli (GPa) = 74.28249 70.41234 89.71281
#
# Poissons Ratio (x) = 0.29136 0.15906
# Poissons Ratio (y) = 0.30738 -0.00369
# Poissons Ratio (z) = 0.13170 -0.00290
#
# Static dielectric constant tensor:
#      x y z
#    x 4.313850 -0.549200 -0.015130 
#    y -0.549200 4.415110 0.172240 
#    z -0.015130 0.172240 3.779290 
# 
# 
# High freq. dielectric constant tensor:
#      x y z
#    x 1.836490 -0.018230 -0.003840 
#    y -0.018230 1.856440 0.002860 
#    z -0.003840 0.002860 1.836840 
# 
# From -- ./inp_files/70656.got.cif
#   From: 2010.06.25/outbox.cif.g09.slc.cpg/sg2_36_cif.got.tgz:70656.got - 2010.06.27 13:26:56.
