data_PCOD8022838
_publ_section_title
;
Structure prediction by ZEFSAII (Michael W. Deem and Ramdas Pophale) SiO2 
 PCOD8022838
Probable space group: P -1
;
_chemical_formula_sum "Si O2"
_cell_formula_units_Z 14
_cell_length_a 8.614162
_cell_length_b 20.152970
_cell_length_c 8.931459
_cell_angle_alpha 144.025367
_cell_angle_beta 47.175910
_cell_angle_gamma 142.476120
_cell_volume 551.644753
_symmetry_space_group_name_H-M "P -1"
_symmetry_group_IT_number 2
_symmetry_cell_setting 'triclinic'
loop_
_space_group_symop_operation_xyz
x,y,z
-x,-y,-z
loop_
_atom_site_type_symbol
_atom_site_label
_atom_site_fract_x
_atom_site_fract_y
_atom_site_fract_z
Si Si1 0.759846 0.572689 0.288695
Si Si2 0.836199 0.396932 0.139141
Si Si3 0.035106 0.196616 0.903636
Si Si4 0.740395 0.498403 0.669440
Si Si5 0.883232 0.178565 0.296847
Si Si6 0.499366 0.234271 0.513407
Si Si7 0.530559 0.118300 0.974708
O O1 0.722419 0.459691 0.223372
O O2 0.477674 0.525995 0.346825
O O3 0.910861 0.724705 0.537452
O O4 0.908089 0.577240 0.052134
O O5 0.913093 0.470123 0.389253
O O6 0.618050 0.235153 0.006300
O O7 0.232664 0.165783 0.651729
O O8 0.754581 0.095355 0.828772
O O9 0.103372 0.346997 0.090257
O O10 0.028403 0.179941 0.055877
O O11 0.606807 0.391756 0.698115
O O12 0.709042 0.235547 0.480333
O O13 0.707862 0.024282 0.194564
O O14 0.442962 0.152517 0.247484
#
# Coordination Sequence:
#
# PCOD8022838 Si02
#       7
#     2   2   2   2   2   2   2
#     4  11  24  40  66  93 123 162 208 255 308 365
#     4  10  23  41  66  88 126 166 203 255 308 360
#     4  11  22  37  66  92 126 160 204 258 307 360
#     4  11  23  39  64  97 126 153 211 260 307 360
#     4  11  25  41  63  93 128 162 207 251 306 369
#     4  10  23  39  65  94 121 166 204 255 308 364
#     4  10  24  43  61  93 127 163 207 253 302 371
#
# _framework density 25.378651999999999
#
# number of rings (size 3 to 8) (size 9 to 14) (size 15 to 20)
#    0.000    1.429    1.429    3.429    6.000    4.571 
#    0.000    2.857    3.143    0.000    0.000    0.000 
#    0.000    0.000    0.000    0.000    0.000    0.000 
#
# Total GULP energy -173720.070351 kJ/mol
# GULP energy per Si atom -12408.576454 kJ/mol
# Density = 2.532089 g / cm^3
# Si number density = 25.378652 Si / 1000 Ang^3
#
#
#
# Elastic Constant Matrix: (Units=GPa)
#
#
# Indices 1 2 3 4 5 6 
#
# 1 69.3088 31.4667 28.5419 -3.1003 5.5427 6.3353
# 2 31.4667 117.3348 40.2269 -6.6846 5.0562 -6.3391
# 3 28.5419 40.2269 68.1885 -26.3042 -1.8978 5.0468
# 4 -3.1003 -6.6846 -26.3042 55.8450 11.7452 -5.1279
# 5 5.5427 5.0562 -1.8978 11.7452 28.0371 -1.0626
# 6 6.3353 -6.3391 5.0468 -5.1279 -1.0626 39.5671
#
#
#
# Elastic Compliance Matrix: (Units=1/GPa)
#
#
# Indices 1 2 3 4 5 6 
#
# 1 0.019012 -0.002865 -0.006995 -0.002249 -0.002886 -0.002980
# 2 -0.002865 0.011628 -0.006388 -0.001224 -0.001338 0.002942
# 3 -0.006995 -0.006388 0.025667 0.010844 -0.000338 -0.001781
# 4 -0.002249 -0.001224 0.010844 0.024779 -0.008915 0.001753
# 5 -0.002886 -0.001338 -0.000338 -0.008915 0.040199 0.000215
# 6 -0.002980 0.002942 -0.001781 0.001753 0.000215 0.026682
#
#
# Mechanical properties :
#
#
# Convention : Reuss Voigt Hill
#
# Bulk Modulus (GPa) = 41.99656 50.58922 46.29289
# Shear Modulus (GPa) = 26.53931 34.99628 30.76779
#
# Velocity S-wave (km/s) = 3.23729 3.71747 3.48566
# Velocity P-wave (km/s) = 5.52787 6.19703 5.87199
#
# Compressibility (1/GPa) = 0.02381148
#
# Stress axis : x y z
#
# Youngs Moduli (GPa) = 52.59777 86.00075 38.96032
#
# Poissons Ratio (x) = 0.24642 0.27253
# Poissons Ratio (y) = 0.15071 0.24886
# Poissons Ratio (z) = 0.36792 0.54934
#
# Static dielectric constant tensor:
#      x y z
#    x 4.430610 0.006190 -0.153820 
#    y 0.006190 4.808950 -0.096720 
#    z -0.153820 -0.096720 4.568600 
# 
# 
# High freq. dielectric constant tensor:
#      x y z
#    x 2.013130 0.004860 -0.008940 
#    y 0.004860 2.027860 -0.007390 
#    z -0.008940 -0.007390 2.011920 
# 
# From -- ./inp_files/222551.got.cif
#   From: 2010.06.25/outbox.cif.g09.slc.cpg/sg2_112_cif.got.tgz:222551.got - 2010.06.27 13:26:56.
