data_PCOD8022305
_publ_section_title
;
Structure prediction by ZEFSAII (Michael W. Deem and Ramdas Pophale) SiO2 
 PCOD8022305
Probable space group: P -1
;
_chemical_formula_sum "Si O2"
_cell_formula_units_Z 14
_cell_length_a 13.895721
_cell_length_b 28.371134
_cell_length_c 11.644391
_cell_angle_alpha 21.268168
_cell_angle_beta 148.010631
_cell_angle_gamma 157.921488
_cell_volume 621.893189
_symmetry_space_group_name_H-M "P -1"
_symmetry_group_IT_number 2
_symmetry_cell_setting 'triclinic'
loop_
_space_group_symop_operation_xyz
x,y,z
-x,-y,-z
loop_
_atom_site_type_symbol
_atom_site_label
_atom_site_fract_x
_atom_site_fract_y
_atom_site_fract_z
Si Si1 0.193137 0.129097 0.800677
Si Si2 0.404211 0.480090 0.573293
Si Si3 0.424065 0.651246 0.788613
Si Si4 0.755383 0.047525 0.155587
Si Si5 0.005734 0.256472 0.169606
Si Si6 0.500264 0.961574 0.720659
Si Si7 0.852063 0.260488 0.568228
O O1 0.433993 0.325490 0.647977
O O2 0.050120 0.138556 0.537721
O O3 0.303596 0.056670 0.018084
O O4 0.000000 0.000000 0.000000
O O5 0.500000 0.500000 0.500000
O O6 0.121537 0.399860 0.458446
O O7 0.434918 0.363222 0.940613
O O8 0.211776 0.641624 0.648048
O O9 0.663589 0.849838 0.519236
O O10 0.261509 0.477596 0.929865
O O11 0.929649 0.188995 0.115129
O O12 0.891813 0.153310 0.934124
O O13 0.500000 0.000000 0.000000
O O14 0.782805 0.213028 0.118932
O O15 0.500000 0.000000 0.500000
O O16 0.618933 0.135516 0.524515
#
# Coordination Sequence:
#
# PCOD8022305 Si02
#       7
#     2   2   2   2   2   2   2
#     4  11  24  42  63  97 133 175 223 273 334 400
#     4  11  26  42  66  97 133 178 223 277 336 397
#     4  10  24  44  68 100 135 174 227 277 332 399
#     4  10  22  45  70  99 135 177 227 276 332 403
#     4  11  23  45  67  97 137 177 220 281 336 388
#     4  12  24  39  68  97 134 179 219 274 341 394
#     4  11  25  45  67 102 132 178 225 276 339 395
#
# _framework density 22.511904999999999
#
# number of rings (size 3 to 8) (size 9 to 14) (size 15 to 20)
#    0.000    1.143    4.286    1.714    8.000    3.429 
#    2.571    1.429    0.000    0.000    0.000    0.000 
#    0.000    0.000    0.000    0.000    0.000    0.000 
#
# Total GULP energy -173548.672856 kJ/mol
# GULP energy per Si atom -12396.333775 kJ/mol
# Density = 2.246067 g / cm^3
# Si number density = 22.511905 Si / 1000 Ang^3
#
#
#
# Elastic Constant Matrix: (Units=GPa)
#
#
# Indices 1 2 3 4 5 6 
#
# 1 59.9901 23.6308 6.9225 3.1948 -4.3457 -8.5185
# 2 23.6308 95.2301 23.9551 3.4911 -0.6747 -25.0100
# 3 6.9225 23.9551 88.3678 -3.5444 8.4194 -15.9829
# 4 3.1948 3.4911 -3.5444 33.4104 4.1807 -0.0605
# 5 -4.3457 -0.6747 8.4194 4.1807 29.6450 11.4582
# 6 -8.5185 -25.0100 -15.9829 -0.0605 11.4582 51.3569
#
#
#
# Elastic Compliance Matrix: (Units=1/GPa)
#
#
# Indices 1 2 3 4 5 6 
#
# 1 0.018803 -0.004395 -0.000625 -0.001786 0.003046 0.000102
# 2 -0.004395 0.013648 -0.002216 -0.001014 -0.001731 0.005613
# 3 -0.000625 -0.002216 0.013417 0.002470 -0.005974 0.004328
# 4 -0.001786 -0.001014 0.002470 0.031211 -0.005903 0.001332
# 5 0.003046 -0.001731 -0.005974 -0.005903 0.041061 -0.011365
# 6 0.000102 0.005613 0.004328 0.001332 -0.011365 0.026106
#
#
# Mechanical properties :
#
#
# Convention : Reuss Voigt Hill
#
# Bulk Modulus (GPa) = 31.85076 39.17832 35.51454
# Shear Modulus (GPa) = 29.55382 35.48779 32.52080
#
# Velocity S-wave (km/s) = 3.62720 3.97470 3.80492
# Velocity P-wave (km/s) = 5.63216 6.20528 5.92565
#
# Compressibility (1/GPa) = 0.03139643
#
# Stress axis : x y z
#
# Youngs Moduli (GPa) = 53.18309 73.27199 74.53129
#
# Poissons Ratio (x) = 0.32201 0.04658
# Poissons Ratio (y) = 0.23372 0.16517
# Poissons Ratio (z) = 0.03324 0.16238
#
# Static dielectric constant tensor:
#      x y z
#    x 3.894640 0.287060 -0.177230 
#    y 0.287060 5.161500 -1.025950 
#    z -0.177230 -1.025950 5.298390 
# 
# 
# High freq. dielectric constant tensor:
#      x y z
#    x 1.881600 0.000330 0.001610 
#    y 0.000330 1.905050 0.002650 
#    z 0.001610 0.002650 1.891540 
# 
# From -- ./inp_files/426064.got.cif
#   From: 2010.06.25/outbox.cif.g09.slc.cpg/sg2_214_cif.got.tgz:426064.got - 2010.06.27 13:26:56.
