data_PCOD8022372
_publ_section_title
;
Structure prediction by ZEFSAII (Michael W. Deem and Ramdas Pophale) SiO2 
 PCOD8022372
Probable space group: P -1
;
_chemical_formula_sum "Si O2"
_cell_formula_units_Z 14
_cell_length_a 9.092497
_cell_length_b 8.395331
_cell_length_c 8.971804
_cell_angle_alpha 114.671095
_cell_angle_beta 68.827959
_cell_angle_gamma 93.962020
_cell_volume 577.634621
_symmetry_space_group_name_H-M "P -1"
_symmetry_group_IT_number 2
_symmetry_cell_setting 'triclinic'
loop_
_space_group_symop_operation_xyz
x,y,z
-x,-y,-z
loop_
_atom_site_type_symbol
_atom_site_label
_atom_site_fract_x
_atom_site_fract_y
_atom_site_fract_z
Si Si1 0.511825 0.949552 0.149126
Si Si2 0.632812 0.508362 0.178349
Si Si3 0.828685 0.966107 0.204402
Si Si4 0.285143 0.171986 0.525283
Si Si5 0.665061 0.380536 0.809745
Si Si6 0.001410 0.399693 0.612772
Si Si7 0.904332 0.281868 0.121925
O O1 0.695732 0.919070 0.116012
O O2 0.419492 0.781076 0.153407
O O3 0.431917 0.108553 0.342537
O O4 0.500000 0.000000 0.000000
O O5 0.669850 0.676321 0.322288
O O6 0.439710 0.516052 0.243892
O O7 0.725304 0.329739 0.141608
O O8 0.684420 0.520918 0.990646
O O9 0.764028 0.979310 0.402757
O O10 0.889770 0.154774 0.219064
O O11 0.978422 0.816270 0.081865
O O12 0.138903 0.239948 0.499964
O O13 0.836680 0.314597 0.658992
O O14 0.000000 0.500000 0.500000
O O15 0.025902 0.537562 0.789504
#
# Coordination Sequence:
#
# PCOD8022372 Si02
#       7
#     2   2   2   2   2   2   2
#     4  12  28  45  72 108 146 186 239 304 361 419
#     4  10  22  45  73 107 135 197 229 297 347 434
#     4  11  23  45  74 103 141 192 238 293 350 433
#     4  11  25  47  75 100 143 194 242 287 359 427
#     4  11  24  44  73 107 149 178 241 293 367 409
#     4  11  27  44  70 107 145 186 234 297 351 429
#     4  10  24  44  73 104 145 187 244 279 359 426
#
# _framework density 24.236774
#
# number of rings (size 3 to 8) (size 9 to 14) (size 15 to 20)
#    0.000    1.143    1.429    3.000    6.000    5.143 
#    0.000    5.000    0.000    0.000    0.000    0.000 
#    0.000    0.000    0.000    0.000    0.000    0.000 
#
# Total GULP energy -173559.345547 kJ/mol
# GULP energy per Si atom -12397.096111 kJ/mol
# Density = 2.418161 g / cm^3
# Si number density = 24.236774 Si / 1000 Ang^3
#
#
#
# Elastic Constant Matrix: (Units=GPa)
#
#
# Indices 1 2 3 4 5 6 
#
# 1 130.1355 46.4850 46.6542 3.3184 -8.0659 -28.9132
# 2 46.4850 92.3564 33.1646 -3.6119 -7.7057 -15.2357
# 3 46.6542 33.1646 91.1448 -4.1540 -10.9965 -5.1606
# 4 3.3184 -3.6119 -4.1540 38.2728 -7.5312 -2.3560
# 5 -8.0659 -7.7057 -10.9965 -7.5312 28.1002 -4.7340
# 6 -28.9132 -15.2357 -5.1606 -2.3560 -4.7340 44.4149
#
#
#
# Elastic Compliance Matrix: (Units=1/GPa)
#
#
# Indices 1 2 3 4 5 6 
#
# 1 0.011971 -0.003320 -0.004433 -0.001146 0.001535 0.006241
# 2 -0.003320 0.014333 -0.002915 0.002062 0.002866 0.002831
# 3 -0.004433 -0.002915 0.014817 0.002427 0.004108 -0.001598
# 4 -0.001146 0.002062 0.002427 0.028694 0.009342 0.002761
# 5 0.001535 0.002866 0.004108 0.009342 0.042180 0.007451
# 6 0.006241 0.002831 -0.001598 0.002761 0.007451 0.028304
#
#
# Mechanical properties :
#
#
# Convention : Reuss Voigt Hill
#
# Bulk Modulus (GPa) = 50.54840 62.91602 56.73221
# Shear Modulus (GPa) = 29.72112 34.64643 32.18378
#
# Velocity S-wave (km/s) = 3.50563 3.78497 3.64798
# Velocity P-wave (km/s) = 6.10633 6.71689 6.41887
#
# Compressibility (1/GPa) = 0.01978302
#
# Stress axis : x y z
#
# Youngs Moduli (GPa) = 83.53784 69.77102 67.48895
#
# Poissons Ratio (x) = 0.23167 0.29917
# Poissons Ratio (y) = 0.27738 0.19676
# Poissons Ratio (z) = 0.37031 0.20342
#
# Static dielectric constant tensor:
#      x y z
#    x 4.975250 -0.194520 -0.165990 
#    y -0.194520 4.373540 0.031360 
#    z -0.165990 0.031360 4.338670 
# 
# 
# High freq. dielectric constant tensor:
#      x y z
#    x 1.978360 -0.015280 -0.003190 
#    y -0.015280 1.959300 0.007520 
#    z -0.003190 0.007520 1.953930 
# 
# From -- ./inp_files/159522.got.cif
#   From: 2010.06.25/outbox.cif.g09.slc.cpg/sg2_80_cif.got.tgz:159522.got - 2010.06.27 13:26:56.
