data_PCOD8022313
_publ_section_title
;
Structure prediction by ZEFSAII (Michael W. Deem and Ramdas Pophale) SiO2 
 PCOD8022313
Probable space group: P -1
;
_chemical_formula_sum "Si O2"
_cell_formula_units_Z 16
_cell_length_a 21.868391
_cell_length_b 6.597022
_cell_length_c 8.140465
_cell_angle_alpha 85.481571
_cell_angle_beta 131.354278
_cell_angle_gamma 121.521232
_cell_volume 683.112873
_symmetry_space_group_name_H-M "P -1"
_symmetry_group_IT_number 2
_symmetry_cell_setting 'triclinic'
loop_
_space_group_symop_operation_xyz
x,y,z
-x,-y,-z
loop_
_atom_site_type_symbol
_atom_site_label
_atom_site_fract_x
_atom_site_fract_y
_atom_site_fract_z
Si Si1 0.481787 0.260052 0.573590
Si Si2 0.392602 0.258400 0.746722
Si Si3 0.068837 0.750217 0.849024
Si Si4 0.049248 0.787414 0.438157
Si Si5 0.227864 0.260387 0.270360
Si Si6 0.101967 0.266338 0.313321
Si Si7 0.336347 0.717675 0.176271
Si Si8 0.235532 0.770115 0.704887
O O1 0.500000 0.500000 0.500000
O O2 0.419944 0.177611 0.638086
O O3 0.595480 0.338489 0.802209
O O4 0.413148 0.014566 0.349937
O O5 0.311943 0.311414 0.549231
O O6 0.341458 0.034361 0.806792
O O7 0.500000 0.500000 0.000000
O O8 0.036054 0.789846 0.610601
O O9 0.052887 0.480917 0.813714
O O10 0.990603 0.711682 0.854389
O O11 0.185055 0.003496 0.097836
O O12 0.148899 0.806720 0.568053
O O13 0.063446 0.033861 0.383695
O O14 0.128364 0.209078 0.187708
O O15 0.280420 0.515108 0.238385
O O16 0.205311 0.543593 0.540908
O O17 0.250217 0.688044 0.912057
#
# Coordination Sequence:
#
# PCOD8022313 Si02
#       8
#     2   2   2   2   2   2   2   2
#     4  11  24  46  68  97 137 174 234 289 337 394
#     4  12  27  45  71  99 141 186 225 282 351 401
#     4  10  24  42  69 104 137 182 226 283 341 408
#     4  10  22  45  71 102 141 179 225 281 346 410
#     4  12  25  45  69 104 139 181 228 284 342 406
#     4  11  23  45  68 102 139 180 229 277 344 409
#     4  11  26  43  72 101 131 184 233 280 341 404
#     4  11  25  44  71 101 138 185 226 281 341 412
#
# _framework density 23.422193
#
# number of rings (size 3 to 8) (size 9 to 14) (size 15 to 20)
#    0.000    1.000    2.500    3.000    5.250    5.000 
#    2.250    0.000    0.000    0.000    0.000    0.000 
#    0.000    0.000    0.000    0.000    0.000    0.000 
#
# Total GULP energy -198378.558345 kJ/mol
# GULP energy per Si atom -12398.659897 kJ/mol
# Density = 2.336888 g / cm^3
# Si number density = 23.422193 Si / 1000 Ang^3
#
#
#
# Elastic Constant Matrix: (Units=GPa)
#
#
# Indices 1 2 3 4 5 6 
#
# 1 95.6835 11.2488 -4.7966 1.5478 -11.4810 4.0885
# 2 11.2488 131.9329 39.7703 18.6324 5.3003 12.1188
# 3 -4.7966 39.7703 108.3096 20.2816 -2.1339 -5.9107
# 4 1.5478 18.6324 20.2816 39.8510 2.4485 1.2564
# 5 -11.4810 5.3003 -2.1339 2.4485 21.8388 1.6938
# 6 4.0885 12.1188 -5.9107 1.2564 1.6938 36.0100
#
#
#
# Elastic Compliance Matrix: (Units=1/GPa)
#
#
# Indices 1 2 3 4 5 6 
#
# 1 0.011540 -0.001440 0.001274 -0.000806 0.006701 -0.000904
# 2 -0.001440 0.009467 -0.003331 -0.002394 -0.002852 -0.003352
# 3 0.001274 -0.003331 0.011602 -0.004667 0.002909 0.002907
# 4 -0.000806 -0.002394 -0.004667 0.028856 -0.003479 -0.000712
# 5 0.006701 -0.002852 0.002909 -0.003479 0.050803 -0.001592
# 6 -0.000904 -0.003352 0.002907 -0.000712 -0.001592 0.029577
#
#
# Mechanical properties :
#
#
# Convention : Reuss Voigt Hill
#
# Bulk Modulus (GPa) = 39.04032 47.59677 43.31854
# Shear Modulus (GPa) = 31.77061 38.85352 35.31207
#
# Velocity S-wave (km/s) = 3.68697 4.07730 3.88704
# Velocity P-wave (km/s) = 5.90164 6.52159 6.21934
#
# Compressibility (1/GPa) = 0.02561454
#
# Stress axis : x y z
#
# Youngs Moduli (GPa) = 86.65502 105.63012 86.19104
#
# Poissons Ratio (x) = 0.15213 -0.10977
# Poissons Ratio (y) = 0.12480 0.28708
# Poissons Ratio (z) = -0.11036 0.35182
#
# Static dielectric constant tensor:
#      x y z
#    x 4.573340 0.043230 -0.143100 
#    y 0.043230 4.337190 0.197280 
#    z -0.143100 0.197280 4.346960 
# 
# 
# High freq. dielectric constant tensor:
#      x y z
#    x 1.937390 0.004200 -0.002440 
#    y 0.004200 1.939220 0.015190 
#    z -0.002440 0.015190 1.923410 
# 
# From -- ./inp_files/323853.got.cif
#   From: 2010.06.25/outbox.cif.g09.slc.cpg/sg2_162_cif.got.tgz:323853.got - 2010.06.27 13:26:56.
