data_PCOD8022552
_publ_section_title
;
Structure prediction by ZEFSAII (Michael W. Deem and Ramdas Pophale) SiO2 
 PCOD8022552
Probable space group: P -1
;
_chemical_formula_sum "Si O2"
_cell_formula_units_Z 16
_cell_length_a 9.195336
_cell_length_b 20.718551
_cell_length_c 6.537408
_cell_angle_alpha 68.440161
_cell_angle_beta 129.619916
_cell_angle_gamma 129.807508
_cell_volume 735.237869
_symmetry_space_group_name_H-M "P -1"
_symmetry_group_IT_number 2
_symmetry_cell_setting 'triclinic'
loop_
_space_group_symop_operation_xyz
x,y,z
-x,-y,-z
loop_
_atom_site_type_symbol
_atom_site_label
_atom_site_fract_x
_atom_site_fract_y
_atom_site_fract_z
Si Si1 0.627736 0.814344 0.823829
Si Si2 0.168249 0.478532 0.758575
Si Si3 0.162189 0.896131 0.235499
Si Si4 0.544101 0.355361 0.924920
Si Si5 0.879826 0.346759 0.978432
Si Si6 0.372344 0.830092 0.220005
Si Si7 0.497510 0.078454 0.165628
Si Si8 0.297210 0.427505 0.540488
O O1 0.563917 0.825848 0.522825
O O2 0.545649 0.854140 0.863681
O O3 0.493419 0.714985 0.867902
O O4 0.895101 0.856624 0.047853
O O5 0.309287 0.468259 0.722374
O O6 0.000000 0.500000 0.500000
O O7 0.337630 0.552735 0.975969
O O8 0.012204 0.390668 0.838738
O O9 0.205926 0.834847 0.220862
O O10 0.272103 0.908182 0.546420
O O11 0.280047 0.986025 0.128464
O O12 0.310995 0.345532 0.658196
O O13 0.676920 0.358474 0.836681
O O14 0.046016 0.387880 0.272791
O O15 0.776376 0.249144 0.969452
O O16 0.487940 0.911224 0.079534
O O17 0.500000 0.500000 0.500000
#
# Coordination Sequence:
#
# PCOD8022552 Si02
#       8
#     2   2   2   2   2   2   2   2
#     4  11  25  42  66 102 133 175 222 275 330 398
#     4  12  24  44  70  90 133 177 216 276 332 390
#     4  10  24  42  73  98 133 175 221 272 336 399
#     4  12  25  44  65  95 136 174 226 275 332 392
#     4  12  26  45  65  96 135 177 219 278 330 391
#     4  11  25  41  68  99 137 174 223 272 334 395
#     4  10  22  47  67  99 135 175 217 275 336 398
#     4  12  27  44  69  99 126 178 229 272 333 398
#
# _framework density 21.761664
#
# number of rings (size 3 to 8) (size 9 to 14) (size 15 to 20)
#    0.000    0.750    3.750    3.000    3.500    2.500 
#    0.000    0.000    0.000    0.000    0.000    0.000 
#    0.000    0.000    0.000    0.000    0.000    0.000 
#
# Total GULP energy -198401.875148 kJ/mol
# GULP energy per Si atom -12400.117197 kJ/mol
# Density = 2.171213 g / cm^3
# Si number density = 21.761664 Si / 1000 Ang^3
#
#
#
# Elastic Constant Matrix: (Units=GPa)
#
#
# Indices 1 2 3 4 5 6 
#
# 1 79.5565 21.2385 35.7309 -17.5917 -4.3448 8.7967
# 2 21.2385 83.3036 24.7586 -14.0733 1.6037 3.0807
# 3 35.7309 24.7586 92.9665 -19.0945 -0.2740 12.7902
# 4 -17.5917 -14.0733 -19.0945 37.8475 -0.8604 0.6098
# 5 -4.3448 1.6037 -0.2740 -0.8604 39.3414 -1.3716
# 6 8.7967 3.0807 12.7902 0.6098 -1.3716 35.8809
#
#
#
# Elastic Compliance Matrix: (Units=1/GPa)
#
#
# Indices 1 2 3 4 5 6 
#
# 1 0.016547 -0.002025 -0.004529 0.004733 0.001903 -0.002276
# 2 -0.002025 0.013713 -0.002267 0.002997 -0.000731 0.000048
# 3 -0.004529 -0.002267 0.014562 0.004455 -0.000348 -0.003975
# 4 0.004733 0.002997 0.004455 0.032063 0.001010 -0.003512
# 5 0.001903 -0.000731 -0.000348 0.001010 0.025702 0.000686
# 6 -0.002276 0.000048 -0.003975 -0.003512 0.000686 0.029926
#
#
# Mechanical properties :
#
#
# Convention : Reuss Voigt Hill
#
# Bulk Modulus (GPa) = 36.79436 46.58695 41.69065
# Shear Modulus (GPa) = 31.40398 34.22054 32.81226
#
# Velocity S-wave (km/s) = 3.80292 3.96980 3.88725
# Velocity P-wave (km/s) = 6.01893 6.51665 6.27273
#
# Compressibility (1/GPa) = 0.02717808
#
# Stress axis : x y z
#
# Youngs Moduli (GPa) = 60.43496 72.92387 68.67261
#
# Poissons Ratio (x) = 0.14770 0.31105
# Poissons Ratio (y) = 0.12240 0.15567
# Poissons Ratio (z) = 0.27374 0.16531
#
# Static dielectric constant tensor:
#      x y z
#    x 3.860080 -0.172300 -0.102010 
#    y -0.172300 3.925160 -0.615150 
#    z -0.102010 -0.615150 7.271880 
# 
# 
# High freq. dielectric constant tensor:
#      x y z
#    x 1.860370 -0.008670 0.005640 
#    y -0.008670 1.859830 -0.010190 
#    z 0.005640 -0.010190 1.863720 
# 
# From -- ./inp_files/52801.got.cif
#   From: 2010.06.25/outbox.cif.g09.slc.cpg/sg2_27_cif.got.tgz:52801.got - 2010.06.27 13:26:56.
