data_PCOD8022248
_publ_section_title
;
Structure prediction by ZEFSAII (Michael W. Deem and Ramdas Pophale) SiO2 
 PCOD8022248
Probable space group: P -1
;
_chemical_formula_sum "Si O2"
_cell_formula_units_Z 14
_cell_length_a 5.760569
_cell_length_b 26.374646
_cell_length_c 9.126356
_cell_angle_alpha 31.425930
_cell_angle_beta 111.201456
_cell_angle_gamma 125.487877
_cell_volume 558.698904
_symmetry_space_group_name_H-M "P -1"
_symmetry_group_IT_number 2
_symmetry_cell_setting 'triclinic'
loop_
_space_group_symop_operation_xyz
x,y,z
-x,-y,-z
loop_
_atom_site_type_symbol
_atom_site_label
_atom_site_fract_x
_atom_site_fract_y
_atom_site_fract_z
Si Si1 0.374256 0.749370 0.432348
Si Si2 0.941813 0.926103 0.944619
Si Si3 0.900888 0.753888 0.139280
Si Si4 0.325707 0.518701 0.543484
Si Si5 0.767475 0.151754 0.604052
Si Si6 0.217954 0.902941 0.582084
Si Si7 0.620343 0.606494 0.873235
O O1 0.613929 0.835115 0.156469
O O2 0.451790 0.825103 0.413311
O O3 0.364125 0.633518 0.759976
O O4 0.056180 0.704223 0.395170
O O5 0.969518 0.874680 0.924492
O O6 0.207014 0.948661 0.061290
O O7 0.991820 0.050944 0.618906
O O8 0.546920 0.653550 0.311789
O O9 0.025243 0.783609 0.926892
O O10 0.500000 0.500000 0.500000
O O11 0.000000 0.500000 0.500000
O O12 0.283525 0.423323 0.883010
O O13 0.676754 0.123444 0.482719
O O14 0.091790 0.270782 0.417324
O O15 0.500000 0.000000 0.500000
O O16 0.500000 0.500000 0.000000
#
# Coordination Sequence:
#
# PCOD8022248 Si02
#       7
#     2   2   2   2   2   2   2
#     4  10  22  45  76 108 145 197 254 314 378 467
#     4  10  22  45  69 103 146 197 252 309 377 455
#     4  11  25  47  74 108 151 198 261 321 376 470
#     4  12  30  49  76 114 157 202 254 325 400 461
#     4  10  24  43  70 108 147 194 252 313 376 466
#     4  12  24  46  74 108 148 202 253 315 389 450
#     4  11  25  48  77 108 146 200 257 315 385 463
#
# _framework density 25.058221
#
# number of rings (size 3 to 8) (size 9 to 14) (size 15 to 20)
#    0.000    1.143    1.429    4.286    6.000    2.857 
#   10.286    0.000    0.000    0.000    0.000    0.000 
#    0.000    0.000    0.000    0.000    0.000    0.000 
#
# Total GULP energy -173532.621606 kJ/mol
# GULP energy per Si atom -12395.187258 kJ/mol
# Density = 2.500119 g / cm^3
# Si number density = 25.058221 Si / 1000 Ang^3
#
#
#
# Elastic Constant Matrix: (Units=GPa)
#
#
# Indices 1 2 3 4 5 6 
#
# 1 128.5642 58.7706 45.8809 14.7272 31.7117 -3.9601
# 2 58.7706 137.3902 36.0229 13.0218 15.8054 -6.5531
# 3 45.8809 36.0229 126.8004 23.3284 42.7467 -5.1931
# 4 14.7272 13.0218 23.3284 42.2828 -3.0806 -8.2018
# 5 31.7117 15.8054 42.7467 -3.0806 29.5843 0.5637
# 6 -3.9601 -6.5531 -5.1931 -8.2018 0.5637 48.3682
#
#
#
# Elastic Compliance Matrix: (Units=1/GPa)
#
#
# Indices 1 2 3 4 5 6 
#
# 1 0.013685 -0.004032 0.003785 -0.006973 -0.018710 0.000016
# 2 -0.004032 0.009303 -0.001711 -0.000254 0.001784 0.000683
# 3 0.003785 -0.001711 0.022533 -0.015899 -0.037361 0.000237
# 4 -0.006973 -0.000254 -0.015899 0.038171 0.034487 0.003758
# 5 -0.018710 0.001784 -0.037361 0.034487 0.110493 -0.000741
# 6 0.000016 0.000683 0.000237 0.003758 -0.000741 0.021440
#
#
# Mechanical properties :
#
#
# Convention : Reuss Voigt Hill
#
# Bulk Modulus (GPa) = 24.03555 74.90039 49.46797
# Shear Modulus (GPa) = 21.42152 40.85241 31.13696
#
# Velocity S-wave (km/s) = 2.92699 4.04208 3.52886
# Velocity P-wave (km/s) = 4.58647 7.19305 6.03223
#
# Compressibility (1/GPa) = 0.04160504
#
# Stress axis : x y z
#
# Youngs Moduli (GPa) = 73.07223 107.48810 44.37948
#
# Poissons Ratio (x) = 0.43342 -0.16797
# Poissons Ratio (y) = 0.29465 0.07592
# Poissons Ratio (z) = -0.27656 0.18388
#
# Static dielectric constant tensor:
#      x y z
#    x 4.785520 -0.020680 0.461480 
#    y -0.020680 4.340550 -0.125770 
#    z 0.461480 -0.125770 4.424700 
# 
# 
# High freq. dielectric constant tensor:
#      x y z
#    x 2.005200 -0.003690 -0.001440 
#    y -0.003690 2.003460 0.003630 
#    z -0.001440 0.003630 2.006800 
# 
# From -- ./inp_files/143053.got.cif
#   From: 2010.06.25/outbox.cif.g09.slc.cpg/sg2_72_cif.got.tgz:143053.got - 2010.06.27 13:26:56.
