data_PCOD8022048
_publ_section_title
;
Structure prediction by ZEFSAII (Michael W. Deem and Ramdas Pophale) SiO2 
 PCOD8022048
Probable space group: P -1
;
_chemical_formula_sum "Si O2"
_cell_formula_units_Z 16
_cell_length_a 8.654353
_cell_length_b 9.739868
_cell_length_c 15.925107
_cell_angle_alpha 115.644594
_cell_angle_beta 47.859400
_cell_angle_gamma 83.823635
_cell_volume 720.961707
_symmetry_space_group_name_H-M "P -1"
_symmetry_group_IT_number 2
_symmetry_cell_setting 'triclinic'
loop_
_space_group_symop_operation_xyz
x,y,z
-x,-y,-z
loop_
_atom_site_type_symbol
_atom_site_label
_atom_site_fract_x
_atom_site_fract_y
_atom_site_fract_z
Si Si1 0.191453 0.286922 0.349795
Si Si2 0.665462 0.782342 0.899635
Si Si3 0.014008 0.039790 0.408552
Si Si4 0.099511 0.607007 0.827697
Si Si5 0.738419 0.142304 0.182959
Si Si6 0.887834 0.801162 0.134090
Si Si7 0.460315 0.178514 0.608426
Si Si8 0.691636 0.297438 0.916003
O O1 0.144700 0.307865 0.272605
O O2 0.489319 0.197549 0.236443
O O3 0.000000 0.500000 0.500000
O O4 0.117093 0.165547 0.392820
O O5 0.826515 0.721705 0.910295
O O6 0.464956 0.730861 0.965479
O O7 0.500000 0.000000 0.000000
O O8 0.726828 0.154087 0.506099
O O9 0.000000 0.000000 0.500000
O O10 0.203274 0.847409 0.237712
O O11 0.274502 0.671001 0.744739
O O12 0.253201 0.383393 0.694581
O O13 0.029765 0.663214 0.966207
O O14 0.773286 0.021729 0.220477
O O15 0.000000 0.000000 0.000000
O O16 0.641872 0.807856 0.255718
O O17 0.079247 0.718254 0.122133
O O18 0.500000 0.000000 0.500000
O O19 0.500000 0.500000 0.000000
#
# Coordination Sequence:
#
# PCOD8022048 Si02
#       8
#     2   2   2   2   2   2   2   2
#     4  12  27  49  74 107 146 190 236 302 362 428
#     4  12  24  45  75 107 143 181 246 293 361 427
#     4  12  29  47  72 103 146 191 238 296 363 423
#     4  11  25  42  76 106 138 189 236 297 354 428
#     4  10  22  44  73 103 135 183 236 290 356 424
#     4  11  23  46  71 100 141 187 239 293 357 425
#     4  12  26  46  66 102 148 187 239 287 356 428
#     4  12  27  45  73 106 143 190 240 299 355 431
#
# _framework density 22.192578000000001
#
# number of rings (size 3 to 8) (size 9 to 14) (size 15 to 20)
#    0.000    0.500    2.500    6.375    5.250    1.000 
#    0.000    1.875    0.000    0.000    0.000    0.000 
#    0.000    0.000    0.000    0.000    0.000    0.000 
#
# Total GULP energy -198377.322360 kJ/mol
# GULP energy per Si atom -12398.582647 kJ/mol
# Density = 2.214207 g / cm^3
# Si number density = 22.192578 Si / 1000 Ang^3
#
#
#
# Elastic Constant Matrix: (Units=GPa)
#
#
# Indices 1 2 3 4 5 6 
#
# 1 103.9329 36.0982 50.1742 10.8224 -10.4566 -1.8685
# 2 36.0982 149.3812 84.4090 17.6325 -8.0479 -1.0191
# 3 50.1742 84.4090 123.9302 12.8201 5.8730 3.5233
# 4 10.8224 17.6325 12.8201 50.8852 4.5023 -4.1061
# 5 -10.4566 -8.0479 5.8730 4.5023 41.1595 -7.6136
# 6 -1.8685 -1.0191 3.5233 -4.1061 -7.6136 40.7193
#
#
#
# Elastic Compliance Matrix: (Units=1/GPa)
#
#
# Indices 1 2 3 4 5 6 
#
# 1 0.012861 0.000589 -0.005699 -0.001776 0.004723 0.001802
# 2 0.000589 0.011702 -0.008207 -0.002354 0.004156 0.001570
# 3 -0.005699 -0.008207 0.016308 0.000234 -0.005954 -0.002968
# 4 -0.001776 -0.002354 0.000234 0.021166 -0.002999 0.001413
# 5 0.004723 0.004156 -0.005954 -0.002999 0.028573 0.005876
# 6 0.001802 0.001570 -0.002968 0.001413 0.005876 0.026178
#
#
# Mechanical properties :
#
#
# Convention : Reuss Voigt Hill
#
# Bulk Modulus (GPa) = 70.23979 79.84523 75.04251
# Shear Modulus (GPa) = 33.74562 40.32364 37.03463
#
# Velocity S-wave (km/s) = 3.90369 4.26724 4.08951
# Velocity P-wave (km/s) = 7.21369 7.76760 7.49576
#
# Compressibility (1/GPa) = 0.01423694
#
# Stress axis : x y z
#
# Youngs Moduli (GPa) = 77.75451 85.45858 61.31850
#
# Poissons Ratio (x) = -0.05034 0.34948
# Poissons Ratio (y) = -0.04580 0.50321
# Poissons Ratio (z) = 0.44316 0.70132
#
# Static dielectric constant tensor:
#      x y z
#    x 3.975630 0.269570 -0.114490 
#    y 0.269570 4.648110 -0.002130 
#    z -0.114490 -0.002130 4.112120 
# 
# 
# High freq. dielectric constant tensor:
#      x y z
#    x 1.872690 0.004480 -0.012810 
#    y 0.004480 1.897900 -0.002350 
#    z -0.012810 -0.002350 1.877680 
# 
# From -- ./inp_files/495393.got.cif
#   From: 2010.06.25/outbox.cif.g09.slc.cpg/sg2_248_cif.got.tgz:495393.got - 2010.06.27 13:26:56.
