data_PCOD8022145
_publ_section_title
;
Structure prediction by ZEFSAII (Michael W. Deem and Ramdas Pophale) SiO2 
 PCOD8022145
Probable space group: P -1
;
_chemical_formula_sum "Si O2"
_cell_formula_units_Z 14
_cell_length_a 12.479402
_cell_length_b 7.801055
_cell_length_c 8.788141
_cell_angle_alpha 112.636715
_cell_angle_beta 110.562135
_cell_angle_gamma 44.963963
_cell_volume 553.910512
_symmetry_space_group_name_H-M "P -1"
_symmetry_group_IT_number 2
_symmetry_cell_setting 'triclinic'
loop_
_space_group_symop_operation_xyz
x,y,z
-x,-y,-z
loop_
_atom_site_type_symbol
_atom_site_label
_atom_site_fract_x
_atom_site_fract_y
_atom_site_fract_z
Si Si1 0.075740 0.233249 0.006366
Si Si2 0.441531 0.981151 0.810438
Si Si3 0.637242 0.441441 0.799236
Si Si4 0.199368 0.505160 0.844985
Si Si5 0.849333 0.567806 0.510960
Si Si6 0.071740 0.800637 0.335713
Si Si7 0.639870 0.032538 0.742655
O O1 0.059209 0.094308 0.820186
O O2 0.249600 0.063993 0.087517
O O3 0.000000 0.500000 0.000000
O O4 0.974988 0.280864 0.118293
O O5 0.258678 0.222907 0.800126
O O6 0.498217 0.705903 0.739472
O O7 0.507074 0.032590 0.720307
O O8 0.500000 0.000000 0.000000
O O9 0.779917 0.271463 0.696752
O O10 0.573418 0.305633 0.757822
O O11 0.689948 0.477883 0.998352
O O12 0.204590 0.529897 0.672991
O O13 0.874866 0.450549 0.649100
O O14 0.724256 0.862453 0.577264
O O15 0.000000 0.500000 0.500000
O O16 0.000000 0.000000 0.500000
#
# Coordination Sequence:
#
# PCOD8022145 Si02
#       7
#     2   2   2   2   2   2   2
#     4  11  20  40  64  97 125 172 212 265 327 383
#     4  10  22  45  66  93 133 175 217 268 323 387
#     4  10  23  43  66  95 128 175 220 262 325 393
#     4  10  23  39  68  91 132 174 215 266 328 386
#     4  12  22  40  64  99 132 170 215 271 331 377
#     4  11  23  37  61  95 138 164 211 274 325 379
#     4  12  23  40  71  95 134 168 221 272 321 390
#
# _framework density 25.274840999999999
#
# number of rings (size 3 to 8) (size 9 to 14) (size 15 to 20)
#    0.000    1.143    4.286    2.571    2.000    4.000 
#    0.000    0.714    3.143    0.000    0.000    0.000 
#    0.000    0.000    0.000    0.000    0.000    0.000 
#
# Total GULP energy -173503.052229 kJ/mol
# GULP energy per Si atom -12393.075159 kJ/mol
# Density = 2.521731 g / cm^3
# Si number density = 25.274841 Si / 1000 Ang^3
#
#
#
# Elastic Constant Matrix: (Units=GPa)
#
#
# Indices 1 2 3 4 5 6 
#
# 1 62.0880 35.8890 12.1871 1.1910 -7.9634 21.6632
# 2 35.8890 104.7441 19.0737 17.6967 -1.0600 16.9878
# 3 12.1871 19.0737 142.6050 22.7413 -13.2648 -3.3974
# 4 1.1910 17.6967 22.7413 39.7093 0.6311 0.3172
# 5 -7.9634 -1.0600 -13.2648 0.6311 23.6021 -2.8918
# 6 21.6632 16.9878 -3.3974 0.3172 -2.8918 42.2353
#
#
#
# Elastic Compliance Matrix: (Units=1/GPa)
#
#
# Indices 1 2 3 4 5 6 
#
# 1 0.024445 -0.007083 -0.001316 0.003158 0.005953 -0.009412
# 2 -0.007083 0.013255 -0.000568 -0.005320 -0.002199 -0.001855
# 3 -0.001316 -0.000568 0.008412 -0.004614 0.004618 0.001931
# 4 0.003158 -0.005320 -0.004614 0.030145 -0.002604 -0.000256
# 5 0.005953 -0.002199 0.004618 -0.002604 0.047121 0.001449
# 6 -0.009412 -0.001855 0.001931 -0.000256 0.001449 0.029507
#
#
# Mechanical properties :
#
#
# Convention : Reuss Voigt Hill
#
# Bulk Modulus (GPa) = 35.48782 49.30409 42.39596
# Shear Modulus (GPa) = 27.74518 37.26183 32.50350
#
# Velocity S-wave (km/s) = 3.31681 3.84378 3.58998
# Velocity P-wave (km/s) = 5.36093 6.26491 5.83046
#
# Compressibility (1/GPa) = 0.02817868
#
# Stress axis : x y z
#
# Youngs Moduli (GPa) = 40.90740 75.44496 118.87594
#
# Poissons Ratio (x) = 0.53439 0.15642
# Poissons Ratio (y) = 0.28975 0.06751
# Poissons Ratio (z) = 0.05383 0.04284
#
# Static dielectric constant tensor:
#      x y z
#    x 4.687960 -0.262020 -0.123500 
#    y -0.262020 5.407140 -0.243470 
#    z -0.123500 -0.243470 5.104340 
# 
# 
# High freq. dielectric constant tensor:
#      x y z
#    x 1.975530 -0.003350 -0.019570 
#    y -0.003350 2.011710 0.006650 
#    z -0.019570 0.006650 2.021320 
# 
# From -- ./inp_files/296176.got.cif
#   From: 2010.06.25/outbox.cif.g09.slc.cpg/sg2_149_cif.got.tgz:296176.got - 2010.06.27 13:26:56.
