data_PCOD8022562
_publ_section_title
;
Structure prediction by ZEFSAII (Michael W. Deem and Ramdas Pophale) SiO2 
 PCOD8022562
Probable space group: P -1
;
_chemical_formula_sum "Si O2"
_cell_formula_units_Z 16
_cell_length_a 8.225398
_cell_length_b 9.066816
_cell_length_c 17.102486
_cell_angle_alpha 48.760917
_cell_angle_beta 138.472426
_cell_angle_gamma 110.492051
_cell_volume 608.988871
_symmetry_space_group_name_H-M "P -1"
_symmetry_group_IT_number 2
_symmetry_cell_setting 'triclinic'
loop_
_space_group_symop_operation_xyz
x,y,z
-x,-y,-z
loop_
_atom_site_type_symbol
_atom_site_label
_atom_site_fract_x
_atom_site_fract_y
_atom_site_fract_z
Si Si1 0.741095 0.904116 0.797336
Si Si2 0.323997 0.713834 0.704119
Si Si3 0.131384 0.698993 0.309272
Si Si4 0.700356 0.298072 0.938528
Si Si5 0.989662 0.376425 0.882080
Si Si6 0.133847 0.352749 0.531702
Si Si7 0.664175 0.927628 0.167625
Si Si8 0.738436 0.309355 0.140464
O O1 0.494978 0.858364 0.684822
O O2 0.776112 0.810440 0.931799
O O3 0.690022 0.150078 0.688895
O O4 0.010179 0.785512 0.892471
O O5 0.515638 0.480537 0.858820
O O6 0.206815 0.797372 0.717601
O O7 0.085039 0.731226 0.556741
O O8 0.014317 0.669585 0.194340
O O9 0.908293 0.791819 0.257776
O O10 0.269386 0.473496 0.475886
O O11 0.590995 0.098218 0.959776
O O12 0.724831 0.383176 0.829447
O O13 0.030612 0.599384 0.833025
O O14 0.339257 0.161551 0.713766
O O15 0.000000 0.500000 0.500000
O O16 0.678272 0.162386 0.101307
O O17 0.500000 0.500000 0.000000
#
# Coordination Sequence:
#
# PCOD8022562 Si02
#       8
#     2   2   2   2   2   2   2   2
#     4  10  25  35  68 105 137 161 218 274 345 387
#     4  12  22  44  69  92 139 177 218 277 332 382
#     4  11  22  44  70  94 134 186 218 264 335 394
#     4  10  23  41  67  95 143 167 218 272 342 386
#     4  10  23  41  62 102 143 163 215 278 336 402
#     4  10  22  47  69  90 128 182 239 263 311 398
#     4  11  26  44  69  96 132 182 230 268 318 400
#     4  12  25  40  69 104 133 171 222 276 341 399
#
# _framework density 26.273059
#
# number of rings (size 3 to 8) (size 9 to 14) (size 15 to 20)
#    0.750    0.500    5.000    0.750    7.000    1.000 
#    0.000    4.375    0.000    0.000    0.000    0.000 
#    0.000    0.000    0.000    0.000    0.000    0.000 
#
# Total GULP energy -198270.932668 kJ/mol
# GULP energy per Si atom -12391.933292 kJ/mol
# Density = 2.621326 g / cm^3
# Si number density = 26.273059 Si / 1000 Ang^3
#
#
#
# Elastic Constant Matrix: (Units=GPa)
#
#
# Indices 1 2 3 4 5 6 
#
# 1 87.0260 73.3338 23.0542 -3.9747 -35.2221 14.0217
# 2 73.3338 229.2556 45.9262 8.8887 -25.8296 28.8405
# 3 23.0542 45.9262 65.4564 -5.2796 -22.7391 1.7340
# 4 -3.9747 8.8887 -5.2796 41.6576 -1.0802 -12.3384
# 5 -35.2221 -25.8296 -22.7391 -1.0802 32.3169 -4.7165
# 6 14.0217 28.8405 1.7340 -12.3384 -4.7165 59.3663
#
#
#
# Elastic Compliance Matrix: (Units=1/GPa)
#
#
# Indices 1 2 3 4 5 6 
#
# 1 0.027845 -0.007010 0.005601 0.005652 0.028896 0.000135
# 2 -0.007010 0.007514 -0.005049 -0.003991 -0.005778 -0.003136
# 3 0.005601 -0.005049 0.024104 0.006146 0.019712 0.003269
# 4 0.005652 -0.003991 0.006146 0.028515 0.009283 0.007088
# 5 0.028896 -0.005778 0.019712 0.009283 0.072450 0.003092
# 6 0.000135 -0.003136 0.003269 0.007088 0.003092 0.019959
#
#
# Mechanical properties :
#
#
# Convention : Reuss Voigt Hill
#
# Bulk Modulus (GPa) = 21.48311 74.04072 47.76192
# Shear Modulus (GPa) = 23.94424 42.62975 33.28700
#
# Velocity S-wave (km/s) = 3.02215 4.03248 3.56330
# Velocity P-wave (km/s) = 4.51359 7.06566 5.92858
#
# Compressibility (1/GPa) = 0.04654820
#
# Stress axis : x y z
#
# Youngs Moduli (GPa) = 35.91305 133.08751 41.48655
#
# Poissons Ratio (x) = 0.93290 -0.23238
# Poissons Ratio (y) = 0.25174 0.20947
# Poissons Ratio (z) = -0.20116 0.67198
#
# Static dielectric constant tensor:
#      x y z
#    x 5.921820 1.057580 -1.169430 
#    y 1.057580 5.717110 -0.596900 
#    z -1.169430 -0.596900 5.058890 
# 
# 
# High freq. dielectric constant tensor:
#      x y z
#    x 2.066330 0.009890 -0.040280 
#    y 0.009890 2.068200 -0.004020 
#    z -0.040280 -0.004020 2.028400 
# 
# From -- ./inp_files/556008.got.cif
#   From: 2010.06.25/outbox.cif.g09.slc.cpg/sg2_279_cif.got.tgz:556008.got - 2010.06.27 13:26:56.
