data_PCOD8022210
_publ_section_title
;
Structure prediction by ZEFSAII (Michael W. Deem and Ramdas Pophale) SiO2 
 PCOD8022210
Probable space group: P -1
;
_chemical_formula_sum "Si O2"
_cell_formula_units_Z 16
_cell_length_a 8.103761
_cell_length_b 15.667278
_cell_length_c 15.790874
_cell_angle_alpha 153.897465
_cell_angle_beta 59.923556
_cell_angle_gamma 124.572303
_cell_volume 726.135256
_symmetry_space_group_name_H-M "P -1"
_symmetry_group_IT_number 2
_symmetry_cell_setting 'triclinic'
loop_
_space_group_symop_operation_xyz
x,y,z
-x,-y,-z
loop_
_atom_site_type_symbol
_atom_site_label
_atom_site_fract_x
_atom_site_fract_y
_atom_site_fract_z
Si Si1 0.285482 0.751149 0.639258
Si Si2 0.847609 0.646590 0.589995
Si Si3 0.919665 0.259030 0.819634
Si Si4 0.695647 0.411610 0.135132
Si Si5 0.224811 0.029302 0.558242
Si Si6 0.561394 0.331243 0.647624
Si Si7 0.591864 0.889345 0.945725
Si Si8 0.044497 0.660193 0.379158
O O1 0.308952 0.572601 0.537151
O O2 0.423293 0.773161 0.539907
O O3 0.055545 0.683580 0.615195
O O4 0.335573 0.967259 0.864474
O O5 0.770443 0.832351 0.803523
O O6 0.880559 0.654202 0.487679
O O7 0.837495 0.129767 0.643362
O O8 0.741253 0.229712 0.908058
O O9 0.095629 0.181440 0.741314
O O10 0.000000 0.500000 0.000000
O O11 0.572809 0.520376 0.203011
O O12 0.569629 0.318227 0.166757
O O13 0.913068 0.563821 0.244760
O O14 0.185731 0.892334 0.531239
O O15 0.451777 0.167258 0.602266
O O16 0.788527 0.447613 0.728040
O O17 0.500000 0.000000 0.000000
#
# Coordination Sequence:
#
# PCOD8022210 Si02
#       8
#     2   2   2   2   2   2   2   2
#     4  10  22  45  68  91 133 169 220 274 319 394
#     4  10  23  44  66  96 130 172 216 271 331 379
#     4  11  21  41  67  99 124 177 217 266 334 383
#     4  12  24  44  68  96 138 170 222 273 329 396
#     4  11  22  42  70  94 138 170 224 273 323 398
#     4  11  23  44  70  98 129 181 219 269 338 385
#     4  12  26  39  66 101 128 174 221 266 333 396
#     4  11  25  42  68 100 135 173 220 277 327 388
#
# _framework density 22.034459999999999
#
# number of rings (size 3 to 8) (size 9 to 14) (size 15 to 20)
#    0.000    1.000    3.750    3.000    3.500    1.000 
#    2.250    3.750    0.000    0.000    0.000    0.000 
#    0.000    0.000    0.000    0.000    0.000    0.000 
#
# Total GULP energy -198296.573916 kJ/mol
# GULP energy per Si atom -12393.535870 kJ/mol
# Density = 2.198431 g / cm^3
# Si number density = 22.034460 Si / 1000 Ang^3
#
#
#
# Elastic Constant Matrix: (Units=GPa)
#
#
# Indices 1 2 3 4 5 6 
#
# 1 55.8595 6.6008 33.5076 -4.7593 -9.8197 3.3027
# 2 6.6008 123.6727 23.6863 -3.8835 -9.8677 -2.1032
# 3 33.5076 23.6863 118.3895 -18.4125 -19.6654 10.1641
# 4 -4.7593 -3.8835 -18.4125 39.9333 5.9048 -5.7666
# 5 -9.8197 -9.8677 -19.6654 5.9048 25.2572 -0.6117
# 6 3.3027 -2.1032 10.1641 -5.7666 -0.6117 27.8764
#
#
#
# Elastic Compliance Matrix: (Units=1/GPa)
#
#
# Indices 1 2 3 4 5 6 
#
# 1 0.021982 0.000218 -0.005583 -0.000674 0.004427 -0.000594
# 2 0.000218 0.008565 -0.001498 0.000005 0.002293 0.001218
# 3 -0.005583 -0.001498 0.012083 0.003472 0.005767 -0.003012
# 4 -0.000674 0.000005 0.003472 0.027793 -0.003946 0.004477
# 5 0.004427 0.002293 0.005767 -0.003946 0.047569 -0.002227
# 6 -0.000594 0.001218 -0.003012 0.004477 -0.002227 0.038011
#
#
# Mechanical properties :
#
#
# Convention : Reuss Voigt Hill
#
# Bulk Modulus (GPa) = 34.59876 47.27901 40.93888
# Shear Modulus (GPa) = 27.87634 34.22184 31.04909
#
# Velocity S-wave (km/s) = 3.56072 3.94522 3.75789
# Velocity P-wave (km/s) = 5.71324 6.50050 6.11954
#
# Compressibility (1/GPa) = 0.02890277
#
# Stress axis : x y z
#
# Youngs Moduli (GPa) = 45.49270 116.75447 82.75824
#
# Poissons Ratio (x) = -0.02547 0.46207
# Poissons Ratio (y) = -0.00992 0.12399
# Poissons Ratio (z) = 0.25400 0.17493
#
# Static dielectric constant tensor:
#      x y z
#    x 3.818030 0.121060 -0.180270 
#    y 0.121060 4.550480 -0.075980 
#    z -0.180270 -0.075980 4.488950 
# 
# 
# High freq. dielectric constant tensor:
#      x y z
#    x 1.859810 0.002910 -0.014200 
#    y 0.002910 1.889060 -0.011160 
#    z -0.014200 -0.011160 1.857350 
# 
# From -- ./inp_files/56330.got.cif
#   From: 2010.06.25/outbox.cif.g09.slc.cpg/sg2_29_cif.got.tgz:56330.got - 2010.06.27 13:26:56.
