data_PCOD8022767
_publ_section_title
;
Structure prediction by ZEFSAII (Michael W. Deem and Ramdas Pophale) SiO2 
 PCOD8022767
Probable space group: P -1
;
_chemical_formula_sum "Si O2"
_cell_formula_units_Z 16
_cell_length_a 12.113524
_cell_length_b 14.587572
_cell_length_c 8.224989
_cell_angle_alpha 105.446021
_cell_angle_beta 55.010428
_cell_angle_gamma 139.468088
_cell_volume 733.551096
_symmetry_space_group_name_H-M "P -1"
_symmetry_group_IT_number 2
_symmetry_cell_setting 'triclinic'
loop_
_space_group_symop_operation_xyz
x,y,z
-x,-y,-z
loop_
_atom_site_type_symbol
_atom_site_label
_atom_site_fract_x
_atom_site_fract_y
_atom_site_fract_z
Si Si1 0.319721 0.416985 0.484841
Si Si2 0.751351 0.116042 0.653254
Si Si3 0.540978 0.674354 0.195698
Si Si4 0.234388 0.669879 0.403815
Si Si5 0.079159 0.803649 0.112404
Si Si6 0.377466 0.863534 0.658583
Si Si7 0.909232 0.912998 0.202701
Si Si8 0.874319 0.803467 0.705298
O O1 0.500000 0.500000 0.500000
O O2 0.375747 0.506888 0.319389
O O3 0.243477 0.272951 0.406562
O O4 0.126737 0.361683 0.718546
O O5 0.726226 0.215353 0.684850
O O6 0.753212 0.098738 0.836761
O O7 0.964851 0.199047 0.418618
O O8 0.554737 0.942206 0.682968
O O9 0.411965 0.687263 0.217627
O O10 0.658805 0.771598 0.309771
O O11 0.705788 0.714656 0.952327
O O12 0.286415 0.722774 0.574029
O O13 0.000000 0.500000 0.500000
O O14 0.010801 0.868181 0.135539
O O15 0.170576 0.797804 0.879990
O O16 0.500000 0.000000 0.500000
O O17 0.977728 0.022590 0.339363
O O18 0.000000 0.000000 0.000000
#
# Coordination Sequence:
#
# PCOD8022767 Si02
#       8
#     2   2   2   2   2   2   2   2
#     4  11  23  41  62  97 135 176 208 266 332 385
#     4  10  23  42  69  98 132 170 219 268 338 381
#     4  11  23  43  68  97 135 172 223 266 320 393
#     4  11  24  42  65  97 132 175 223 263 314 399
#     4  11  23  44  67  98 135 168 220 280 327 389
#     4  10  24  40  70  91 127 178 218 262 335 392
#     4  10  23  38  70  98 132 161 227 272 325 373
#     4  10  23  40  69  99 127 174 219 266 324 385
#
# _framework density 21.811706000000001
#
# number of rings (size 3 to 8) (size 9 to 14) (size 15 to 20)
#    0.000    1.500    1.250    3.000   14.000    3.000 
#    2.250    2.500    0.000    0.000    0.000    0.000 
#    0.000    0.000    0.000    0.000    0.000    0.000 
#
# Total GULP energy -198231.449000 kJ/mol
# GULP energy per Si atom -12389.465562 kJ/mol
# Density = 2.176206 g / cm^3
# Si number density = 21.811706 Si / 1000 Ang^3
#
#
#
# Elastic Constant Matrix: (Units=GPa)
#
#
# Indices 1 2 3 4 5 6 
#
# 1 112.0381 24.8462 19.3087 6.0849 -15.4350 10.9588
# 2 24.8462 118.5122 25.8630 6.5725 -6.2666 31.2383
# 3 19.3087 25.8630 127.2229 -1.3533 -10.7135 -3.7172
# 4 6.0849 6.5725 -1.3533 24.9287 0.0027 3.9835
# 5 -15.4350 -6.2666 -10.7135 0.0027 26.0835 2.4282
# 6 10.9588 31.2383 -3.7172 3.9835 2.4282 42.8615
#
#
#
# Elastic Compliance Matrix: (Units=1/GPa)
#
#
# Indices 1 2 3 4 5 6 
#
# 1 0.010423 -0.000985 -0.000984 -0.001992 0.005730 -0.002172
# 2 -0.000985 0.011530 -0.002284 -0.001595 0.002024 -0.008316
# 3 -0.000984 -0.002284 0.008744 0.000923 0.002231 0.002462
# 4 -0.001992 -0.001595 0.000923 0.041397 -0.000997 -0.002039
# 5 0.005730 0.002024 0.002231 -0.000997 0.043609 -0.005124
# 6 -0.002172 -0.008316 0.002462 -0.002039 -0.005124 0.030641
#
#
# Mechanical properties :
#
#
# Convention : Reuss Voigt Hill
#
# Bulk Modulus (GPa) = 45.06090 55.31212 50.18651
# Shear Modulus (GPa) = 30.81724 37.95842 34.38783
#
# Velocity S-wave (km/s) = 3.76290 4.17619 3.97492
# Velocity P-wave (km/s) = 6.29151 6.97625 6.64271
#
# Compressibility (1/GPa) = 0.02219219
#
# Stress axis : x y z
#
# Youngs Moduli (GPa) = 95.93724 86.72741 114.37035
#
# Poissons Ratio (x) = 0.08538 0.11254
# Poissons Ratio (y) = 0.09445 0.26123
# Poissons Ratio (z) = 0.09440 0.19809
#
# Static dielectric constant tensor:
#      x y z
#    x 3.954000 0.341030 -0.092240 
#    y 0.341030 4.781200 -0.184540 
#    z -0.092240 -0.184540 3.824320 
# 
# 
# High freq. dielectric constant tensor:
#      x y z
#    x 1.852870 0.025860 -0.003750 
#    y 0.025860 1.865070 -0.004420 
#    z -0.003750 -0.004420 1.851820 
# 
# From -- ./inp_files/190085.got.cif
#   From: 2010.06.25/outbox.cif.g09.slc.cpg/sg2_96_cif.got.tgz:190085.got - 2010.06.27 13:26:56.
