data_PCOD8022064
_publ_section_title
;
Structure prediction by ZEFSAII (Michael W. Deem and Ramdas Pophale) SiO2 
 PCOD8022064
Probable space group: P -1
;
_chemical_formula_sum "Si O2"
_cell_formula_units_Z 16
_cell_length_a 7.798683
_cell_length_b 11.504494
_cell_length_c 17.703349
_cell_angle_alpha 37.289852
_cell_angle_beta 48.548809
_cell_angle_gamma 42.577516
_cell_volume 639.743084
_symmetry_space_group_name_H-M "P -1"
_symmetry_group_IT_number 2
_symmetry_cell_setting 'triclinic'
loop_
_space_group_symop_operation_xyz
x,y,z
-x,-y,-z
loop_
_atom_site_type_symbol
_atom_site_label
_atom_site_fract_x
_atom_site_fract_y
_atom_site_fract_z
Si Si1 0.800332 0.165073 0.273869
Si Si2 0.955728 0.500599 0.794390
Si Si3 0.413309 0.255576 0.591273
Si Si4 0.026882 0.829511 0.267160
Si Si5 0.187513 0.062678 0.459513
Si Si6 0.632166 0.346631 0.879120
Si Si7 0.187845 0.322303 0.094240
Si Si8 0.500996 0.349017 0.675424
O O1 0.563912 0.409028 0.218678
O O2 0.080889 0.148242 0.219822
O O3 0.761674 0.020330 0.425663
O O4 0.816648 0.069315 0.233188
O O5 0.908757 0.680442 0.649813
O O6 0.845216 0.344898 0.875516
O O7 0.810440 0.589855 0.868586
O O8 0.265022 0.378889 0.784099
O O9 0.476846 0.208536 0.685644
O O10 0.533754 0.414560 0.455957
O O11 0.108760 0.324283 0.631517
O O12 0.545197 0.046291 0.607873
O O13 0.208443 0.814736 0.151584
O O14 0.213187 0.757990 0.321284
O O15 0.000000 0.000000 0.500000
O O16 0.477528 0.233247 0.023429
O O17 0.000000 0.500000 0.000000
#
# Coordination Sequence:
#
# PCOD8022064 Si02
#       8
#     2   2   2   2   2   2   2   2
#     4  11  25  45  69 105 135 184 231 281 351 411
#     4  12  23  43  71 101 138 179 232 286 348 413
#     4  11  23  40  60  96 142 181 225 273 338 418
#     4  12  25  42  68  99 140 181 231 284 338 410
#     4  12  22  40  68 102 139 177 222 282 347 415
#     4  11  25  46  69 100 139 185 234 288 336 405
#     4  10  22  44  73  95 132 184 236 284 343 405
#     4  11  23  38  62  95 137 186 222 274 345 406
#
# _framework density 25.010038999999999
#
# number of rings (size 3 to 8) (size 9 to 14) (size 15 to 20)
#    0.000    0.750    3.750    4.500    1.750    3.500 
#    0.000    0.000    0.000    5.250    0.000    0.000 
#    0.000    0.000    0.000    0.000    0.000    0.000 
#
# Total GULP energy -198228.676672 kJ/mol
# GULP energy per Si atom -12389.292292 kJ/mol
# Density = 2.495312 g / cm^3
# Si number density = 25.010039 Si / 1000 Ang^3
#
#
#
# Elastic Constant Matrix: (Units=GPa)
#
#
# Indices 1 2 3 4 5 6 
#
# 1 145.6933 25.4073 36.7354 22.6821 -25.6521 6.4817
# 2 25.4073 91.0293 23.3060 36.3485 1.1840 21.9294
# 3 36.7354 23.3060 63.4541 30.3737 -2.9996 0.4667
# 4 22.6821 36.3485 30.3737 41.3051 -4.0164 5.8891
# 5 -25.6521 1.1840 -2.9996 -4.0164 45.3932 11.4644
# 6 6.4817 21.9294 0.4667 5.8891 11.4644 39.7713
#
#
#
# Elastic Compliance Matrix: (Units=1/GPa)
#
#
# Indices 1 2 3 4 5 6 
#
# 1 0.009331 -0.000844 -0.004864 0.000122 0.005653 -0.002646
# 2 -0.000844 0.019397 0.001270 -0.016423 -0.000319 -0.008049
# 3 -0.004864 0.001270 0.027139 -0.019279 -0.003622 0.003673
# 4 0.000122 -0.016423 -0.019279 0.053105 0.003849 0.000289
# 5 0.005653 -0.000319 -0.003622 0.003849 0.027670 -0.009249
# 6 -0.002646 -0.008049 0.003673 0.000289 -0.009249 0.032593
#
#
# Mechanical properties :
#
#
# Convention : Reuss Voigt Hill
#
# Bulk Modulus (GPa) = 21.28088 52.34155 36.81121
# Shear Modulus (GPa) = 25.80310 39.60913 32.70611
#
# Velocity S-wave (km/s) = 3.21551 3.98393 3.62016
# Velocity P-wave (km/s) = 4.72371 6.49122 5.67667
#
# Compressibility (1/GPa) = 0.04699055
#
# Stress axis : x y z
#
# Youngs Moduli (GPa) = 107.16597 51.55464 36.84726
#
# Poissons Ratio (x) = 0.04352 0.17922
# Poissons Ratio (y) = 0.09046 -0.04679
# Poissons Ratio (z) = 0.52125 -0.06546
#
# Static dielectric constant tensor:
#      x y z
#    x 4.678350 -0.083210 -0.383440 
#    y -0.083210 4.635890 0.330550 
#    z -0.383440 0.330550 4.696150 
# 
# 
# High freq. dielectric constant tensor:
#      x y z
#    x 2.012190 0.003180 -0.021940 
#    y 0.003180 1.988830 0.030940 
#    z -0.021940 0.030940 1.980910 
# 
# From -- ./inp_files/559627.got.cif
#   From: 2010.06.25/outbox.cif.g09.slc.cpg/sg2_280_cif.got.tgz:559627.got - 2010.06.27 13:26:56.
