data_PCOD8022534
_publ_section_title
;
Structure prediction by ZEFSAII (Michael W. Deem and Ramdas Pophale) SiO2 
 PCOD8022534
Probable space group: P -1
;
_chemical_formula_sum "Si O2"
_cell_formula_units_Z 16
_cell_length_a 19.096268
_cell_length_b 21.199366
_cell_length_c 5.197779
_cell_angle_alpha 87.051801
_cell_angle_beta 79.133104
_cell_angle_gamma 155.015539
_cell_volume 736.870075
_symmetry_space_group_name_H-M "P -1"
_symmetry_group_IT_number 2
_symmetry_cell_setting 'triclinic'
loop_
_space_group_symop_operation_xyz
x,y,z
-x,-y,-z
loop_
_atom_site_type_symbol
_atom_site_label
_atom_site_fract_x
_atom_site_fract_y
_atom_site_fract_z
Si Si1 0.157645 0.314557 0.243557
Si Si2 0.638497 0.323048 0.632028
Si Si3 0.770517 0.219903 0.092599
Si Si4 0.589578 0.386477 0.286030
Si Si5 0.643152 0.559346 0.406073
Si Si6 0.693204 0.943891 0.709840
Si Si7 0.493311 0.889447 0.585719
Si Si8 0.005956 0.433631 0.409088
O O1 0.262114 0.364276 0.393717
O O2 0.260811 0.468947 0.082938
O O3 0.185629 0.295733 0.967206
O O4 0.929094 0.132695 0.520314
O O5 0.711583 0.445185 0.397472
O O6 0.652543 0.274563 0.446679
O O7 0.773960 0.417348 0.768145
O O8 0.409222 0.144796 0.919604
O O9 0.652211 0.187599 0.123512
O O10 0.917416 0.351858 0.205292
O O11 0.616841 0.036739 0.281754
O O12 0.884348 0.294062 0.739750
O O13 0.515578 0.389509 0.478496
O O14 0.398615 0.189137 0.366354
O O15 0.500000 0.500000 0.500000
O O16 0.645248 0.973327 0.626557
O O17 0.000000 0.500000 0.500000
#
# Coordination Sequence:
#
# PCOD8022534 Si02
#       8
#     2   2   2   2   2   2   2   2
#     4  10  24  43  73 100 138 179 221 267 334 395
#     4  11  24  41  68  91 137 173 225 283 337 393
#     4  11  26  43  62  91 124 168 229 282 341 411
#     4   9  24  42  68 101 137 180 221 276 332 395
#     4  10  22  46  74 104 139 177 221 271 325 397
#     4  11  24  43  66 100 139 174 228 278 332 408
#     4  10  25  41  62  90 127 173 216 289 340 388
#     4  12  25  42  66  91 126 174 227 278 344 402
#
# _framework density 21.713462
#
# number of rings (size 3 to 8) (size 9 to 14) (size 15 to 20)
#    0.750    0.750    1.250    2.250   10.500    2.000 
#    0.000    1.250    0.000    0.000    0.000    0.000 
#    0.000    0.000    0.000    0.000    0.000    0.000 
#
# Total GULP energy -198306.219462 kJ/mol
# GULP energy per Si atom -12394.138716 kJ/mol
# Density = 2.166404 g / cm^3
# Si number density = 21.713462 Si / 1000 Ang^3
#
#
#
# Elastic Constant Matrix: (Units=GPa)
#
#
# Indices 1 2 3 4 5 6 
#
# 1 144.4044 56.7010 41.6313 -16.1630 2.7787 12.7618
# 2 56.7010 58.7881 19.1855 -6.4060 8.7068 12.5693
# 3 41.6313 19.1855 112.1481 -6.1253 -1.1705 16.8884
# 4 -16.1630 -6.4060 -6.1253 28.9392 7.2376 -1.4271
# 5 2.7787 8.7068 -1.1705 7.2376 22.7820 4.2165
# 6 12.7618 12.5693 16.8884 -1.4271 4.2165 38.9004
#
#
#
# Elastic Compliance Matrix: (Units=1/GPa)
#
#
# Indices 1 2 3 4 5 6 
#
# 1 0.012287 -0.010941 -0.002571 0.003603 0.001293 0.000613
# 2 -0.010941 0.030597 -0.000384 0.002942 -0.010407 -0.004894
# 3 -0.002571 -0.000384 0.010529 0.000104 0.001668 -0.003781
# 4 0.003603 0.002942 0.000104 0.040975 -0.014747 0.000924
# 5 0.001293 -0.010407 0.001668 -0.014747 0.053243 -0.004098
# 6 0.000613 -0.004894 -0.003781 0.000924 -0.004098 0.029206
#
#
# Mechanical properties :
#
#
# Convention : Reuss Voigt Hill
#
# Bulk Modulus (GPa) = 39.03126 61.15291 50.09208
# Shear Modulus (GPa) = 23.45560 31.31251 27.38406
#
# Velocity S-wave (km/s) = 3.29026 3.80159 3.55513
# Velocity P-wave (km/s) = 5.69640 6.89160 6.32231
#
# Compressibility (1/GPa) = 0.02562049
#
# Stress axis : x y z
#
# Youngs Moduli (GPa) = 81.38945 32.68343 94.97281
#
# Poissons Ratio (x) = 0.35759 0.24420
# Poissons Ratio (y) = 0.89049 0.03643
# Poissons Ratio (z) = 0.20927 0.01254
#
# Static dielectric constant tensor:
#      x y z
#    x 3.836120 -0.034200 0.165470 
#    y -0.034200 3.697880 0.048060 
#    z 0.165470 0.048060 4.120680 
# 
# 
# High freq. dielectric constant tensor:
#      x y z
#    x 1.845060 -0.001540 0.014500 
#    y -0.001540 1.838070 0.009250 
#    z 0.014500 0.009250 1.862440 
# 
# From -- ./inp_files/112402.got.cif
#   From: 2010.06.25/outbox.cif.g09.slc.cpg/sg2_57_cif.got.tgz:112402.got - 2010.06.27 13:26:56.
