data_PCOD8022329
_publ_section_title
;
Structure prediction by ZEFSAII (Michael W. Deem and Ramdas Pophale) SiO2 
 PCOD8022329
Probable space group: P -1
;
_chemical_formula_sum "Si O2"
_cell_formula_units_Z 16
_cell_length_a 8.673728
_cell_length_b 16.212815
_cell_length_c 9.232178
_cell_angle_alpha 38.723712
_cell_angle_beta 100.885913
_cell_angle_gamma 113.649908
_cell_volume 726.290330
_symmetry_space_group_name_H-M "P -1"
_symmetry_group_IT_number 2
_symmetry_cell_setting 'triclinic'
loop_
_space_group_symop_operation_xyz
x,y,z
-x,-y,-z
loop_
_atom_site_type_symbol
_atom_site_label
_atom_site_fract_x
_atom_site_fract_y
_atom_site_fract_z
Si Si1 0.001635 0.837078 0.839735
Si Si2 0.496453 0.816869 0.521713
Si Si3 0.221520 0.677364 0.435536
Si Si4 0.134504 0.158706 0.489930
Si Si5 0.354188 0.860722 0.938278
Si Si6 0.143600 0.376749 0.427937
Si Si7 0.266278 0.404868 0.709497
Si Si8 0.567494 0.339685 0.973994
O O1 0.193529 0.851387 0.823355
O O2 0.890031 0.778904 0.754147
O O3 0.006993 0.988589 0.694570
O O4 0.915854 0.719666 0.107413
O O5 0.331397 0.705329 0.562642
O O6 0.668138 0.813092 0.489431
O O7 0.501585 0.976265 0.278361
O O8 0.479294 0.769674 0.750017
O O9 0.251327 0.555228 0.519258
O O10 0.023422 0.621974 0.524230
O O11 0.290123 0.820200 0.148839
O O12 0.083633 0.236605 0.506227
O O13 0.429498 0.750859 0.042764
O O14 0.280087 0.379732 0.573761
O O15 0.248105 0.523954 0.152862
O O16 0.420663 0.397407 0.840720
#
# Coordination Sequence:
#
# PCOD8022329 Si02
#       8
#     2   2   2   2   2   2   2   2
#     4  10  22  45  71  95 138 175 218 281 334 394
#     4  11  26  45  68 101 135 177 222 281 332 394
#     4  12  26  45  68 101 138 178 221 277 336 393
#     4  10  24  44  69 102 134 175 223 276 338 393
#     4  11  24  47  70  96 139 176 224 273 339 397
#     4  12  26  43  69 103 134 179 224 274 333 403
#     4  12  24  45  69  98 137 178 222 279 332 395
#     4  12  26  43  71 101 132 181 225 276 332 398
#
# _framework density 22.029757
#
# number of rings (size 3 to 8) (size 9 to 14) (size 15 to 20)
#    0.000    0.750    3.750    3.000    5.250    3.000 
#    0.000    0.000    0.000    0.000    0.000    0.000 
#    0.000    0.000    0.000    0.000    0.000    0.000 
#
# Total GULP energy -198435.000044 kJ/mol
# GULP energy per Si atom -12402.187503 kJ/mol
# Density = 2.197962 g / cm^3
# Si number density = 22.029757 Si / 1000 Ang^3
#
#
#
# Elastic Constant Matrix: (Units=GPa)
#
#
# Indices 1 2 3 4 5 6 
#
# 1 72.4487 34.5143 34.6160 0.5642 0.6109 -1.9059
# 2 34.5143 125.6071 38.1468 -1.8206 2.6599 -6.1224
# 3 34.6160 38.1468 119.7617 -4.9564 -15.4106 -5.7388
# 4 0.5642 -1.8206 -4.9564 23.1613 1.6378 2.7480
# 5 0.6109 2.6599 -15.4106 1.6378 34.6554 -2.3977
# 6 -1.9059 -6.1224 -5.7388 2.7480 -2.3977 33.6458
#
#
#
# Elastic Compliance Matrix: (Units=1/GPa)
#
#
# Indices 1 2 3 4 5 6 
#
# 1 0.017538 -0.003522 -0.004270 -0.001437 -0.001897 -0.000394
# 2 -0.003522 0.009691 -0.002211 0.000365 -0.001610 0.001042
# 3 -0.004270 -0.002211 0.011101 0.001763 0.005200 0.001476
# 4 -0.001437 0.000365 0.001763 0.044132 -0.001542 -0.003429
# 5 -0.001897 -0.001610 0.005200 -0.001542 0.031596 0.002864
# 6 -0.000394 0.001042 0.001476 -0.003429 0.002864 0.030625
#
#
# Mechanical properties :
#
#
# Convention : Reuss Voigt Hill
#
# Bulk Modulus (GPa) = 54.57236 59.15242 56.86239
# Shear Modulus (GPa) = 29.27477 32.32853 30.80165
#
# Velocity S-wave (km/s) = 3.64933 3.83494 3.74329
# Velocity P-wave (km/s) = 6.52554 6.82045 6.67462
#
# Compressibility (1/GPa) = 0.01832430
#
# Stress axis : x y z
#
# Youngs Moduli (GPa) = 57.02016 103.19114 90.08180
#
# Poissons Ratio (x) = 0.36346 0.38461
# Poissons Ratio (y) = 0.20083 0.19915
# Poissons Ratio (z) = 0.24345 0.22813
#
# Static dielectric constant tensor:
#      x y z
#    x 3.851210 0.092540 -0.032230 
#    y 0.092540 3.787860 -0.054270 
#    z -0.032230 -0.054270 4.071870 
# 
# 
# High freq. dielectric constant tensor:
#      x y z
#    x 1.864070 0.009650 -0.003510 
#    y 0.009650 1.860630 -0.000220 
#    z -0.003510 -0.000220 1.880640 
# 
# From -- ./inp_files/205159.got.cif
#   From: 2010.06.25/outbox.cif.g09.slc.cpg/sg2_103_cif.got.tgz:205159.got - 2010.06.27 13:26:56.
