data_PCOD8022473
_publ_section_title
;
Structure prediction by ZEFSAII (Michael W. Deem and Ramdas Pophale) SiO2 
 PCOD8022473
Probable space group: P -1
;
_chemical_formula_sum "Si O2"
_cell_formula_units_Z 16
_cell_length_a 13.233543
_cell_length_b 11.568753
_cell_length_c 14.069646
_cell_angle_alpha 140.411502
_cell_angle_beta 53.900878
_cell_angle_gamma 146.943545
_cell_volume 738.714609
_symmetry_space_group_name_H-M "P -1"
_symmetry_group_IT_number 2
_symmetry_cell_setting 'triclinic'
loop_
_space_group_symop_operation_xyz
x,y,z
-x,-y,-z
loop_
_atom_site_type_symbol
_atom_site_label
_atom_site_fract_x
_atom_site_fract_y
_atom_site_fract_z
Si Si1 0.897834 0.226261 0.336831
Si Si2 0.916192 0.134706 0.807319
Si Si3 0.335605 0.640600 0.108414
Si Si4 0.980542 0.476509 0.152960
Si Si5 0.171836 0.287654 0.139207
Si Si6 0.644584 0.566324 0.668248
Si Si7 0.738618 0.726584 0.233170
Si Si8 0.313183 0.766567 0.674893
O O1 0.723675 0.104341 0.293406
O O2 0.000000 0.500000 0.500000
O O3 0.073484 0.368531 0.265335
O O4 0.836809 0.994660 0.290738
O O5 0.100490 0.206427 0.756988
O O6 0.924771 0.246163 0.772759
O O7 0.885696 0.249022 0.980511
O O8 0.732125 0.809596 0.703326
O O9 0.133761 0.517112 0.143567
O O10 0.344532 0.519796 0.120108
O O11 0.484380 0.964239 0.224790
O O12 0.366877 0.537402 0.938933
O O13 0.834764 0.397185 0.260782
O O14 0.255534 0.295347 0.195887
O O15 0.000000 0.000000 0.000000
O O16 0.420406 0.355865 0.664143
O O17 0.684609 0.414003 0.502795
#
# Coordination Sequence:
#
# PCOD8022473 Si02
#       8
#     2   2   2   2   2   2   2   2
#     4  12  23  40  65  92 130 170 205 255 318 378
#     4  10  22  46  69  92 120 166 214 268 314 365
#     4  11  24  40  65  96 125 166 212 260 312 374
#     4  10  23  44  71  91 122 163 217 266 312 370
#     4  12  22  40  67  93 125 167 211 256 315 374
#     4  12  26  41  63  95 132 167 206 258 319 378
#     4  11  24  41  65  94 128 167 210 259 315 377
#     4  12  26  40  63  96 130 169 206 259 318 375
#
# _framework density 21.659243
#
# number of rings (size 3 to 8) (size 9 to 14) (size 15 to 20)
#    0.000    0.750    5.000    2.250    3.500    4.500 
#    0.000    5.000    0.000    0.000    0.000    0.000 
#    0.000    0.000    0.000    0.000    0.000    0.000 
#
# Total GULP energy -198225.126215 kJ/mol
# GULP energy per Si atom -12389.070388 kJ/mol
# Density = 2.160995 g / cm^3
# Si number density = 21.659243 Si / 1000 Ang^3
#
#
#
# Elastic Constant Matrix: (Units=GPa)
#
#
# Indices 1 2 3 4 5 6 
#
# 1 48.1076 29.5505 24.7678 -5.8623 -15.2410 -14.7956
# 2 29.5505 111.1151 29.0394 -3.9553 -3.3342 -8.8307
# 3 24.7678 29.0394 63.0324 -4.0416 -0.6154 -4.4336
# 4 -5.8623 -3.9553 -4.0416 42.5208 6.7331 -11.7960
# 5 -15.2410 -3.3342 -0.6154 6.7331 28.0407 2.4212
# 6 -14.7956 -8.8307 -4.4336 -11.7960 2.4212 35.1467
#
#
#
# Elastic Compliance Matrix: (Units=1/GPa)
#
#
# Indices 1 2 3 4 5 6 
#
# 1 0.042244 -0.006072 -0.012213 0.005223 0.019410 0.015133
# 2 -0.006072 0.011313 -0.002812 0.000335 -0.002114 0.000190
# 3 -0.012213 -0.002812 0.021748 0.000433 -0.006382 -0.002519
# 4 0.005223 0.000335 0.000433 0.028502 -0.005013 0.012249
# 5 0.019410 -0.002114 -0.006382 -0.005013 0.046859 0.001924
# 6 0.015133 0.000190 -0.002519 0.012249 0.001924 0.038531
#
#
# Mechanical properties :
#
#
# Convention : Reuss Voigt Hill
#
# Bulk Modulus (GPa) = 30.20135 43.21894 36.71014
# Shear Modulus (GPa) = 20.62468 30.40147 25.51308
#
# Velocity S-wave (km/s) = 3.08918 3.75056 3.43582
# Velocity P-wave (km/s) = 5.16703 6.22519 5.72063
#
# Compressibility (1/GPa) = 0.03311110
#
# Stress axis : x y z
#
# Youngs Moduli (GPa) = 23.67177 88.39464 45.98210
#
# Poissons Ratio (x) = 0.53671 0.56159
# Poissons Ratio (y) = 0.14373 0.12930
# Poissons Ratio (z) = 0.28911 0.24855
#
# Static dielectric constant tensor:
#      x y z
#    x 3.747270 0.034170 -0.070150 
#    y 0.034170 3.878650 -0.143610 
#    z -0.070150 -0.143610 4.018880 
# 
# 
# High freq. dielectric constant tensor:
#      x y z
#    x 1.841410 0.000850 -0.015330 
#    y 0.000850 1.857000 -0.000400 
#    z -0.015330 -0.000400 1.857960 
# 
# From -- ./inp_files/314868.got.cif
#   From: 2010.06.25/outbox.cif.g09.slc.cpg/sg2_158_cif.got.tgz:314868.got - 2010.06.27 13:26:56.
