data_PCOD8022518
_publ_section_title
;
Structure prediction by ZEFSAII (Michael W. Deem and Ramdas Pophale) SiO2 
 PCOD8022518
Probable space group: P -1
;
_chemical_formula_sum "Si O2"
_cell_formula_units_Z 14
_cell_length_a 17.642497
_cell_length_b 11.519688
_cell_length_c 8.964763
_cell_angle_alpha 40.627283
_cell_angle_beta 128.703187
_cell_angle_gamma 149.416279
_cell_volume 601.434538
_symmetry_space_group_name_H-M "P -1"
_symmetry_group_IT_number 2
_symmetry_cell_setting 'triclinic'
loop_
_space_group_symop_operation_xyz
x,y,z
-x,-y,-z
loop_
_atom_site_type_symbol
_atom_site_label
_atom_site_fract_x
_atom_site_fract_y
_atom_site_fract_z
Si Si1 0.394855 0.526623 0.659881
Si Si2 0.314436 0.194054 0.372416
Si Si3 0.423926 0.924036 0.137550
Si Si4 0.175337 0.107186 0.572587
Si Si5 0.132422 0.599412 0.662086
Si Si6 0.331768 0.549051 0.890726
Si Si7 0.109325 0.416416 0.135761
O O1 0.517492 0.555713 0.727790
O O2 0.442547 0.774551 0.400756
O O3 0.238251 0.232270 0.693171
O O4 0.386038 0.547129 0.803091
O O5 0.296004 0.179013 0.543882
O O6 0.250723 0.920652 0.505033
O O7 0.237191 0.260835 0.138127
O O8 0.246851 0.713399 0.096088
O O9 0.516854 0.202583 0.069276
O O10 0.500000 0.000000 0.000000
O O11 0.138028 0.245156 0.315607
O O12 0.034587 0.775823 0.743453
O O13 0.219764 0.560593 0.723392
O O14 0.000000 0.500000 0.500000
O O15 0.076154 0.456326 0.894686
#
# Coordination Sequence:
#
# PCOD8022518 Si02
#       7
#     2   2   2   2   2   2   2
#     4  11  24  43  75 111 146 193 248 303 373 436
#     4  12  25  47  72 109 142 203 248 294 374 437
#     4  11  20  43  77 102 146 193 243 302 360 437
#     4  10  23  44  77 108 149 191 249 305 365 444
#     4  12  28  46  73 109 151 193 248 301 379 443
#     4  12  25  48  74 108 155 189 245 312 362 440
#     4  10  22  46  72 110 144 198 244 299 374 429
#
# _framework density 23.277678999999999
#
# number of rings (size 3 to 8) (size 9 to 14) (size 15 to 20)
#    0.000    0.857    4.286    2.143    2.000    5.714 
#    0.000    1.429    0.000    0.000    0.000    0.000 
#    0.000    0.000    0.000    0.000    0.000    0.000 
#
# Total GULP energy -173497.821014 kJ/mol
# GULP energy per Si atom -12392.701501 kJ/mol
# Density = 2.322470 g / cm^3
# Si number density = 23.277679 Si / 1000 Ang^3
#
#
#
# Elastic Constant Matrix: (Units=GPa)
#
#
# Indices 1 2 3 4 5 6 
#
# 1 151.6775 63.4060 37.4401 6.2527 -28.6057 -0.1343
# 2 63.4060 86.7144 53.7351 15.0077 -14.5714 2.7868
# 3 37.4401 53.7351 114.9623 4.0046 -11.8586 1.4882
# 4 6.2527 15.0077 4.0046 37.6123 -4.4810 -5.2096
# 5 -28.6057 -14.5714 -11.8586 -4.4810 39.4987 3.9553
# 6 -0.1343 2.7868 1.4882 -5.2096 3.9553 28.7682
#
#
#
# Elastic Compliance Matrix: (Units=1/GPa)
#
#
# Indices 1 2 3 4 5 6 
#
# 1 0.010476 -0.007455 0.000537 0.001843 0.005171 0.000366
# 2 -0.007455 0.023591 -0.008258 -0.007722 0.000282 -0.003330
# 3 0.000537 -0.008258 0.012438 0.002084 0.001277 0.000361
# 4 0.001843 -0.007722 0.002084 0.030182 0.001950 0.005846
# 5 0.005171 0.000282 0.001277 0.001950 0.030157 -0.003863
# 6 0.000366 -0.003330 0.000361 0.005846 -0.003863 0.036656
#
#
# Mechanical properties :
#
#
# Convention : Reuss Voigt Hill
#
# Bulk Modulus (GPa) = 61.90337 73.61295 67.75816
# Shear Modulus (GPa) = 27.89595 34.42735 31.16165
#
# Velocity S-wave (km/s) = 3.46555 3.84993 3.66278
# Velocity P-wave (km/s) = 6.53181 7.17322 6.86002
#
# Compressibility (1/GPa) = 0.01615421
#
# Stress axis : x y z
#
# Youngs Moduli (GPa) = 95.45378 42.38833 80.39939
#
# Poissons Ratio (x) = 0.31600 -0.04319
# Poissons Ratio (y) = 0.71161 0.66393
# Poissons Ratio (z) = -0.05127 0.35004
#
# Static dielectric constant tensor:
#      x y z
#    x 4.035640 0.076850 0.130770 
#    y 0.076850 4.695460 0.033870 
#    z 0.130770 0.033870 4.420420 
# 
# 
# High freq. dielectric constant tensor:
#      x y z
#    x 1.917850 -0.000350 0.002930 
#    y -0.000350 1.911750 -0.009890 
#    z 0.002930 -0.009890 1.940620 
# 
# From -- ./inp_files/332760.got.cif
#   From: 2010.06.25/outbox.cif.g09.slc.cpg/sg2_167_cif.got.tgz:332760.got - 2010.06.27 13:26:56.
