data_PCOD8022058
_publ_section_title
;
Structure prediction by ZEFSAII (Michael W. Deem and Ramdas Pophale) SiO2 
 PCOD8022058
Probable space group: P -1
;
_chemical_formula_sum "Si O2"
_cell_formula_units_Z 14
_cell_length_a 11.105162
_cell_length_b 5.308966
_cell_length_c 19.522466
_cell_angle_alpha 67.988498
_cell_angle_beta 29.529383
_cell_angle_gamma 78.548261
_cell_volume 505.024811
_symmetry_space_group_name_H-M "P -1"
_symmetry_group_IT_number 2
_symmetry_cell_setting 'triclinic'
loop_
_space_group_symop_operation_xyz
x,y,z
-x,-y,-z
loop_
_atom_site_type_symbol
_atom_site_label
_atom_site_fract_x
_atom_site_fract_y
_atom_site_fract_z
Si Si1 0.216313 0.742135 0.423372
Si Si2 0.602555 0.895073 0.824224
Si Si3 0.831143 0.417303 0.737312
Si Si4 0.078700 0.007323 0.061958
Si Si5 0.572904 0.020162 0.564956
Si Si6 0.287594 0.429792 0.807595
Si Si7 0.191890 0.188789 0.656729
O O1 0.424355 0.577996 0.321781
O O2 0.936448 0.522182 0.597167
O O3 0.213159 0.973533 0.344189
O O4 0.263724 0.893125 0.458083
O O5 0.645603 0.585905 0.844957
O O6 0.674173 0.089160 0.837332
O O7 0.314217 0.873275 0.947919
O O8 0.071140 0.444031 0.668761
O O9 0.835571 0.787544 0.169581
O O10 0.024032 0.026121 0.167749
O O11 0.136621 0.319162 0.965258
O O12 0.319994 0.754916 0.736355
O O13 0.454694 0.260310 0.564506
O O14 0.762618 0.947568 0.423423
#
# Coordination Sequence:
#
# PCOD8022058 Si02
#       7
#     2   2   2   2   2   2   2
#     4  11  23  45  75 110 138 185 255 317 357 424
#     4  11  28  46  75 105 151 203 247 294 358 444
#     4  12  26  47  72 108 153 200 242 299 361 443
#     4  10  24  46  68 110 148 193 241 303 371 444
#     4  11  24  43  76 111 140 189 242 317 375 428
#     4  10  22  44  73 106 143 184 246 313 373 424
#     4  11  25  44  71 108 150 188 242 302 377 441
#
# _framework density 27.721409999999999
#
# number of rings (size 3 to 8) (size 9 to 14) (size 15 to 20)
#    0.000    1.143    2.857    1.714    4.000    7.429 
#    0.000    0.000    0.000    0.000    0.000    0.000 
#    0.000    0.000    0.000    0.000    0.000    0.000 
#
# Total GULP energy -173529.190940 kJ/mol
# GULP energy per Si atom -12394.942210 kJ/mol
# Density = 2.765831 g / cm^3
# Si number density = 27.721410 Si / 1000 Ang^3
#
#
#
# Elastic Constant Matrix: (Units=GPa)
#
#
# Indices 1 2 3 4 5 6 
#
# 1 90.0928 29.4911 11.7183 5.5841 3.0613 -16.5282
# 2 29.4911 110.4391 5.5935 -10.6855 -4.6825 -32.0291
# 3 11.7183 5.5935 114.9780 -3.6007 36.4077 -1.9600
# 4 5.5841 -10.6855 -3.6007 16.6822 -1.7660 -8.2991
# 5 3.0613 -4.6825 36.4077 -1.7660 52.2048 6.5004
# 6 -16.5282 -32.0291 -1.9600 -8.2991 6.5004 43.4700
#
#
#
# Elastic Compliance Matrix: (Units=1/GPa)
#
#
# Indices 1 2 3 4 5 6 
#
# 1 0.013117 -0.003862 -0.001134 -0.006729 -0.000665 0.000906
# 2 -0.003862 0.015813 0.000323 0.018314 0.000341 0.013642
# 3 -0.001134 0.000323 0.011495 0.003287 -0.008079 0.002161
# 4 -0.006729 0.018314 0.003287 0.088535 -0.000759 0.028100
# 5 -0.000665 0.000341 -0.008079 -0.000759 0.025370 -0.004305
# 6 0.000906 0.013642 0.002161 0.028100 -0.004305 0.039506
#
#
# Mechanical properties :
#
#
# Convention : Reuss Voigt Hill
#
# Bulk Modulus (GPa) = 32.17611 45.45732 38.81671
# Shear Modulus (GPa) = 23.41460 40.38521 31.89991
#
# Velocity S-wave (km/s) = 2.90942 3.82098 3.39592
# Velocity P-wave (km/s) = 4.78732 5.99166 5.42303
#
# Compressibility (1/GPa) = 0.03107896
#
# Stress axis : x y z
#
# Youngs Moduli (GPa) = 76.23628 63.24056 86.99290
#
# Poissons Ratio (x) = 0.24423 0.09861
# Poissons Ratio (y) = 0.29442 -0.02806
# Poissons Ratio (z) = 0.08642 -0.02040
#
# Static dielectric constant tensor:
#      x y z
#    x 4.945620 -0.385200 0.190840 
#    y -0.385200 4.755790 -0.126110 
#    z 0.190840 -0.126110 5.262960 
# 
# 
# High freq. dielectric constant tensor:
#      x y z
#    x 2.120780 -0.023360 0.002950 
#    y -0.023360 2.106770 0.011380 
#    z 0.002950 0.011380 2.130420 
# 
# From -- ./inp_files/72425.got.cif
#   From: 2010.06.25/outbox.cif.g09.slc.cpg/sg2_37_cif.got.tgz:72425.got - 2010.06.27 13:26:56.
