data_PCOD8022621
_publ_section_title
;
Structure prediction by ZEFSAII (Michael W. Deem and Ramdas Pophale) SiO2 
 PCOD8022621
Probable space group: P -1
;
_chemical_formula_sum "Si O2"
_cell_formula_units_Z 16
_cell_length_a 19.633311
_cell_length_b 5.423363
_cell_length_c 8.978996
_cell_angle_alpha 100.257745
_cell_angle_beta 58.048076
_cell_angle_gamma 73.527817
_cell_volume 711.861564
_symmetry_space_group_name_H-M "P -1"
_symmetry_group_IT_number 2
_symmetry_cell_setting 'triclinic'
loop_
_space_group_symop_operation_xyz
x,y,z
-x,-y,-z
loop_
_atom_site_type_symbol
_atom_site_label
_atom_site_fract_x
_atom_site_fract_y
_atom_site_fract_z
Si Si1 0.630509 0.617116 0.736743
Si Si2 0.103154 0.878480 0.828591
Si Si3 0.759807 0.256091 0.091713
Si Si4 0.420767 0.798341 0.660144
Si Si5 0.824428 0.779657 0.398964
Si Si6 0.739972 0.190559 0.782533
Si Si7 0.671899 0.787138 0.410778
Si Si8 0.440079 0.803132 0.963806
O O1 0.723402 0.421351 0.695852
O O2 0.653585 0.594839 0.532500
O O3 0.542617 0.558413 0.856179
O O4 0.592734 0.942764 0.855764
O O5 0.154281 0.909870 0.919165
O O6 0.136005 0.557835 0.697546
O O7 0.111275 0.086077 0.716711
O O8 0.000000 0.000000 0.000000
O O9 0.679113 0.180502 0.213783
O O10 0.729182 0.583833 0.189005
O O11 0.790656 0.200588 0.875732
O O12 0.500000 0.500000 0.500000
O O13 0.442035 0.908576 0.802897
O O14 0.418596 0.986420 0.539509
O O15 0.730055 0.928288 0.433481
O O16 0.796446 0.878907 0.614119
O O17 0.634832 0.304992 0.959877
#
# Coordination Sequence:
#
# PCOD8022621 Si02
#       8
#     2   2   2   2   2   2   2   2
#     4  11  22  36  58  84 128 179 237 277 326 386
#     4  11  24  48  75 105 132 172 220 278 341 417
#     4  10  23  41  63  94 129 174 218 279 331 397
#     4  11  23  37  58  87 129 172 226 280 327 383
#     4  11  23  42  72 101 133 173 221 273 341 411
#     4  11  22  40  61  90 131 174 221 278 338 394
#     4  11  22  39  61  90 127 176 227 276 330 392
#     4  10  23  35  53  85 123 179 230 277 330 376
#
# _framework density 22.476282999999999
#
# number of rings (size 3 to 8) (size 9 to 14) (size 15 to 20)
#    0.000    1.250    2.500    3.750    1.750    6.000 
#    0.000    1.250    0.000    0.000    0.000    0.000 
#    0.000    0.000    0.000    0.000    0.000    0.000 
#
# Total GULP energy -198218.525645 kJ/mol
# GULP energy per Si atom -12388.657853 kJ/mol
# Density = 2.242513 g / cm^3
# Si number density = 22.476283 Si / 1000 Ang^3
#
#
#
# Elastic Constant Matrix: (Units=GPa)
#
#
# Indices 1 2 3 4 5 6 
#
# 1 90.7517 10.9651 52.5935 4.7433 4.8607 -6.3022
# 2 10.9651 70.8051 31.6745 -1.4159 5.3751 -4.2491
# 3 52.5935 31.6745 122.9873 3.0643 23.1023 -5.8212
# 4 4.7433 -1.4159 3.0643 28.4306 3.2465 -1.5038
# 5 4.8607 5.3751 23.1023 3.2465 49.9890 -3.7119
# 6 -6.3022 -4.2491 -5.8212 -1.5038 -3.7119 31.5600
#
#
#
# Elastic Compliance Matrix: (Units=1/GPa)
#
#
# Indices 1 2 3 4 5 6 
#
# 1 0.015015 0.000657 -0.006804 -0.001850 0.001880 0.001965
# 2 0.000657 0.016104 -0.004439 0.001221 0.000294 0.001573
# 3 -0.006804 -0.004439 0.013103 0.000059 -0.004929 -0.000117
# 4 -0.001850 0.001221 0.000059 0.035856 -0.002214 0.001254
# 5 0.001880 0.000294 -0.004929 -0.002214 0.022362 0.002030
# 6 0.001965 0.001573 -0.000117 0.001254 0.002030 0.032567
#
#
# Mechanical properties :
#
#
# Convention : Reuss Voigt Hill
#
# Bulk Modulus (GPa) = 43.38697 52.77892 48.08295
# Shear Modulus (GPa) = 30.51306 34.61666 32.56486
#
# Velocity S-wave (km/s) = 3.68851 3.92872 3.81051
# Velocity P-wave (km/s) = 6.12254 6.64175 6.38742
#
# Compressibility (1/GPa) = 0.02304839
#
# Stress axis : x y z
#
# Youngs Moduli (GPa) = 66.59801 62.09608 76.31886
#
# Poissons Ratio (x) = -0.04078 0.51930
# Poissons Ratio (y) = -0.04374 0.33882
# Poissons Ratio (z) = 0.45315 0.27567
#
# Static dielectric constant tensor:
#      x y z
#    x 4.159650 -0.117630 0.205190 
#    y -0.117630 3.875440 -0.230840 
#    z 0.205190 -0.230840 4.295060 
# 
# 
# High freq. dielectric constant tensor:
#      x y z
#    x 1.868630 0.002300 0.021360 
#    y 0.002300 1.873660 -0.008720 
#    z 0.021360 -0.008720 1.890030 
# 
# From -- ./inp_files/39952.got.cif
#   From: 2010.06.25/outbox.cif.g09.slc.cpg/sg2_20_cif.got.tgz:39952.got - 2010.06.27 13:26:56.
