data_PCOD8022333
_publ_section_title
;
Structure prediction by ZEFSAII (Michael W. Deem and Ramdas Pophale) SiO2 
 PCOD8022333
Probable space group: P -1
;
_chemical_formula_sum "Si O2"
_cell_formula_units_Z 12
_cell_length_a 7.906017
_cell_length_b 12.752413
_cell_length_c 9.334773
_cell_angle_alpha 139.394663
_cell_angle_beta 64.317410
_cell_angle_gamma 95.252887
_cell_volume 504.753704
_symmetry_space_group_name_H-M "P -1"
_symmetry_group_IT_number 2
_symmetry_cell_setting 'triclinic'
loop_
_space_group_symop_operation_xyz
x,y,z
-x,-y,-z
loop_
_atom_site_type_symbol
_atom_site_label
_atom_site_fract_x
_atom_site_fract_y
_atom_site_fract_z
Si Si1 0.892131 0.030674 0.886931
Si Si2 0.335558 0.986312 0.325291
Si Si3 0.214284 0.126965 0.992769
Si Si4 0.626998 0.632795 0.948833
Si Si5 0.448018 0.618416 0.501167
Si Si6 0.227001 0.364151 0.801773
O O1 0.733474 0.197877 0.204854
O O2 0.114491 0.039750 0.820488
O O3 0.825008 0.023126 0.742391
O O4 0.898477 0.860901 0.799597
O O5 0.544146 0.993699 0.192558
O O6 0.227614 0.171768 0.640779
O O7 0.407486 0.807682 0.209213
O O8 0.195461 0.315809 0.135523
O O9 0.622581 0.472207 0.694931
O O10 0.680012 0.572423 0.030716
O O11 0.500000 0.500000 0.500000
O O12 0.648446 0.643252 0.397285
O O13 0.000000 0.500000 0.000000
#
# Coordination Sequence:
#
# PCOD8022333 Si02
#       6
#     2   2   2   2   2   2
#     4  11  21  41  71 109 132 180 228 301 339 406
#     4  10  22  45  71  96 139 180 238 281 344 409
#     4   9  22  39  68 102 135 176 233 278 351 399
#     4  10  24  45  69  98 144 182 228 287 347 412
#     4  12  24  43  71 102 137 177 236 286 346 408
#     4  12  28  46  67 102 146 186 228 286 355 416
#
# _framework density 23.773971
#
# number of rings (size 3 to 8) (size 9 to 14) (size 15 to 20)
#    1.000    0.333    3.333    1.500    4.667    3.333 
#    3.000    1.667    0.000    0.000    0.000    0.000 
#    0.000    0.000    0.000    0.000    0.000    0.000 
#
# Total GULP energy -148694.071962 kJ/mol
# GULP energy per Si atom -12391.172663 kJ/mol
# Density = 2.371986 g / cm^3
# Si number density = 23.773971 Si / 1000 Ang^3
#
#
#
# Elastic Constant Matrix: (Units=GPa)
#
#
# Indices 1 2 3 4 5 6 
#
# 1 98.5378 2.1864 1.1026 -2.5410 32.3193 -20.5572
# 2 2.1864 74.6898 -0.1687 -9.2557 -3.0671 -11.7307
# 3 1.1026 -0.1687 94.3224 4.9777 20.4244 -9.2836
# 4 -2.5410 -9.2557 4.9777 19.1467 -6.4933 13.6511
# 5 32.3193 -3.0671 20.4244 -6.4933 32.1225 -8.1149
# 6 -20.5572 -11.7307 -9.2836 13.6511 -8.1149 39.1304
#
#
#
# Elastic Compliance Matrix: (Units=1/GPa)
#
#
# Indices 1 2 3 4 5 6 
#
# 1 0.021336 -0.001956 0.007960 -0.019029 -0.027146 0.013520
# 2 -0.001956 0.015008 -0.001694 0.008662 0.006586 0.001414
# 3 0.007960 -0.001694 0.016720 -0.017800 -0.019946 0.009714
# 4 -0.019029 0.008662 -0.017800 0.099591 0.041903 -0.037677
# 5 -0.027146 0.006586 -0.019946 0.041903 0.076226 -0.015830
# 6 0.013520 0.001414 0.009714 -0.037677 -0.015830 0.045248
#
#
# Mechanical properties :
#
#
# Convention : Reuss Voigt Hill
#
# Bulk Modulus (GPa) = 16.21161 30.42115 23.31638
# Shear Modulus (GPa) = 17.47818 35.70857 26.59337
#
# Velocity S-wave (km/s) = 2.71436 3.87977 3.34816
# Velocity P-wave (km/s) = 4.08137 5.73532 4.97753
#
# Compressibility (1/GPa) = 0.06168417
#
# Stress axis : x y z
#
# Youngs Moduli (GPa) = 46.86866 66.63111 59.80719
#
# Poissons Ratio (x) = 0.13033 -0.47608
# Poissons Ratio (y) = 0.09167 0.10134
# Poissons Ratio (z) = -0.37308 0.11290
#
# Static dielectric constant tensor:
#      x y z
#    x 4.284440 -0.044550 0.093080 
#    y -0.044550 4.360380 0.186930 
#    z 0.093080 0.186930 3.984260 
# 
# 
# High freq. dielectric constant tensor:
#      x y z
#    x 1.947220 -0.003590 0.012990 
#    y -0.003590 1.945560 0.011420 
#    z 0.012990 0.011420 1.915240 
# 
# From -- ./inp_files/183485.got.cif
#   From: 2010.06.25/outbox.cif.g09.slc.cpg/sg2_92_cif.got.tgz:183485.got - 2010.06.27 13:26:56.
