data_PCOD8022142
_publ_section_title
;
Structure prediction by ZEFSAII (Michael W. Deem and Ramdas Pophale) SiO2 
 PCOD8022142
Probable space group: P -1
;
_chemical_formula_sum "Si O2"
_cell_formula_units_Z 16
_cell_length_a 9.073201
_cell_length_b 15.821332
_cell_length_c 15.797679
_cell_angle_alpha 24.403084
_cell_angle_beta 90.077270
_cell_angle_gamma 74.569914
_cell_volume 714.438582
_symmetry_space_group_name_H-M "P -1"
_symmetry_group_IT_number 2
_symmetry_cell_setting 'triclinic'
loop_
_space_group_symop_operation_xyz
x,y,z
-x,-y,-z
loop_
_atom_site_type_symbol
_atom_site_label
_atom_site_fract_x
_atom_site_fract_y
_atom_site_fract_z
Si Si1 0.905713 0.978735 0.673873
Si Si2 0.243395 0.520742 0.994959
Si Si3 0.001008 0.490591 0.330469
Si Si4 0.329922 0.422565 0.655868
Si Si5 0.997746 0.661900 0.712839
Si Si6 0.661990 0.113396 0.398757
Si Si7 0.748248 0.064261 0.778800
Si Si8 0.606326 0.878658 0.236678
O O1 0.717469 0.089171 0.518867
O O2 0.842849 0.042012 0.711883
O O3 0.990728 0.121332 0.521728
O O4 0.076007 0.660470 0.940639
O O5 0.294724 0.711699 0.806610
O O6 0.173053 0.473922 0.950960
O O7 0.441479 0.234002 0.283939
O O8 0.990040 0.501594 0.217687
O O9 0.217601 0.250768 0.580322
O O10 0.864361 0.441930 0.414792
O O11 0.912435 0.793590 0.080061
O O12 0.332520 0.664158 0.419969
O O13 0.315249 0.323907 0.656436
O O14 0.521940 0.172040 0.934916
O O15 0.796117 0.820810 0.619994
O O16 0.565686 0.079067 0.752243
#
# Coordination Sequence:
#
# PCOD8022142 Si02
#       8
#     2   2   2   2   2   2   2   2
#     4   9  17  33  53  82 118 154 197 244 293 348
#     4   8  15  29  52  79 110 156 200 243 287 344
#     4  11  23  39  62  94 123 157 202 248 299 363
#     4  10  22  45  66  86 122 162 195 249 305 356
#     4   9  17  33  54  81 118 154 197 246 292 344
#     4   8  15  28  51  80 112 152 202 241 287 344
#     4  11  23  39  62  92 126 157 197 251 302 355
#     4  10  24  42  64  93 121 154 204 246 299 369
#
# _framework density 22.395206999999999
#
# number of rings (size 3 to 8) (size 9 to 14) (size 15 to 20)
#    0.000    2.500    1.250    2.250    0.000    4.500 
#    4.500    2.500    0.000    4.500    0.000    0.000 
#    0.000    0.000    0.000    0.000    0.000    0.000 
#
# Total GULP energy -198342.793171 kJ/mol
# GULP energy per Si atom -12396.424573 kJ/mol
# Density = 2.234423 g / cm^3
# Si number density = 22.395207 Si / 1000 Ang^3
#
#
#
# Elastic Constant Matrix: (Units=GPa)
#
#
# Indices 1 2 3 4 5 6 
#
# 1 53.4118 16.0901 38.2022 -1.1770 31.5706 0.5330
# 2 16.0901 82.7146 15.2751 -3.3189 13.3618 3.0515
# 3 38.2022 15.2751 107.8885 -19.1170 24.5866 21.6409
# 4 -1.1770 -3.3189 -19.1170 29.5357 7.4789 -4.6062
# 5 31.5706 13.3618 24.5866 7.4789 43.7981 -5.1298
# 6 0.5330 3.0515 21.6409 -4.6062 -5.1298 29.8599
#
#
#
# Elastic Compliance Matrix: (Units=1/GPa)
#
#
# Indices 1 2 3 4 5 6 
#
# 1 0.038793 -0.002341 -0.008262 0.001991 -0.022724 0.001938
# 2 -0.002341 0.013128 0.000441 0.002180 -0.003151 -0.001824
# 3 -0.008262 0.000441 0.018748 0.011910 -0.008267 -0.013068
# 4 0.001991 0.002180 0.011910 0.045473 -0.017115 -0.004816
# 5 -0.022724 -0.003151 -0.008267 -0.017115 0.049204 0.012532
# 6 0.001938 -0.001824 -0.013068 -0.004816 0.012532 0.044523
#
#
# Mechanical properties :
#
#
# Convention : Reuss Voigt Hill
#
# Bulk Modulus (GPa) = 19.86389 42.57219 31.21804
# Shear Modulus (GPa) = 20.24490 32.26856 26.25673
#
# Velocity S-wave (km/s) = 3.00989 3.80000 3.42779
# Velocity P-wave (km/s) = 4.57911 6.18903 5.44391
#
# Compressibility (1/GPa) = 0.05034260
#
# Stress axis : x y z
#
# Youngs Moduli (GPa) = 25.77764 76.17561 53.33992
#
# Poissons Ratio (x) = 0.17835 0.44071
# Poissons Ratio (y) = 0.06035 -0.02350
# Poissons Ratio (z) = 0.21298 -0.03356
#
# Static dielectric constant tensor:
#      x y z
#    x 4.040440 -0.252390 0.015560 
#    y -0.252390 4.001060 -0.316450 
#    z 0.015560 -0.316450 4.293950 
# 
# 
# High freq. dielectric constant tensor:
#      x y z
#    x 1.886290 -0.016450 -0.015880 
#    y -0.016450 1.870710 -0.016080 
#    z -0.015880 -0.016080 1.893760 
# 
# From -- ./inp_files/505051.got.cif
#   From: 2010.06.25/outbox.cif.g09.slc.cpg/sg2_253_cif.got.tgz:505051.got - 2010.06.27 13:26:56.
