data_PCOD8022637
_publ_section_title
;
Structure prediction by ZEFSAII (Michael W. Deem and Ramdas Pophale) SiO2 
 PCOD8022637
Probable space group: P -1
;
_chemical_formula_sum "Si O2"
_cell_formula_units_Z 16
_cell_length_a 8.495602
_cell_length_b 14.742907
_cell_length_c 11.455062
_cell_angle_alpha 40.124034
_cell_angle_beta 50.382235
_cell_angle_gamma 67.059139
_cell_volume 698.282889
_symmetry_space_group_name_H-M "P -1"
_symmetry_group_IT_number 2
_symmetry_cell_setting 'triclinic'
loop_
_space_group_symop_operation_xyz
x,y,z
-x,-y,-z
loop_
_atom_site_type_symbol
_atom_site_label
_atom_site_fract_x
_atom_site_fract_y
_atom_site_fract_z
Si Si1 0.154880 0.367756 0.605951
Si Si2 0.307123 0.962804 0.214039
Si Si3 0.484421 0.657529 0.813885
Si Si4 0.458079 0.734624 0.496661
Si Si5 0.082677 0.261592 0.388797
Si Si6 0.745939 0.754319 0.927348
Si Si7 0.702571 0.349180 0.856639
Si Si8 0.834019 0.495772 0.283683
O O1 0.292261 0.244734 0.660501
O O2 0.240946 0.476203 0.351414
O O3 0.191497 0.466131 0.607312
O O4 0.912393 0.294084 0.772287
O O5 0.388040 0.886093 0.364484
O O6 0.116440 0.849938 0.357276
O O7 0.218532 0.101230 0.156331
O O8 0.500000 0.000000 0.000000
O O9 0.382898 0.672861 0.721017
O O10 0.720395 0.750397 0.611668
O O11 0.500000 0.500000 0.000000
O O12 0.342355 0.707328 0.933694
O O13 0.361066 0.621983 0.553388
O O14 0.131826 0.215510 0.280662
O O15 0.039847 0.425095 0.243908
O O16 0.496467 0.706383 0.075822
O O17 0.850495 0.638870 0.059085
#
# Coordination Sequence:
#
# PCOD8022637 Si02
#       8
#     2   2   2   2   2   2   2   2
#     4  11  21  37  59  97 131 163 204 261 326 377
#     4  11  26  44  64  93 133 174 218 262 319 380
#     4  11  20  42  65  98 131 163 213 268 319 384
#     4  11  23  41  66  95 128 171 216 264 321 383
#     4  10  24  41  66  95 127 172 212 266 325 379
#     4  11  22  44  64  92 129 172 216 265 317 384
#     4  10  23  36  62  92 128 167 204 262 324 373
#     4  11  22  36  68  99 127 162 218 270 323 378
#
# _framework density 22.913349
#
# number of rings (size 3 to 8) (size 9 to 14) (size 15 to 20)
#    0.000    1.250    2.500    3.375    5.250    3.000 
#    0.000    7.500    0.000    0.000    0.000    0.000 
#    0.000    0.000    0.000    0.000    0.000    0.000 
#
# Total GULP energy -198346.005650 kJ/mol
# GULP energy per Si atom -12396.625353 kJ/mol
# Density = 2.286120 g / cm^3
# Si number density = 22.913349 Si / 1000 Ang^3
#
#
#
# Elastic Constant Matrix: (Units=GPa)
#
#
# Indices 1 2 3 4 5 6 
#
# 1 83.7481 10.9440 35.3833 9.9323 -2.0761 2.5275
# 2 10.9440 81.1663 19.8537 -3.3261 7.0873 -2.6972
# 3 35.3833 19.8537 102.2771 6.6476 -7.1858 0.9829
# 4 9.9323 -3.3261 6.6476 31.7958 -6.5613 5.1181
# 5 -2.0761 7.0873 -7.1858 -6.5613 32.0938 9.9020
# 6 2.5275 -2.6972 0.9829 5.1181 9.9020 32.0528
#
#
#
# Elastic Compliance Matrix: (Units=1/GPa)
#
#
# Indices 1 2 3 4 5 6 
#
# 1 0.014447 -0.000934 -0.004611 -0.003710 -0.000554 -0.000313
# 2 -0.000934 0.013598 -0.002702 0.001017 -0.004213 0.002440
# 3 -0.004611 -0.002702 0.012173 -0.000523 0.003276 -0.001166
# 4 -0.003710 0.001017 -0.000523 0.036082 0.009341 -0.008253
# 5 -0.000554 -0.004213 0.003276 0.009341 0.039001 -0.013951
# 6 -0.000313 0.002440 -0.001166 -0.008253 -0.013951 0.037092
#
#
# Mechanical properties :
#
#
# Convention : Reuss Voigt Hill
#
# Bulk Modulus (GPa) = 42.15422 44.39482 43.27452
# Shear Modulus (GPa) = 28.28151 32.58918 30.43534
#
# Velocity S-wave (km/s) = 3.51704 3.77540 3.64851
# Velocity P-wave (km/s) = 5.91016 6.19855 6.05607
#
# Compressibility (1/GPa) = 0.02372242
#
# Stress axis : x y z
#
# Youngs Moduli (GPa) = 69.22023 73.54081 82.15183
#
# Poissons Ratio (x) = 0.06869 0.37883
# Poissons Ratio (y) = 0.06465 0.22197
# Poissons Ratio (z) = 0.31920 0.19871
#
# Static dielectric constant tensor:
#      x y z
#    x 4.586000 -0.061200 0.045990 
#    y -0.061200 4.159220 0.347550 
#    z 0.045990 0.347550 4.189080 
# 
# 
# High freq. dielectric constant tensor:
#      x y z
#    x 1.915430 -0.007200 -0.007590 
#    y -0.007200 1.890980 0.030170 
#    z -0.007590 0.030170 1.887540 
# 
# From -- ./inp_files/345930.got.cif
#   From: 2010.06.25/outbox.cif.g09.slc.cpg/sg2_173_cif.got.tgz:345930.got - 2010.06.27 13:26:56.
