data_PCOD8022370
_publ_section_title
;
Structure prediction by ZEFSAII (Michael W. Deem and Ramdas Pophale) SiO2 
 PCOD8022370
Probable space group: P -1
;
_chemical_formula_sum "Si O2"
_cell_formula_units_Z 14
_cell_length_a 5.208630
_cell_length_b 11.962216
_cell_length_c 26.647408
_cell_angle_alpha 25.236585
_cell_angle_beta 104.571155
_cell_angle_gamma 90.252809
_cell_volume 576.287753
_symmetry_space_group_name_H-M "P -1"
_symmetry_group_IT_number 2
_symmetry_cell_setting 'triclinic'
loop_
_space_group_symop_operation_xyz
x,y,z
-x,-y,-z
loop_
_atom_site_type_symbol
_atom_site_label
_atom_site_fract_x
_atom_site_fract_y
_atom_site_fract_z
Si Si1 0.555690 0.689868 0.031608
Si Si2 0.212053 0.247466 0.280909
Si Si3 0.648443 0.621078 0.919491
Si Si4 0.286711 0.431821 0.410784
Si Si5 0.973853 0.310950 0.355201
Si Si6 0.644780 0.260067 0.892975
Si Si7 0.384607 0.185859 0.735727
O O1 0.368398 0.518623 0.078237
O O2 0.455543 0.853905 0.015834
O O3 0.922606 0.414786 0.160104
O O4 0.501281 0.951106 0.883829
O O5 0.392245 0.424915 0.217032
O O6 0.094523 0.254781 0.327863
O O7 0.446888 0.892325 0.419328
O O8 0.450737 0.997805 0.762763
O O9 0.500000 0.500000 0.000000
O O10 0.000000 0.500000 0.000000
O O11 0.418341 0.652307 0.320595
O O12 0.190400 0.378505 0.372832
O O13 0.988911 0.571963 0.376391
O O14 0.613066 0.618157 0.214037
O O15 0.000000 0.000000 0.500000
O O16 0.000000 0.000000 0.000000
#
# Coordination Sequence:
#
# PCOD8022370 Si02
#       7
#     2   2   2   2   2   2   2
#     4  10  26  45  72 100 144 183 228 301 355 409
#     4  11  26  43  65 100 143 187 228 285 363 412
#     4  10  22  45  73 106 138 179 235 291 356 413
#     4  12  26  44  71 103 145 183 238 290 345 418
#     4  11  24  44  65  96 139 193 235 276 349 422
#     4  11  27  43  68 105 140 183 242 286 349 420
#     4  11  26  44  75 109 132 184 246 291 343 419
#
# _framework density 24.293419
#
# number of rings (size 3 to 8) (size 9 to 14) (size 15 to 20)
#    0.000    1.143    1.429    3.000   14.000    1.143 
#    0.000    3.571    0.000    0.000    0.000    0.000 
#    0.000    0.000    0.000    0.000    0.000    0.000 
#
# Total GULP energy -173561.757993 kJ/mol
# GULP energy per Si atom -12397.268428 kJ/mol
# Density = 2.423813 g / cm^3
# Si number density = 24.293419 Si / 1000 Ang^3
#
#
#
# Elastic Constant Matrix: (Units=GPa)
#
#
# Indices 1 2 3 4 5 6 
#
# 1 113.1879 -1.4688 23.4829 -11.5276 13.6074 21.3718
# 2 -1.4688 48.6254 15.1016 -19.0633 4.7922 8.6594
# 3 23.4829 15.1016 116.5893 -17.6777 23.1524 8.7449
# 4 -11.5276 -19.0633 -17.6777 36.6405 2.2082 -2.7827
# 5 13.6074 4.7922 23.1524 2.2082 52.9196 -9.3996
# 6 21.3718 8.6594 8.7449 -2.7827 -9.3996 42.9760
#
#
#
# Elastic Compliance Matrix: (Units=1/GPa)
#
#
# Indices 1 2 3 4 5 6 
#
# 1 0.011442 0.004319 -0.000632 0.005277 -0.004535 -0.007082
# 2 0.004319 0.029120 -0.000487 0.015999 -0.005644 -0.008115
# 3 -0.000632 -0.000487 0.010714 0.004831 -0.005141 -0.002579
# 4 0.005277 0.015999 0.004831 0.039616 -0.007626 -0.005934
# 5 -0.004535 -0.005644 -0.005141 -0.007626 0.024805 0.009370
# 6 -0.007082 -0.008115 -0.002579 -0.005934 0.009370 0.030615
#
#
# Mechanical properties :
#
#
# Convention : Reuss Voigt Hill
#
# Bulk Modulus (GPa) = 17.33806 39.18157 28.25982
# Shear Modulus (GPa) = 31.41917 42.59303 37.00610
#
# Velocity S-wave (km/s) = 3.60018 4.19175 3.90718
# Velocity P-wave (km/s) = 4.94309 6.29216 5.65797
#
# Compressibility (1/GPa) = 0.05767656
#
# Stress axis : x y z
#
# Youngs Moduli (GPa) = 87.39870 34.34017 93.33346
#
# Poissons Ratio (x) = -0.14831 0.05900
# Poissons Ratio (y) = -0.37747 0.04543
# Poissons Ratio (z) = 0.05525 0.01671
#
# Static dielectric constant tensor:
#      x y z
#    x 4.448640 0.582120 0.363420 
#    y 0.582120 4.163990 -0.826380 
#    z 0.363420 -0.826380 4.480450 
# 
# 
# High freq. dielectric constant tensor:
#      x y z
#    x 1.984880 0.010960 0.002050 
#    y 0.010960 1.956800 -0.017450 
#    z 0.002050 -0.017450 1.970650 
# 
# From -- ./inp_files/615409.got.cif
#   From: 2010.06.25/outbox.cif.g09.slc.cpg/sg2_308_cif.got.tgz:615409.got - 2010.06.27 13:26:56.
