data_PCOD8022452
_publ_section_title
;
Structure prediction by ZEFSAII (Michael W. Deem and Ramdas Pophale) SiO2 
 PCOD8022452
Probable space group: P -1
;
_chemical_formula_sum "Si O2"
_cell_formula_units_Z 16
_cell_length_a 22.233483
_cell_length_b 27.740110
_cell_length_c 11.746848
_cell_angle_alpha 31.949404
_cell_angle_beta 31.789666
_cell_angle_gamma 11.411858
_cell_volume 746.953293
_symmetry_space_group_name_H-M "P -1"
_symmetry_group_IT_number 2
_symmetry_cell_setting 'triclinic'
loop_
_space_group_symop_operation_xyz
x,y,z
-x,-y,-z
loop_
_atom_site_type_symbol
_atom_site_label
_atom_site_fract_x
_atom_site_fract_y
_atom_site_fract_z
Si Si1 0.460559 0.763006 0.925435
Si Si2 0.301602 0.564842 0.641203
Si Si3 0.290959 0.972777 0.202082
Si Si4 0.171115 0.697061 0.138370
Si Si5 0.258203 0.516300 0.577865
Si Si6 0.311542 0.221352 0.527055
Si Si7 0.047575 0.679855 0.145187
Si Si8 0.634767 0.890177 0.877552
O O1 0.499198 0.844512 0.719344
O O2 0.639376 0.595767 0.860326
O O3 0.588751 0.613136 0.127228
O O4 0.088023 0.030575 0.981432
O O5 0.500000 0.500000 0.500000
O O6 0.343035 0.528776 0.511280
O O7 0.941104 0.849461 0.674187
O O8 0.430461 0.768937 0.379812
O O9 0.570765 0.835800 0.045121
O O10 0.089862 0.141625 0.074840
O O11 0.133397 0.659588 0.381558
O O12 0.137189 0.658696 0.160474
O O13 0.500000 0.500000 0.000000
O O14 0.999909 0.638527 0.796943
O O15 0.000000 0.500000 0.500000
O O16 0.220490 0.197910 0.649851
O O17 0.476683 0.077352 0.669434
O O18 0.500000 0.000000 0.000000
#
# Coordination Sequence:
#
# PCOD8022452 Si02
#       8
#     2   2   2   2   2   2   2   2
#     4  10  22  46  68  95 129 175 225 271 331 394
#     4  11  26  45  72  94 130 185 228 272 330 400
#     4  10  23  44  69  99 133 176 220 270 334 400
#     4  12  28  43  64  99 138 176 221 274 328 391
#     4  12  26  44  67 102 135 171 222 281 338 393
#     4   9  19  39  68  96 127 170 218 264 328 399
#     4   9  22  44  67  94 129 177 219 266 325 399
#     4  11  21  42  68 102 140 167 218 279 339 396
#
# _framework density 21.420349000000002
#
# number of rings (size 3 to 8) (size 9 to 14) (size 15 to 20)
#    0.000    1.500    2.500    1.875    5.250    4.500 
#    2.250    0.000    0.000    0.000    0.000    0.000 
#    0.000    0.000    0.000    0.000    0.000    0.000 
#
# Total GULP energy -198388.657455 kJ/mol
# GULP energy per Si atom -12399.291091 kJ/mol
# Density = 2.137160 g / cm^3
# Si number density = 21.420349 Si / 1000 Ang^3
#
#
#
# Elastic Constant Matrix: (Units=GPa)
#
#
# Indices 1 2 3 4 5 6 
#
# 1 153.1511 37.4826 38.8614 -7.2418 9.5129 -4.7342
# 2 37.4826 133.6293 20.5623 -5.6695 -1.7916 5.4580
# 3 38.8614 20.5623 66.1149 0.8473 5.5383 1.9624
# 4 -7.2418 -5.6695 0.8473 33.1332 -2.7415 -6.8788
# 5 9.5129 -1.7916 5.5383 -2.7415 25.4037 4.5153
# 6 -4.7342 5.4580 1.9624 -6.8788 4.5153 27.2214
#
#
#
# Elastic Compliance Matrix: (Units=1/GPa)
#
#
# Indices 1 2 3 4 5 6 
#
# 1 0.008410 -0.001774 -0.004287 0.002065 -0.002667 0.003092
# 2 -0.001774 0.008386 -0.001691 0.000847 0.002071 -0.001998
# 3 -0.004287 -0.001691 0.018462 -0.002298 -0.002447 -0.001912
# 4 0.002065 0.000847 -0.002298 0.032715 0.001840 0.008317
# 5 -0.002667 0.002071 -0.002447 0.001840 0.042537 -0.007293
# 6 0.003092 -0.001998 -0.001912 0.008317 -0.007293 0.041123
#
#
# Mechanical properties :
#
#
# Convention : Reuss Voigt Hill
#
# Bulk Modulus (GPa) = 50.61690 60.74532 55.68111
# Shear Modulus (GPa) = 28.78169 34.21762 31.49966
#
# Velocity S-wave (km/s) = 3.66958 4.00113 3.83893
# Velocity P-wave (km/s) = 6.45259 7.05448 6.76024
#
# Compressibility (1/GPa) = 0.01975625
#
# Stress axis : x y z
#
# Youngs Moduli (GPa) = 118.90333 119.24090 54.16600
#
# Poissons Ratio (x) = 0.21151 0.23219
# Poissons Ratio (y) = 0.21091 0.09158
# Poissons Ratio (z) = 0.50969 0.20159
#
# Static dielectric constant tensor:
#      x y z
#    x 3.771390 -0.178440 -0.163460 
#    y -0.178440 4.269280 0.258860 
#    z -0.163460 0.258860 4.096410 
# 
# 
# High freq. dielectric constant tensor:
#      x y z
#    x 1.832260 -0.002720 -0.000990 
#    y -0.002720 1.853780 0.001830 
#    z -0.000990 0.001830 1.837830 
# 
# From -- ./inp_files/405449.got.cif
#   From: 2010.06.25/outbox.cif.g09.slc.cpg/sg2_203_cif.got.tgz:405449.got - 2010.06.27 13:26:56.
