data_PCOD8022667
_publ_section_title
;
Structure prediction by ZEFSAII (Michael W. Deem and Ramdas Pophale) SiO2 
 PCOD8022667
Probable space group: P -1
;
_chemical_formula_sum "Si O2"
_cell_formula_units_Z 16
_cell_length_a 9.061613
_cell_length_b 5.135871
_cell_length_c 20.907368
_cell_angle_alpha 58.681401
_cell_angle_beta 55.104296
_cell_angle_gamma 73.431809
_cell_volume 681.671931
_symmetry_space_group_name_H-M "P -1"
_symmetry_group_IT_number 2
_symmetry_cell_setting 'triclinic'
loop_
_space_group_symop_operation_xyz
x,y,z
-x,-y,-z
loop_
_atom_site_type_symbol
_atom_site_label
_atom_site_fract_x
_atom_site_fract_y
_atom_site_fract_z
Si Si1 0.497572 0.286584 0.830534
Si Si2 0.709658 0.751420 0.789245
Si Si3 0.409279 0.456174 0.355043
Si Si4 0.237606 0.883516 0.510862
Si Si5 0.092121 0.325125 0.942581
Si Si6 0.919238 0.260420 0.230697
Si Si7 0.712698 0.626652 0.340314
Si Si8 0.884872 0.136868 0.596153
O O1 0.627730 0.414531 0.838821
O O2 0.492951 0.516496 0.741234
O O3 0.301046 0.266743 0.912481
O O4 0.557114 0.957687 0.832829
O O5 0.877052 0.769170 0.792714
O O6 0.764673 0.861949 0.690189
O O7 0.511469 0.671891 0.355530
O O8 0.198534 0.560973 0.387700
O O9 0.410022 0.106092 0.425123
O O10 0.299524 0.565589 0.566414
O O11 0.135947 0.804436 0.481000
O O12 0.093945 0.065359 0.568644
O O13 0.069454 0.526483 0.860187
O O14 0.000000 0.500000 0.000000
O O15 0.000000 0.000000 0.000000
O O16 0.801223 0.408237 0.294902
O O17 0.829961 0.932693 0.278379
#
# Coordination Sequence:
#
# PCOD8022667 Si02
#       8
#     2   2   2   2   2   2   2   2
#     4  11  24  44  76 107 138 187 239 285 357 421
#     4  11  23  45  72 103 146 193 235 287 343 420
#     4  11  24  41  67  98 145 190 249 300 338 412
#     4  11  23  41  61 101 143 198 247 294 338 397
#     4  12  27  51  82 110 140 177 228 294 368 447
#     4  12  27  49  72 108 143 187 229 295 367 426
#     4  12  27  42  70  98 152 189 241 294 350 408
#     4  10  23  37  65  94 144 192 252 282 345 385
#
# _framework density 23.471700999999999
#
# number of rings (size 3 to 8) (size 9 to 14) (size 15 to 20)
#    0.000    0.750    3.750    3.000    7.000    1.500 
#    0.000    3.750    0.000    0.000    0.000    0.000 
#    0.000    0.000    0.000    0.000    0.000    0.000 
#
# Total GULP energy -198330.830819 kJ/mol
# GULP energy per Si atom -12395.676926 kJ/mol
# Density = 2.341828 g / cm^3
# Si number density = 23.471701 Si / 1000 Ang^3
#
#
#
# Elastic Constant Matrix: (Units=GPa)
#
#
# Indices 1 2 3 4 5 6 
#
# 1 81.0955 38.4533 27.1086 -15.9750 -9.2811 6.8740
# 2 38.4533 -30.6271 -26.4612 -12.6031 -15.7076 15.5311
# 3 27.1086 -26.4612 46.3665 -9.5279 -15.0578 -1.8869
# 4 -15.9750 -12.6031 -9.5279 49.3037 -2.3224 -10.8260
# 5 -9.2811 -15.7076 -15.0578 -2.3224 34.4656 -5.0396
# 6 6.8740 15.5311 -1.8869 -10.8260 -5.0396 38.0870
#
#
#
# Elastic Compliance Matrix: (Units=1/GPa)
#
#
# Indices 1 2 3 4 5 6 
#
# 1 0.010892 0.006765 0.000458 0.005106 0.006205 -0.002429
# 2 0.006765 -0.008777 -0.011997 -0.002733 -0.007607 -0.000019
# 3 0.000458 -0.011997 0.015932 0.001700 0.002672 0.006435
# 4 0.005106 -0.002733 0.001700 0.023354 0.003525 0.007382
# 5 0.006205 -0.007607 0.002672 0.003525 0.029653 0.007040
# 6 -0.002429 -0.000019 0.006435 0.007382 0.007040 0.030051
#
#
# Mechanical properties :
#
#
# Convention : Reuss Voigt Hill
#
# Bulk Modulus (GPa) = 117.65400 19.44850 68.55125
# Shear Modulus (GPa) = 44.05834 28.22019 36.13927
#
# Velocity S-wave (km/s) = 4.33723 3.47119 3.92815
# Velocity P-wave (km/s) = 8.67853 4.93655 7.05997
#
# Compressibility (1/GPa) = 0.00849950
#
# Stress axis : x y z
#
# Youngs Moduli (GPa) = 91.80814 -113.93613 62.76638
#
# Poissons Ratio (x) = 0.77075 -0.02873
# Poissons Ratio (y) = -0.62106 0.75298
# Poissons Ratio (z) = -0.04203 -1.36685
#
# Static dielectric constant tensor:
#      x y z
#    x 5.199170 -0.032680 -0.351450 
#    y -0.032680 4.221010 0.111890 
#    z -0.351450 0.111890 4.130660 
# 
# 
# High freq. dielectric constant tensor:
#      x y z
#    x 1.929180 -0.003130 -0.013890 
#    y -0.003130 1.936690 0.007170 
#    z -0.013890 0.007170 1.923010 
# 
# From -- ./inp_files/585533.got.cif
#   From: 2010.06.25/outbox.cif.g09.slc.cpg/sg2_293_cif.got.tgz:585533.got - 2010.06.27 13:26:56.
