data_PCOD8022601
_publ_section_title
;
Structure prediction by ZEFSAII (Michael W. Deem and Ramdas Pophale) SiO2 
 PCOD8022601
Probable space group: P -1
;
_chemical_formula_sum "Si O2"
_cell_formula_units_Z 14
_cell_length_a 9.395855
_cell_length_b 5.313409
_cell_length_c 23.455383
_cell_angle_alpha 126.956882
_cell_angle_beta 141.714510
_cell_angle_gamma 49.688729
_cell_volume 542.318497
_symmetry_space_group_name_H-M "P -1"
_symmetry_group_IT_number 2
_symmetry_cell_setting 'triclinic'
loop_
_space_group_symop_operation_xyz
x,y,z
-x,-y,-z
loop_
_atom_site_type_symbol
_atom_site_label
_atom_site_fract_x
_atom_site_fract_y
_atom_site_fract_z
Si Si1 0.104483 0.496163 0.469190
Si Si2 0.235200 0.585997 0.801119
Si Si3 0.609757 0.028590 0.375658
Si Si4 0.521360 0.858242 0.845803
Si Si5 0.739890 0.188389 0.044796
Si Si6 0.236348 0.030168 0.347195
Si Si7 0.214431 0.358066 0.210970
O O1 0.332804 0.626367 0.555986
O O2 0.209106 0.140274 0.420254
O O3 0.000000 0.500000 0.500000
O O4 0.860920 0.743583 0.394047
O O5 0.359214 0.657113 0.792822
O O6 0.245128 0.866384 0.889535
O O7 0.948586 0.662357 0.707052
O O8 0.356977 0.215810 0.815455
O O9 0.510656 0.953499 0.396547
O O10 0.406594 0.061519 0.268209
O O11 0.669318 0.612257 0.809242
O O12 0.714718 0.882193 0.958216
O O13 0.977563 0.266261 0.110447
O O14 0.500000 0.500000 0.000000
O O15 0.149240 0.711280 0.271416
#
# Coordination Sequence:
#
# PCOD8022601 Si02
#       7
#     2   2   2   2   2   2   2
#     4  11  27  50  76 105 147 191 244 317 383 456
#     4  11  24  46  75 108 152 202 253 314 378 440
#     4  11  26  48  73 107 148 189 253 302 388 454
#     4  11  26  44  75 108 156 203 257 314 373 441
#     4  10  22  48  69 108 150 203 252 309 374 441
#     4  12  26  45  75 108 150 195 248 312 380 457
#     4  12  26  45  72 112 148 197 256 310 373 454
#
# _framework density 25.815086999999998
#
# number of rings (size 3 to 8) (size 9 to 14) (size 15 to 20)
#    0.000    0.857    1.429    4.714    6.000    5.714 
#    0.000    4.286    0.000    0.000    0.000    0.000 
#    0.000    0.000    0.000    0.000    0.000    0.000 
#
# Total GULP energy -173583.639177 kJ/mol
# GULP energy per Si atom -12398.831370 kJ/mol
# Density = 2.575633 g / cm^3
# Si number density = 25.815087 Si / 1000 Ang^3
#
#
#
# Elastic Constant Matrix: (Units=GPa)
#
#
# Indices 1 2 3 4 5 6 
#
# 1 142.7182 13.4542 21.3072 -0.6309 2.0805 -12.7903
# 2 13.4542 52.0125 5.6164 13.1087 0.0070 -6.5685
# 3 21.3072 5.6164 74.0155 -3.8440 13.5417 -16.5334
# 4 -0.6309 13.1087 -3.8440 38.7030 -7.9103 -5.4776
# 5 2.0805 0.0070 13.5417 -7.9103 48.5897 8.3517
# 6 -12.7903 -6.5685 -16.5334 -5.4776 8.3517 45.6454
#
#
#
# Elastic Compliance Matrix: (Units=1/GPa)
#
#
# Indices 1 2 3 4 5 6 
#
# 1 0.007552 -0.001793 -0.001713 0.000757 0.000051 0.001319
# 2 -0.001793 0.021901 -0.000967 -0.007553 -0.001163 0.001605
# 3 -0.001713 -0.000967 0.016636 0.001782 -0.005409 0.006610
# 4 0.000757 -0.007553 0.001782 0.029748 0.003862 0.002634
# 5 0.000051 -0.001163 -0.005409 0.003862 0.023745 -0.005993
# 6 0.001319 0.001605 0.006610 0.002634 -0.005993 0.026316
#
#
# Mechanical properties :
#
#
# Convention : Reuss Voigt Hill
#
# Bulk Modulus (GPa) = 26.92278 38.83351 32.87814
# Shear Modulus (GPa) = 33.96175 41.81218 37.88696
#
# Velocity S-wave (km/s) = 3.63102 4.02889 3.83512
# Velocity P-wave (km/s) = 5.29442 6.05956 5.68986
#
# Compressibility (1/GPa) = 0.03714326
#
# Stress axis : x y z
#
# Youngs Moduli (GPa) = 132.40703 45.66023 60.11074
#
# Poissons Ratio (x) = 0.08186 0.10300
# Poissons Ratio (y) = 0.23739 0.05811
# Poissons Ratio (z) = 0.22687 0.04414
#
# Static dielectric constant tensor:
#      x y z
#    x 4.772040 -0.422350 -0.177130 
#    y -0.422350 4.585320 -0.214250 
#    z -0.177130 -0.214250 5.420060 
# 
# 
# High freq. dielectric constant tensor:
#      x y z
#    x 2.040170 -0.015950 -0.002630 
#    y -0.015950 2.018820 -0.008340 
#    z -0.002630 -0.008340 2.049380 
# 
# From -- ./inp_files/605914.got.cif
#   From: 2010.06.25/outbox.cif.g09.slc.cpg/sg2_303_cif.got.tgz:605914.got - 2010.06.27 13:26:56.
