data_PCOD8022678
_publ_section_title
;
Structure prediction by ZEFSAII (Michael W. Deem and Ramdas Pophale) SiO2 
 PCOD8022678
Probable space group: P -1
;
_chemical_formula_sum "Si O2"
_cell_formula_units_Z 16
_cell_length_a 9.404877
_cell_length_b 12.110830
_cell_length_c 14.126356
_cell_angle_alpha 150.582374
_cell_angle_beta 94.388285
_cell_angle_gamma 97.188750
_cell_volume 725.042809
_symmetry_space_group_name_H-M "P -1"
_symmetry_group_IT_number 2
_symmetry_cell_setting 'triclinic'
loop_
_space_group_symop_operation_xyz
x,y,z
-x,-y,-z
loop_
_atom_site_type_symbol
_atom_site_label
_atom_site_fract_x
_atom_site_fract_y
_atom_site_fract_z
Si Si1 0.304747 0.480903 0.771918
Si Si2 0.484465 0.669694 0.211052
Si Si3 0.970311 0.117429 0.493998
Si Si4 0.437167 0.719059 0.763100
Si Si5 0.624277 0.417427 0.539113
Si Si6 0.204429 0.569111 0.261963
Si Si7 0.967070 0.267739 0.893331
Si Si8 0.387647 0.930048 0.250190
O O1 0.376086 0.289521 0.675729
O O2 0.120159 0.368017 0.675783
O O3 0.349953 0.548284 0.716779
O O4 0.377005 0.722004 0.019263
O O5 0.325377 0.558338 0.180649
O O6 0.479794 0.909498 0.335975
O O7 0.500000 0.500000 0.000000
O O8 0.814513 0.170805 0.535496
O O9 0.944802 0.910243 0.259554
O O10 0.000000 0.000000 0.500000
O O11 0.583862 0.653174 0.695594
O O12 0.329840 0.662531 0.620240
O O13 0.500000 0.000000 0.000000
O O14 0.763839 0.499335 0.681938
O O15 0.478935 0.193952 0.408954
O O16 0.035161 0.371236 0.076565
O O17 0.785848 0.098350 0.756178
O O18 0.000000 0.500000 0.000000
#
# Coordination Sequence:
#
# PCOD8022678 Si02
#       8
#     2   2   2   2   2   2   2   2
#     4  11  22  43  70 105 137 185 232 290 351 417
#     4  10  23  37  68 103 144 175 225 283 353 417
#     4  12  25  40  70 100 146 192 226 277 361 429
#     4  11  23  46  72  99 137 179 244 299 348 402
#     4  11  26  42  72 105 133 185 238 296 352 406
#     4  12  25  44  64 105 145 177 238 285 345 424
#     4  12  23  41  63  95 144 193 224 276 349 430
#     4  11  21  41  68 102 143 180 229 285 354 429
#
# _framework density 22.067661000000001
#
# number of rings (size 3 to 8) (size 9 to 14) (size 15 to 20)
#    0.000    0.750    6.250    0.750    3.500    2.500 
#    0.000    0.625    0.000    7.500    0.000    0.000 
#    0.000    0.000    0.000    0.000    0.000    0.000 
#
# Total GULP energy -198288.064196 kJ/mol
# GULP energy per Si atom -12393.004012 kJ/mol
# Density = 2.201743 g / cm^3
# Si number density = 22.067661 Si / 1000 Ang^3
#
#
#
# Elastic Constant Matrix: (Units=GPa)
#
#
# Indices 1 2 3 4 5 6 
#
# 1 95.7596 32.7678 37.9877 -12.4091 -18.6876 -6.9488
# 2 32.7678 147.6070 47.4994 -31.3900 -1.2839 -8.3029
# 3 37.9877 47.4994 101.9840 -11.7383 -6.3541 -13.8582
# 4 -12.4091 -31.3900 -11.7383 37.8837 -3.2931 0.8850
# 5 -18.6876 -1.2839 -6.3541 -3.2931 37.1030 0.3238
# 6 -6.9488 -8.3029 -13.8582 0.8850 0.3238 31.0690
#
#
#
# Elastic Compliance Matrix: (Units=1/GPa)
#
#
# Indices 1 2 3 4 5 6 
#
# 1 0.014122 -0.001141 -0.003827 0.003053 0.006680 0.000990
# 2 -0.001141 0.009450 -0.003156 0.006444 -0.000222 0.000681
# 3 -0.003827 -0.003156 0.013310 0.000176 0.000221 0.004230
# 4 0.003053 0.006444 0.000176 0.033166 0.004721 0.001489
# 5 0.006680 -0.000222 0.000221 0.004721 0.030757 0.001078
# 6 0.000990 0.000681 0.004230 0.001489 0.001078 0.034423
#
#
# Mechanical properties :
#
#
# Convention : Reuss Voigt Hill
#
# Bulk Modulus (GPa) = 48.46193 64.65116 56.55655
# Shear Modulus (GPa) = 31.57484 36.35085 33.96284
#
# Velocity S-wave (km/s) = 3.78672 4.06303 3.92731
# Velocity P-wave (km/s) = 6.41306 7.16738 6.80069
#
# Compressibility (1/GPa) = 0.02063475
#
# Stress axis : x y z
#
# Youngs Moduli (GPa) = 70.80936 105.81666 75.13239
#
# Poissons Ratio (x) = 0.12069 0.28754
# Poissons Ratio (y) = 0.08076 0.23714
# Poissons Ratio (z) = 0.27099 0.33398
#
# Static dielectric constant tensor:
#      x y z
#    x 3.601780 -0.286710 -0.122800 
#    y -0.286710 4.139410 -0.254450 
#    z -0.122800 -0.254450 4.028600 
# 
# 
# High freq. dielectric constant tensor:
#      x y z
#    x 1.859340 -0.008780 -0.023400 
#    y -0.008780 1.857850 -0.018110 
#    z -0.023400 -0.018110 1.885310 
# 
# From -- ./inp_files/501231.got.cif
#   From: 2010.06.25/outbox.cif.g09.slc.cpg/sg2_251_cif.got.tgz:501231.got - 2010.06.27 13:26:56.
