data_PCOD8022097
_publ_section_title
;
Structure prediction by ZEFSAII (Michael W. Deem and Ramdas Pophale) SiO2 
 PCOD8022097
Probable space group: P -1
;
_chemical_formula_sum "Si O2"
_cell_formula_units_Z 14
_cell_length_a 27.535279
_cell_length_b 10.549569
_cell_length_c 11.807842
_cell_angle_alpha 142.689338
_cell_angle_beta 159.340424
_cell_angle_gamma 28.084744
_cell_volume 560.244961
_symmetry_space_group_name_H-M "P -1"
_symmetry_group_IT_number 2
_symmetry_cell_setting 'triclinic'
loop_
_space_group_symop_operation_xyz
x,y,z
-x,-y,-z
loop_
_atom_site_type_symbol
_atom_site_label
_atom_site_fract_x
_atom_site_fract_y
_atom_site_fract_z
Si Si1 0.796844 0.756033 0.244798
Si Si2 0.857173 0.053423 0.421685
Si Si3 0.483327 0.220846 0.469343
Si Si4 0.692108 0.610166 0.558128
Si Si5 0.704164 0.859130 0.364105
Si Si6 0.199625 0.952023 0.093506
Si Si7 0.031116 0.334722 0.800881
O O1 0.769990 0.864780 0.389496
O O2 0.000000 0.500000 0.500000
O O3 0.761137 0.979690 0.239545
O O4 0.679425 0.665717 0.892182
O O5 0.732035 0.380704 0.396255
O O6 0.857806 0.962684 0.230751
O O7 0.072316 0.878845 0.793327
O O8 0.413800 0.364554 0.542643
O O9 0.583761 0.897715 0.462211
O O10 0.623135 0.255612 0.747413
O O11 0.883172 0.526681 0.952169
O O12 0.721739 0.039347 0.612194
O O13 0.822683 0.552118 0.460091
O O14 0.500000 0.000000 0.000000
O O15 0.059457 0.252818 0.937858
#
# Coordination Sequence:
#
# PCOD8022097 Si02
#       7
#     2   2   2   2   2   2   2
#     4  12  25  47  69  98 152 191 231 289 362 423
#     4  12  25  44  77 110 134 193 243 289 356 432
#     4  10  22  46  69 105 148 182 228 309 350 417
#     4  10  22  44  76 103 141 186 242 289 363 415
#     4  12  24  45  73 101 141 196 233 283 362 424
#     4  11  25  45  73 105 141 184 239 297 354 416
#     4  11  23  48  73 104 148 182 237 302 356 419
#
# _framework density 24.989070000000002
#
# number of rings (size 3 to 8) (size 9 to 14) (size 15 to 20)
#    0.000    0.857    5.714    0.857    2.000    1.143 
#    2.571    1.429    0.000    0.000    0.000    0.000 
#    0.000    0.000    0.000    0.000    0.000    0.000 
#
# Total GULP energy -173493.703375 kJ/mol
# GULP energy per Si atom -12392.407384 kJ/mol
# Density = 2.493219 g / cm^3
# Si number density = 24.989070 Si / 1000 Ang^3
#
#
#
# Elastic Constant Matrix: (Units=GPa)
#
#
# Indices 1 2 3 4 5 6 
#
# 1 95.9778 -23.8115 12.9848 -5.8717 16.9962 -15.0658
# 2 -23.8115 48.1279 -14.9045 -2.8781 11.8016 -11.5864
# 3 12.9848 -14.9045 78.6109 -19.8741 17.4006 6.2124
# 4 -5.8717 -2.8781 -19.8741 39.6428 -0.7244 -0.4670
# 5 16.9962 11.8016 17.4006 -0.7244 40.1199 -9.9406
# 6 -15.0658 -11.5864 6.2124 -0.4670 -9.9406 20.5786
#
#
#
# Elastic Compliance Matrix: (Units=1/GPa)
#
#
# Indices 1 2 3 4 5 6 
#
# 1 0.019450 0.017442 0.001992 0.005197 -0.009427 0.019023
# 2 0.017442 0.043858 0.010116 0.010815 -0.018057 0.025932
# 3 0.001992 0.010116 0.020630 0.011052 -0.013945 -0.005559
# 4 0.005197 0.010815 0.011052 0.032195 -0.008848 0.003014
# 5 -0.009427 -0.018057 -0.013945 -0.008848 0.041898 0.007179
# 6 0.019023 0.025932 -0.005559 0.003014 0.007179 0.082336
#
#
# Mechanical properties :
#
#
# Convention : Reuss Voigt Hill
#
# Bulk Modulus (GPa) = 6.99117 19.02825 13.00971
# Shear Modulus (GPa) = 21.83918 36.63146 29.23532
#
# Velocity S-wave (km/s) = 2.95947 3.83286 3.42413
# Velocity P-wave (km/s) = 3.80549 5.21718 4.56621
#
# Compressibility (1/GPa) = 0.14303761
#
# Stress axis : x y z
#
# Youngs Moduli (GPa) = 51.41295 22.80097 48.47315
#
# Poissons Ratio (x) = -0.39770 -0.09654
# Poissons Ratio (y) = -0.89675 -0.49036
# Poissons Ratio (z) = -0.10239 -0.23066
#
# Static dielectric constant tensor:
#      x y z
#    x 4.749100 -0.065880 0.438550 
#    y -0.065880 4.413550 0.129860 
#    z 0.438550 0.129860 5.026390 
# 
# 
# High freq. dielectric constant tensor:
#      x y z
#    x 2.003250 -0.030730 0.008170 
#    y -0.030730 1.959750 -0.007620 
#    z 0.008170 -0.007620 2.012390 
# 
# From -- ./inp_files/433376.got.cif
#   From: 2010.06.25/outbox.cif.g09.slc.cpg/sg2_217_cif.got.tgz:433376.got - 2010.06.27 13:26:56.
