data_PCOD8022768
_publ_section_title
;
Structure prediction by ZEFSAII (Michael W. Deem and Ramdas Pophale) SiO2 
 PCOD8022768
Probable space group: P -1
;
_chemical_formula_sum "Si O2"
_cell_formula_units_Z 14
_cell_length_a 8.914250
_cell_length_b 12.771008
_cell_length_c 9.199484
_cell_angle_alpha 67.215182
_cell_angle_beta 70.021399
_cell_angle_gamma 117.786464
_cell_volume 656.213287
_symmetry_space_group_name_H-M "P -1"
_symmetry_group_IT_number 2
_symmetry_cell_setting 'triclinic'
loop_
_space_group_symop_operation_xyz
x,y,z
-x,-y,-z
loop_
_atom_site_type_symbol
_atom_site_label
_atom_site_fract_x
_atom_site_fract_y
_atom_site_fract_z
Si Si1 0.253245 0.999884 0.553046
Si Si2 0.267236 0.946979 0.248105
Si Si3 0.455174 0.609689 0.471281
Si Si4 0.655436 0.255719 0.793114
Si Si5 0.745939 0.250387 0.257548
Si Si6 0.009923 0.473526 0.786722
Si Si7 0.922242 0.917562 0.226359
O O1 0.496219 0.173690 0.399501
O O2 0.062075 0.980092 0.705324
O O3 0.195361 0.946819 0.433347
O O4 0.254630 0.882724 0.702379
O O5 0.306412 0.830582 0.285083
O O6 0.072714 0.884029 0.234935
O O7 0.483488 0.126886 0.039619
O O8 0.500000 0.500000 0.500000
O O9 0.431837 0.675176 0.297677
O O10 0.228913 0.503065 0.695149
O O11 0.667307 0.760734 0.401711
O O12 0.884084 0.408406 0.710055
O O13 0.894299 0.354670 0.294364
O O14 0.841344 0.354190 0.028065
O O15 0.000000 0.000000 0.000000
#
# Coordination Sequence:
#
# PCOD8022768 Si02
#       7
#     2   2   2   2   2   2   2
#     4  11  23  43  68  99 138 178 229 281 337 403
#     4  11  24  43  72 103 134 180 232 284 336 395
#     4  12  26  42  65 102 138 178 223 279 345 402
#     4  11  24  42  72  99 138 180 231 280 335 408
#     4  10  23  38  70  98 134 179 228 278 337 403
#     4  11  22  43  65 101 137 179 226 279 337 408
#     4  12  26  44  69  98 139 178 232 281 336 407
#
# _framework density 21.334527000000001
#
# number of rings (size 3 to 8) (size 9 to 14) (size 15 to 20)
#    0.000    0.857    4.286    2.571    6.000    1.143 
#    0.000    0.000    0.000    4.286    0.000    0.000 
#    0.000    0.000    0.000    0.000    0.000    0.000 
#
# Total GULP energy -173506.786714 kJ/mol
# GULP energy per Si atom -12393.341908 kJ/mol
# Density = 2.128597 g / cm^3
# Si number density = 21.334527 Si / 1000 Ang^3
#
#
#
# Elastic Constant Matrix: (Units=GPa)
#
#
# Indices 1 2 3 4 5 6 
#
# 1 108.5225 40.8609 26.7197 -6.1048 -1.1674 -2.0912
# 2 40.8609 110.9149 46.9387 5.8224 -1.6041 6.6098
# 3 26.7197 46.9387 87.8052 5.9584 -3.8820 -11.3393
# 4 -6.1048 5.8224 5.9584 32.6688 1.5888 -11.6144
# 5 -1.1674 -1.6041 -3.8820 1.5888 34.6366 -3.1222
# 6 -2.0912 6.6098 -11.3393 -11.6144 -3.1222 43.0799
#
#
#
# Elastic Compliance Matrix: (Units=1/GPa)
#
#
# Indices 1 2 3 4 5 6 
#
# 1 0.011247 -0.003857 -0.001380 0.003667 0.000037 0.001766
# 2 -0.003857 0.013713 -0.006581 -0.003741 -0.000518 -0.005069
# 3 -0.001380 -0.006581 0.016108 -0.000249 0.001939 0.005256
# 4 0.003667 -0.003741 -0.000249 0.035691 -0.000791 0.010252
# 5 0.000037 -0.000518 0.001939 -0.000791 0.029328 0.002504
# 6 0.001766 -0.005069 0.005256 0.010252 0.002504 0.028405
#
#
# Mechanical properties :
#
#
# Convention : Reuss Voigt Hill
#
# Bulk Modulus (GPa) = 57.36138 59.58679 58.47408
# Shear Modulus (GPa) = 30.49953 34.92527 32.71240
#
# Velocity S-wave (km/s) = 3.78509 4.05041 3.92000
# Velocity P-wave (km/s) = 6.78583 7.06150 6.92504
#
# Compressibility (1/GPa) = 0.01743333
#
# Stress axis : x y z
#
# Youngs Moduli (GPa) = 88.91057 72.92592 62.08090
#
# Poissons Ratio (x) = 0.28124 0.08568
# Poissons Ratio (y) = 0.34289 0.40852
# Poissons Ratio (z) = 0.12271 0.47989
#
# Static dielectric constant tensor:
#      x y z
#    x 3.880440 -0.153010 -0.141840 
#    y -0.153010 4.506920 -0.154210 
#    z -0.141840 -0.154210 3.923790 
# 
# 
# High freq. dielectric constant tensor:
#      x y z
#    x 1.826250 0.005070 -0.008140 
#    y 0.005070 1.845720 -0.002510 
#    z -0.008140 -0.002510 1.849910 
# 
# From -- ./inp_files/149317.got.cif
#   From: 2010.06.25/outbox.cif.g09.slc.cpg/sg2_75_cif.got.tgz:149317.got - 2010.06.27 13:26:56.
