data_PCOD8022346
_publ_section_title
;
Structure prediction by ZEFSAII (Michael W. Deem and Ramdas Pophale) SiO2 
 PCOD8022346
Probable space group: P -1
;
_chemical_formula_sum "Si O2"
_cell_formula_units_Z 16
_cell_length_a 8.382902
_cell_length_b 17.142443
_cell_length_c 6.824788
_cell_angle_alpha 103.870187
_cell_angle_beta 125.369909
_cell_angle_gamma 65.394449
_cell_volume 727.111010
_symmetry_space_group_name_H-M "P -1"
_symmetry_group_IT_number 2
_symmetry_cell_setting 'triclinic'
loop_
_space_group_symop_operation_xyz
x,y,z
-x,-y,-z
loop_
_atom_site_type_symbol
_atom_site_label
_atom_site_fract_x
_atom_site_fract_y
_atom_site_fract_z
Si Si1 0.569176 0.260058 0.089559
Si Si2 0.241816 0.646464 0.468626
Si Si3 0.779706 0.488271 0.351344
Si Si4 0.295175 0.898267 0.643010
Si Si5 0.358865 0.090711 0.366343
Si Si6 0.134476 0.076379 0.833433
Si Si7 0.188754 0.213245 0.682027
Si Si8 0.651321 0.369113 0.904520
O O1 0.558836 0.334153 0.287228
O O2 0.700751 0.167755 0.219892
O O3 0.338473 0.266069 0.870286
O O4 0.681204 0.280583 0.987516
O O5 0.246514 0.552937 0.482499
O O6 0.236039 0.655029 0.237471
O O7 0.041408 0.718508 0.464660
O O8 0.596220 0.579766 0.261167
O O9 0.000000 0.500000 0.500000
O O10 0.764678 0.425580 0.129616
O O11 0.503287 0.868501 0.642646
O O12 0.107624 0.906552 0.365755
O O13 0.274934 0.987227 0.783111
O O14 0.249345 0.159483 0.494049
O O15 0.500000 0.000000 0.500000
O O16 0.178906 0.075251 0.096454
O O17 0.206664 0.149348 0.834933
#
# Coordination Sequence:
#
# PCOD8022346 Si02
#       8
#     2   2   2   2   2   2   2   2
#     4  11  24  42  65  96 137 171 222 274 326 397
#     4  11  25  44  65 102 138 173 217 271 329 396
#     4  10  22  45  72 101 134 168 220 263 325 403
#     4  11  23  45  64  93 132 176 223 285 334 391
#     4  12  25  42  68  94 128 180 229 284 336 387
#     4  11  24  44  64  91 131 172 233 279 335 394
#     4  12  25  41  64  99 132 176 229 273 330 396
#     4  10  24  43  70 100 134 175 213 269 330 392
#
# _framework density 22.004892999999999
#
# number of rings (size 3 to 8) (size 9 to 14) (size 15 to 20)
#    0.000    1.000    3.750    2.250    1.750    5.000 
#    0.000    0.000    0.000    0.000    0.000    0.000 
#    0.000    0.000    0.000    0.000    0.000    0.000 
#
# Total GULP energy -198447.677706 kJ/mol
# GULP energy per Si atom -12402.979857 kJ/mol
# Density = 2.195481 g / cm^3
# Si number density = 22.004893 Si / 1000 Ang^3
#
#
#
# Elastic Constant Matrix: (Units=GPa)
#
#
# Indices 1 2 3 4 5 6 
#
# 1 82.2970 33.0694 59.6448 5.2706 10.0545 2.5901
# 2 33.0694 87.3189 40.3940 -12.4808 2.5126 9.7550
# 3 59.6448 40.3940 148.6447 -5.0566 2.2816 -0.2081
# 4 5.2706 -12.4808 -5.0566 33.0461 8.4083 -5.8324
# 5 10.0545 2.5126 2.2816 8.4083 38.5559 1.2182
# 6 2.5901 9.7550 -0.2081 -5.8324 1.2182 40.8319
#
#
#
# Elastic Compliance Matrix: (Units=1/GPa)
#
#
# Indices 1 2 3 4 5 6 
#
# 1 0.019785 -0.004972 -0.006722 -0.005373 -0.003241 -0.000772
# 2 -0.004972 0.015423 -0.001980 0.006091 -0.000841 -0.002484
# 3 -0.006722 -0.001980 0.010014 0.001851 0.000848 0.001189
# 4 -0.005373 0.006091 0.001851 0.036278 -0.007152 0.004291
# 5 -0.003241 -0.000841 0.000848 -0.007152 0.028392 -0.001458
# 6 -0.000772 -0.002484 0.001189 0.004291 -0.001458 0.025796
#
#
# Mechanical properties :
#
#
# Convention : Reuss Voigt Hill
#
# Bulk Modulus (GPa) = 55.94169 64.94188 60.44179
# Shear Modulus (GPa) = 29.58674 34.83027 32.20851
#
# Velocity S-wave (km/s) = 3.67079 3.98281 3.82998
# Velocity P-wave (km/s) = 6.59120 7.12228 6.86188
#
# Compressibility (1/GPa) = 0.01787575
#
# Stress axis : x y z
#
# Youngs Moduli (GPa) = 50.54282 64.83684 99.85754
#
# Poissons Ratio (x) = 0.32236 0.67124
# Poissons Ratio (y) = 0.25130 0.19768
# Poissons Ratio (z) = 0.33975 0.12835
#
# Static dielectric constant tensor:
#      x y z
#    x 3.890900 0.247020 0.071850 
#    y 0.247020 3.985940 -0.133820 
#    z 0.071850 -0.133820 4.152460 
# 
# 
# High freq. dielectric constant tensor:
#      x y z
#    x 1.859810 0.018580 0.008310 
#    y 0.018580 1.864040 -0.009880 
#    z 0.008310 -0.009880 1.883110 
# 
# From -- ./inp_files/48753.got.cif
#   From: 2010.06.25/outbox.cif.g09.slc.cpg/sg2_25_cif.got.tgz:48753.got - 2010.06.27 13:26:56.
