data_PCOD8022564
_publ_section_title
;
Structure prediction by ZEFSAII (Michael W. Deem and Ramdas Pophale) SiO2 
 PCOD8022564
Probable space group: P -1
;
_chemical_formula_sum "Si O2"
_cell_formula_units_Z 14
_cell_length_a 12.895650
_cell_length_b 8.294650
_cell_length_c 8.364368
_cell_angle_alpha 124.345308
_cell_angle_beta 60.031497
_cell_angle_gamma 118.499823
_cell_volume 615.615054
_symmetry_space_group_name_H-M "P -1"
_symmetry_group_IT_number 2
_symmetry_cell_setting 'triclinic'
loop_
_space_group_symop_operation_xyz
x,y,z
-x,-y,-z
loop_
_atom_site_type_symbol
_atom_site_label
_atom_site_fract_x
_atom_site_fract_y
_atom_site_fract_z
Si Si1 0.866625 0.617082 0.795184
Si Si2 0.140403 0.078523 0.495965
Si Si3 0.239628 0.454434 0.833174
Si Si4 0.141500 0.777252 0.602227
Si Si5 0.658399 0.164470 0.255952
Si Si6 0.318928 0.206959 0.137035
Si Si7 0.503828 0.582038 0.366438
O O1 0.849586 0.443955 0.578389
O O2 0.772596 0.748250 0.900605
O O3 0.004577 0.766911 0.766171
O O4 0.842687 0.521587 0.937511
O O5 0.154838 0.297475 0.686708
O O6 0.239148 0.101476 0.290872
O O7 0.174688 0.927644 0.511545
O O8 0.000000 0.000000 0.500000
O O9 0.288497 0.667536 0.826095
O O10 0.352148 0.367504 0.767085
O O11 0.234642 0.856532 0.718910
O O12 0.547689 0.218247 0.473787
O O13 0.610178 0.948810 0.081314
O O14 0.421449 0.413366 0.218056
O O15 0.500000 0.500000 0.500000
#
# Coordination Sequence:
#
# PCOD8022564 Si02
#       7
#     2   2   2   2   2   2   2
#     4  11  24  43  67 101 133 183 219 284 335 401
#     4  12  24  42  68 102 132 181 220 278 333 408
#     4  11  25  45  69  98 141 175 229 275 342 393
#     4  11  24  43  67  98 144 169 231 276 336 402
#     4  11  24  44  71 102 133 183 221 282 334 400
#     4  12  23  45  72  99 137 177 229 273 344 392
#     4  10  22  47  69  96 140 175 228 281 324 405
#
# _framework density 22.741482999999999
#
# number of rings (size 3 to 8) (size 9 to 14) (size 15 to 20)
#    0.000    0.857    5.714    1.714    4.000    4.571 
#    2.571    1.429    0.000    0.000    0.000    0.000 
#    0.000    0.000    0.000    0.000    0.000    0.000 
#
# Total GULP energy -173632.490443 kJ/mol
# GULP energy per Si atom -12402.320746 kJ/mol
# Density = 2.268972 g / cm^3
# Si number density = 22.741483 Si / 1000 Ang^3
#
#
#
# Elastic Constant Matrix: (Units=GPa)
#
#
# Indices 1 2 3 4 5 6 
#
# 1 108.6613 15.1078 37.3540 9.7112 5.6415 0.0327
# 2 15.1078 47.1933 26.0940 0.4581 -3.7287 -13.0814
# 3 37.3540 26.0940 125.7617 21.4205 4.7608 8.1032
# 4 9.7112 0.4581 21.4205 42.6138 -8.1256 5.4573
# 5 5.6415 -3.7287 4.7608 -8.1256 21.0951 -0.3352
# 6 0.0327 -13.0814 8.1032 5.4573 -0.3352 39.1093
#
#
#
# Elastic Compliance Matrix: (Units=1/GPa)
#
#
# Indices 1 2 3 4 5 6 
#
# 1 0.010659 -0.002526 -0.002159 -0.001977 -0.003574 -0.000161
# 2 -0.002526 0.029700 -0.007196 0.004261 0.009364 0.010913
# 3 -0.002159 -0.007196 0.011542 -0.005781 -0.005590 -0.004038
# 4 -0.001977 0.004261 -0.005781 0.029620 0.013974 -0.001388
# 5 -0.003574 0.009364 -0.005590 0.013974 0.056704 0.002829
# 6 -0.000161 0.010913 -0.004038 -0.001388 0.002829 0.030274
#
#
# Mechanical properties :
#
#
# Convention : Reuss Voigt Hill
#
# Bulk Modulus (GPa) = 35.53739 48.74753 42.14246
# Shear Modulus (GPa) = 24.79651 34.10101 29.44876
#
# Velocity S-wave (km/s) = 3.30565 3.87655 3.60243
# Velocity P-wave (km/s) = 5.49821 6.44351 5.98954
#
# Compressibility (1/GPa) = 0.02813938
#
# Stress axis : x y z
#
# Youngs Moduli (GPa) = 93.81992 33.67000 86.63710
#
# Poissons Ratio (x) = 0.08505 0.18707
# Poissons Ratio (y) = 0.23700 0.62340
# Poissons Ratio (z) = 0.20258 0.24227
#
# Static dielectric constant tensor:
#      x y z
#    x 4.189940 -0.011370 -0.110580 
#    y -0.011370 3.956010 0.028940 
#    z -0.110580 0.028940 4.279500 
# 
# 
# High freq. dielectric constant tensor:
#      x y z
#    x 1.902420 -0.003230 0.005690 
#    y -0.003230 1.891910 0.000730 
#    z 0.005690 0.000730 1.906150 
# 
# From -- ./inp_files/171038.got.cif
#   From: 2010.06.25/outbox.cif.g09.slc.cpg/sg2_86_cif.got.tgz:171038.got - 2010.06.27 13:26:56.
