data_PCOD8022919
_publ_section_title
;
Structure prediction by ZEFSAII (Michael W. Deem and Ramdas Pophale) SiO2 
 PCOD8022919
Probable space group: P -1
;
_chemical_formula_sum "Si O2"
_cell_formula_units_Z 12
_cell_length_a 4.909594
_cell_length_b 19.110230
_cell_length_c 5.445830
_cell_angle_alpha 88.181529
_cell_angle_beta 88.391083
_cell_angle_gamma 79.120964
_cell_volume 501.384154
_symmetry_space_group_name_H-M "P -1"
_symmetry_group_IT_number 2
_symmetry_cell_setting 'triclinic'
loop_
_space_group_symop_operation_xyz
x,y,z
-x,-y,-z
loop_
_atom_site_type_symbol
_atom_site_label
_atom_site_fract_x
_atom_site_fract_y
_atom_site_fract_z
Si Si1 0.976531 0.421692 0.931538
Si Si2 0.452219 0.646261 0.255683
Si Si3 0.371018 0.920752 0.928020
Si Si4 0.193027 0.693316 0.767194
Si Si5 0.079994 0.054271 0.682523
Si Si6 0.925201 0.849474 0.729450
O O1 0.963370 0.373890 0.183771
O O2 0.223801 0.384610 0.753611
O O3 0.296248 0.578836 0.227840
O O4 0.000000 0.500000 0.000000
O O5 0.369035 0.699223 0.015072
O O6 0.378575 0.683921 0.516218
O O7 0.698631 0.883994 0.939475
O O8 0.220567 0.874493 0.746485
O O9 0.323769 0.006080 0.848351
O O10 0.205706 0.912268 0.180297
O O11 0.962139 0.764584 0.738025
O O12 0.198113 0.117614 0.533481
O O13 0.000000 0.000000 0.500000
#
# Coordination Sequence:
#
# PCOD8022919 Si02
#       6
#     2   2   2   2   2   2
#     4  10  24  44  69  98 132 172 215 264 318 381
#     4  10  25  43  67  95 134 168 217 263 319 382
#     4  10  23  40  60  87 120 158 208 256 315 375
#     4  10  27  42  67  97 133 170 217 263 323 381
#     4   9  21  40  60  88 118 159 204 259 314 372
#     4  11  24  38  63  87 121 162 205 258 313 373
#
# _framework density 23.933741999999999
#
# number of rings (size 3 to 8) (size 9 to 14) (size 15 to 20)
#    1.000    1.000    0.000    1.000    7.000   10.000 
#    0.000    0.000    0.000    0.000    0.000    0.000 
#    0.000    0.000    0.000    0.000    0.000    0.000 
#
# Total GULP energy -148673.335108 kJ/mol
# GULP energy per Si atom -12389.444592 kJ/mol
# Density = 2.387927 g / cm^3
# Si number density = 23.933742 Si / 1000 Ang^3
#
#
#
# Elastic Constant Matrix: (Units=GPa)
#
#
# Indices 1 2 3 4 5 6 
#
# 1 61.8909 8.4216 4.3918 -10.3824 -23.1322 -17.1723
# 2 8.4216 143.6824 46.4940 -13.4893 -19.9510 -9.6982
# 3 4.3918 46.4940 142.6550 2.0093 -25.4015 -14.9601
# 4 -10.3824 -13.4893 2.0093 27.9255 -6.8457 -9.9142
# 5 -23.1322 -19.9510 -25.4015 -6.8457 34.0059 11.1799
# 6 -17.1723 -9.6982 -14.9601 -9.9142 11.1799 26.5806
#
#
#
# Elastic Compliance Matrix: (Units=1/GPa)
#
#
# Indices 1 2 3 4 5 6 
#
# 1 0.044044 0.006422 0.005776 0.039746 0.034787 0.034242
# 2 0.006422 0.009918 -0.001137 0.012306 0.009241 0.007831
# 3 0.005776 -0.001137 0.009486 0.005616 0.009219 0.006873
# 4 0.039746 0.012306 0.005616 0.082690 0.039457 0.047575
# 5 0.034787 0.009241 0.009219 0.039457 0.067632 0.017305
# 6 0.034242 0.007831 0.006873 0.047575 0.017305 0.076935
#
#
# Mechanical properties :
#
#
# Convention : Reuss Voigt Hill
#
# Bulk Modulus (GPa) = 11.68612 51.87145 31.77878
# Shear Modulus (GPa) = 16.82903 36.96380 26.89642
#
# Velocity S-wave (km/s) = 2.65458 3.93418 3.35593
# Velocity P-wave (km/s) = 3.78008 6.50822 5.32193
#
# Compressibility (1/GPa) = 0.08557163
#
# Stress axis : x y z
#
# Youngs Moduli (GPa) = 22.70462 100.82285 105.42082
#
# Poissons Ratio (x) = -0.64753 -0.60893
# Poissons Ratio (y) = -0.14582 0.11985
# Poissons Ratio (z) = -0.13115 0.11462
#
# Static dielectric constant tensor:
#      x y z
#    x 3.197800 0.587900 -1.442260 
#    y 0.587900 3.701610 0.723940 
#    z -1.442260 0.723940 2.369700 
# 
# 
# High freq. dielectric constant tensor:
#      x y z
#    x 1.943850 -0.001150 -0.007440 
#    y -0.001150 1.927470 0.004980 
#    z -0.007440 0.004980 1.957550 
# 
# From -- ./inp_files/6694.got.cif
#   From: 2010.06.25/outbox.cif.g09.slc.cpg/sg2_4_cif.got.tgz:6694.got - 2010.06.27 13:26:56.
