data_PCOD8022003
_publ_section_title
;
Structure prediction by ZEFSAII (Michael W. Deem and Ramdas Pophale) SiO2 
 PCOD8022003
Probable space group: P -1
;
_chemical_formula_sum "Si O2"
_cell_formula_units_Z 12
_cell_length_a 4.936884
_cell_length_b 15.869240
_cell_length_c 6.914083
_cell_angle_alpha 109.849162
_cell_angle_beta 76.006035
_cell_angle_gamma 108.247774
_cell_volume 478.278530
_symmetry_space_group_name_H-M "P -1"
_symmetry_group_IT_number 2
_symmetry_cell_setting 'triclinic'
loop_
_space_group_symop_operation_xyz
x,y,z
-x,-y,-z
loop_
_atom_site_type_symbol
_atom_site_label
_atom_site_fract_x
_atom_site_fract_y
_atom_site_fract_z
Si Si1 0.276209 0.538423 0.697874
Si Si2 0.053915 0.845037 0.582861
Si Si3 0.886013 0.704246 0.205021
Si Si4 0.293957 0.584966 0.162816
Si Si5 0.532736 0.911016 0.813275
Si Si6 0.864020 0.274901 0.205522
O O1 0.500000 0.500000 0.500000
O O2 0.936572 0.480484 0.702043
O O3 0.362750 0.534063 0.911019
O O4 0.282574 0.639541 0.692768
O O5 0.955824 0.809514 0.357161
O O6 0.866658 0.914577 0.737193
O O7 0.381459 0.903263 0.618026
O O8 0.997106 0.745580 0.630528
O O9 0.583532 0.635159 0.271002
O O10 0.160468 0.666659 0.177348
O O11 0.872730 0.709222 0.979110
O O12 0.378960 0.818165 0.886249
O O13 0.500000 0.000000 0.000000
#
# Coordination Sequence:
#
# PCOD8022003 Si02
#       6
#     2   2   2   2   2   2
#     4  10  23  45  68  99 140 189 234 283 340 403
#     4  10  23  42  70  97 133 179 222 277 349 405
#     4  11  23  45  65  97 140 182 223 284 336 402
#     4  10  25  42  65  97 141 180 236 287 328 397
#     4  10  22  44  72 101 134 170 224 285 341 415
#     4   9  25  41  71  97 138 181 229 281 343 402
#
# _framework density 25.089981999999999
#
# number of rings (size 3 to 8) (size 9 to 14) (size 15 to 20)
#    1.000    1.000    0.000    1.500    7.000    6.000 
#    0.000    9.167    0.000    0.000    0.000    0.000 
#    0.000    0.000    0.000    0.000    0.000    0.000 
#
# Total GULP energy -148671.159646 kJ/mol
# GULP energy per Si atom -12389.263304 kJ/mol
# Density = 2.503288 g / cm^3
# Si number density = 25.089982 Si / 1000 Ang^3
#
#
#
# Elastic Constant Matrix: (Units=GPa)
#
#
# Indices 1 2 3 4 5 6 
#
# 1 105.0623 15.8933 48.9913 9.4977 -4.7770 12.8784
# 2 15.8933 58.8510 31.9618 17.1054 -16.4101 3.0853
# 3 48.9913 31.9618 142.7990 14.6926 -26.8229 2.0740
# 4 9.4977 17.1054 14.6926 40.9096 7.7304 -0.5654
# 5 -4.7770 -16.4101 -26.8229 7.7304 33.7032 9.9522
# 6 12.8784 3.0853 2.0740 -0.5654 9.9522 34.1280
#
#
#
# Elastic Compliance Matrix: (Units=1/GPa)
#
#
# Indices 1 2 3 4 5 6 
#
# 1 0.012016 -0.000641 -0.003820 -0.001183 -0.000130 -0.004226
# 2 -0.000641 0.027299 -0.000895 -0.014466 0.018075 -0.007682
# 3 -0.003820 -0.000895 0.010686 -0.004314 0.009061 -0.001841
# 4 -0.001183 -0.014466 -0.004314 0.036534 -0.021664 0.008939
# 5 -0.000130 0.018075 0.009061 -0.021664 0.056210 -0.018886
# 6 -0.004226 -0.007682 -0.001841 0.008939 -0.018886 0.037358
#
#
# Mechanical properties :
#
#
# Convention : Reuss Voigt Hill
#
# Bulk Modulus (GPa) = 25.45305 55.60056 40.52680
# Shear Modulus (GPa) = 24.52055 35.73922 30.12988
#
# Velocity S-wave (km/s) = 3.12958 3.77827 3.46912
# Velocity P-wave (km/s) = 4.81931 6.42202 5.67750
#
# Compressibility (1/GPa) = 0.03928803
#
# Stress axis : x y z
#
# Youngs Moduli (GPa) = 83.22576 36.63196 93.57727
#
# Poissons Ratio (x) = 0.02348 0.35747
# Poissons Ratio (y) = 0.05335 0.08376
# Poissons Ratio (z) = 0.31793 0.03279
#
# Static dielectric constant tensor:
#      x y z
#    x 4.430660 -0.008280 0.011690 
#    y -0.008280 4.254280 -0.089640 
#    z 0.011690 -0.089640 4.554590 
# 
# 
# High freq. dielectric constant tensor:
#      x y z
#    x 2.008280 -0.000830 -0.006850 
#    y -0.000830 1.969130 0.013130 
#    z -0.006850 0.013130 2.002760 
# 
# From -- ./inp_files/139485.got.cif
#   From: 2010.06.25/outbox.cif.g09.slc.cpg/sg2_70_cif.got.tgz:139485.got - 2010.06.27 13:26:56.
