data_PCOD8022875
_publ_section_title
;
Structure prediction by ZEFSAII (Michael W. Deem and Ramdas Pophale) SiO2 
 PCOD8022875
Probable space group: P -1
;
_chemical_formula_sum "Si O2"
_cell_formula_units_Z 14
_cell_length_a 8.943680
_cell_length_b 11.447005
_cell_length_c 8.993071
_cell_angle_alpha 96.397592
_cell_angle_beta 128.675868
_cell_angle_gamma 61.012817
_cell_volume 603.533859
_symmetry_space_group_name_H-M "P -1"
_symmetry_group_IT_number 2
_symmetry_cell_setting 'triclinic'
loop_
_space_group_symop_operation_xyz
x,y,z
-x,-y,-z
loop_
_atom_site_type_symbol
_atom_site_label
_atom_site_fract_x
_atom_site_fract_y
_atom_site_fract_z
Si Si1 0.795938 0.557032 0.266826
Si Si2 0.028574 0.724933 0.810690
Si Si3 0.082694 0.022870 0.398819
Si Si4 0.450780 0.215821 0.387276
Si Si5 0.630623 0.786656 0.972851
Si Si6 0.749386 0.004930 0.017698
Si Si7 0.363413 0.751836 0.208852
O O1 0.556950 0.629318 0.210704
O O2 0.000000 0.500000 0.500000
O O3 0.817503 0.435071 0.161621
O O4 0.801829 0.668712 0.177382
O O5 0.029315 0.814214 0.683793
O O6 0.771850 0.770450 0.683375
O O7 0.134003 0.753806 0.027955
O O8 0.354342 0.945882 0.547239
O O9 0.000000 0.000000 0.500000
O O10 0.007743 0.955584 0.212055
O O11 0.403129 0.287171 0.203490
O O12 0.550563 0.281691 0.571523
O O13 0.737397 0.869356 0.978600
O O14 0.395071 0.896799 0.919341
O O15 0.668798 0.098609 0.831475
#
# Coordination Sequence:
#
# PCOD8022875 Si02
#       7
#     2   2   2   2   2   2   2
#     4  11  23  47  71  95 137 189 228 268 345 418
#     4  11  26  44  70  99 141 180 226 280 334 413
#     4  11  24  41  68 103 135 180 223 277 344 403
#     4  12  25  42  71 104 139 174 227 289 341 389
#     4  10  23  39  68 100 138 177 227 280 332 405
#     4   9  21  41  65  99 137 177 225 274 332 408
#     4  10  24  44  69 100 133 183 225 277 342 398
#
# _framework density 23.196711000000001
#
# number of rings (size 3 to 8) (size 9 to 14) (size 15 to 20)
#    0.000    1.429    2.857    0.857    8.000    1.714 
#    0.000    0.714    0.000    0.000    0.000    0.000 
#    0.000    0.000    0.000    0.000    0.000    0.000 
#
# Total GULP energy -173532.481385 kJ/mol
# GULP energy per Si atom -12395.177242 kJ/mol
# Density = 2.314391 g / cm^3
# Si number density = 23.196711 Si / 1000 Ang^3
#
#
#
# Elastic Constant Matrix: (Units=GPa)
#
#
# Indices 1 2 3 4 5 6 
#
# 1 68.0838 22.9432 40.9238 -4.3129 3.6623 -8.9158
# 2 22.9432 92.2524 42.8011 -4.0764 -6.7636 9.0288
# 3 40.9238 42.8011 162.6341 2.6470 -7.2902 1.2118
# 4 -4.3129 -4.0764 2.6470 34.9174 -8.1789 0.1929
# 5 3.6623 -6.7636 -7.2902 -8.1789 44.0354 1.2681
# 6 -8.9158 9.0288 1.2118 0.1929 1.2681 19.1988
#
#
#
# Elastic Compliance Matrix: (Units=1/GPa)
#
#
# Indices 1 2 3 4 5 6 
#
# 1 0.020631 -0.004509 -0.004263 0.001533 -0.003180 0.012165
# 2 -0.004509 0.014261 -0.002460 0.001995 0.002784 -0.008849
# 3 -0.004263 -0.002460 0.007948 -0.001146 0.001119 -0.001387
# 4 0.001533 0.001995 -0.001146 0.030482 0.005675 -0.000835
# 5 -0.003180 0.002784 0.001119 0.005675 0.024771 -0.004550
# 6 0.012165 -0.008849 -0.001387 -0.000835 -0.004550 0.062294
#
#
# Mechanical properties :
#
#
# Convention : Reuss Voigt Hill
#
# Bulk Modulus (GPa) = 49.07844 59.58959 54.33402
# Shear Modulus (GPa) = 26.36526 34.05048 30.20787
#
# Velocity S-wave (km/s) = 3.37500 3.83548 3.61258
# Velocity P-wave (km/s) = 6.03249 6.73492 6.39336
#
# Compressibility (1/GPa) = 0.02037555
#
# Stress axis : x y z
#
# Youngs Moduli (GPa) = 48.47126 70.12112 125.81664
#
# Poissons Ratio (x) = 0.31618 0.53633
# Poissons Ratio (y) = 0.21856 0.30954
# Poissons Ratio (z) = 0.20662 0.17252
#
# Static dielectric constant tensor:
#      x y z
#    x 4.168610 -0.171980 0.000170 
#    y -0.171980 4.065900 -0.053790 
#    z 0.000170 -0.053790 4.516720 
# 
# 
# High freq. dielectric constant tensor:
#      x y z
#    x 1.915210 -0.024000 0.001070 
#    y -0.024000 1.892130 0.000150 
#    z 0.001070 0.000150 1.938640 
# 
# From -- ./inp_files/188821.got.cif
#   From: 2010.06.25/outbox.cif.g09.slc.cpg/sg2_95_cif.got.tgz:188821.got - 2010.06.27 13:26:56.
