data_PCOD8022020
_publ_section_title
;
Structure prediction by ZEFSAII (Michael W. Deem and Ramdas Pophale) SiO2 
 PCOD8022020
Probable space group: P -1
;
_chemical_formula_sum "Si O2"
_cell_formula_units_Z 16
_cell_length_a 11.291287
_cell_length_b 11.008495
_cell_length_c 5.343040
_cell_angle_alpha 87.803031
_cell_angle_beta 70.224947
_cell_angle_gamma 75.922346
_cell_volume 605.501396
_symmetry_space_group_name_H-M "P -1"
_symmetry_group_IT_number 2
_symmetry_cell_setting 'triclinic'
loop_
_space_group_symop_operation_xyz
x,y,z
-x,-y,-z
loop_
_atom_site_type_symbol
_atom_site_label
_atom_site_fract_x
_atom_site_fract_y
_atom_site_fract_z
Si Si1 0.258535 0.332839 0.308923
Si Si2 0.532039 0.866846 0.127656
Si Si3 0.859231 0.075499 0.158745
Si Si4 0.125420 0.596713 0.271777
Si Si5 0.768631 0.846140 0.262974
Si Si6 0.018102 0.721412 0.819812
Si Si7 0.517864 0.571673 0.726792
Si Si8 0.683735 0.238682 0.897962
O O1 0.358083 0.239169 0.072757
O O2 0.184027 0.257001 0.548767
O O3 0.339887 0.406839 0.416357
O O4 0.160590 0.445833 0.221611
O O5 0.611888 0.875237 0.325885
O O6 0.401767 0.813769 0.250049
O O7 0.500000 0.000000 0.000000
O O8 0.881612 0.188436 0.309820
O O9 0.786419 0.979158 0.347188
O O10 0.789995 0.122441 0.942047
O O11 0.000000 0.000000 0.000000
O O12 0.250422 0.651112 0.250050
O O13 0.026587 0.634027 0.576184
O O14 0.062790 0.648418 0.050108
O O15 0.865422 0.797693 0.957187
O O16 0.500000 0.500000 0.500000
O O17 0.500000 0.500000 0.000000
O O18 0.412804 0.705470 0.807244
#
# Coordination Sequence:
#
# PCOD8022020 Si02
#       8
#     2   2   2   2   2   2   2   2
#     4  11  28  41  71 108 146 193 240 302 370 439
#     4  11  25  47  69 104 145 195 242 299 369 432
#     4   9  20  45  71 104 137 189 247 302 358 428
#     4  11  25  47  76 111 143 192 244 304 373 435
#     4  11  25  47  71 103 149 194 247 302 367 441
#     4  10  26  47  78 108 144 192 249 306 368 433
#     4  11  25  43  69 103 144 188 237 291 352 431
#     4  10  22  44  72 108 142 189 242 305 362 437
#
# _framework density 26.424382000000001
#
# number of rings (size 3 to 8) (size 9 to 14) (size 15 to 20)
#    0.000    1.500    2.500    0.000   10.500    2.500 
#    4.500    5.625    0.000    0.000    0.000    0.000 
#    0.000    0.000    0.000    0.000    0.000    0.000 
#
# Total GULP energy -198229.497253 kJ/mol
# GULP energy per Si atom -12389.343578 kJ/mol
# Density = 2.636424 g / cm^3
# Si number density = 26.424382 Si / 1000 Ang^3
#
#
#
# Elastic Constant Matrix: (Units=GPa)
#
#
# Indices 1 2 3 4 5 6 
#
# 1 149.1123 42.1282 11.6311 -16.6208 -2.4959 -4.9619
# 2 42.1282 165.0253 29.3683 -24.5181 2.8890 -21.1370
# 3 11.6311 29.3683 73.3590 -9.1417 14.7177 -7.1952
# 4 -16.6208 -24.5181 -9.1417 46.2150 5.1236 -12.9565
# 5 -2.4959 2.8890 14.7177 5.1236 32.5496 -6.8079
# 6 -4.9619 -21.1370 -7.1952 -12.9565 -6.8079 27.6370
#
#
#
# Elastic Compliance Matrix: (Units=1/GPa)
#
#
# Indices 1 2 3 4 5 6 
#
# 1 0.007419 -0.001325 -0.000394 0.002203 0.000821 0.001451
# 2 -0.001325 0.008828 -0.001801 0.006343 0.000861 0.009231
# 3 -0.000394 -0.001801 0.016657 0.003819 -0.007406 0.002854
# 4 0.002203 0.006343 0.003819 0.032723 -0.002908 0.020866
# 5 0.000821 0.000861 -0.007406 -0.002908 0.035842 0.006344
# 6 0.001451 0.009231 0.002854 0.020866 0.006344 0.055592
#
#
# Mechanical properties :
#
#
# Convention : Reuss Voigt Hill
#
# Bulk Modulus (GPa) = 38.66347 61.52798 50.09572
# Shear Modulus (GPa) = 28.94820 41.57159 35.25989
#
# Velocity S-wave (km/s) = 3.31344 3.97070 3.65687
# Velocity P-wave (km/s) = 5.41313 6.66011 6.06873
#
# Compressibility (1/GPa) = 0.02586421
#
# Stress axis : x y z
#
# Youngs Moduli (GPa) = 134.78824 113.27416 60.03561
#
# Poissons Ratio (x) = 0.15010 0.02364
# Poissons Ratio (y) = 0.17860 0.10813
# Poissons Ratio (z) = 0.05307 0.20402
#
# Static dielectric constant tensor:
#      x y z
#    x 5.754420 0.347730 -0.396420 
#    y 0.347730 4.996650 0.124860 
#    z -0.396420 0.124860 4.153770 
# 
# 
# High freq. dielectric constant tensor:
#      x y z
#    x 2.088460 0.005190 -0.019170 
#    y 0.005190 2.081920 0.004460 
#    z -0.019170 0.004460 2.019080 
# 
# From -- ./inp_files/70288.got.cif
#   From: 2010.06.25/outbox.cif.g09.slc.cpg/sg2_36_cif.got.tgz:70288.got - 2010.06.27 13:26:56.
