data_PCOD8022245
_publ_section_title
;
Structure prediction by ZEFSAII (Michael W. Deem and Ramdas Pophale) SiO2 
 PCOD8022245
Probable space group: P -1
;
_chemical_formula_sum "Si O2"
_cell_formula_units_Z 12
_cell_length_a 14.933120
_cell_length_b 6.465670
_cell_length_c 11.571318
_cell_angle_alpha 96.070464
_cell_angle_beta 151.553678
_cell_angle_gamma 72.013015
_cell_volume 471.073957
_symmetry_space_group_name_H-M "P -1"
_symmetry_group_IT_number 2
_symmetry_cell_setting 'triclinic'
loop_
_space_group_symop_operation_xyz
x,y,z
-x,-y,-z
loop_
_atom_site_type_symbol
_atom_site_label
_atom_site_fract_x
_atom_site_fract_y
_atom_site_fract_z
Si Si1 0.788284 0.990145 0.301499
Si Si2 0.426519 0.285164 0.055708
Si Si3 0.922077 0.647332 0.037268
Si Si4 0.085116 0.688211 0.793300
Si Si5 0.669897 0.155373 0.764482
Si Si6 0.674170 0.352892 0.538568
O O1 0.689954 0.882136 0.089403
O O2 0.854105 0.827012 0.482602
O O3 0.000000 0.000000 0.500000
O O4 0.594507 0.233546 0.138979
O O5 0.244523 0.553197 0.859002
O O6 0.537215 0.259138 0.304412
O O7 0.892990 0.502767 0.098778
O O8 0.110343 0.709812 0.289364
O O9 0.000000 0.500000 0.000000
O O10 0.699577 0.887655 0.779860
O O11 0.158479 0.863633 0.945633
O O12 0.736464 0.214910 0.720805
O O13 0.442484 0.364892 0.553850
#
# Coordination Sequence:
#
# PCOD8022245 Si02
#       6
#     2   2   2   2   2   2
#     4  11  26  49  75 102 138 190 241 308 354 418
#     4  10  25  47  71 104 141 180 245 295 358 417
#     4  12  25  40  71 110 146 195 229 286 361 428
#     4  11  25  46  71 105 143 188 241 294 352 433
#     4  10  23  44  66 103 150 182 241 288 355 429
#     4  10  22  45  69 102 146 193 231 299 350 427
#
# _framework density 25.473707999999998
#
# number of rings (size 3 to 8) (size 9 to 14) (size 15 to 20)
#    0.000    1.333    1.667    2.000    7.000    2.667 
#    9.000    0.000    0.000    0.000    0.000    0.000 
#    0.000    0.000    0.000    0.000    0.000    0.000 
#
# Total GULP energy -148699.054697 kJ/mol
# GULP energy per Si atom -12391.587891 kJ/mol
# Density = 2.541573 g / cm^3
# Si number density = 25.473708 Si / 1000 Ang^3
#
#
#
# Elastic Constant Matrix: (Units=GPa)
#
#
# Indices 1 2 3 4 5 6 
#
# 1 88.0780 39.9524 22.7124 -1.0670 16.1657 -10.5062
# 2 39.9524 108.6064 21.0021 -18.0379 -5.9800 -24.1520
# 3 22.7124 21.0021 62.0648 -9.3615 5.7713 -9.0203
# 4 -1.0670 -18.0379 -9.3615 46.4879 2.8907 -4.7422
# 5 16.1657 -5.9800 5.7713 2.8907 38.7093 4.6540
# 6 -10.5062 -24.1520 -9.0203 -4.7422 4.6540 41.6880
#
#
#
# Elastic Compliance Matrix: (Units=1/GPa)
#
#
# Indices 1 2 3 4 5 6 
#
# 1 0.016302 -0.005966 -0.003553 -0.002172 -0.007089 0.000428
# 2 -0.005966 0.014259 -0.001151 0.005625 0.003635 0.006742
# 3 -0.003553 -0.001151 0.019046 0.003774 -0.002204 0.003234
# 4 -0.002172 0.005625 0.003774 0.025163 -0.001454 0.006553
# 5 -0.007089 0.003635 -0.002204 -0.001454 0.030238 -0.003699
# 6 0.000428 0.006742 0.003234 0.006553 -0.003699 0.029860
#
#
# Mechanical properties :
#
#
# Convention : Reuss Voigt Hill
#
# Bulk Modulus (GPa) = 35.37777 47.34255 41.36016
# Shear Modulus (GPa) = 30.18798 37.04918 33.61858
#
# Velocity S-wave (km/s) = 3.44621 3.81781 3.63676
# Velocity P-wave (km/s) = 5.45466 6.16923 5.82292
#
# Compressibility (1/GPa) = 0.02826634
#
# Stress axis : x y z
#
# Youngs Moduli (GPa) = 61.34369 70.13335 52.50351
#
# Poissons Ratio (x) = 0.41839 0.18655
# Poissons Ratio (y) = 0.36595 0.06046
# Poissons Ratio (z) = 0.21796 0.08076
#
# Static dielectric constant tensor:
#      x y z
#    x 4.586740 -0.481810 0.252400 
#    y -0.481810 4.633520 -0.016610 
#    z 0.252400 -0.016610 5.072400 
# 
# 
# High freq. dielectric constant tensor:
#      x y z
#    x 2.004200 -0.031260 0.007170 
#    y -0.031260 2.015780 -0.000390 
#    z 0.007170 -0.000390 2.035340 
# 
# From -- ./inp_files/442022.got.cif
#   From: 2010.06.25/outbox.cif.g09.slc.cpg/sg2_222_cif.got.tgz:442022.got - 2010.06.27 13:26:56.
