data_PCOD8022806
_publ_section_title
;
Structure prediction by ZEFSAII (Michael W. Deem and Ramdas Pophale) SiO2 
 PCOD8022806
Probable space group: P -1
;
_chemical_formula_sum "Si O2"
_cell_formula_units_Z 14
_cell_length_a 16.408980
_cell_length_b 8.859735
_cell_length_c 11.255647
_cell_angle_alpha 85.745699
_cell_angle_beta 132.194809
_cell_angle_gamma 132.517052
_cell_volume 642.155351
_symmetry_space_group_name_H-M "P -1"
_symmetry_group_IT_number 2
_symmetry_cell_setting 'triclinic'
loop_
_space_group_symop_operation_xyz
x,y,z
-x,-y,-z
loop_
_atom_site_type_symbol
_atom_site_label
_atom_site_fract_x
_atom_site_fract_y
_atom_site_fract_z
Si Si1 0.037986 0.031666 0.258378
Si Si2 0.572514 0.975298 0.781436
Si Si3 0.697027 0.829305 0.043374
Si Si4 0.055681 0.385354 0.930934
Si Si5 0.293970 0.176075 0.684166
Si Si6 0.325282 0.555334 0.354219
Si Si7 0.358832 0.024850 0.552552
O O1 0.144305 0.129353 0.484869
O O2 0.222730 0.288848 0.330523
O O3 0.878426 0.985098 0.122519
O O4 0.926788 0.751316 0.118749
O O5 0.403241 0.906909 0.649707
O O6 0.501842 0.837279 0.590450
O O7 0.796845 0.311870 0.992302
O O8 0.577942 0.840883 0.883522
O O9 0.787532 0.963330 0.256414
O O10 0.531449 0.502553 0.906417
O O11 0.130777 0.438155 0.136745
O O12 0.825761 0.184704 0.712988
O O13 0.284702 0.022380 0.597592
O O14 0.442519 0.664285 0.335858
#
# Coordination Sequence:
#
# PCOD8022806 Si02
#       7
#     2   2   2   2   2   2   2
#     4  11  23  42  64  96 123 162 213 252 308 373
#     4  11  24  40  61  98 124 167 203 254 314 368
#     4  11  23  41  68  89 128 161 213 254 311 361
#     4  10  23  39  63  91 130 167 196 256 317 359
#     4  10  23  44  65  92 120 171 205 264 299 366
#     4  11  23  39  65  95 126 164 207 252 309 371
#     4  10  23  42  63  91 132 158 211 251 310 374
#
# _framework density 21.801577999999999
#
# number of rings (size 3 to 8) (size 9 to 14) (size 15 to 20)
#    0.000    1.429    1.429    4.286    4.000    4.000 
#    0.000    2.857    0.000    0.000    0.000    0.000 
#    0.000    0.000    0.000    0.000    0.000    0.000 
#
# Total GULP energy -173477.093629 kJ/mol
# GULP energy per Si atom -12391.220973 kJ/mol
# Density = 2.175196 g / cm^3
# Si number density = 21.801578 Si / 1000 Ang^3
#
#
#
# Elastic Constant Matrix: (Units=GPa)
#
#
# Indices 1 2 3 4 5 6 
#
# 1 82.3511 40.5617 29.9630 -3.5535 8.3995 -4.1642
# 2 40.5617 75.1780 35.5887 -6.8831 3.6152 -8.4757
# 3 29.9630 35.5887 131.4787 -14.6013 11.1152 -4.1564
# 4 -3.5535 -6.8831 -14.6013 48.6868 -6.9259 0.1025
# 5 8.3995 3.6152 11.1152 -6.9259 32.9647 -2.9872
# 6 -4.1642 -8.4757 -4.1564 0.1025 -2.9872 19.3083
#
#
#
# Elastic Compliance Matrix: (Units=1/GPa)
#
#
# Indices 1 2 3 4 5 6 
#
# 1 0.017142 -0.008593 -0.001432 -0.000846 -0.003200 -0.000874
# 2 -0.008593 0.020306 -0.003329 0.001517 0.002006 0.006646
# 3 -0.001432 -0.003329 0.009209 0.001905 -0.001985 -0.000105
# 4 -0.000846 0.001517 0.001905 0.021847 0.004126 0.001415
# 5 -0.003200 0.002006 -0.001985 0.004126 0.032905 0.004832
# 6 -0.000874 0.006646 -0.000105 0.001415 0.004832 0.055238
#
#
# Mechanical properties :
#
#
# Convention : Reuss Voigt Hill
#
# Bulk Modulus (GPa) = 50.12780 55.69275 52.91027
# Shear Modulus (GPa) = 26.31511 32.38491 29.35001
#
# Velocity S-wave (km/s) = 3.47800 3.85832 3.67309
# Velocity P-wave (km/s) = 6.25870 6.74163 6.50465
#
# Compressibility (1/GPa) = 0.01994901
#
# Stress axis : x y z
#
# Youngs Moduli (GPa) = 58.33516 49.24676 108.58752
#
# Poissons Ratio (x) = 0.42320 0.15546
# Poissons Ratio (y) = 0.50130 0.36150
# Poissons Ratio (z) = 0.08352 0.16395
#
# Static dielectric constant tensor:
#      x y z
#    x 3.661250 -0.100530 0.009630 
#    y -0.100530 3.719500 -0.064020 
#    z 0.009630 -0.064020 4.427250 
# 
# 
# High freq. dielectric constant tensor:
#      x y z
#    x 1.833850 -0.011580 0.002000 
#    y -0.011580 1.839230 -0.000320 
#    z 0.002000 -0.000320 1.886670 
# 
# From -- ./inp_files/461272.got.cif
#   From: 2010.06.25/outbox.cif.g09.slc.cpg/sg2_231_cif.got.tgz:461272.got - 2010.06.27 13:26:56.
