data_PCOD8022651
_publ_section_title
;
Structure prediction by ZEFSAII (Michael W. Deem and Ramdas Pophale) SiO2 
 PCOD8022651
Probable space group: P -1
;
_chemical_formula_sum "Si O2"
_cell_formula_units_Z 16
_cell_length_a 12.159015
_cell_length_b 9.327267
_cell_length_c 15.557513
_cell_angle_alpha 84.316700
_cell_angle_beta 25.791725
_cell_angle_gamma 75.904739
_cell_volume 713.706064
_symmetry_space_group_name_H-M "P -1"
_symmetry_group_IT_number 2
_symmetry_cell_setting 'triclinic'
loop_
_space_group_symop_operation_xyz
x,y,z
-x,-y,-z
loop_
_atom_site_type_symbol
_atom_site_label
_atom_site_fract_x
_atom_site_fract_y
_atom_site_fract_z
Si Si1 0.912086 0.965456 0.746503
Si Si2 0.110618 0.203818 0.396842
Si Si3 0.225644 0.483725 0.662364
Si Si4 0.304695 0.714702 0.180325
Si Si5 0.061142 0.203550 0.091032
Si Si6 0.510184 0.154348 0.443411
Si Si7 0.108319 0.465463 0.267598
Si Si8 0.565166 0.976416 0.665761
O O1 0.849270 0.871014 0.873824
O O2 0.832162 0.901999 0.719973
O O3 0.224342 0.950653 0.525046
O O4 0.720988 0.145614 0.875652
O O5 0.109408 0.370704 0.359001
O O6 0.345015 0.121371 0.304839
O O7 0.818997 0.220284 0.642829
O O8 0.500000 0.500000 0.500000
O O9 0.995120 0.610792 0.874770
O O10 0.270548 0.301356 0.647307
O O11 0.143966 0.526935 0.616702
O O12 0.102549 0.632198 0.291361
O O13 0.614016 0.606767 0.978387
O O14 0.795748 0.171607 0.253265
O O15 0.292841 0.124165 0.863784
O O16 0.475353 0.144010 0.366480
O O17 0.500000 0.000000 0.500000
#
# Coordination Sequence:
#
# PCOD8022651 Si02
#       8
#     2   2   2   2   2   2   2   2
#     4  11  22  39  63  95 130 166 205 258 320 376
#     4  11  23  38  65  95 131 162 206 257 323 376
#     4  10  23  41  66  93 127 174 210 267 322 369
#     4  10  23  37  60  96 127 169 208 251 322 381
#     4  11  23  41  69  92 128 169 215 261 321 372
#     4  11  23  45  69  89 127 172 217 266 319 369
#     4  11  22  40  63  89 134 164 208 264 316 382
#     4  11  23  40  69  96 127 167 219 258 311 392
#
# _framework density 22.418192000000001
#
# number of rings (size 3 to 8) (size 9 to 14) (size 15 to 20)
#    0.000    1.250    2.500    4.500    3.500    1.000 
#    0.000    0.625    8.250    0.000    0.000    0.000 
#    0.000    0.000    0.000    0.000    0.000    0.000 
#
# Total GULP energy -198297.843463 kJ/mol
# GULP energy per Si atom -12393.615216 kJ/mol
# Density = 2.236717 g / cm^3
# Si number density = 22.418192 Si / 1000 Ang^3
#
#
#
# Elastic Constant Matrix: (Units=GPa)
#
#
# Indices 1 2 3 4 5 6 
#
# 1 112.3215 26.6041 17.5522 8.3579 -2.1298 10.2871
# 2 26.6041 136.8332 25.3278 29.7388 5.0619 5.6965
# 3 17.5522 25.3278 55.4690 17.0517 -1.8643 -0.9308
# 4 8.3579 29.7388 17.0517 32.3361 0.5235 4.3228
# 5 -2.1298 5.0619 -1.8643 0.5235 21.9497 5.5531
# 6 10.2871 5.6965 -0.9308 4.3228 5.5531 26.4747
#
#
#
# Elastic Compliance Matrix: (Units=1/GPa)
#
#
# Indices 1 2 3 4 5 6 
#
# 1 0.010063 -0.001522 -0.002725 0.000770 0.002154 -0.004256
# 2 -0.001522 0.009640 -0.001666 -0.007581 -0.002381 0.000196
# 3 -0.002725 -0.001666 0.022947 -0.010371 0.001399 0.003624
# 4 0.000770 -0.007581 -0.010371 0.044017 0.001548 -0.006544
# 5 0.002154 -0.002381 0.001399 0.001548 0.049140 -0.010836
# 6 -0.004256 0.000196 0.003624 -0.006544 -0.010836 0.042852
#
#
# Mechanical properties :
#
#
# Convention : Reuss Voigt Hill
#
# Bulk Modulus (GPa) = 32.44255 49.28797 40.86526
# Shear Modulus (GPa) = 24.90531 31.82808 28.36670
#
# Velocity S-wave (km/s) = 3.33670 3.77204 3.56102
# Velocity P-wave (km/s) = 5.41735 6.40347 5.93094
#
# Compressibility (1/GPa) = 0.03082372
#
# Stress axis : x y z
#
# Youngs Moduli (GPa) = 99.37753 103.73291 43.57834
#
# Poissons Ratio (x) = 0.15787 0.11874
# Poissons Ratio (y) = 0.15124 0.07262
# Poissons Ratio (z) = 0.27079 0.17286
#
# Static dielectric constant tensor:
#      x y z
#    x 4.242850 0.077210 0.045950 
#    y 0.077210 4.643990 0.344400 
#    z 0.045950 0.344400 4.074550 
# 
# 
# High freq. dielectric constant tensor:
#      x y z
#    x 1.889260 0.012980 -0.008150 
#    y 0.012980 1.891420 0.028310 
#    z -0.008150 0.028310 1.867660 
# 
# From -- ./inp_files/515606.got.cif
#   From: 2010.06.25/outbox.cif.g09.slc.cpg/sg2_258_cif.got.tgz:515606.got - 2010.06.27 13:26:56.
