data_PCOD8022345
_publ_section_title
;
Structure prediction by ZEFSAII (Michael W. Deem and Ramdas Pophale) SiO2 
 PCOD8022345
Probable space group: P -1
;
_chemical_formula_sum "Si O2"
_cell_formula_units_Z 16
_cell_length_a 14.887127
_cell_length_b 8.992882
_cell_length_c 10.704617
_cell_angle_alpha 71.596795
_cell_angle_beta 78.817972
_cell_angle_gamma 28.654741
_cell_volume 641.106427
_symmetry_space_group_name_H-M "P -1"
_symmetry_group_IT_number 2
_symmetry_cell_setting 'triclinic'
loop_
_space_group_symop_operation_xyz
x,y,z
-x,-y,-z
loop_
_atom_site_type_symbol
_atom_site_label
_atom_site_fract_x
_atom_site_fract_y
_atom_site_fract_z
Si Si1 0.563182 0.584046 0.715986
Si Si2 0.204701 0.271088 0.522985
Si Si3 0.181868 0.298695 0.250910
Si Si4 0.791673 0.391760 0.208821
Si Si5 0.894805 0.231016 0.849819
Si Si6 0.438778 0.771849 0.111775
Si Si7 0.206213 0.625865 0.512015
Si Si8 0.865179 0.641075 0.107949
O O1 0.676218 0.503798 0.817126
O O2 0.557176 0.412249 0.797845
O O3 0.670108 0.447000 0.590704
O O4 0.346830 0.974752 0.661673
O O5 0.291809 0.117707 0.400741
O O6 0.193679 0.471309 0.499464
O O7 0.000000 0.500000 0.500000
O O8 0.096833 0.598391 0.178645
O O9 0.985837 0.484867 0.245625
O O10 0.327864 0.042132 0.171114
O O11 0.650331 0.524189 0.111058
O O12 0.697916 0.521926 0.336964
O O13 0.822937 0.523753 0.128371
O O14 0.991959 0.996386 0.245946
O O15 0.000000 0.000000 0.000000
O O16 0.330998 0.961672 0.956867
O O17 0.000000 0.000000 0.500000
O O18 0.000000 0.500000 0.000000
#
# Coordination Sequence:
#
# PCOD8022345 Si02
#       8
#     2   2   2   2   2   2   2   2
#     4  12  27  48  75 107 154 193 242 304 374 428
#     4  12  28  46  70 108 147 191 244 302 363 436
#     4  11  23  45  71 100 146 191 241 295 367 421
#     4  12  25  46  73 108 146 192 248 297 368 438
#     4  12  25  47  73 106 145 191 242 304 363 430
#     4  11  26  45  73 110 145 195 246 297 366 445
#     4  12  26  47  76 105 149 193 247 302 364 444
#     4  10  22  45  72 100 143 193 241 296 357 435
#
# _framework density 24.956855999999998
#
# number of rings (size 3 to 8) (size 9 to 14) (size 15 to 20)
#    0.000    0.500    2.500    6.000    7.000    1.000 
#    2.250    1.250    0.000    0.000    0.000    0.000 
#    0.000    0.000    0.000    0.000    0.000    0.000 
#
# Total GULP energy -198368.355543 kJ/mol
# GULP energy per Si atom -12398.022221 kJ/mol
# Density = 2.490005 g / cm^3
# Si number density = 24.956856 Si / 1000 Ang^3
#
#
#
# Elastic Constant Matrix: (Units=GPa)
#
#
# Indices 1 2 3 4 5 6 
#
# 1 158.3887 39.3290 30.5239 -27.5288 -5.6049 1.9396
# 2 39.3290 89.7251 8.1003 -31.8626 -0.8136 2.4391
# 3 30.5239 8.1003 83.6090 -29.5544 22.7362 5.3687
# 4 -27.5288 -31.8626 -29.5544 42.6013 3.1523 5.2549
# 5 -5.6049 -0.8136 22.7362 3.1523 51.5209 -13.7766
# 6 1.9396 2.4391 5.3687 5.2549 -13.7766 41.4684
#
#
#
# Elastic Compliance Matrix: (Units=1/GPa)
#
#
# Indices 1 2 3 4 5 6 
#
# 1 0.007806 -0.003063 -0.003223 0.000207 0.002486 0.001032
# 2 -0.003063 0.018589 0.008228 0.018935 -0.006596 -0.006606
# 3 -0.003223 0.008228 0.026771 0.025463 -0.016980 -0.012667
# 4 0.000207 0.018935 0.025463 0.059140 -0.019447 -0.018375
# 5 0.002486 -0.006596 -0.016980 -0.019447 0.032462 0.015719
# 6 0.001032 -0.006606 -0.012667 -0.018375 0.015719 0.033646
#
#
# Mechanical properties :
#
#
# Convention : Reuss Voigt Hill
#
# Bulk Modulus (GPa) = 17.52778 54.18101 35.85440
# Shear Modulus (GPa) = 25.83373 44.03610 34.93492
#
# Velocity S-wave (km/s) = 3.22084 4.20514 3.74547
# Velocity P-wave (km/s) = 4.56840 6.73310 5.75347
#
# Compressibility (1/GPa) = 0.05705229
#
# Stress axis : x y z
#
# Youngs Moduli (GPa) = 128.09944 53.79596 37.35342
#
# Poissons Ratio (x) = 0.16477 0.12037
# Poissons Ratio (y) = 0.39236 -0.30736
# Poissons Ratio (z) = 0.41280 -0.44265
#
# Static dielectric constant tensor:
#      x y z
#    x 4.865590 -0.502580 0.747930 
#    y -0.502580 5.404990 -0.336120 
#    z 0.747930 -0.336120 5.662590 
# 
# 
# High freq. dielectric constant tensor:
#      x y z
#    x 2.000400 -0.005600 0.012910 
#    y -0.005600 1.997080 -0.007200 
#    z 0.012910 -0.007200 2.016640 
# 
# From -- ./inp_files/447161.got.cif
#   From: 2010.06.25/outbox.cif.g09.slc.cpg/sg2_224_cif.got.tgz:447161.got - 2010.06.27 13:26:56.
