data_PCOD8022898
_publ_section_title
;
Structure prediction by ZEFSAII (Michael W. Deem and Ramdas Pophale) SiO2 
 PCOD8022898
Probable space group: P -1
;
_chemical_formula_sum "Si O2"
_cell_formula_units_Z 16
_cell_length_a 9.794701
_cell_length_b 17.524475
_cell_length_c 11.951174
_cell_angle_alpha 28.813630
_cell_angle_beta 51.285860
_cell_angle_gamma 47.329505
_cell_volume 724.056825
_symmetry_space_group_name_H-M "P -1"
_symmetry_group_IT_number 2
_symmetry_cell_setting 'triclinic'
loop_
_space_group_symop_operation_xyz
x,y,z
-x,-y,-z
loop_
_atom_site_type_symbol
_atom_site_label
_atom_site_fract_x
_atom_site_fract_y
_atom_site_fract_z
Si Si1 0.665176 0.945981 0.570460
Si Si2 0.215958 0.423237 0.960549
Si Si3 0.102710 0.630986 0.291662
Si Si4 0.500117 0.400407 0.402741
Si Si5 0.984705 0.968935 0.779717
Si Si6 0.140719 0.835454 0.196730
Si Si7 0.643968 0.028512 0.731150
Si Si8 0.451121 0.277319 0.819482
O O1 0.500000 0.000000 0.500000
O O2 0.610478 0.002160 0.652599
O O3 0.731962 0.746671 0.777749
O O4 0.813676 0.031797 0.351765
O O5 0.322126 0.547804 0.788867
O O6 0.273817 0.379835 0.856047
O O7 0.000000 0.500000 0.000000
O O8 0.317994 0.538930 0.264509
O O9 0.087476 0.683900 0.363248
O O10 0.000000 0.500000 0.500000
O O11 0.006311 0.793190 0.054966
O O12 0.518388 0.218436 0.579375
O O13 0.475029 0.399063 0.552371
O O14 0.884494 0.135660 0.694047
O O15 0.858874 0.991869 0.703712
O O16 0.360259 0.792669 0.111576
O O17 0.000000 0.000000 0.000000
O O18 0.577844 0.888273 0.008278
#
# Coordination Sequence:
#
# PCOD8022898 Si02
#       8
#     2   2   2   2   2   2   2   2
#     4  11  26  47  71  94 135 192 238 279 348 429
#     4  11  25  43  67 103 140 181 232 287 348 406
#     4  11  25  40  65 108 145 171 227 294 352 404
#     4  12  23  42  69 103 140 174 229 297 349 399
#     4  11  23  46  68  98 139 186 235 278 348 424
#     4  10  23  39  70  98 139 181 235 279 347 413
#     4  11  25  42  71  99 135 184 236 281 345 423
#     4  11  23  43  70 101 141 185 233 283 349 423
#
# _framework density 22.097712000000001
#
# number of rings (size 3 to 8) (size 9 to 14) (size 15 to 20)
#    0.000    1.000    2.500    3.375    8.750    1.000 
#    0.000    6.250    0.000    0.000    0.000    0.000 
#    0.000    0.000    0.000    0.000    0.000    0.000 
#
# Total GULP energy -198307.378147 kJ/mol
# GULP energy per Si atom -12394.211134 kJ/mol
# Density = 2.204742 g / cm^3
# Si number density = 22.097712 Si / 1000 Ang^3
#
#
#
# Elastic Constant Matrix: (Units=GPa)
#
#
# Indices 1 2 3 4 5 6 
#
# 1 151.8108 50.2129 37.2693 -3.6292 -2.8167 -3.2986
# 2 50.2129 110.2474 28.5290 -13.2865 2.1341 -10.9752
# 3 37.2693 28.5290 95.8424 -6.3311 -11.6046 1.7616
# 4 -3.6292 -13.2865 -6.3311 32.2064 0.3565 -7.2114
# 5 -2.8167 2.1341 -11.6046 0.3565 42.9305 -5.0889
# 6 -3.2986 -10.9752 1.7616 -7.2114 -5.0889 35.1767
#
#
#
# Elastic Compliance Matrix: (Units=1/GPa)
#
#
# Indices 1 2 3 4 5 6 
#
# 1 0.008205 -0.003303 -0.002257 -0.000957 0.000061 -0.000336
# 2 -0.003303 0.012257 -0.002211 0.005284 -0.000925 0.004575
# 3 -0.002257 -0.002211 0.012444 0.001055 0.003217 -0.000843
# 4 -0.000957 0.005284 0.001055 0.035302 0.000715 0.008847
# 5 0.000061 -0.000925 0.003217 0.000715 0.024594 0.003260
# 6 -0.000336 0.004575 -0.000843 0.008847 0.003260 0.032151
#
#
# Mechanical properties :
#
#
# Convention : Reuss Voigt Hill
#
# Bulk Modulus (GPa) = 57.59052 65.54701 61.56876
# Shear Modulus (GPa) = 34.18018 38.18867 36.18442
#
# Velocity S-wave (km/s) = 3.93717 4.16164 4.05096
# Velocity P-wave (km/s) = 6.84009 7.26767 7.05712
#
# Compressibility (1/GPa) = 0.01736397
#
# Stress axis : x y z
#
# Youngs Moduli (GPa) = 121.88268 81.58497 80.35726
#
# Poissons Ratio (x) = 0.26945 0.18137
# Poissons Ratio (y) = 0.40255 0.17769
# Poissons Ratio (z) = 0.27510 0.18041
#
# Static dielectric constant tensor:
#      x y z
#    x 4.247490 0.053560 -0.102430 
#    y 0.053560 4.091940 -0.158100 
#    z -0.102430 -0.158100 4.120650 
# 
# 
# High freq. dielectric constant tensor:
#      x y z
#    x 1.877230 -0.005570 -0.012600 
#    y -0.005570 1.871530 -0.023480 
#    z -0.012600 -0.023480 1.870210 
# 
# From -- ./inp_files/402622.got.cif
#   From: 2010.06.25/outbox.cif.g09.slc.cpg/sg2_202_cif.got.tgz:402622.got - 2010.06.27 13:26:56.
