data_PCOD8022159
_publ_section_title
;
Structure prediction by ZEFSAII (Michael W. Deem and Ramdas Pophale) SiO2 
 PCOD8022159
Probable space group: P -1
;
_chemical_formula_sum "Si O2"
_cell_formula_units_Z 16
_cell_length_a 6.766142
_cell_length_b 14.321818
_cell_length_c 18.604476
_cell_angle_alpha 40.592588
_cell_angle_beta 137.736055
_cell_angle_gamma 112.226701
_cell_volume 716.069050
_symmetry_space_group_name_H-M "P -1"
_symmetry_group_IT_number 2
_symmetry_cell_setting 'triclinic'
loop_
_space_group_symop_operation_xyz
x,y,z
-x,-y,-z
loop_
_atom_site_type_symbol
_atom_site_label
_atom_site_fract_x
_atom_site_fract_y
_atom_site_fract_z
Si Si1 0.159298 0.619772 0.808526
Si Si2 0.834205 0.105090 0.961677
Si Si3 0.150344 0.515795 0.417882
Si Si4 0.889415 0.646939 0.123453
Si Si5 0.914196 0.891610 0.488513
Si Si6 0.815634 0.034023 0.718305
Si Si7 0.866667 0.142308 0.224598
Si Si8 0.888473 0.737984 0.352212
O O1 0.983556 0.505703 0.807025
O O2 0.996507 0.756559 0.745945
O O3 0.166349 0.710902 0.681976
O O4 0.500000 0.500000 0.000000
O O5 0.461499 0.137437 0.840936
O O6 0.872611 0.269237 0.874822
O O7 0.986729 0.010473 0.129293
O O8 0.000000 0.000000 0.000000
O O9 0.500000 0.500000 0.500000
O O10 0.151357 0.345804 0.535963
O O11 0.903444 0.593184 0.241135
O O12 0.047765 0.617251 0.402083
O O13 0.519257 0.765095 0.939560
O O14 0.558788 0.905293 0.401734
O O15 0.936243 0.963756 0.374724
O O16 0.000000 0.000000 0.500000
O O17 0.945885 0.884699 0.785159
O O18 0.881485 0.175523 0.618456
#
# Coordination Sequence:
#
# PCOD8022159 Si02
#       8
#     2   2   2   2   2   2   2   2
#     4   9  22  40  69  98 126 172 224 275 341 407
#     4  12  24  42  69 100 142 187 230 285 340 410
#     4  11  24  42  66  93 145 181 228 284 339 411
#     4  11  21  41  73  92 137 185 221 281 353 395
#     4  10  23  43  71  94 136 174 230 281 343 404
#     4  12  25  40  73  99 136 179 235 278 348 405
#     4  10  22  45  67 100 133 174 231 283 342 411
#     4  11  26  41  63 104 139 181 236 278 339 414
#
# _framework density 22.344211999999999
#
# number of rings (size 3 to 8) (size 9 to 14) (size 15 to 20)
#    0.000    1.250    2.500    2.625    3.500    2.000 
#    0.000    0.625    5.500    0.000    0.000    0.000 
#    0.000    0.000    0.000    0.000    0.000    0.000 
#
# Total GULP energy -198276.275538 kJ/mol
# GULP energy per Si atom -12392.267221 kJ/mol
# Density = 2.229336 g / cm^3
# Si number density = 22.344212 Si / 1000 Ang^3
#
#
#
# Elastic Constant Matrix: (Units=GPa)
#
#
# Indices 1 2 3 4 5 6 
#
# 1 87.2341 27.3956 23.9430 -4.5477 -9.9642 -3.5926
# 2 27.3956 110.1015 9.8645 -17.6121 -14.8444 6.3825
# 3 23.9430 9.8645 123.0371 -3.6193 -19.1441 1.6056
# 4 -4.5477 -17.6121 -3.6193 32.9893 0.3803 -1.4542
# 5 -9.9642 -14.8444 -19.1441 0.3803 31.8865 0.4273
# 6 -3.5926 6.3825 1.6056 -1.4542 0.4273 39.6759
#
#
#
# Elastic Compliance Matrix: (Units=1/GPa)
#
#
# Indices 1 2 3 4 5 6 
#
# 1 0.013230 -0.003002 -0.002132 0.000048 0.001432 0.001753
# 2 -0.003002 0.011421 0.000589 0.005607 0.004692 -0.001978
# 3 -0.002132 0.000589 0.009344 0.000955 0.005216 -0.000687
# 4 0.000048 0.005607 0.000955 0.033397 0.002797 0.000258
# 5 0.001432 0.004692 0.005216 0.002797 0.037107 -0.001133
# 6 0.001753 -0.001978 -0.000687 0.000258 -0.001133 0.025731
#
#
# Mechanical properties :
#
#
# Convention : Reuss Voigt Hill
#
# Bulk Modulus (GPa) = 40.15260 49.19764 44.67512
# Shear Modulus (GPa) = 33.87087 38.18830 36.02958
#
# Velocity S-wave (km/s) = 3.89764 4.13860 4.01993
# Velocity P-wave (km/s) = 6.18583 6.70099 6.44855
#
# Compressibility (1/GPa) = 0.02490499
#
# Stress axis : x y z
#
# Youngs Moduli (GPa) = 75.58769 87.55978 107.02077
#
# Poissons Ratio (x) = 0.26282 0.22821
# Poissons Ratio (y) = 0.22688 -0.06307
# Poissons Ratio (z) = 0.16119 -0.05160
#
# Static dielectric constant tensor:
#      x y z
#    x 4.512000 0.250860 -1.150490 
#    y 0.250860 4.582270 -0.387850 
#    z -1.150490 -0.387850 5.301620 
# 
# 
# High freq. dielectric constant tensor:
#      x y z
#    x 1.855360 -0.002990 -0.017710 
#    y -0.002990 1.899260 0.001750 
#    z -0.017710 0.001750 1.896910 
# 
# From -- ./inp_files/77716.got.cif
#   From: 2010.06.25/outbox.cif.g09.slc.cpg/sg2_39_cif.got.tgz:77716.got - 2010.06.27 13:26:56.
