data_PCOD8022475
_publ_section_title
;
Structure prediction by ZEFSAII (Michael W. Deem and Ramdas Pophale) SiO2 
 PCOD8022475
Probable space group: P -1
;
_chemical_formula_sum "Si O2"
_cell_formula_units_Z 16
_cell_length_a 6.779321
_cell_length_b 12.919715
_cell_length_c 10.618940
_cell_angle_alpha 124.690997
_cell_angle_beta 108.612824
_cell_angle_gamma 71.029138
_cell_volume 712.361257
_symmetry_space_group_name_H-M "P -1"
_symmetry_group_IT_number 2
_symmetry_cell_setting 'triclinic'
loop_
_space_group_symop_operation_xyz
x,y,z
-x,-y,-z
loop_
_atom_site_type_symbol
_atom_site_label
_atom_site_fract_x
_atom_site_fract_y
_atom_site_fract_z
Si Si1 0.579765 0.630831 0.627953
Si Si2 0.159440 0.791535 0.741645
Si Si3 0.307196 0.037297 0.886164
Si Si4 0.449244 0.972128 0.325177
Si Si5 0.494325 0.301287 0.792338
Si Si6 0.043169 0.290072 0.112117
Si Si7 0.762525 0.758279 0.529578
Si Si8 0.209275 0.532835 0.010160
O O1 0.500000 0.500000 0.500000
O O2 0.402191 0.723779 0.734723
O O3 0.800149 0.618608 0.739617
O O4 0.616062 0.689612 0.540689
O O5 0.067046 0.782571 0.855224
O O6 0.016175 0.717404 0.568712
O O7 0.145946 0.939949 0.806538
O O8 0.371789 0.027063 0.744477
O O9 0.180124 0.181607 0.977858
O O10 0.500000 0.000000 0.000000
O O11 0.386714 0.831140 0.210389
O O12 0.500000 0.000000 0.500000
O O13 0.266266 0.090869 0.334071
O O14 0.310393 0.269218 0.643212
O O15 0.374264 0.400585 0.938455
O O16 0.673864 0.372061 0.814793
O O17 0.853280 0.386793 0.074194
O O18 0.000000 0.500000 0.000000
#
# Coordination Sequence:
#
# PCOD8022475 Si02
#       8
#     2   2   2   2   2   2   2   2
#     4  11  25  42  68 100 139 176 224 280 343 411
#     4  11  24  42  68 105 135 176 223 283 347 413
#     4  12  22  43  72 102 143 176 228 289 348 411
#     4  10  22  46  69  98 136 182 230 287 345 397
#     4  10  25  44  67  92 135 174 227 289 325 407
#     4  11  26  41  68 104 134 179 226 282 347 411
#     4  10  23  44  67  98 132 179 226 277 343 407
#     4  11  26  44  64  96 129 178 230 272 347 404
#
# _framework density 22.460512000000001
#
# number of rings (size 3 to 8) (size 9 to 14) (size 15 to 20)
#    0.000    1.250    2.500    1.875    8.750    2.000 
#    0.000    1.250    0.000    0.000    0.000    0.000 
#    0.000    0.000    0.000    0.000    0.000    0.000 
#
# Total GULP energy -198221.815864 kJ/mol
# GULP energy per Si atom -12388.863492 kJ/mol
# Density = 2.240939 g / cm^3
# Si number density = 22.460512 Si / 1000 Ang^3
#
#
#
# Elastic Constant Matrix: (Units=GPa)
#
#
# Indices 1 2 3 4 5 6 
#
# 1 83.1126 25.2263 22.1590 10.6863 14.2374 27.0728
# 2 25.2263 108.9441 42.9008 24.3150 2.3943 15.4359
# 3 22.1590 42.9008 87.9833 15.7062 8.9033 18.1613
# 4 10.6863 24.3150 15.7062 43.1607 1.9113 -1.7320
# 5 14.2374 2.3943 8.9033 1.9113 30.2882 2.4182
# 6 27.0728 15.4359 18.1613 -1.7320 2.4182 41.2608
#
#
#
# Elastic Compliance Matrix: (Units=1/GPa)
#
#
# Indices 1 2 3 4 5 6 
#
# 1 0.017703 -0.001583 -0.000125 -0.003562 -0.007080 -0.010703
# 2 -0.001583 0.012806 -0.004646 -0.005283 0.001592 -0.002022
# 3 -0.000125 -0.004646 0.015596 -0.003068 -0.003569 -0.004964
# 4 -0.003562 -0.005283 -0.003068 0.028388 0.000658 0.006817
# 5 -0.007080 0.001592 -0.003569 0.000658 0.036948 0.003483
# 6 -0.010703 -0.002022 -0.004964 0.006817 0.003483 0.034282
#
#
# Mechanical properties :
#
#
# Convention : Reuss Voigt Hill
#
# Bulk Modulus (GPa) = 29.94306 51.17913 40.56110
# Shear Modulus (GPa) = 29.48744 35.59220 32.53982
#
# Velocity S-wave (km/s) = 3.62727 3.98509 3.81038
# Velocity P-wave (km/s) = 5.55906 6.63403 6.12019
#
# Compressibility (1/GPa) = 0.03339672
#
# Stress axis : x y z
#
# Youngs Moduli (GPa) = 56.48828 78.08979 64.11788
#
# Poissons Ratio (x) = 0.12360 0.00803
# Poissons Ratio (y) = 0.08941 0.29789
# Poissons Ratio (z) = 0.00707 0.36281
#
# Static dielectric constant tensor:
#      x y z
#    x 5.244840 0.012880 1.749440 
#    y 0.012880 4.826400 0.709480 
#    z 1.749440 0.709480 6.671200 
# 
# 
# High freq. dielectric constant tensor:
#      x y z
#    x 1.885810 0.003190 0.011300 
#    y 0.003190 1.896960 0.017690 
#    z 0.011300 0.017690 1.881350 
# 
# From -- ./inp_files/362954.got.cif
#   From: 2010.06.25/outbox.cif.g09.slc.cpg/sg2_182_cif.got.tgz:362954.got - 2010.06.27 13:26:56.
