data_PCOD8022188
_publ_section_title
;
Structure prediction by ZEFSAII (Michael W. Deem and Ramdas Pophale) SiO2 
 PCOD8022188
Probable space group: P -1
;
_chemical_formula_sum "Si O2"
_cell_formula_units_Z 14
_cell_length_a 12.166459
_cell_length_b 9.367980
_cell_length_c 5.264754
_cell_angle_alpha 100.563921
_cell_angle_beta 80.401057
_cell_angle_gamma 97.902075
_cell_volume 578.073294
_symmetry_space_group_name_H-M "P -1"
_symmetry_group_IT_number 2
_symmetry_cell_setting 'triclinic'
loop_
_space_group_symop_operation_xyz
x,y,z
-x,-y,-z
loop_
_atom_site_type_symbol
_atom_site_label
_atom_site_fract_x
_atom_site_fract_y
_atom_site_fract_z
Si Si1 0.407079 0.299411 0.121452
Si Si2 0.089741 0.370648 0.628611
Si Si3 0.548316 0.127239 0.337805
Si Si4 0.860735 0.449697 0.834059
Si Si5 0.739504 0.964396 0.043137
Si Si6 0.129555 0.050319 0.511689
Si Si7 0.374956 0.618597 0.268661
O O1 0.437452 0.183861 0.281999
O O2 0.369987 0.448448 0.305178
O O3 0.305437 0.209773 0.974955
O O4 0.516295 0.339164 0.925464
O O5 0.117307 0.427437 0.352385
O O6 0.148047 0.224710 0.586439
O O7 0.955090 0.339251 0.718336
O O8 0.136274 0.485575 0.862549
O O9 0.621216 0.270654 0.465115
O O10 0.500000 0.000000 0.500000
O O11 0.632801 0.057443 0.093599
O O12 0.738204 0.361207 0.833372
O O13 0.818799 0.011529 0.270730
O O14 0.807008 0.003154 0.773564
O O15 0.000000 0.000000 0.500000
#
# Coordination Sequence:
#
# PCOD8022188 Si02
#       7
#     2   2   2   2   2   2   2
#     4  11  25  46  71 105 145 189 242 297 357 438
#     4  10  22  45  67  99 140 177 237 289 366 407
#     4  12  26  46  71 106 150 192 238 297 362 436
#     4  10  23  42  72 100 134 186 227 302 350 426
#     4  12  27  47  75 100 148 194 234 295 372 419
#     4  12  27  46  72 103 140 187 242 293 350 437
#     4  11  25  43  72 107 140 186 247 292 359 427
#
# _framework density 24.218382999999999
#
# number of rings (size 3 to 8) (size 9 to 14) (size 15 to 20)
#    0.000    0.857    1.429    4.714    6.000    0.000 
#    2.571    0.000    0.000    0.000    0.000    0.000 
#    0.000    0.000    0.000    0.000    0.000    0.000 
#
# Total GULP energy -173577.441825 kJ/mol
# GULP energy per Si atom -12398.388702 kJ/mol
# Density = 2.416326 g / cm^3
# Si number density = 24.218383 Si / 1000 Ang^3
#
#
#
# Elastic Constant Matrix: (Units=GPa)
#
#
# Indices 1 2 3 4 5 6 
#
# 1 118.6569 17.6520 42.4248 8.0269 6.0362 13.9131
# 2 17.6520 88.0098 34.6103 15.0156 -0.3953 -3.6073
# 3 42.4248 34.6103 125.4801 3.8476 0.6059 -2.1189
# 4 8.0269 15.0156 3.8476 34.3617 -4.9530 4.2344
# 5 6.0362 -0.3953 0.6059 -4.9530 45.3881 4.0123
# 6 13.9131 -3.6073 -2.1189 4.2344 4.0123 43.6694
#
#
#
# Elastic Compliance Matrix: (Units=1/GPa)
#
#
# Indices 1 2 3 4 5 6 
#
# 1 0.010240 -0.000638 -0.003288 -0.001522 -0.001205 -0.003216
# 2 -0.000638 0.013898 -0.003405 -0.005844 -0.000546 0.001803
# 3 -0.003288 -0.003405 0.010006 0.001039 0.000288 0.001125
# 4 -0.001522 -0.005844 0.001039 0.032910 0.004039 -0.003510
# 5 -0.001205 -0.000546 0.000288 0.004039 0.022813 -0.002135
# 6 -0.003216 0.001803 0.001125 -0.003510 -0.002135 0.024664
#
#
# Mechanical properties :
#
#
# Convention : Reuss Voigt Hill
#
# Bulk Modulus (GPa) = 51.33266 57.94679 54.63972
# Shear Modulus (GPa) = 36.84954 40.51450 38.68202
#
# Velocity S-wave (km/s) = 3.90494 4.09453 4.00086
# Velocity P-wave (km/s) = 6.44773 6.80678 6.62968
#
# Compressibility (1/GPa) = 0.01948078
#
# Stress axis : x y z
#
# Youngs Moduli (GPa) = 97.66072 71.95284 99.94025
#
# Poissons Ratio (x) = 0.04593 0.32858
# Poissons Ratio (y) = 0.06234 0.34033
# Poissons Ratio (z) = 0.32108 0.24502
#
# Static dielectric constant tensor:
#      x y z
#    x 5.000290 -0.165560 0.083050 
#    y -0.165560 4.416290 0.292610 
#    z 0.083050 0.292610 4.393410 
# 
# 
# High freq. dielectric constant tensor:
#      x y z
#    x 1.984090 -0.002830 -0.003660 
#    y -0.002830 1.955190 0.014020 
#    z -0.003660 0.014020 1.959510 
# 
# From -- ./inp_files/61014.got.cif
#   From: 2010.06.25/outbox.cif.g09.slc.cpg/sg2_31_cif.got.tgz:61014.got - 2010.06.27 13:26:56.
