data_PCOD8022663
_publ_section_title
;
Structure prediction by ZEFSAII (Michael W. Deem and Ramdas Pophale) SiO2 
 PCOD8022663
Probable space group: P -1
;
_chemical_formula_sum "Si O2"
_cell_formula_units_Z 16
_cell_length_a 21.468237
_cell_length_b 21.989075
_cell_length_c 9.183633
_cell_angle_alpha 47.443458
_cell_angle_beta 37.991909
_cell_angle_gamma 18.863809
_cell_volume 808.566373
_symmetry_space_group_name_H-M "P -1"
_symmetry_group_IT_number 2
_symmetry_cell_setting 'triclinic'
loop_
_space_group_symop_operation_xyz
x,y,z
-x,-y,-z
loop_
_atom_site_type_symbol
_atom_site_label
_atom_site_fract_x
_atom_site_fract_y
_atom_site_fract_z
Si Si1 0.129102 0.754526 0.829929
Si Si2 0.239639 0.369994 0.918090
Si Si3 0.327918 0.484132 0.105091
Si Si4 0.182407 0.588099 0.530803
Si Si5 0.688451 0.780494 0.256586
Si Si6 0.425580 0.537670 0.351286
Si Si7 0.602014 0.120640 0.162171
Si Si8 0.647182 0.999684 0.973146
O O1 0.205815 0.691850 0.621690
O O2 0.312538 0.681158 0.697242
O O3 0.145643 0.652257 0.042766
O O4 0.843802 0.990363 0.984162
O O5 0.274498 0.434331 0.679984
O O6 0.287058 0.263616 0.884942
O O7 0.432923 0.211530 0.947402
O O8 0.960040 0.572296 0.166905
O O9 0.189330 0.575890 0.364351
O O10 0.409749 0.335134 0.134709
O O11 0.552360 0.383743 0.871902
O O12 0.371958 0.517637 0.348044
O O13 0.905130 0.819082 0.707884
O O14 0.497651 0.864435 0.553382
O O15 0.579042 0.953979 0.181104
O O16 0.670865 0.015926 0.065593
#
# Coordination Sequence:
#
# PCOD8022663 Si02
#       8
#     2   2   2   2   2   2   2   2
#     4   9  22  40  61  90 127 162 198 256 301 356
#     4  10  23  41  64  92 123 162 200 254 308 362
#     4  10  23  37  64  88 125 165 200 249 305 351
#     4  11  21  42  61  94 127 158 207 252 295 368
#     4  10  23  43  61  90 129 152 205 260 303 360
#     4   9  20  43  61  88 129 163 196 257 304 351
#     4  12  23  41  63  97 118 164 208 249 299 375
#     4  11  25  38  68  91 122 165 203 248 312 360
#
# _framework density 19.788108999999999
#
# number of rings (size 3 to 8) (size 9 to 14) (size 15 to 20)
#    0.750    1.000    2.500    1.125    3.500    2.000 
#    2.250    0.625    0.000    0.000    0.000    0.000 
#    0.000    0.000    0.000    0.000    0.000    0.000 
#
# Total GULP energy -198329.512397 kJ/mol
# GULP energy per Si atom -12395.594525 kJ/mol
# Density = 1.974307 g / cm^3
# Si number density = 19.788109 Si / 1000 Ang^3
#
#
#
# Elastic Constant Matrix: (Units=GPa)
#
#
# Indices 1 2 3 4 5 6 
#
# 1 40.8073 4.1074 15.8771 8.2506 -4.3521 10.8333
# 2 4.1074 50.7537 24.3120 2.6406 10.3568 -2.9029
# 3 15.8771 24.3120 91.3434 8.8727 7.0598 -1.2420
# 4 8.2506 2.6406 8.8727 24.3068 3.2047 -4.0164
# 5 -4.3521 10.3568 7.0598 3.2047 26.4940 0.8673
# 6 10.8333 -2.9029 -1.2420 -4.0164 0.8673 32.7347
#
#
#
# Elastic Compliance Matrix: (Units=1/GPa)
#
#
# Indices 1 2 3 4 5 6 
#
# 1 0.033930 -0.002501 -0.004917 -0.012981 0.009874 -0.013491
# 2 -0.002501 0.024443 -0.005530 0.001914 -0.008830 0.003254
# 3 -0.004917 -0.005530 0.013668 -0.002209 -0.002068 0.001439
# 4 -0.012981 0.001914 -0.002209 0.049031 -0.008571 0.010625
# 5 0.009874 -0.008830 -0.002068 -0.008571 0.044614 -0.006363
# 6 -0.013491 0.003254 0.001439 0.010625 -0.006363 0.036829
#
#
# Mechanical properties :
#
#
# Convention : Reuss Voigt Hill
#
# Bulk Modulus (GPa) = 21.67178 30.16638 25.91908
# Shear Modulus (GPa) = 20.50908 25.94762 23.22835
#
# Velocity S-wave (km/s) = 3.22286 3.62508 3.42987
# Velocity P-wave (km/s) = 4.98245 5.72708 5.36769
#
# Compressibility (1/GPa) = 0.04614296
#
# Stress axis : x y z
#
# Youngs Moduli (GPa) = 29.47267 40.91154 73.16185
#
# Poissons Ratio (x) = 0.10234 0.35977
# Poissons Ratio (y) = 0.07372 0.40460
# Poissons Ratio (z) = 0.14493 0.22625
#
# Static dielectric constant tensor:
#      x y z
#    x 3.461580 0.016980 -0.069860 
#    y 0.016980 3.451140 0.019420 
#    z -0.069860 0.019420 3.595850 
# 
# 
# High freq. dielectric constant tensor:
#      x y z
#    x 1.765010 0.000050 -0.002100 
#    y 0.000050 1.759030 -0.000190 
#    z -0.002100 -0.000190 1.780330 
# 
# From -- ./inp_files/333995.got.cif
#   From: 2010.06.25/outbox.cif.g09.slc.cpg/sg2_167_cif.got.tgz:333995.got - 2010.06.27 13:26:56.
