data_PCOD8022851
_publ_section_title
;
Structure prediction by ZEFSAII (Michael W. Deem and Ramdas Pophale) SiO2 
 PCOD8022851
Probable space group: P -1
;
_chemical_formula_sum "Si O2"
_cell_formula_units_Z 16
_cell_length_a 17.029815
_cell_length_b 6.269045
_cell_length_c 12.823218
_cell_angle_alpha 122.106084
_cell_angle_beta 102.520198
_cell_angle_gamma 108.469634
_cell_volume 965.285571
_symmetry_space_group_name_H-M "P -1"
_symmetry_group_IT_number 2
_symmetry_cell_setting 'triclinic'
loop_
_space_group_symop_operation_xyz
x,y,z
-x,-y,-z
loop_
_atom_site_type_symbol
_atom_site_label
_atom_site_fract_x
_atom_site_fract_y
_atom_site_fract_z
Si Si1 0.203122 0.708421 0.728345
Si Si2 0.937677 0.881927 0.554141
Si Si3 0.128083 0.521528 0.003987
Si Si4 0.045814 0.567272 0.194720
Si Si5 0.360940 0.300655 0.863614
Si Si6 0.952334 0.145788 0.232821
Si Si7 0.527476 0.758363 0.932515
Si Si8 0.304467 0.770574 0.989339
O O1 0.164024 0.405169 0.574941
O O2 0.114126 0.721322 0.745646
O O3 0.259098 0.701402 0.843021
O O4 0.266919 0.979334 0.736965
O O5 0.994665 0.801041 0.629389
O O6 0.916666 0.118915 0.658803
O O7 0.000000 0.000000 0.500000
O O8 0.232522 0.751501 0.051028
O O9 0.053332 0.554390 0.923530
O O10 0.109450 0.195033 0.904277
O O11 0.124031 0.600975 0.143719
O O12 0.030595 0.324612 0.212859
O O13 0.427798 0.438560 0.813691
O O14 0.333009 0.529876 0.958909
O O15 0.421401 0.255676 0.954343
O O16 0.500000 0.000000 0.000000
O O17 0.604060 0.888051 0.893275
#
# Coordination Sequence:
#
# PCOD8022851 Si02
#       8
#     2   2   2   2   2   2   2   2
#     4  11  19  28  47  70  92 128 159 188 234 285
#     4  11  22  32  45  65  94 130 166 198 234 276
#     4  10  19  32  47  68  91 125 167 199 233 276
#     4  10  21  33  45  63  96 129 164 203 231 265
#     4   9  17  28  45  68  98 123 149 190 235 289
#     4  11  19  32  47  65  91 129 162 198 238 269
#     4   8  16  29  44  69  99 121 146 187 240 290
#     4  10  17  29  48  71  95 124 156 191 240 284
#
# _framework density 16.575406000000001
#
# number of rings (size 3 to 8) (size 9 to 14) (size 15 to 20)
#    0.000    2.000    3.750    1.500    0.000    0.000 
#    0.000    0.000    0.000    0.000    0.000    0.875 
#    0.000   35.000    0.000    3.000    0.000    0.250 
#
# Total GULP energy -198243.117144 kJ/mol
# GULP energy per Si atom -12390.194821 kJ/mol
# Density = 1.653768 g / cm^3
# Si number density = 16.575406 Si / 1000 Ang^3
#
#
#
# Elastic Constant Matrix: (Units=GPa)
#
#
# Indices 1 2 3 4 5 6 
#
# 1 80.2758 46.6769 23.1206 -5.1307 -3.0661 25.7071
# 2 46.6769 117.5089 32.5546 -2.1059 0.7182 29.7845
# 3 23.1206 32.5546 55.2708 -3.6064 -7.8357 19.3532
# 4 -5.1307 -2.1059 -3.6064 19.8613 5.0752 10.7309
# 5 -3.0661 0.7182 -7.8357 5.0752 12.7536 -2.1017
# 6 25.7071 29.7845 19.3532 10.7309 -2.1017 48.9472
#
#
#
# Elastic Compliance Matrix: (Units=1/GPa)
#
#
# Indices 1 2 3 4 5 6 
#
# 1 0.018921 -0.004739 -0.001793 0.008870 -0.001190 -0.008341
# 2 -0.004739 0.013000 -0.004829 0.003549 -0.007007 -0.004591
# 3 -0.001793 -0.004829 0.026211 0.004095 0.013192 -0.006814
# 4 0.008870 0.003549 0.004095 0.075636 -0.029986 -0.026307
# 5 -0.001190 -0.007007 0.013192 -0.029986 0.100295 0.010553
# 6 -0.008341 -0.004591 -0.006814 -0.026307 0.010553 0.036519
#
#
# Mechanical properties :
#
#
# Convention : Reuss Voigt Hill
#
# Bulk Modulus (GPa) = 28.24063 50.86219 39.55141
# Shear Modulus (GPa) = 16.38761 26.35930 21.37346
#
# Velocity S-wave (km/s) = 3.14772 3.99214 3.59481
# Velocity P-wave (km/s) = 5.50323 7.21121 6.41432
#
# Compressibility (1/GPa) = 0.03540998
#
# Stress axis : x y z
#
# Youngs Moduli (GPa) = 52.85004 76.92079 38.15234
#
# Poissons Ratio (x) = 0.36451 0.06842
# Poissons Ratio (y) = 0.25045 0.18424
# Poissons Ratio (z) = 0.09478 0.37146
#
# Static dielectric constant tensor:
#      x y z
#    x 3.347110 0.286010 0.131000 
#    y 0.286010 3.698550 0.150020 
#    z 0.131000 0.150020 2.903520 
# 
# 
# High freq. dielectric constant tensor:
#      x y z
#    x 1.636370 0.001490 0.008930 
#    y 0.001490 1.671310 0.006090 
#    z 0.008930 0.006090 1.579690 
# 
# From -- ./inp_files/73919.got.cif
#   From: 2010.06.25/outbox.cif.g09.slc.cpg/sg2_37_cif.got.tgz:73919.got - 2010.06.27 13:26:56.
