data_PCOD8022053
_publ_section_title
;
Structure prediction by ZEFSAII (Michael W. Deem and Ramdas Pophale) SiO2 
 PCOD8022053
Probable space group: P -1
;
_chemical_formula_sum "Si O2"
_cell_formula_units_Z 12
_cell_length_a 8.315434
_cell_length_b 7.452812
_cell_length_c 14.111266
_cell_angle_alpha 103.707768
_cell_angle_beta 137.759056
_cell_angle_gamma 104.940139
_cell_volume 427.391796
_symmetry_space_group_name_H-M "P -1"
_symmetry_group_IT_number 2
_symmetry_cell_setting 'triclinic'
loop_
_space_group_symop_operation_xyz
x,y,z
-x,-y,-z
loop_
_atom_site_type_symbol
_atom_site_label
_atom_site_fract_x
_atom_site_fract_y
_atom_site_fract_z
Si Si1 0.871777 0.473993 0.163724
Si Si2 0.862745 0.766837 0.832809
Si Si3 0.111099 0.750805 0.122346
Si Si4 0.129663 0.027834 0.797242
Si Si5 0.857383 0.128088 0.527882
Si Si6 0.118788 0.373984 0.490096
O O1 0.024736 0.370951 0.175458
O O2 0.938039 0.677468 0.141398
O O3 0.038409 0.616309 0.352970
O O4 0.494563 0.271426 0.986264
O O5 0.485523 0.575341 0.648312
O O6 0.979665 0.977485 0.831198
O O7 0.018137 0.865751 0.019191
O O8 0.488461 0.946910 0.319111
O O9 0.000000 0.500000 0.000000
O O10 0.091909 0.792664 0.715916
O O11 0.914622 0.011665 0.621005
O O12 0.063701 0.196313 0.530433
O O13 0.000000 0.500000 0.500000
#
# Coordination Sequence:
#
# PCOD8022053 Si02
#       6
#     2   2   2   2   2   2
#     4  11  24  47  75 110 147 193 244 299 363 438
#     4  11  25  48  75 107 147 193 243 304 366 430
#     4  10  22  44  73 105 143 190 238 294 361 431
#     4  12  25  48  76 109 149 193 241 304 365 432
#     4  12  26  47  75 110 148 194 243 298 364 441
#     4  12  27  48  74 109 146 193 248 305 364 432
#
# _framework density 28.077283999999999
#
# number of rings (size 3 to 8) (size 9 to 14) (size 15 to 20)
#    0.000    0.667    0.000    8.500    0.000    4.000 
#    0.000    6.667    0.000    0.000    0.000    0.000 
#    0.000    0.000    0.000    0.000    0.000    0.000 
#
# Total GULP energy -148881.621244 kJ/mol
# GULP energy per Si atom -12406.801770 kJ/mol
# Density = 2.801338 g / cm^3
# Si number density = 28.077284 Si / 1000 Ang^3
#
#
#
# Elastic Constant Matrix: (Units=GPa)
#
#
# Indices 1 2 3 4 5 6 
#
# 1 178.2211 60.5516 83.5502 7.1315 -11.0326 63.7891
# 2 60.5516 140.6577 70.6982 7.2616 19.2057 43.6904
# 3 83.5502 70.6982 227.4647 25.9739 3.9213 33.7561
# 4 7.1315 7.2616 25.9739 42.3578 9.0807 7.4053
# 5 -11.0326 19.2057 3.9213 9.0807 66.8828 8.0959
# 6 63.7891 43.6904 33.7561 7.4053 8.0959 48.1432
#
#
#
# Elastic Compliance Matrix: (Units=1/GPa)
#
#
# Indices 1 2 3 4 5 6 
#
# 1 0.012682 0.000212 -0.002563 0.001365 0.003942 -0.016072
# 2 0.000212 0.011091 -0.002391 0.001488 -0.002179 -0.008532
# 3 -0.002563 -0.002391 0.006202 -0.003289 0.000141 0.001700
# 4 0.001365 0.001488 -0.003289 0.026574 -0.003082 -0.004422
# 5 0.003942 -0.002179 0.000141 -0.003082 0.017338 -0.005786
# 6 -0.016072 -0.008532 0.001700 -0.004422 -0.005786 0.050271
#
#
# Mechanical properties :
#
#
# Convention : Reuss Voigt Hill
#
# Bulk Modulus (GPa) = 48.80177 108.43819 78.61998
# Shear Modulus (GPa) = 35.59406 53.57966 44.58686
#
# Velocity S-wave (km/s) = 3.56436 4.37314 3.98930
# Velocity P-wave (km/s) = 5.86162 8.01276 7.02007
#
# Compressibility (1/GPa) = 0.02049106
#
# Stress axis : x y z
#
# Youngs Moduli (GPa) = 78.84911 90.16399 161.24306
#
# Poissons Ratio (x) = -0.01914 0.41327
# Poissons Ratio (y) = -0.01674 0.38558
# Poissons Ratio (z) = 0.20209 0.21561
#
# Static dielectric constant tensor:
#      x y z
#    x 10.614390 1.435160 0.766790 
#    y 1.435160 7.214990 0.118000 
#    z 0.766790 0.118000 5.549310 
# 
# 
# High freq. dielectric constant tensor:
#      x y z
#    x 2.184300 -0.009420 -0.037110 
#    y -0.009420 2.199290 0.002970 
#    z -0.037110 0.002970 2.130000 
# 
# From -- ./inp_files/333724.got.cif
#   From: 2010.06.25/outbox.cif.g09.slc.cpg/sg2_167_cif.got.tgz:333724.got - 2010.06.27 13:26:56.
