data_PCOD8022434
_publ_section_title
;
Structure prediction by ZEFSAII (Michael W. Deem and Ramdas Pophale) SiO2 
 PCOD8022434
Probable space group: P -1
;
_chemical_formula_sum "Si O2"
_cell_formula_units_Z 16
_cell_length_a 8.976106
_cell_length_b 18.695831
_cell_length_c 8.926393
_cell_angle_alpha 57.996233
_cell_angle_beta 77.690090
_cell_angle_gamma 41.042038
_cell_volume 785.914352
_symmetry_space_group_name_H-M "P -1"
_symmetry_group_IT_number 2
_symmetry_cell_setting 'triclinic'
loop_
_space_group_symop_operation_xyz
x,y,z
-x,-y,-z
loop_
_atom_site_type_symbol
_atom_site_label
_atom_site_fract_x
_atom_site_fract_y
_atom_site_fract_z
Si Si1 0.670223 0.250942 0.162230
Si Si2 0.396872 0.475372 0.433626
Si Si3 0.122423 0.663412 0.020724
Si Si4 0.857468 0.477176 0.087803
Si Si5 0.223894 0.136481 0.891849
Si Si6 0.071250 0.345956 0.496948
Si Si7 0.045891 0.032612 0.100665
Si Si8 0.451549 0.755265 0.477147
O O1 0.627544 0.222618 0.359163
O O2 0.820040 0.124612 0.160902
O O3 0.825028 0.268904 0.141261
O O4 0.422114 0.380372 0.988243
O O5 0.500000 0.500000 0.500000
O O6 0.346062 0.546702 0.211596
O O7 0.573136 0.321487 0.527213
O O8 0.152021 0.537417 0.476734
O O9 0.870648 0.770770 0.046685
O O10 0.101569 0.601099 0.972415
O O11 0.967581 0.383195 0.311250
O O12 0.000000 0.500000 0.000000
O O13 0.178601 0.208300 0.669894
O O14 0.072600 0.115812 0.942570
O O15 0.500000 0.000000 0.000000
O O16 0.272337 0.331984 0.486051
O O17 0.285386 0.897655 0.281514
O O18 0.000000 0.000000 0.000000
#
# Coordination Sequence:
#
# PCOD8022434 Si02
#       8
#     2   2   2   2   2   2   2   2
#     4  11  24  44  66  94 138 173 216 274 335 395
#     4  11  24  40  68 101 132 175 223 274 328 392
#     4  10  23  41  65  96 131 172 217 272 331 388
#     4  12  23  40  66 103 136 167 218 275 337 394
#     4  10  22  46  67  90 133 175 218 272 326 394
#     4  11  24  41  68  99 135 171 224 265 339 387
#     4  11  27  44  69  98 126 177 229 275 327 397
#     4  12  24  44  67  95 140 175 218 275 335 396
#
# _framework density 20.358453999999998
#
# number of rings (size 3 to 8) (size 9 to 14) (size 15 to 20)
#    0.000    1.000    3.750    1.875    8.750    2.000 
#    0.000    0.625    0.000    0.000    0.000    0.000 
#    0.000    0.000    0.000    0.000    0.000    0.000 
#
# Total GULP energy -198424.463303 kJ/mol
# GULP energy per Si atom -12401.528956 kJ/mol
# Density = 2.031212 g / cm^3
# Si number density = 20.358454 Si / 1000 Ang^3
#
#
#
# Elastic Constant Matrix: (Units=GPa)
#
#
# Indices 1 2 3 4 5 6 
#
# 1 91.0214 52.0015 34.9342 14.0812 4.6063 7.9889
# 2 52.0015 132.7511 41.4231 -2.7581 9.7083 10.0865
# 3 34.9342 41.4231 139.2438 5.3661 4.3492 6.9581
# 4 14.0812 -2.7581 5.3661 33.1674 -5.1591 1.7212
# 5 4.6063 9.7083 4.3492 -5.1591 35.7627 2.5513
# 6 7.9889 10.0865 6.9581 1.7212 2.5513 37.7605
#
#
#
# Elastic Compliance Matrix: (Units=1/GPa)
#
#
# Indices 1 2 3 4 5 6 
#
# 1 0.016314 -0.005734 -0.002013 -0.007214 -0.001260 -0.001135
# 2 -0.005734 0.010594 -0.001737 0.003460 -0.001330 -0.001365
# 3 -0.002013 -0.001737 0.008268 -0.000648 -0.000327 -0.000582
# 4 -0.007214 0.003460 -0.000648 0.034465 0.005126 -0.001196
# 5 -0.001260 -0.001330 -0.000327 0.005126 0.029374 -0.001536
# 6 -0.001135 -0.001365 -0.000582 -0.001196 -0.001536 0.027353
#
#
# Mechanical properties :
#
#
# Convention : Reuss Voigt Hill
#
# Bulk Modulus (GPa) = 61.69703 68.85931 65.27817
# Shear Modulus (GPa) = 33.17014 36.98195 35.07605
#
# Velocity S-wave (km/s) = 4.04084 4.26671 4.15531
# Velocity P-wave (km/s) = 7.22097 7.62693 7.42672
#
# Compressibility (1/GPa) = 0.01620824
#
# Stress axis : x y z
#
# Youngs Moduli (GPa) = 61.29520 94.39559 120.95444
#
# Poissons Ratio (x) = 0.54127 0.24350
# Poissons Ratio (y) = 0.35147 0.21004
# Poissons Ratio (z) = 0.12340 0.16392
#
# Static dielectric constant tensor:
#      x y z
#    x 3.694580 -0.080900 -0.211120 
#    y -0.080900 3.970380 -0.069190 
#    z -0.211120 -0.069190 4.326430 
# 
# 
# High freq. dielectric constant tensor:
#      x y z
#    x 1.793420 -0.006390 -0.012100 
#    y -0.006390 1.802640 0.000880 
#    z -0.012100 0.000880 1.805990 
# 
# From -- ./inp_files/177766.got.cif
#   From: 2010.06.25/outbox.cif.g09.slc.cpg/sg2_89_cif.got.tgz:177766.got - 2010.06.27 13:26:56.
