data_PCOD8022357
_publ_section_title
;
Structure prediction by ZEFSAII (Michael W. Deem and Ramdas Pophale) SiO2 
 PCOD8022357
Probable space group: P -1
;
_chemical_formula_sum "Si O2"
_cell_formula_units_Z 16
_cell_length_a 14.619325
_cell_length_b 12.625851
_cell_length_c 12.439693
_cell_angle_alpha 54.607294
_cell_angle_beta 75.566949
_cell_angle_gamma 30.000261
_cell_volume 735.012317
_symmetry_space_group_name_H-M "P -1"
_symmetry_group_IT_number 2
_symmetry_cell_setting 'triclinic'
loop_
_space_group_symop_operation_xyz
x,y,z
-x,-y,-z
loop_
_atom_site_type_symbol
_atom_site_label
_atom_site_fract_x
_atom_site_fract_y
_atom_site_fract_z
Si Si1 0.156670 0.185594 0.184186
Si Si2 0.152776 0.166814 0.795059
Si Si3 0.666417 0.687208 0.580392
Si Si4 0.992734 0.636286 0.639380
Si Si5 0.570724 0.208706 0.268528
Si Si6 0.670942 0.579122 0.407598
Si Si7 0.258475 0.781968 0.342313
Si Si8 0.789559 0.172047 0.919469
O O1 0.147105 0.196619 0.308339
O O2 0.421475 0.872577 0.250223
O O3 0.088606 0.121873 0.206149
O O4 0.000000 0.500000 0.000000
O O5 0.135679 0.323998 0.767879
O O6 0.919987 0.430169 0.640965
O O7 0.373551 0.898624 0.807557
O O8 0.164790 0.037841 0.954646
O O9 0.644496 0.598621 0.725179
O O10 0.599266 0.730787 0.454496
O O11 0.500000 0.000000 0.500000
O O12 0.181403 0.513091 0.657635
O O13 0.808353 0.894248 0.448561
O O14 0.451219 0.500551 0.134992
O O15 0.824396 0.253063 0.563902
O O16 0.500000 0.500000 0.500000
O O17 0.277067 0.724281 0.245760
O O18 0.000000 0.000000 0.000000
#
# Coordination Sequence:
#
# PCOD8022357 Si02
#       8
#     2   2   2   2   2   2   2   2
#     4  11  24  45  67  93 129 173 226 283 339 392
#     4  12  24  39  62 102 139 173 219 276 340 404
#     4  12  20  37  65  95 134 176 222 270 332 405
#     4  12  24  41  68  96 130 176 228 278 332 403
#     4  12  22  39  64  96 132 179 219 269 338 406
#     4  11  22  42  66  93 128 172 231 277 326 408
#     4  10  22  45  72  92 130 184 226 270 331 406
#     4  12  24  43  68 100 141 174 217 286 348 395
#
# _framework density 21.768342000000001
#
# number of rings (size 3 to 8) (size 9 to 14) (size 15 to 20)
#    0.000    0.500    6.250    3.000    0.000    1.000 
#    2.250    0.000    0.000    0.000    0.000    0.000 
#    0.000    0.000    0.000    0.000    0.000    0.000 
#
# Total GULP energy -198211.470039 kJ/mol
# GULP energy per Si atom -12388.216877 kJ/mol
# Density = 2.171880 g / cm^3
# Si number density = 21.768342 Si / 1000 Ang^3
#
#
#
# Elastic Constant Matrix: (Units=GPa)
#
#
# Indices 1 2 3 4 5 6 
#
# 1 110.5433 28.9633 41.0038 -7.9851 -25.1629 2.3837
# 2 28.9633 78.5956 19.1383 -8.7153 -6.2259 0.3192
# 3 41.0038 19.1383 96.0193 -12.5098 -20.1023 5.1932
# 4 -7.9851 -8.7153 -12.5098 34.2975 16.8378 -10.7905
# 5 -25.1629 -6.2259 -20.1023 16.8378 34.8282 -0.4871
# 6 2.3837 0.3192 5.1932 -10.7905 -0.4871 40.0029
#
#
#
# Elastic Compliance Matrix: (Units=1/GPa)
#
#
# Indices 1 2 3 4 5 6 
#
# 1 0.012985 -0.003679 -0.003449 -0.003729 0.008519 -0.001199
# 2 -0.003679 0.014671 -0.001490 0.004190 -0.002902 0.001390
# 3 -0.003449 -0.001490 0.013308 0.001187 0.004333 -0.001137
# 4 -0.003729 0.004190 0.001187 0.044627 -0.022670 0.011796
# 5 0.008519 -0.002902 0.004333 -0.022670 0.047718 -0.006581
# 6 -0.001199 0.001390 -0.001137 0.011796 -0.006581 0.028308
#
#
# Mechanical properties :
#
#
# Convention : Reuss Voigt Hill
#
# Bulk Modulus (GPa) = 42.14516 51.48543 46.81530
# Shear Modulus (GPa) = 26.77191 34.89589 30.83390
#
# Velocity S-wave (km/s) = 3.51073 4.00816 3.76767
# Velocity P-wave (km/s) = 5.98636 6.71739 6.36238
#
# Compressibility (1/GPa) = 0.02372752
#
# Stress axis : x y z
#
# Youngs Moduli (GPa) = 77.00961 68.16136 75.14379
#
# Poissons Ratio (x) = 0.25077 0.25920
# Poissons Ratio (y) = 0.28333 0.11195
# Poissons Ratio (z) = 0.26564 0.10155
#
# Static dielectric constant tensor:
#      x y z
#    x 2.550690 1.458820 -0.302960 
#    y 1.458820 3.062960 -0.435380 
#    z -0.302960 -0.435380 4.162380 
# 
# 
# High freq. dielectric constant tensor:
#      x y z
#    x 1.859660 0.010770 -0.026050 
#    y 0.010770 1.853190 -0.007660 
#    z -0.026050 -0.007660 1.853120 
# 
# From -- ./inp_files/452196.got.cif
#   From: 2010.06.25/outbox.cif.g09.slc.cpg/sg2_227_cif.got.tgz:452196.got - 2010.06.27 13:26:56.
