data_PCOD8022107
_publ_section_title
;
Structure prediction by ZEFSAII (Michael W. Deem and Ramdas Pophale) SiO2 
 PCOD8022107
Probable space group: P -1
;
_chemical_formula_sum "Si O2"
_cell_formula_units_Z 16
_cell_length_a 11.675564
_cell_length_b 22.455169
_cell_length_c 5.562217
_cell_angle_alpha 95.569993
_cell_angle_beta 94.265828
_cell_angle_gamma 151.089751
_cell_volume 662.065993
_symmetry_space_group_name_H-M "P -1"
_symmetry_group_IT_number 2
_symmetry_cell_setting 'triclinic'
loop_
_space_group_symop_operation_xyz
x,y,z
-x,-y,-z
loop_
_atom_site_type_symbol
_atom_site_label
_atom_site_fract_x
_atom_site_fract_y
_atom_site_fract_z
Si Si1 0.884010 0.795002 0.909651
Si Si2 0.705366 0.096511 0.866087
Si Si3 0.857683 0.992140 0.253764
Si Si4 0.575435 0.466719 0.513466
Si Si5 0.304255 0.203955 0.752733
Si Si6 0.011003 0.606176 0.434614
Si Si7 0.180312 0.510277 0.146896
Si Si8 0.532374 0.117116 0.550973
O O1 0.669895 0.688052 0.633666
O O2 0.758830 0.762003 0.119180
O O3 0.109116 0.945253 0.932004
O O4 0.013664 0.789873 0.958394
O O5 0.713999 0.167902 0.792209
O O6 0.638736 0.014551 0.632064
O O7 0.500000 0.000000 0.000000
O O8 0.757992 0.880729 0.108028
O O9 0.652187 0.920101 0.381095
O O10 0.134151 0.113972 0.458419
O O11 0.500000 0.500000 0.500000
O O12 0.787215 0.551884 0.376850
O O13 0.689628 0.495716 0.797182
O O14 0.597123 0.337784 0.778030
O O15 0.977632 0.549655 0.651259
O O16 0.283213 0.763778 0.559823
O O17 0.987466 0.562195 0.151446
#
# Coordination Sequence:
#
# PCOD8022107 Si02
#       8
#     2   2   2   2   2   2   2   2
#     4  12  22  42  68 100 134 173 228 282 340 410
#     4  11  25  39  65  91 140 176 218 278 340 406
#     4  11  23  41  68  98 128 178 222 285 340 399
#     4  10  24  37  65  95 134 176 226 274 343 389
#     4  11  22  43  68  95 134 168 230 285 342 391
#     4  10  24  41  67  87 141 171 226 275 329 408
#     4  10  22  45  62  97 131 177 221 286 327 406
#     4  11  25  43  60  99 132 181 225 270 343 412
#
# _framework density 24.166775999999999
#
# number of rings (size 3 to 8) (size 9 to 14) (size 15 to 20)
#    0.750    0.500    5.000    0.375    5.250    1.500 
#    0.000    1.250    0.000    0.000    0.000    0.000 
#    0.000    0.000    0.000    0.000    0.000    0.000 
#
# Total GULP energy -198253.191634 kJ/mol
# GULP energy per Si atom -12390.824477 kJ/mol
# Density = 2.411177 g / cm^3
# Si number density = 24.166776 Si / 1000 Ang^3
#
#
#
# Elastic Constant Matrix: (Units=GPa)
#
#
# Indices 1 2 3 4 5 6 
#
# 1 44.6401 1.8676 -1.0840 2.3055 -2.4003 8.6111
# 2 1.8676 122.1064 8.4444 -17.3288 -1.7413 8.1449
# 3 -1.0840 8.4444 86.6188 -11.8207 -2.9529 2.7465
# 4 2.3055 -17.3288 -11.8207 34.2556 0.7813 -1.0898
# 5 -2.4003 -1.7413 -2.9529 0.7813 30.8407 -4.8875
# 6 8.6111 8.1449 2.7465 -1.0898 -4.8875 32.8638
#
#
#
# Elastic Compliance Matrix: (Units=1/GPa)
#
#
# Indices 1 2 3 4 5 6 
#
# 1 0.023742 -0.000221 0.000296 -0.001824 0.000941 -0.006111
# 2 -0.000221 0.008968 -0.000210 0.004414 0.000041 -0.001994
# 3 0.000296 -0.000210 0.012176 0.004029 0.000953 -0.000768
# 4 -0.001824 0.004414 0.004029 0.032949 -0.000327 0.000091
# 5 0.000941 0.000041 0.000953 -0.000327 0.033330 0.004610
# 6 -0.006111 -0.001994 -0.000768 0.000091 0.004610 0.033277
#
#
# Mechanical properties :
#
#
# Convention : Reuss Voigt Hill
#
# Bulk Modulus (GPa) = 22.41468 30.20237 26.30853
# Shear Modulus (GPa) = 31.33157 35.86782 33.59970
#
# Velocity S-wave (km/s) = 3.60456 3.85668 3.73275
# Velocity P-wave (km/s) = 5.15936 5.68829 5.43027
#
# Compressibility (1/GPa) = 0.04461363
#
# Stress axis : x y z
#
# Youngs Moduli (GPa) = 42.12032 111.51266 82.13075
#
# Poissons Ratio (x) = 0.02468 -0.02428
# Poissons Ratio (y) = 0.00932 0.01724
# Poissons Ratio (z) = -0.01245 0.02341
#
# Static dielectric constant tensor:
#      x y z
#    x 4.389920 -0.215070 0.041050 
#    y -0.215070 4.696460 0.146060 
#    z 0.041050 0.146060 4.339310 
# 
# 
# High freq. dielectric constant tensor:
#      x y z
#    x 1.953950 0.007680 0.007790 
#    y 0.007680 1.965050 -0.008750 
#    z 0.007790 -0.008750 1.937200 
# 
# From -- ./inp_files/83245.got.cif
#   From: 2010.06.25/outbox.cif.g09.slc.cpg/sg2_42_cif.got.tgz:83245.got - 2010.06.27 13:26:56.
