data_PCOD8022792
_publ_section_title
;
Structure prediction by ZEFSAII (Michael W. Deem and Ramdas Pophale) SiO2 
 PCOD8022792
Probable space group: P -1
;
_chemical_formula_sum "Si O2"
_cell_formula_units_Z 12
_cell_length_a 5.441306
_cell_length_b 21.514123
_cell_length_c 24.033130
_cell_angle_alpha 169.456921
_cell_angle_beta 103.273799
_cell_angle_gamma 75.486958
_cell_volume 496.124234
_symmetry_space_group_name_H-M "P -1"
_symmetry_group_IT_number 2
_symmetry_cell_setting 'triclinic'
loop_
_space_group_symop_operation_xyz
x,y,z
-x,-y,-z
loop_
_atom_site_type_symbol
_atom_site_label
_atom_site_fract_x
_atom_site_fract_y
_atom_site_fract_z
Si Si1 0.993787 0.140027 0.061274
Si Si2 0.119704 0.862444 0.714163
Si Si3 0.572614 0.116545 0.464833
Si Si4 0.591280 0.224223 0.030084
Si Si5 0.260182 0.776402 0.221753
Si Si6 0.153694 0.590203 0.169522
O O1 0.135348 0.471838 0.353125
O O2 0.698365 0.223329 0.098445
O O3 0.151840 0.866463 0.786903
O O4 0.000000 0.000000 0.000000
O O5 0.347291 0.020007 0.833650
O O6 0.833311 0.062714 0.861773
O O7 0.498632 0.385841 0.649303
O O8 0.344591 0.121205 0.502805
O O9 0.616338 0.732848 0.104129
O O10 0.821753 0.207294 0.592506
O O11 0.088986 0.607518 0.019931
O O12 0.500000 0.500000 0.000000
O O13 0.147207 0.847984 0.341926
#
# Coordination Sequence:
#
# PCOD8022792 Si02
#       6
#     2   2   2   2   2   2
#     4  10  24  45  72 100 134 176 220 270 326 391
#     4  10  25  42  67  97 136 169 223 266 329 389
#     4  11  24  38  63  88 125 167 212 262 326 380
#     4  10  27  42  67  98 138 175 220 272 329 393
#     4   9  21  41  61  90 121 162 212 268 318 384
#     4  10  23  39  62  89 122 162 216 265 324 378
#
# _framework density 24.187491999999999
#
# number of rings (size 3 to 8) (size 9 to 14) (size 15 to 20)
#    1.000    1.000    0.000    1.000    7.000   11.333 
#    0.000    0.000    0.000    0.000    0.000    0.000 
#    0.000    0.000    0.000    0.000    0.000    0.000 
#
# Total GULP energy -148672.736139 kJ/mol
# GULP energy per Si atom -12389.394678 kJ/mol
# Density = 2.413244 g / cm^3
# Si number density = 24.187492 Si / 1000 Ang^3
#
#
#
# Elastic Constant Matrix: (Units=GPa)
#
#
# Indices 1 2 3 4 5 6 
#
# 1 115.3309 12.8964 2.3336 11.7890 30.1372 -7.6642
# 2 12.8964 79.1178 3.4980 20.7344 2.8908 -17.3558
# 3 2.3336 3.4980 54.4458 3.4629 22.9193 -4.9264
# 4 11.7890 20.7344 3.4629 47.8111 8.0794 -1.6629
# 5 30.1372 2.8908 22.9193 8.0794 35.1234 -2.6611
# 6 -7.6642 -17.3558 -4.9264 -1.6629 -2.6611 22.6384
#
#
#
# Elastic Compliance Matrix: (Units=1/GPa)
#
#
# Indices 1 2 3 4 5 6 
#
# 1 0.012632 -0.000957 0.005805 -0.000618 -0.014172 0.003095
# 2 -0.000957 0.017402 -0.000439 -0.007227 0.002297 0.012661
# 3 0.005805 -0.000439 0.028339 0.000811 -0.023236 0.005124
# 4 -0.000618 -0.007227 0.000811 0.024915 -0.005468 -0.004386
# 5 -0.014172 0.002297 -0.023236 -0.005468 0.056723 -0.001827
# 6 0.003095 0.012661 0.005124 -0.004386 -0.001827 0.055505
#
#
# Mechanical properties :
#
#
# Convention : Reuss Voigt Hill
#
# Bulk Modulus (GPa) = 14.88266 31.81671 23.34968
# Shear Modulus (GPa) = 23.91245 36.45903 30.18574
#
# Velocity S-wave (km/s) = 3.14766 3.88667 3.53652
# Velocity P-wave (km/s) = 4.40190 5.77273 5.13328
#
# Compressibility (1/GPa) = 0.06719228
#
# Stress axis : x y z
#
# Youngs Moduli (GPa) = 79.16247 57.46382 35.28647
#
# Poissons Ratio (x) = 0.05500 -0.20484
# Poissons Ratio (y) = 0.07577 0.01548
# Poissons Ratio (z) = -0.45954 0.02521
#
# Static dielectric constant tensor:
#      x y z
#    x 2.665730 -0.867350 0.519900 
#    y -0.867350 3.725080 0.159700 
#    z 0.519900 0.159700 4.137740 
# 
# 
# High freq. dielectric constant tensor:
#      x y z
#    x 1.965180 -0.010620 0.004570 
#    y -0.010620 1.937510 -0.005320 
#    z 0.004570 -0.005320 1.963400 
# 
# From -- ./inp_files/5139.got.cif
#   From: 2010.06.25/outbox.cif.g09.slc.cpg/sg2_3_cif.got.tgz:5139.got - 2010.06.27 13:26:56.
