data_PCOD8022963
_publ_section_title
;
Structure prediction by ZEFSAII (Michael W. Deem and Ramdas Pophale) SiO2 
 PCOD8022963
Probable space group: P -1
;
_chemical_formula_sum "Si O2"
_cell_formula_units_Z 16
_cell_length_a 14.465434
_cell_length_b 9.157846
_cell_length_c 8.458809
_cell_angle_alpha 54.497006
_cell_angle_beta 90.894259
_cell_angle_gamma 119.051569
_cell_volume 739.474079
_symmetry_space_group_name_H-M "P -1"
_symmetry_group_IT_number 2
_symmetry_cell_setting 'triclinic'
loop_
_space_group_symop_operation_xyz
x,y,z
-x,-y,-z
loop_
_atom_site_type_symbol
_atom_site_label
_atom_site_fract_x
_atom_site_fract_y
_atom_site_fract_z
Si Si1 0.063036 0.654085 0.755015
Si Si2 0.547902 0.464625 0.676500
Si Si3 0.708811 0.335545 0.722979
Si Si4 0.115260 0.069475 0.148005
Si Si5 0.880448 0.729484 0.647937
Si Si6 0.311379 0.102415 0.978550
Si Si7 0.900050 0.634340 0.287029
Si Si8 0.766144 0.905244 0.374377
O O1 0.070306 0.516747 0.705024
O O2 0.998010 0.753318 0.619265
O O3 0.187642 0.862244 0.686863
O O4 0.000000 0.500000 0.000000
O O5 0.500000 0.500000 0.500000
O O6 0.593262 0.319144 0.721024
O O7 0.438380 0.325149 0.876427
O O8 0.652192 0.707878 0.589205
O O9 0.777150 0.468705 0.801691
O O10 0.789088 0.472380 0.490400
O O11 0.675066 0.093291 0.883657
O O12 0.116306 0.155075 0.265781
O O13 0.228627 0.078341 0.127999
O O14 0.124866 0.240807 0.917455
O O15 0.007773 0.815817 0.281285
O O16 0.861150 0.852347 0.425593
O O17 0.258210 0.093325 0.812059
#
# Coordination Sequence:
#
# PCOD8022963 Si02
#       8
#     2   2   2   2   2   2   2   2
#     4  12  23  40  62  95 133 168 205 264 318 380
#     4   9  20  42  71  90 121 169 216 263 312 375
#     4  11  24  41  66 100 125 166 212 264 319 379
#     4  11  24  40  62  95 129 171 210 260 317 389
#     4  11  24  38  63  92 132 171 205 255 325 378
#     4  11  23  43  68  91 127 166 222 263 311 374
#     4  11  25  40  64  93 134 166 212 259 323 384
#     4  10  23  40  63  92 123 171 215 257 315 377
#
# _framework density 21.636998999999999
#
# number of rings (size 3 to 8) (size 9 to 14) (size 15 to 20)
#    0.000    1.250    1.250    5.250    8.750    1.000 
#    0.000    2.500    2.750    2.250    0.000    0.000 
#    0.000    0.000    0.000    0.000    0.000    0.000 
#
# Total GULP energy -198306.203537 kJ/mol
# GULP energy per Si atom -12394.137721 kJ/mol
# Density = 2.158775 g / cm^3
# Si number density = 21.636999 Si / 1000 Ang^3
#
#
#
# Elastic Constant Matrix: (Units=GPa)
#
#
# Indices 1 2 3 4 5 6 
#
# 1 115.5712 34.0161 13.0433 -2.7160 3.0441 -1.6681
# 2 34.0161 124.4079 17.9784 -13.5342 3.6168 -9.6963
# 3 13.0433 17.9784 65.2897 -14.4483 15.5667 6.5001
# 4 -2.7160 -13.5342 -14.4483 36.3018 3.6607 -7.9387
# 5 3.0441 3.6168 15.5667 3.6607 27.3372 -0.7052
# 6 -1.6681 -9.6963 6.5001 -7.9387 -0.7052 28.5443
#
#
#
# Elastic Compliance Matrix: (Units=1/GPa)
#
#
# Indices 1 2 3 4 5 6 
#
# 1 0.009525 -0.002513 -0.001426 -0.000856 0.000193 -0.000206
# 2 -0.002513 0.009758 -0.001691 0.003829 -0.000442 0.004607
# 3 -0.001426 -0.001691 0.021348 0.008296 -0.012976 -0.003533
# 4 -0.000856 0.003829 0.008296 0.035126 -0.009609 0.008893
# 5 0.000193 -0.000442 -0.012976 -0.009609 0.045325 0.001263
# 6 -0.000206 0.004607 -0.003533 0.008893 0.001263 0.039895
#
#
# Mechanical properties :
#
#
# Convention : Reuss Voigt Hill
#
# Bulk Modulus (GPa) = 34.04664 48.37158 41.20911
# Shear Modulus (GPa) = 27.46832 34.45206 30.96019
#
# Velocity S-wave (km/s) = 3.56688 3.99466 3.78682
# Velocity P-wave (km/s) = 5.72128 6.60915 6.18118
#
# Compressibility (1/GPa) = 0.02937148
#
# Stress axis : x y z
#
# Youngs Moduli (GPa) = 104.98560 102.47947 46.84282
#
# Poissons Ratio (x) = 0.25754 0.06679
# Poissons Ratio (y) = 0.26384 0.07920
# Poissons Ratio (z) = 0.14970 0.17327
#
# Static dielectric constant tensor:
#      x y z
#    x 4.485520 0.345700 -0.150400 
#    y 0.345700 4.342150 -0.187040 
#    z -0.150400 -0.187040 3.493730 
# 
# 
# High freq. dielectric constant tensor:
#      x y z
#    x 1.854850 -0.000130 0.012180 
#    y -0.000130 1.850210 -0.018580 
#    z 0.012180 -0.018580 1.855930 
# 
# From -- ./inp_files/294528.got.cif
#   From: 2010.06.25/outbox.cif.g09.slc.cpg/sg2_148_cif.got.tgz:294528.got - 2010.06.27 13:26:56.
