data_PCOD8022515
_publ_section_title
;
Structure prediction by ZEFSAII (Michael W. Deem and Ramdas Pophale) SiO2 
 PCOD8022515
Probable space group: P -1
;
_chemical_formula_sum "Si O2"
_cell_formula_units_Z 16
_cell_length_a 8.617577
_cell_length_b 19.246093
_cell_length_c 11.016089
_cell_angle_alpha 45.713102
_cell_angle_beta 41.067544
_cell_angle_gamma 73.929079
_cell_volume 728.211449
_symmetry_space_group_name_H-M "P -1"
_symmetry_group_IT_number 2
_symmetry_cell_setting 'triclinic'
loop_
_space_group_symop_operation_xyz
x,y,z
-x,-y,-z
loop_
_atom_site_type_symbol
_atom_site_label
_atom_site_fract_x
_atom_site_fract_y
_atom_site_fract_z
Si Si1 0.693789 0.341743 0.610217
Si Si2 0.798516 0.031896 0.641692
Si Si3 0.289056 0.152836 0.909208
Si Si4 0.767546 0.713293 0.878164
Si Si5 0.336884 0.919188 0.581678
Si Si6 0.468763 0.233587 0.444180
Si Si7 0.968393 0.563910 0.053715
Si Si8 0.724057 0.631093 0.743092
O O1 0.546986 0.272854 0.657698
O O2 0.776753 0.471741 0.381423
O O3 0.965912 0.340938 0.482806
O O4 0.483111 0.281612 0.919285
O O5 0.589687 0.019402 0.670461
O O6 0.960241 0.159565 0.446528
O O7 0.000000 0.000000 0.500000
O O8 0.664398 0.945029 0.941085
O O9 0.318503 0.151574 0.748605
O O10 0.995946 0.140332 0.131337
O O11 0.653801 0.648559 0.898760
O O12 0.838641 0.639188 0.012178
O O13 0.433244 0.828198 0.632428
O O14 0.500000 0.000000 0.500000
O O15 0.262070 0.266995 0.467008
O O16 0.727033 0.357431 0.170212
O O17 0.000000 0.500000 0.000000
O O18 0.500000 0.500000 0.000000
#
# Coordination Sequence:
#
# PCOD8022515 Si02
#       8
#     2   2   2   2   2   2   2   2
#     4  12  24  45  77 103 137 191 237 287 352 429
#     4  10  22  46  72 105 140 177 246 290 336 428
#     4  11  25  46  75 105 136 190 242 282 354 426
#     4  12  24  46  77 102 138 194 234 289 357 411
#     4  11  26  47  72 105 145 180 233 303 347 413
#     4  12  25  46  69 102 148 186 226 294 368 405
#     4  12  21  45  73 105 142 177 237 296 341 428
#     4  12  28  47  66 107 151 180 234 297 349 420
#
# _framework density 21.971641999999999
#
# number of rings (size 3 to 8) (size 9 to 14) (size 15 to 20)
#    0.000    0.500    7.500    0.375    3.500    3.500 
#    0.000    0.000    0.000    0.000    0.000    0.000 
#    0.000    0.000    0.000    0.000    0.000    0.000 
#
# Total GULP energy -198358.673920 kJ/mol
# GULP energy per Si atom -12397.417120 kJ/mol
# Density = 2.192163 g / cm^3
# Si number density = 21.971642 Si / 1000 Ang^3
#
#
#
# Elastic Constant Matrix: (Units=GPa)
#
#
# Indices 1 2 3 4 5 6 
#
# 1 131.7474 44.8794 52.5498 -15.1600 -2.5238 -17.2736
# 2 44.8794 112.7278 31.6141 -18.8135 -8.5385 -11.7252
# 3 52.5498 31.6141 108.8386 -14.1661 8.8986 -11.8222
# 4 -15.1600 -18.8135 -14.1661 34.3984 -6.2857 -2.2494
# 5 -2.5238 -8.5385 8.8986 -6.2857 36.8616 -7.7352
# 6 -17.2736 -11.7252 -11.8222 -2.2494 -7.7352 32.6368
#
#
#
# Elastic Compliance Matrix: (Units=1/GPa)
#
#
# Indices 1 2 3 4 5 6 
#
# 1 0.010834 -0.002081 -0.004011 0.002745 0.002607 0.004340
# 2 -0.002081 0.011999 -0.001626 0.006159 0.004965 0.004221
# 3 -0.004011 -0.001626 0.012214 0.001891 -0.003041 0.001127
# 4 0.002745 0.006159 0.001891 0.036727 0.009329 0.009093
# 5 0.002607 0.004965 -0.003041 0.009329 0.032990 0.010524
# 6 0.004340 0.004221 0.001127 0.009093 0.010524 0.037983
#
#
# Mechanical properties :
#
#
# Convention : Reuss Voigt Hill
#
# Bulk Modulus (GPa) = 50.99434 67.93337 59.46386
# Shear Modulus (GPa) = 30.35444 35.73072 33.04258
#
# Velocity S-wave (km/s) = 3.72092 4.03702 3.88219
# Velocity P-wave (km/s) = 6.45910 7.26056 6.87152
#
# Compressibility (1/GPa) = 0.01961002
#
# Stress axis : x y z
#
# Youngs Moduli (GPa) = 92.30287 83.34267 81.87419
#
# Poissons Ratio (x) = 0.17347 0.32837
# Poissons Ratio (y) = 0.19212 0.13313
# Poissons Ratio (z) = 0.37020 0.13552
#
# Static dielectric constant tensor:
#      x y z
#    x 3.391430 0.785910 -0.865970 
#    y 0.785910 3.111760 0.782750 
#    z -0.865970 0.782750 3.029210 
# 
# 
# High freq. dielectric constant tensor:
#      x y z
#    x 1.869380 -0.007410 0.003950 
#    y -0.007410 1.876970 -0.007460 
#    z 0.003950 -0.007460 1.860900 
# 
# From -- ./inp_files/405373.got.cif
#   From: 2010.06.25/outbox.cif.g09.slc.cpg/sg2_203_cif.got.tgz:405373.got - 2010.06.27 13:26:56.
