data_PCOD8022642
_publ_section_title
;
Structure prediction by ZEFSAII (Michael W. Deem and Ramdas Pophale) SiO2 
 PCOD8022642
Probable space group: P -1
;
_chemical_formula_sum "Si O2"
_cell_formula_units_Z 16
_cell_length_a 13.006597
_cell_length_b 9.706495
_cell_length_c 13.770114
_cell_angle_alpha 69.836783
_cell_angle_beta 131.953280
_cell_angle_gamma 145.416718
_cell_volume 640.811511
_symmetry_space_group_name_H-M "P -1"
_symmetry_group_IT_number 2
_symmetry_cell_setting 'triclinic'
loop_
_space_group_symop_operation_xyz
x,y,z
-x,-y,-z
loop_
_atom_site_type_symbol
_atom_site_label
_atom_site_fract_x
_atom_site_fract_y
_atom_site_fract_z
Si Si1 0.837756 0.713420 0.815176
Si Si2 0.519484 0.861220 0.594073
Si Si3 0.630264 0.016944 0.194888
Si Si4 0.873818 0.526315 0.713402
Si Si5 0.939570 0.081511 0.692302
Si Si6 0.235162 0.617409 0.667183
Si Si7 0.049977 0.439704 0.956711
Si Si8 0.262341 0.168302 0.577282
O O1 0.981517 0.761584 0.985828
O O2 0.537458 0.499891 0.700621
O O3 0.781204 0.535735 0.743876
O O4 0.030065 0.015311 0.823749
O O5 0.465148 0.804569 0.688209
O O6 0.284907 0.566266 0.459297
O O7 0.500000 0.000000 0.500000
O O8 0.793754 0.038042 0.695713
O O9 0.821480 0.169684 0.187199
O O10 0.648977 0.194202 0.212850
O O11 0.348500 0.732359 0.040126
O O12 0.710205 0.974774 0.338692
O O13 0.855496 0.330077 0.776019
O O14 0.158990 0.384849 0.711600
O O15 0.760226 0.855925 0.547691
O O16 0.000000 0.500000 0.500000
O O17 0.000000 0.500000 0.000000
O O18 0.000000 0.000000 0.500000
#
# Coordination Sequence:
#
# PCOD8022642 Si02
#       8
#     2   2   2   2   2   2   2   2
#     4  10  23  37  57  92 127 160 205 253 314 364
#     4  12  23  37  63  94 125 163 204 252 311 368
#     4  11  21  39  60  90 125 154 212 253 304 372
#     4  11  20  39  63  92 120 160 206 253 311 364
#     4  12  23  38  57  88 135 161 200 250 314 376
#     4  12  23  38  57  93 125 164 203 248 305 376
#     4   9  22  39  63  89 115 161 208 260 303 359
#     4  11  21  33  58  90 129 163 192 258 322 372
#
# _framework density 24.968340999999999
#
# number of rings (size 3 to 8) (size 9 to 14) (size 15 to 20)
#    0.000    1.000    5.000    1.500    7.000    0.000 
#    0.000    0.000    0.000    6.000    0.000    0.000 
#    0.000    0.000    0.000    0.000    0.000    0.000 
#
# Total GULP energy -198243.906954 kJ/mol
# GULP energy per Si atom -12390.244185 kJ/mol
# Density = 2.491151 g / cm^3
# Si number density = 24.968341 Si / 1000 Ang^3
#
#
#
# Elastic Constant Matrix: (Units=GPa)
#
#
# Indices 1 2 3 4 5 6 
#
# 1 89.9538 6.6135 1.6006 7.8844 10.2265 24.2476
# 2 6.6135 144.6062 20.5980 -31.4434 12.8549 6.6414
# 3 1.6006 20.5980 77.5505 -21.3244 7.9282 -3.4661
# 4 7.8844 -31.4434 -21.3244 26.8269 -5.6220 6.4021
# 5 10.2265 12.8549 7.9282 -5.6220 23.3313 0.7025
# 6 24.2476 6.6414 -3.4661 6.4021 0.7025 43.2669
#
#
#
# Elastic Compliance Matrix: (Units=1/GPa)
#
#
# Indices 1 2 3 4 5 6 
#
# 1 0.014381 -0.000864 -0.001364 -0.006028 -0.006604 -0.007037
# 2 -0.000864 0.009954 0.001039 0.012952 -0.002252 -0.002841
# 3 -0.001364 0.001039 0.016883 0.014622 -0.002183 -0.000171
# 4 -0.006028 0.012952 0.014622 0.069281 0.007467 -0.007811
# 5 -0.006604 -0.002252 -0.002183 0.007467 0.049478 0.001964
# 6 -0.007037 -0.002841 -0.000171 -0.007811 0.001964 0.028602
#
#
# Mechanical properties :
#
#
# Convention : Reuss Voigt Hill
#
# Bulk Modulus (GPa) = 25.74712 41.08162 33.41437
# Shear Modulus (GPa) = 24.52131 37.57156 31.04644
#
# Velocity S-wave (km/s) = 3.13724 3.88334 3.53006
# Velocity P-wave (km/s) = 4.84328 6.04949 5.47967
#
# Compressibility (1/GPa) = 0.03883929
#
# Stress axis : x y z
#
# Youngs Moduli (GPa) = 69.53820 100.46302 59.23001
#
# Poissons Ratio (x) = 0.08679 0.08081
# Poissons Ratio (y) = 0.06007 -0.06153
# Poissons Ratio (z) = 0.09487 -0.10437
#
# Static dielectric constant tensor:
#      x y z
#    x 4.404010 0.267870 0.108930 
#    y 0.267870 4.104440 -0.268900 
#    z 0.108930 -0.268900 5.355520 
# 
# 
# High freq. dielectric constant tensor:
#      x y z
#    x 1.986070 0.014340 0.006920 
#    y 0.014340 2.003280 -0.021050 
#    z 0.006920 -0.021050 1.977770 
# 
# From -- ./inp_files/515430.got.cif
#   From: 2010.06.25/outbox.cif.g09.slc.cpg/sg2_258_cif.got.tgz:515430.got - 2010.06.27 13:26:56.
