data_PCOD8022226
_publ_section_title
;
Structure prediction by ZEFSAII (Michael W. Deem and Ramdas Pophale) SiO2 
 PCOD8022226
Probable space group: P -1
;
_chemical_formula_sum "Si O2"
_cell_formula_units_Z 16
_cell_length_a 6.817900
_cell_length_b 8.982162
_cell_length_c 18.064860
_cell_angle_alpha 45.823247
_cell_angle_beta 111.384505
_cell_angle_gamma 100.618838
_cell_volume 734.746109
_symmetry_space_group_name_H-M "P -1"
_symmetry_group_IT_number 2
_symmetry_cell_setting 'triclinic'
loop_
_space_group_symop_operation_xyz
x,y,z
-x,-y,-z
loop_
_atom_site_type_symbol
_atom_site_label
_atom_site_fract_x
_atom_site_fract_y
_atom_site_fract_z
Si Si1 0.402256 0.813523 0.588370
Si Si2 0.475519 0.259303 0.069921
Si Si3 0.020517 0.802451 0.434114
Si Si4 0.288522 0.811096 0.735054
Si Si5 0.255862 0.542528 0.433372
Si Si6 0.142009 0.351842 0.873452
Si Si7 0.384408 0.090284 0.881880
Si Si8 0.687068 0.390964 0.751292
O O1 0.183466 0.778903 0.531970
O O2 0.362851 0.886435 0.640937
O O3 0.564471 0.609651 0.679566
O O4 0.500000 0.000000 0.500000
O O5 0.508874 0.172027 0.188352
O O6 0.663628 0.117334 0.099339
O O7 0.500000 0.500000 0.000000
O O8 0.255910 0.235665 0.002483
O O9 0.135939 0.730486 0.398739
O O10 0.837371 0.667523 0.482030
O O11 0.918160 0.036729 0.322468
O O12 0.219878 0.579149 0.801192
O O13 0.500000 0.500000 0.500000
O O14 0.229071 0.604208 0.322611
O O15 0.190880 0.240679 0.838013
O O16 0.889770 0.355798 0.846549
O O17 0.532233 0.213316 0.805459
O O18 0.500000 0.000000 0.000000
#
# Coordination Sequence:
#
# PCOD8022226 Si02
#       8
#     2   2   2   2   2   2   2   2
#     4  12  24  41  66 101 143 182 230 274 332 422
#     4   9  22  41  68  96 126 169 225 277 338 401
#     4  11  25  42  67  97 142 186 227 281 346 395
#     4  11  22  41  71  94 137 182 218 284 345 397
#     4  11  25  43  65 100 143 177 235 287 330 413
#     4  10  22  45  68  98 133 175 228 277 345 409
#     4  10  23  43  71  93 134 175 230 281 340 400
#     4  12  24  40  73  99 135 185 228 275 344 408
#
# _framework density 21.776230000000002
#
# number of rings (size 3 to 8) (size 9 to 14) (size 15 to 20)
#    0.000    1.250    2.500    2.625    3.500    2.000 
#    0.000    0.625    5.500    0.000    0.000    0.000 
#    0.000    0.000    0.000    0.000    0.000    0.000 
#
# Total GULP energy -198228.363883 kJ/mol
# GULP energy per Si atom -12389.272743 kJ/mol
# Density = 2.172667 g / cm^3
# Si number density = 21.776230 Si / 1000 Ang^3
#
#
#
# Elastic Constant Matrix: (Units=GPa)
#
#
# Indices 1 2 3 4 5 6 
#
# 1 52.2728 -21.6698 -163.4963 -45.1316 61.6837 -4.8835
# 2 -21.6698 64.3666 -195.3351 -62.3058 65.3734 -20.2606
# 3 -163.4963 -195.3351 -682.7573 -166.2724 179.3137 -16.1088
# 4 -45.1316 -62.3058 -166.2724 9.4068 36.9914 7.3563
# 5 61.6837 65.3734 179.3137 36.9914 10.2501 2.9430
# 6 -4.8835 -20.2606 -16.1088 7.3563 2.9430 29.4250
#
#
#
# Elastic Compliance Matrix: (Units=1/GPa)
#
#
# Indices 1 2 3 4 5 6 
#
# 1 0.012272 -0.002247 -0.003276 0.000425 -0.003434 -0.001067
# 2 -0.002247 0.009697 -0.003054 0.001443 -0.001378 0.004409
# 3 -0.003276 -0.003054 0.003008 -0.005301 0.005777 -0.000252
# 4 0.000425 0.001443 -0.005301 0.022505 0.001955 -0.007660
# 5 -0.003434 -0.001378 0.005777 0.001955 0.019110 -0.000756
# 6 -0.001067 0.004409 -0.000252 -0.007660 -0.000756 0.038696
#
#
# Mechanical properties :
#
#
# Convention : Reuss Voigt Hill
#
# Bulk Modulus (GPa) = 127.82729 -147.45781 -9.81526
# Shear Modulus (GPa) = 39.98413 -2.55808 18.71303
#
# Velocity S-wave (km/s) = 4.28967 -1.08502 2.93462
# Velocity P-wave (km/s) = 9.13032 8.33257 2.63923
#
# Compressibility (1/GPa) = 0.00782306
#
# Stress axis : x y z
#
# Youngs Moduli (GPa) = 81.48667 103.12389 332.46888
#
# Poissons Ratio (x) = 0.23172 1.08925
# Poissons Ratio (y) = 0.18310 1.01525
# Poissons Ratio (z) = 0.26697 0.31491
#
# Static dielectric constant tensor:
#      x y z
#    x 37.988380 -57.228540 5.982230 
#    y -57.228540 99.426720 -9.490580 
#    z 5.982230 -9.490580 5.214040 
# 
# 
# High freq. dielectric constant tensor:
#      x y z
#    x 1.831290 -0.015110 0.016780 
#    y -0.015110 1.877440 -0.002480 
#    z 0.016780 -0.002480 1.873770 
# 
# From -- ./inp_files/547789.got.cif
#   From: 2010.06.25/outbox.cif.g09.slc.cpg/sg2_274_cif.got.tgz:547789.got - 2010.06.27 13:26:56.
