data_PCOD8022549
_publ_section_title
;
Structure prediction by ZEFSAII (Michael W. Deem and Ramdas Pophale) SiO2 
 PCOD8022549
Probable space group: P -1
;
_chemical_formula_sum "Si O2"
_cell_formula_units_Z 14
_cell_length_a 9.762929
_cell_length_b 12.761546
_cell_length_c 9.140313
_cell_angle_alpha 35.959751
_cell_angle_beta 95.248132
_cell_angle_gamma 89.597509
_cell_volume 659.484998
_symmetry_space_group_name_H-M "P -1"
_symmetry_group_IT_number 2
_symmetry_cell_setting 'triclinic'
loop_
_space_group_symop_operation_xyz
x,y,z
-x,-y,-z
loop_
_atom_site_type_symbol
_atom_site_label
_atom_site_fract_x
_atom_site_fract_y
_atom_site_fract_z
Si Si1 0.744781 0.374968 0.457619
Si Si2 0.892524 0.991021 0.370763
Si Si3 0.513225 0.356989 0.798089
Si Si4 0.174300 0.636529 0.201945
Si Si5 0.479304 0.826536 0.285998
Si Si6 0.417693 0.008944 0.630696
Si Si7 0.000004 0.398707 0.268128
O O1 0.609273 0.525228 0.258519
O O2 0.833657 0.393183 0.591573
O O3 0.682444 0.182585 0.674726
O O4 0.840506 0.396989 0.302740
O O5 0.929544 0.806926 0.494291
O O6 0.741186 0.994503 0.423048
O O7 0.000000 0.000000 0.500000
O O8 0.893620 0.159127 0.072225
O O9 0.667554 0.404023 0.794634
O O10 0.483336 0.349286 0.623841
O O11 0.511189 0.155398 0.079960
O O12 0.083973 0.497927 0.280034
O O13 0.567593 0.818856 0.454826
O O14 0.500000 0.000000 0.000000
O O15 0.500000 0.000000 0.500000
O O16 0.000000 0.500000 0.000000
#
# Coordination Sequence:
#
# PCOD8022549 Si02
#       7
#     2   2   2   2   2   2   2
#     4  11  24  42  69 101 131 169 226 281 330 408
#     4  11  25  44  65  92 140 180 220 278 327 400
#     4   9  21  41  67  94 132 163 216 288 331 387
#     4  10  22  47  66  97 132 175 226 278 335 391
#     4   9  19  40  64  96 128 162 211 276 334 381
#     4  10  23  38  66  97 125 175 223 267 333 397
#     4  12  27  44  67  96 140 186 221 268 342 398
#
# _framework density 21.228686
#
# number of rings (size 3 to 8) (size 9 to 14) (size 15 to 20)
#    0.000    1.714    1.429    3.000    8.000    0.571 
#    2.571    1.429    0.000    0.000    0.000    0.000 
#    0.000    0.000    0.000    0.000    0.000    0.000 
#
# Total GULP energy -173512.823302 kJ/mol
# GULP energy per Si atom -12393.773093 kJ/mol
# Density = 2.118037 g / cm^3
# Si number density = 21.228686 Si / 1000 Ang^3
#
#
#
# Elastic Constant Matrix: (Units=GPa)
#
#
# Indices 1 2 3 4 5 6 
#
# 1 140.5080 57.3938 70.4878 2.6885 -16.4312 -7.2998
# 2 57.3938 102.7985 41.0674 -4.7094 -13.6372 13.9268
# 3 70.4878 41.0674 89.0361 -6.9769 -0.8131 -4.5211
# 4 2.6885 -4.7094 -6.9769 40.5643 -2.7461 1.4357
# 5 -16.4312 -13.6372 -0.8131 -2.7461 42.7889 0.1314
# 6 -7.2998 13.9268 -4.5211 1.4357 0.1314 43.8284
#
#
#
# Elastic Compliance Matrix: (Units=1/GPa)
#
#
# Indices 1 2 3 4 5 6 
#
# 1 0.014133 -0.004192 -0.009303 -0.002871 0.003721 0.002809
# 2 -0.004192 0.014821 -0.003645 0.001794 0.003178 -0.005852
# 3 -0.009303 -0.003645 0.020589 0.003397 -0.004130 0.001634
# 4 -0.002871 0.001794 0.003397 0.025771 0.001192 -0.001546
# 5 0.003721 0.003178 -0.004130 0.001192 0.025813 -0.000932
# 6 0.002809 -0.005852 0.001634 -0.001546 -0.000932 0.025366
#
#
# Mechanical properties :
#
#
# Convention : Reuss Voigt Hill
#
# Bulk Modulus (GPa) = 65.52089 74.47118 69.99603
# Shear Modulus (GPa) = 30.14605 36.32922 33.23764
#
# Velocity S-wave (km/s) = 3.77246 4.14131 3.96118
# Velocity P-wave (km/s) = 7.06446 7.61734 7.34610
#
# Compressibility (1/GPa) = 0.01526231
#
# Stress axis : x y z
#
# Youngs Moduli (GPa) = 70.75866 67.47217 48.56977
#
# Poissons Ratio (x) = 0.28287 0.45185
# Poissons Ratio (y) = 0.29664 0.17702
# Poissons Ratio (z) = 0.65827 0.24591
#
# Static dielectric constant tensor:
#      x y z
#    x 3.922450 0.324000 -0.054260 
#    y 0.324000 4.836400 -0.030400 
#    z -0.054260 -0.030400 4.109580 
# 
# 
# High freq. dielectric constant tensor:
#      x y z
#    x 1.829560 0.016130 -0.008230 
#    y 0.016130 1.836190 -0.009290 
#    z -0.008230 -0.009290 1.841700 
# 
# From -- ./inp_files/183853.got.cif
#   From: 2010.06.25/outbox.cif.g09.slc.cpg/sg2_92_cif.got.tgz:183853.got - 2010.06.27 13:26:56.
