data_PCOD8022814
_publ_section_title
;
Structure prediction by ZEFSAII (Michael W. Deem and Ramdas Pophale) SiO2 
 PCOD8022814
Probable space group: P -1
;
_chemical_formula_sum "Si O2"
_cell_formula_units_Z 16
_cell_length_a 13.188290
_cell_length_b 9.195134
_cell_length_c 9.306336
_cell_angle_alpha 124.551379
_cell_angle_beta 112.023969
_cell_angle_gamma 51.671522
_cell_volume 728.693022
_symmetry_space_group_name_H-M "P -1"
_symmetry_group_IT_number 2
_symmetry_cell_setting 'triclinic'
loop_
_space_group_symop_operation_xyz
x,y,z
-x,-y,-z
loop_
_atom_site_type_symbol
_atom_site_label
_atom_site_fract_x
_atom_site_fract_y
_atom_site_fract_z
Si Si1 0.385107 0.083357 0.370050
Si Si2 0.090931 0.280950 0.342440
Si Si3 0.469130 0.856421 0.996188
Si Si4 0.648590 0.501219 0.472132
Si Si5 0.985475 0.683266 0.995575
Si Si6 0.393730 0.575423 0.276768
Si Si7 0.782355 0.131677 0.161546
Si Si8 0.161621 0.849129 0.127875
O O1 0.243426 0.153420 0.397417
O O2 0.348698 0.294435 0.387645
O O3 0.500000 0.000000 0.500000
O O4 0.440206 0.909241 0.178279
O O5 0.073766 0.337544 0.196496
O O6 0.000000 0.500000 0.500000
O O7 0.056219 0.099189 0.245521
O O8 0.592045 0.621582 0.911589
O O9 0.348283 0.860675 0.864571
O O10 0.500000 0.000000 0.000000
O O11 0.525726 0.571976 0.342968
O O12 0.647109 0.409260 0.572234
O O13 0.776437 0.318227 0.354931
O O14 0.000000 0.500000 0.000000
O O15 0.114561 0.689083 0.042301
O O16 0.892411 0.904114 0.147769
O O17 0.286400 0.781493 0.253503
O O18 0.798327 0.166064 0.023787
#
# Coordination Sequence:
#
# PCOD8022814 Si02
#       8
#     2   2   2   2   2   2   2   2
#     4  12  25  41  69 103 140 176 235 279 345 407
#     4  11  26  48  69 101 141 179 230 289 345 408
#     4  11  22  41  66  95 140 180 220 285 342 403
#     4  10  23  39  63  95 137 173 217 280 339 402
#     4  11  26  45  70  97 129 182 233 280 345 413
#     4  10  23  40  63  96 133 178 220 274 345 401
#     4  10  23  44  64  93 133 178 225 277 337 408
#     4  11  24  44  71  96 134 178 233 279 341 412
#
# _framework density 21.957121000000001
#
# number of rings (size 3 to 8) (size 9 to 14) (size 15 to 20)
#    0.000    1.250    3.750    2.250    8.750    2.000 
#    0.000    1.250    0.000    0.000    0.000    0.000 
#    0.000    0.000    0.000    0.000    0.000    0.000 
#
# Total GULP energy -198248.101134 kJ/mol
# GULP energy per Si atom -12390.506321 kJ/mol
# Density = 2.190715 g / cm^3
# Si number density = 21.957121 Si / 1000 Ang^3
#
#
#
# Elastic Constant Matrix: (Units=GPa)
#
#
# Indices 1 2 3 4 5 6 
#
# 1 84.5568 38.9418 18.3482 3.3153 -3.3634 4.6500
# 2 38.9418 135.9587 46.7686 3.5896 -9.3637 4.5377
# 3 18.3482 46.7686 104.2451 20.3960 -17.4446 -16.5538
# 4 3.3153 3.5896 20.3960 33.3739 -7.9859 5.9238
# 5 -3.3634 -9.3637 -17.4446 -7.9859 27.7682 7.4770
# 6 4.6500 4.5377 -16.5538 5.9238 7.4770 42.2453
#
#
#
# Elastic Compliance Matrix: (Units=1/GPa)
#
#
# Indices 1 2 3 4 5 6 
#
# 1 0.013770 -0.003508 -0.001063 0.000002 0.000249 -0.001600
# 2 -0.003508 0.010164 -0.004803 0.003222 0.001817 -0.003361
# 3 -0.001063 -0.004803 0.015503 -0.009387 0.003288 0.007442
# 4 0.000002 0.003222 -0.009387 0.039664 0.009637 -0.011292
# 5 0.000249 0.001817 0.003288 0.009637 0.043649 -0.008011
# 6 -0.001600 -0.003361 0.007442 -0.011292 -0.008011 0.030126
#
#
# Mechanical properties :
#
#
# Convention : Reuss Voigt Hill
#
# Bulk Modulus (GPa) = 48.33089 59.20865 53.76977
# Shear Modulus (GPa) = 28.00805 35.39094 31.69949
#
# Velocity S-wave (km/s) = 3.57540 4.01910 3.80373
# Velocity P-wave (km/s) = 6.25331 6.96862 6.62064
#
# Compressibility (1/GPa) = 0.02069070
#
# Stress axis : x y z
#
# Youngs Moduli (GPa) = 72.61956 98.38350 64.50399
#
# Poissons Ratio (x) = 0.34515 0.06855
# Poissons Ratio (y) = 0.25476 0.30979
# Poissons Ratio (z) = 0.07717 0.47250
#
# Static dielectric constant tensor:
#      x y z
#    x 4.005750 -0.090320 0.123380 
#    y -0.090320 4.111130 0.384870 
#    z 0.123380 0.384870 4.118240 
# 
# 
# High freq. dielectric constant tensor:
#      x y z
#    x 1.861540 0.001800 0.005930 
#    y 0.001800 1.870690 0.018910 
#    z 0.005930 0.018910 1.861630 
# 
# From -- ./inp_files/245601.got.cif
#   From: 2010.06.25/outbox.cif.g09.slc.cpg/sg2_123_cif.got.tgz:245601.got - 2010.06.27 13:26:56.
