data_PCOD8022934
_publ_section_title
;
Structure prediction by ZEFSAII (Michael W. Deem and Ramdas Pophale) SiO2 
 PCOD8022934
Probable space group: P -1
;
_chemical_formula_sum "Si O2"
_cell_formula_units_Z 16
_cell_length_a 15.394600
_cell_length_b 8.733208
_cell_length_c 14.582774
_cell_angle_alpha 77.066907
_cell_angle_beta 27.432218
_cell_angle_gamma 93.325948
_cell_volume 722.320149
_symmetry_space_group_name_H-M "P -1"
_symmetry_group_IT_number 2
_symmetry_cell_setting 'triclinic'
loop_
_space_group_symop_operation_xyz
x,y,z
-x,-y,-z
loop_
_atom_site_type_symbol
_atom_site_label
_atom_site_fract_x
_atom_site_fract_y
_atom_site_fract_z
Si Si1 0.861152 0.728563 0.424254
Si Si2 0.326435 0.188098 0.245990
Si Si3 0.908862 0.281834 0.121703
Si Si4 0.894595 0.764371 0.727078
Si Si5 0.856294 0.409450 0.738397
Si Si6 0.776528 0.666512 0.315343
Si Si7 0.492236 0.254880 0.560509
Si Si8 0.146775 0.156558 0.047780
O O1 0.693438 0.690887 0.670694
O O2 0.734192 0.599341 0.470394
O O3 0.060914 0.707802 0.272697
O O4 0.956612 0.933452 0.265035
O O5 0.267949 0.246035 0.198493
O O6 0.587952 0.254044 0.988188
O O7 0.152625 0.959490 0.453886
O O8 0.636200 0.164317 0.416423
O O9 0.039945 0.255192 0.084178
O O10 0.000000 0.500000 0.000000
O O11 0.956493 0.213424 0.988383
O O12 0.906647 0.582347 0.732582
O O13 0.773649 0.751433 0.937745
O O14 0.000000 0.500000 0.500000
O O15 0.662507 0.482569 0.382073
O O16 0.668799 0.784438 0.372222
O O17 0.353984 0.175196 0.795848
#
# Coordination Sequence:
#
# PCOD8022934 Si02
#       8
#     2   2   2   2   2   2   2   2
#     4  11  25  43  60  98 131 167 217 274 324 387
#     4  10  24  48  65  98 139 166 223 276 325 393
#     4   9  19  37  59  90 124 157 214 261 313 393
#     4  10  23  45  70  94 135 179 210 279 333 379
#     4  12  26  43  68 100 130 176 227 265 329 400
#     4   9  20  37  60  88 127 161 209 267 313 386
#     4   9  19  37  63  90 118 170 210 255 327 382
#     4  10  23  40  61  93 128 162 216 266 322 387
#
# _framework density 22.150842999999998
#
# number of rings (size 3 to 8) (size 9 to 14) (size 15 to 20)
#    0.000    2.000    1.250    1.125    5.250    5.500 
#    0.000    1.250    0.000    0.000    0.000    0.000 
#    0.000    0.000    0.000    0.000    0.000    0.000 
#
# Total GULP energy -198287.008781 kJ/mol
# GULP energy per Si atom -12392.938049 kJ/mol
# Density = 2.210043 g / cm^3
# Si number density = 22.150843 Si / 1000 Ang^3
#
#
#
# Elastic Constant Matrix: (Units=GPa)
#
#
# Indices 1 2 3 4 5 6 
#
# 1 156.1334 38.3348 57.1789 26.0163 15.2372 4.9124
# 2 38.3348 63.3872 28.0809 9.8668 -3.1061 -4.6980
# 3 57.1789 28.0809 108.2226 36.0008 -0.7933 0.2362
# 4 26.0163 9.8668 36.0008 39.0712 -5.1474 7.1781
# 5 15.2372 -3.1061 -0.7933 -5.1474 26.0464 0.2121
# 6 4.9124 -4.6980 0.2362 7.1781 0.2121 31.5025
#
#
#
# Elastic Compliance Matrix: (Units=1/GPa)
#
#
# Indices 1 2 3 4 5 6 
#
# 1 0.009927 -0.004612 -0.002970 -0.003389 -0.007106 -0.001393
# 2 -0.004612 0.020317 -0.003069 0.000794 0.005155 0.003557
# 3 -0.002970 -0.003069 0.015675 -0.012262 -0.000597 0.002686
# 4 -0.003389 0.000794 -0.012262 0.041905 0.010058 -0.008877
# 5 -0.007106 0.005155 -0.000597 0.010058 0.045140 -0.000714
# 6 -0.001393 0.003557 0.002686 -0.008877 -0.000714 0.034499
#
#
# Mechanical properties :
#
#
# Convention : Reuss Voigt Hill
#
# Bulk Modulus (GPa) = 40.62214 63.88139 52.25176
# Shear Modulus (GPa) = 25.38463 32.93392 29.15927
#
# Velocity S-wave (km/s) = 3.38892 3.86009 3.63215
# Velocity P-wave (km/s) = 5.80446 6.98348 6.42108
#
# Compressibility (1/GPa) = 0.02461712
#
# Stress axis : x y z
#
# Youngs Moduli (GPa) = 100.73867 49.21875 63.79783
#
# Poissons Ratio (x) = 0.22698 0.18946
# Poissons Ratio (y) = 0.46458 0.19582
# Poissons Ratio (z) = 0.29917 0.15107
#
# Static dielectric constant tensor:
#      x y z
#    x 4.102170 0.094880 0.110560 
#    y 0.094880 4.347290 0.502140 
#    z 0.110560 0.502140 4.490430 
# 
# 
# High freq. dielectric constant tensor:
#      x y z
#    x 1.870420 0.001480 0.011950 
#    y 0.001480 1.872280 0.010490 
#    z 0.011950 0.010490 1.876860 
# 
# From -- ./inp_files/529532.got.cif
#   From: 2010.06.25/outbox.cif.g09.slc.cpg/sg2_265_cif.got.tgz:529532.got - 2010.06.27 13:26:56.
