data_PCOD8022352
_publ_section_title
;
Structure prediction by ZEFSAII (Michael W. Deem and Ramdas Pophale) SiO2 
 PCOD8022352
Probable space group: P -1
;
_chemical_formula_sum "Si O2"
_cell_formula_units_Z 12
_cell_length_a 5.087061
_cell_length_b 11.983978
_cell_length_c 12.880137
_cell_angle_alpha 35.487173
_cell_angle_beta 104.379206
_cell_angle_gamma 105.937539
_cell_volume 437.880649
_symmetry_space_group_name_H-M "P -1"
_symmetry_group_IT_number 2
_symmetry_cell_setting 'triclinic'
loop_
_space_group_symop_operation_xyz
x,y,z
-x,-y,-z
loop_
_atom_site_type_symbol
_atom_site_label
_atom_site_fract_x
_atom_site_fract_y
_atom_site_fract_z
Si Si1 0.039516 0.493557 0.781353
Si Si2 0.751700 0.770996 0.133911
Si Si3 0.488989 0.779341 0.696062
Si Si4 0.061119 0.735275 0.860992
Si Si5 0.291972 0.009473 0.834734
Si Si6 0.531452 0.603960 0.532195
O O1 0.035705 0.263013 0.911901
O O2 0.327523 0.639438 0.699071
O O3 0.822456 0.601763 0.617625
O O4 0.966892 0.459300 0.922833
O O5 0.859220 0.896256 0.151581
O O6 0.704376 0.532802 0.325741
O O7 0.473115 0.844519 0.014218
O O8 0.798972 0.733649 0.763156
O O9 0.345070 0.744506 0.820024
O O10 0.500000 0.000000 0.500000
O O11 0.071361 0.923464 0.794110
O O12 0.497948 0.174147 0.668520
O O13 0.500000 0.500000 0.500000
#
# Coordination Sequence:
#
# PCOD8022352 Si02
#       6
#     2   2   2   2   2   2
#     4  12  26  46  76 110 154 201 260 321 382 462
#     4  10  23  45  71 108 151 204 249 318 389 450
#     4  12  29  49  79 112 152 204 264 320 391 463
#     4  12  26  48  75 115 150 209 253 319 387 463
#     4  10  22  45  72 106 155 198 257 311 385 463
#     4  10  23  44  69 108 148 201 252 313 378 455
#
# _framework density 27.404729
#
# number of rings (size 3 to 8) (size 9 to 14) (size 15 to 20)
#    0.000    1.000    1.667    3.500    4.667    3.333 
#    9.000    0.000    0.000    0.000    0.000    0.000 
#    0.000    0.000    0.000    0.000    0.000    0.000 
#
# Total GULP energy -148671.154750 kJ/mol
# GULP energy per Si atom -12389.262896 kJ/mol
# Density = 2.734236 g / cm^3
# Si number density = 27.404729 Si / 1000 Ang^3
#
#
#
# Elastic Constant Matrix: (Units=GPa)
#
#
# Indices 1 2 3 4 5 6 
#
# 1 54.2783 2.2559 -24.1360 10.1697 7.0309 -3.6261
# 2 2.2559 132.4899 12.1797 -9.9749 9.9471 10.4104
# 3 -24.1360 12.1797 83.1645 -7.6717 10.0810 -9.4183
# 4 10.1697 -9.9749 -7.6717 40.1503 12.0888 8.2643
# 5 7.0309 9.9471 10.0810 12.0888 18.7542 3.9456
# 6 -3.6261 10.4104 -9.4183 8.2643 3.9456 50.3626
#
#
#
# Elastic Compliance Matrix: (Units=1/GPa)
#
#
# Indices 1 2 3 4 5 6 
#
# 1 0.025205 -0.000749 0.009610 -0.001470 -0.014350 0.005132
# 2 -0.000749 0.008622 -0.000500 0.004663 -0.006570 -0.002180
# 3 0.009610 -0.000500 0.017984 0.005121 -0.017288 0.004673
# 4 -0.001470 0.004663 0.005121 0.036464 -0.027348 -0.003953
# 5 -0.014350 -0.006570 -0.017288 -0.027348 0.090263 -0.005492
# 6 0.005132 -0.002180 0.004673 -0.003953 -0.005492 0.022629
#
#
# Mechanical properties :
#
#
# Convention : Reuss Voigt Hill
#
# Bulk Modulus (GPa) = 14.59192 27.83689 21.21441
# Shear Modulus (GPa) = 24.12084 40.49563 32.30823
#
# Velocity S-wave (km/s) = 2.96999 3.84824 3.43728
# Velocity P-wave (km/s) = 4.13488 5.47038 4.84883
#
# Compressibility (1/GPa) = 0.06853108
#
# Stress axis : x y z
#
# Youngs Moduli (GPa) = 39.67480 115.97949 55.60552
#
# Poissons Ratio (x) = 0.08689 -0.53435
# Poissons Ratio (y) = 0.02972 0.02783
# Poissons Ratio (z) = -0.38126 0.05804
#
# Static dielectric constant tensor:
#      x y z
#    x 3.614350 0.029530 0.988350 
#    y 0.029530 5.768360 -0.120220 
#    z 0.988350 -0.120220 2.697410 
# 
# 
# High freq. dielectric constant tensor:
#      x y z
#    x 2.075800 -0.004690 -0.024920 
#    y -0.004690 2.154550 -0.007020 
#    z -0.024920 -0.007020 2.124570 
# 
# From -- ./inp_files/71753.got.cif
#   From: 2010.06.25/outbox.cif.g09.slc.cpg/sg2_36_cif.got.tgz:71753.got - 2010.06.27 13:26:56.
