data_PCOD8022390
_publ_section_title
;
Structure prediction by ZEFSAII (Michael W. Deem and Ramdas Pophale) SiO2 
 PCOD8022390
Probable space group: P -1
;
_chemical_formula_sum "Si O2"
_cell_formula_units_Z 10
_cell_length_a 8.622859
_cell_length_b 11.335560
_cell_length_c 11.166362
_cell_angle_alpha 138.943938
_cell_angle_beta 68.255163
_cell_angle_gamma 140.677571
_cell_volume 390.356008
_symmetry_space_group_name_H-M "P -1"
_symmetry_group_IT_number 2
_symmetry_cell_setting 'triclinic'
loop_
_space_group_symop_operation_xyz
x,y,z
-x,-y,-z
loop_
_atom_site_type_symbol
_atom_site_label
_atom_site_fract_x
_atom_site_fract_y
_atom_site_fract_z
Si Si1 0.006433 0.324380 0.936476
Si Si2 0.528676 0.666857 0.914032
Si Si3 0.547329 0.336817 0.335211
Si Si4 0.813424 0.157566 0.399313
Si Si5 0.360608 0.636031 0.305630
O O1 0.228128 0.384099 0.852926
O O2 0.689568 0.972429 0.756774
O O3 0.000000 0.500000 0.000000
O O4 0.110603 0.444086 0.133346
O O5 0.487852 0.728454 0.846171
O O6 0.655849 0.576510 0.794207
O O7 0.745037 0.982827 0.166853
O O8 0.500000 0.500000 0.500000
O O9 0.852250 0.538194 0.445362
O O10 0.694146 0.258341 0.497310
O O11 0.667994 0.935617 0.385859
#
# Coordination Sequence:
#
# PCOD8022390 Si02
#       5
#     2   2   2   2   2
#     4  11  25  47  73 106 149 191 238 299 362 429
#     4  11  25  49  74 103 149 189 236 302 360 426
#     4  12  27  46  76 111 141 189 247 297 359 430
#     4  10  23  45  72 106 146 191 241 292 359 432
#     4  10  22  45  74 105 145 194 238 293 366 428
#
# _framework density 25.617640000000002
#
# number of rings (size 3 to 8) (size 9 to 14) (size 15 to 20)
#    0.000    1.200    0.000    6.000    0.000   14.400 
#    0.000   16.000    0.000    0.000    0.000    0.000 
#    0.000    0.000    0.000    0.000    0.000    0.000 
#
# Total GULP energy -124053.072650 kJ/mol
# GULP energy per Si atom -12405.307265 kJ/mol
# Density = 2.555933 g / cm^3
# Si number density = 25.617640 Si / 1000 Ang^3
#
#
#
# Elastic Constant Matrix: (Units=GPa)
#
#
# Indices 1 2 3 4 5 6 
#
# 1 99.3607 60.9145 86.9980 15.4766 -3.9661 13.8918
# 2 60.9145 112.3613 78.6182 21.9966 12.8371 1.5483
# 3 86.9980 78.6182 139.6390 22.4871 -10.5880 -0.9451
# 4 15.4766 21.9966 22.4871 52.2741 9.2945 2.0067
# 5 -3.9661 12.8371 -10.5880 9.2945 55.0280 -1.2807
# 6 13.8918 1.5483 -0.9451 2.0067 -1.2807 29.9161
#
#
#
# Elastic Compliance Matrix: (Units=1/GPa)
#
#
# Indices 1 2 3 4 5 6 
#
# 1 0.027500 -0.004440 -0.014847 0.000660 -0.000254 -0.013064
# 2 -0.004440 0.017177 -0.006979 -0.001999 -0.005312 0.000859
# 3 -0.014847 -0.006979 0.021306 -0.003110 0.005378 0.008367
# 4 0.000660 -0.001999 -0.003110 0.021868 -0.003823 -0.001932
# 5 -0.000254 -0.005312 0.005378 -0.003823 0.021114 0.001723
# 6 -0.013064 0.000859 0.008367 -0.001932 0.001723 0.039916
#
#
# Mechanical properties :
#
#
# Convention : Reuss Voigt Hill
#
# Bulk Modulus (GPa) = 74.35332 89.38026 81.86679
# Shear Modulus (GPa) = 24.28389 35.76568 30.02479
#
# Velocity S-wave (km/s) = 3.08220 3.74054 3.42721
# Velocity P-wave (km/s) = 6.46172 7.32266 6.90562
#
# Compressibility (1/GPa) = 0.01344930
#
# Stress axis : x y z
#
# Youngs Moduli (GPa) = 36.36386 58.21715 46.93489
#
# Poissons Ratio (x) = 0.25850 0.69685
# Poissons Ratio (y) = 0.16147 0.32758
# Poissons Ratio (z) = 0.53990 0.40632
#
# Static dielectric constant tensor:
#      x y z
#    x 4.657090 0.124140 0.008850 
#    y 0.124140 4.779200 -0.144310 
#    z 0.008850 -0.144310 4.699400 
# 
# 
# High freq. dielectric constant tensor:
#      x y z
#    x 2.028190 0.005780 -0.001840 
#    y 0.005780 2.033230 0.000320 
#    z -0.001840 0.000320 2.030570 
# 
# From -- ./inp_files/175676.got.cif
#   From: 2010.06.25/outbox.cif.g09.slc.cpg/sg2_88_cif.got.tgz:175676.got - 2010.06.27 13:26:56.
