data_PCOD8022641
_publ_section_title
;
Structure prediction by ZEFSAII (Michael W. Deem and Ramdas Pophale) SiO2 
 PCOD8022641
Probable space group: P -1
;
_chemical_formula_sum "Si O2"
_cell_formula_units_Z 14
_cell_length_a 17.430008
_cell_length_b 8.814630
_cell_length_c 9.242078
_cell_angle_alpha 71.333167
_cell_angle_beta 61.778055
_cell_angle_gamma 31.396000
_cell_volume 640.886315
_symmetry_space_group_name_H-M "P -1"
_symmetry_group_IT_number 2
_symmetry_cell_setting 'triclinic'
loop_
_space_group_symop_operation_xyz
x,y,z
-x,-y,-z
loop_
_atom_site_type_symbol
_atom_site_label
_atom_site_fract_x
_atom_site_fract_y
_atom_site_fract_z
Si Si1 0.363858 0.276922 0.144242
Si Si2 0.445679 0.744039 0.887455
Si Si3 0.956381 0.569646 0.270151
Si Si4 0.812653 0.314016 0.075629
Si Si5 0.450055 0.527816 0.691222
Si Si6 0.238009 0.138530 0.371054
Si Si7 0.155312 0.412133 0.915073
O O1 0.431536 0.298221 0.193923
O O2 0.265396 0.287444 0.306426
O O3 0.235751 0.577328 0.078214
O O4 0.500000 0.000000 0.000000
O O5 0.434386 0.713800 0.739563
O O6 0.269107 0.091425 0.971439
O O7 0.500000 0.500000 0.000000
O O8 0.103652 0.289926 0.329298
O O9 0.811343 0.840801 0.427412
O O10 0.901112 0.515197 0.223942
O O11 0.006373 0.636924 0.095558
O O12 0.717912 0.305927 0.218316
O O13 0.763415 0.539788 0.154796
O O14 0.000000 0.000000 0.000000
O O15 0.500000 0.500000 0.500000
O O16 0.593454 0.196891 0.730752
#
# Coordination Sequence:
#
# PCOD8022641 Si02
#       7
#     2   2   2   2   2   2   2
#     4  12  21  44  69  97 130 184 227 280 339 412
#     4  12  23  40  73  99 130 180 233 275 336 412
#     4  10  23  36  71  99 132 179 228 276 339 404
#     4  12  27  43  68  99 139 179 225 283 343 403
#     4  12  27  43  68 103 142 174 230 288 341 402
#     4  11  22  44  68  96 140 183 223 279 348 402
#     4  11  23  43  67  97 140 179 230 274 344 410
#
# _framework density 21.844747999999999
#
# number of rings (size 3 to 8) (size 9 to 14) (size 15 to 20)
#    0.000    0.571    5.714    1.714    6.000    2.286 
#    0.000    2.857    0.000    5.143    0.000    0.000 
#    0.000    0.000    0.000    0.000    0.000    0.000 
#
# Total GULP energy -173511.081881 kJ/mol
# GULP energy per Si atom -12393.648706 kJ/mol
# Density = 2.179503 g / cm^3
# Si number density = 21.844748 Si / 1000 Ang^3
#
#
#
# Elastic Constant Matrix: (Units=GPa)
#
#
# Indices 1 2 3 4 5 6 
#
# 1 193.1727 45.5710 54.8251 1.9869 7.4307 -0.2075
# 2 45.5710 91.7065 35.4928 11.5196 -14.4336 -5.9784
# 3 54.8251 35.4928 103.8805 8.4971 6.7110 -1.2555
# 4 1.9869 11.5196 8.4971 29.2523 -2.7957 -2.0166
# 5 7.4307 -14.4336 6.7110 -2.7957 33.1400 1.7666
# 6 -0.2075 -5.9784 -1.2555 -2.0166 1.7666 35.3559
#
#
#
# Elastic Compliance Matrix: (Units=1/GPa)
#
#
# Indices 1 2 3 4 5 6 
#
# 1 0.006618 -0.002822 -0.002493 0.001162 -0.002091 -0.000356
# 2 -0.002822 0.015730 -0.004048 -0.003945 0.007871 0.001881
# 3 -0.002493 -0.004048 0.012771 -0.002339 -0.003978 -0.000180
# 4 0.001162 -0.003945 -0.002339 0.036571 0.001513 0.001267
# 5 -0.002091 0.007871 -0.003978 0.001513 0.035031 -0.000487
# 6 -0.000356 0.001881 -0.000180 0.001267 -0.000487 0.028690
#
#
# Mechanical properties :
#
#
# Convention : Reuss Voigt Hill
#
# Bulk Modulus (GPa) = 60.99946 73.39309 67.19627
# Shear Modulus (GPa) = 31.32770 36.40769 33.86770
#
# Velocity S-wave (km/s) = 3.79107 4.08690 3.94176
# Velocity P-wave (km/s) = 6.86641 7.47936 7.17943
#
# Compressibility (1/GPa) = 0.01639359
#
# Stress axis : x y z
#
# Youngs Moduli (GPa) = 151.10092 63.57089 78.30027
#
# Poissons Ratio (x) = 0.17941 0.19519
# Poissons Ratio (y) = 0.42643 0.31697
# Poissons Ratio (z) = 0.37666 0.25735
#
# Static dielectric constant tensor:
#      x y z
#    x 4.182080 -0.234790 0.110230 
#    y -0.234790 4.791450 0.184350 
#    z 0.110230 0.184350 3.828770 
# 
# 
# High freq. dielectric constant tensor:
#      x y z
#    x 1.874500 -0.016670 0.005760 
#    y -0.016670 1.863180 0.001650 
#    z 0.005760 0.001650 1.840760 
# 
# From -- ./inp_files/216362.got.cif
#   From: 2010.06.25/outbox.cif.g09.slc.cpg/sg2_109_cif.got.tgz:216362.got - 2010.06.27 13:26:56.
