data_PCOD8022302
_publ_section_title
;
Structure prediction by ZEFSAII (Michael W. Deem and Ramdas Pophale) SiO2 
 PCOD8022302
Probable space group: P -1
;
_chemical_formula_sum "Si O2"
_cell_formula_units_Z 14
_cell_length_a 8.857298
_cell_length_b 9.068955
_cell_length_c 21.787462
_cell_angle_alpha 150.033521
_cell_angle_beta 132.828815
_cell_angle_gamma 52.031133
_cell_volume 639.449572
_symmetry_space_group_name_H-M "P -1"
_symmetry_group_IT_number 2
_symmetry_cell_setting 'triclinic'
loop_
_space_group_symop_operation_xyz
x,y,z
-x,-y,-z
loop_
_atom_site_type_symbol
_atom_site_label
_atom_site_fract_x
_atom_site_fract_y
_atom_site_fract_z
Si Si1 0.467947 0.815248 0.634366
Si Si2 0.400116 0.170977 0.193692
Si Si3 0.394257 0.644743 0.201794
Si Si4 0.002385 0.914771 0.541353
Si Si5 0.274339 0.620996 0.719254
Si Si6 0.275632 0.253828 0.919418
Si Si7 0.093898 0.611020 0.215486
O O1 0.500000 0.500000 0.500000
O O2 0.621707 0.839351 0.742923
O O3 0.234993 0.872039 0.614635
O O4 0.516844 0.048299 0.680462
O O5 0.566467 0.410720 0.306334
O O6 0.178889 0.281056 0.142384
O O7 0.491182 0.848669 0.077149
O O8 0.588115 0.427523 0.198752
O O9 0.230223 0.720207 0.236935
O O10 0.282716 0.500184 0.061992
O O11 0.899659 0.608659 0.415311
O O12 0.887290 0.172661 0.643029
O O13 0.000000 0.000000 0.500000
O O14 0.173645 0.961410 0.813829
O O15 0.140041 0.393639 0.875687
#
# Coordination Sequence:
#
# PCOD8022302 Si02
#       7
#     2   2   2   2   2   2   2
#     4  12  26  42  64 102 138 172 222 279 338 389
#     4   9  23  42  65  99 130 180 219 273 329 396
#     4  11  24  43  71  97 137 178 217 280 327 401
#     4  12  23  43  67  99 134 171 225 278 334 388
#     4   9  22  40  70  94 129 180 217 272 328 396
#     4  10  22  45  70  98 134 177 229 264 332 395
#     4  11  24  43  70  97 133 177 226 272 330 397
#
# _framework density 21.893827999999999
#
# number of rings (size 3 to 8) (size 9 to 14) (size 15 to 20)
#    0.857    0.571    2.857    1.714    4.000    2.857 
#    0.000    0.714    0.000    0.000    0.000    0.000 
#    0.000    0.000    0.000    0.000    0.000    0.000 
#
# Total GULP energy -173537.447899 kJ/mol
# GULP energy per Si atom -12395.531993 kJ/mol
# Density = 2.184400 g / cm^3
# Si number density = 21.893828 Si / 1000 Ang^3
#
#
#
# Elastic Constant Matrix: (Units=GPa)
#
#
# Indices 1 2 3 4 5 6 
#
# 1 57.4216 22.4137 31.2008 2.2822 -27.8673 -6.9945
# 2 22.4137 143.8808 23.2870 -9.4117 -10.9748 -15.9271
# 3 31.2008 23.2870 86.7248 -3.7639 -24.4758 -6.5245
# 4 2.2822 -9.4117 -3.7639 30.2827 2.9794 -6.7397
# 5 -27.8673 -10.9748 -24.4758 2.9794 32.1702 -5.2514
# 6 -6.9945 -15.9271 -6.5245 -6.7397 -5.2514 31.6285
#
#
#
# Elastic Compliance Matrix: (Units=1/GPa)
#
#
# Indices 1 2 3 4 5 6 
#
# 1 0.036038 -0.001911 -0.003365 -0.004380 0.030106 0.010379
# 2 -0.001911 0.008161 -0.000748 0.003479 0.000961 0.004434
# 3 -0.003365 -0.000748 0.016034 0.002011 0.009528 0.004197
# 4 -0.004380 0.003479 0.002011 0.036890 -0.003099 0.008545
# 5 0.030106 0.000961 0.009528 -0.003099 0.068256 0.019780
# 6 0.010379 0.004434 0.004197 0.008545 0.019780 0.042116
#
#
# Mechanical properties :
#
#
# Convention : Reuss Voigt Hill
#
# Bulk Modulus (GPa) = 20.75312 49.09225 34.92269
# Shear Modulus (GPa) = 21.22200 32.89132 27.05666
#
# Velocity S-wave (km/s) = 3.11676 3.88017 3.51923
# Velocity P-wave (km/s) = 4.73833 6.52272 5.70077
#
# Compressibility (1/GPa) = 0.04818552
#
# Stress axis : x y z
#
# Youngs Moduli (GPa) = 27.74831 122.53982 62.36644
#
# Poissons Ratio (x) = 0.23413 0.20987
# Poissons Ratio (y) = 0.05302 0.04665
# Poissons Ratio (z) = 0.09338 0.09166
#
# Static dielectric constant tensor:
#      x y z
#    x 3.843360 0.009260 -0.075520 
#    y 0.009260 4.278410 -0.012270 
#    z -0.075520 -0.012270 3.549050 
# 
# 
# High freq. dielectric constant tensor:
#      x y z
#    x 1.848380 0.003880 -0.011810 
#    y 0.003880 1.881400 -0.002470 
#    z -0.011810 -0.002470 1.837330 
# 
# From -- ./inp_files/237015.got.cif
#   From: 2010.06.25/outbox.cif.g09.slc.cpg/sg2_119_cif.got.tgz:237015.got - 2010.06.27 13:26:56.
