data_PCOD8022394
_publ_section_title
;
Structure prediction by ZEFSAII (Michael W. Deem and Ramdas Pophale) SiO2 
 PCOD8022394
Probable space group: P -1
;
_chemical_formula_sum "Si O2"
_cell_formula_units_Z 14
_cell_length_a 7.244414
_cell_length_b 7.756960
_cell_length_c 14.329156
_cell_angle_alpha 49.748522
_cell_angle_beta 102.341994
_cell_angle_gamma 74.551637
_cell_volume 504.329005
_symmetry_space_group_name_H-M "P -1"
_symmetry_group_IT_number 2
_symmetry_cell_setting 'triclinic'
loop_
_space_group_symop_operation_xyz
x,y,z
-x,-y,-z
loop_
_atom_site_type_symbol
_atom_site_label
_atom_site_fract_x
_atom_site_fract_y
_atom_site_fract_z
Si Si1 0.469889 0.183601 0.561991
Si Si2 0.157698 0.695833 0.460598
Si Si3 0.272247 0.483908 0.737079
Si Si4 0.207391 0.036536 0.823801
Si Si5 0.008265 0.778012 0.976762
Si Si6 0.366726 0.381010 0.281241
Si Si7 0.702400 0.600998 0.023865
O O1 0.314506 0.378821 0.560028
O O2 0.709796 0.158004 0.596407
O O3 0.334697 0.309402 0.407053
O O4 0.515021 0.885513 0.679706
O O5 0.103363 0.700049 0.564439
O O6 0.076857 0.159917 0.669587
O O7 0.304413 0.198638 0.823016
O O8 0.506220 0.463450 0.757142
O O9 0.202152 0.556169 0.811752
O O10 0.034463 0.034262 0.883624
O O11 0.434040 0.739955 0.934616
O O12 0.758360 0.834351 0.929306
O O13 0.120584 0.589535 0.143971
O O14 0.149604 0.634379 0.949043
#
# Coordination Sequence:
#
# PCOD8022394 Si02
#       7
#     2   2   2   2   2   2   2
#     4   9  22  45  74 109 149 190 252 290 360 442
#     4  10  24  45  76 109 145 194 241 301 368 421
#     4  11  25  47  70 110 147 191 241 297 362 431
#     4  12  26  48  73 110 150 188 237 306 358 438
#     4  11  27  46  76 105 143 201 238 296 371 422
#     4  10  22  45  74 107 147 195 241 304 354 428
#     4  11  27  48  71 105 151 186 248 292 362 436
#
# _framework density 27.759656
#
# number of rings (size 3 to 8) (size 9 to 14) (size 15 to 20)
#    0.000    1.429    1.429    1.286    8.000    2.857 
#    0.000    1.429    0.000    0.857    0.000    0.000 
#    0.000    0.000    0.000    0.000    0.000    0.000 
#
# Total GULP energy -173542.343991 kJ/mol
# GULP energy per Si atom -12395.881714 kJ/mol
# Density = 2.769647 g / cm^3
# Si number density = 27.759656 Si / 1000 Ang^3
#
#
#
# Elastic Constant Matrix: (Units=GPa)
#
#
# Indices 1 2 3 4 5 6 
#
# 1 122.6686 13.1386 39.1594 18.5958 -11.0763 8.4201
# 2 13.1386 81.4535 20.9401 10.9409 14.9333 11.2245
# 3 39.1594 20.9401 55.7306 14.9727 5.7666 0.9741
# 4 18.5958 10.9409 14.9727 32.1062 12.4707 -4.3886
# 5 -11.0763 14.9333 5.7666 12.4707 44.2681 2.5113
# 6 8.4201 11.2245 0.9741 -4.3886 2.5113 30.0668
#
#
#
# Elastic Compliance Matrix: (Units=1/GPa)
#
#
# Indices 1 2 3 4 5 6 
#
# 1 0.012488 0.000417 -0.007634 -0.006898 0.006201 -0.004931
# 2 0.000417 0.015215 -0.004851 -0.002661 -0.003321 -0.005751
# 3 -0.007634 -0.004851 0.026704 -0.005071 -0.002468 0.002550
# 4 -0.006898 -0.002661 -0.005071 0.045132 -0.013495 0.010804
# 5 0.006201 -0.003321 -0.002468 -0.013495 0.029661 -0.004864
# 6 -0.004931 -0.005751 0.002550 0.010804 -0.004864 0.038688
#
#
# Mechanical properties :
#
#
# Convention : Reuss Voigt Hill
#
# Bulk Modulus (GPa) = 33.03462 45.14765 39.09114
# Shear Modulus (GPa) = 24.73844 33.72919 29.23381
#
# Velocity S-wave (km/s) = 2.98848 3.48953 3.24868
# Velocity P-wave (km/s) = 4.88201 5.70393 5.30890
#
# Compressibility (1/GPa) = 0.03027127
#
# Stress axis : x y z
#
# Youngs Moduli (GPa) = 80.07373 65.72259 37.44800
#
# Poissons Ratio (x) = -0.02742 0.28588
# Poissons Ratio (y) = -0.03341 0.18167
# Poissons Ratio (z) = 0.61129 0.31884
#
# Static dielectric constant tensor:
#      x y z
#    x 5.091950 0.544070 -0.416140 
#    y 0.544070 5.210220 0.225630 
#    z -0.416140 0.225630 5.015840 
# 
# 
# High freq. dielectric constant tensor:
#      x y z
#    x 2.131360 0.027450 -0.023660 
#    y 0.027450 2.122190 0.013990 
#    z -0.023660 0.013990 2.114130 
# 
# From -- ./inp_files/554889.got.cif
#   From: 2010.06.25/outbox.cif.g09.slc.cpg/sg2_278_cif.got.tgz:554889.got - 2010.06.27 13:26:56.
