data_PCOD8022306
_publ_section_title
;
Structure prediction by ZEFSAII (Michael W. Deem and Ramdas Pophale) SiO2 
 PCOD8022306
Probable space group: P -1
;
_chemical_formula_sum "Si O2"
_cell_formula_units_Z 16
_cell_length_a 13.128368
_cell_length_b 18.887745
_cell_length_c 21.823842
_cell_angle_alpha 17.611517
_cell_angle_beta 26.291003
_cell_angle_gamma 33.023197
_cell_volume 719.980117
_symmetry_space_group_name_H-M "P -1"
_symmetry_group_IT_number 2
_symmetry_cell_setting 'triclinic'
loop_
_space_group_symop_operation_xyz
x,y,z
-x,-y,-z
loop_
_atom_site_type_symbol
_atom_site_label
_atom_site_fract_x
_atom_site_fract_y
_atom_site_fract_z
Si Si1 0.737457 0.008659 0.566026
Si Si2 0.470628 0.429339 0.338426
Si Si3 0.781732 0.734644 0.504032
Si Si4 0.737204 0.936268 0.765840
Si Si5 0.003081 0.759740 0.025919
Si Si6 0.206280 0.552686 0.493419
Si Si7 0.518890 0.765384 0.247420
Si Si8 0.397426 0.500845 0.987526
O O1 0.611926 0.207662 0.436435
O O2 0.998404 0.032434 0.379750
O O3 0.728579 0.049171 0.610162
O O4 0.606225 0.755047 0.829002
O O5 0.265646 0.406767 0.417261
O O6 0.361670 0.425417 0.467695
O O7 0.644528 0.662133 0.040059
O O8 0.559169 0.687661 0.706156
O O9 0.007842 0.660149 0.475459
O O10 0.820204 0.012691 0.239967
O O11 0.581801 0.068160 0.786354
O O12 0.904293 0.643132 0.238352
O O13 0.795208 0.839600 0.030041
O O14 0.138392 0.575943 0.066848
O O15 0.375796 0.764075 0.261631
O O16 0.500000 0.500000 0.500000
O O17 0.500000 0.500000 0.000000
#
# Coordination Sequence:
#
# PCOD8022306 Si02
#       8
#     2   2   2   2   2   2   2   2
#     4  11  24  45  70  98 140 185 225 283 342 399
#     4  12  26  44  68 104 138 181 233 274 342 413
#     4  12  26  45  68 104 138 183 227 279 345 406
#     4  11  24  45  70 100 141 179 229 285 339 406
#     4  11  24  44  73 102 135 180 230 280 345 400
#     4  11  25  46  69 102 140 178 226 286 339 404
#     4  10  22  45  71 101 131 177 228 281 342 397
#     4  12  24  47  71  99 143 179 229 283 339 406
#
# _framework density 22.222836999999998
#
# number of rings (size 3 to 8) (size 9 to 14) (size 15 to 20)
#    0.000    0.750    2.500    5.625    0.000    3.500 
#    2.250    0.000    0.000    0.000    0.000    0.000 
#    0.000    0.000    0.000    0.000    0.000    0.000 
#
# Total GULP energy -198484.153726 kJ/mol
# GULP energy per Si atom -12405.259608 kJ/mol
# Density = 2.217226 g / cm^3
# Si number density = 22.222837 Si / 1000 Ang^3
#
#
#
# Elastic Constant Matrix: (Units=GPa)
#
#
# Indices 1 2 3 4 5 6 
#
# 1 117.3721 49.6925 28.4251 0.0912 -22.8704 -3.4750
# 2 49.6925 133.5989 34.3959 5.5394 -12.2784 -10.3429
# 3 28.4251 34.3959 124.0557 -3.8813 -11.8668 0.8415
# 4 0.0912 5.5394 -3.8813 31.8366 -0.5977 -3.7978
# 5 -22.8704 -12.2784 -11.8668 -0.5977 33.1236 -0.7315
# 6 -3.4750 -10.3429 0.8415 -3.7978 -0.7315 37.0741
#
#
#
# Elastic Compliance Matrix: (Units=1/GPa)
#
#
# Indices 1 2 3 4 5 6 
#
# 1 0.011454 -0.003408 -0.001062 0.000588 0.006282 0.000331
# 2 -0.003408 0.009522 -0.001874 -0.001600 0.000526 0.002226
# 3 -0.001062 -0.001874 0.009046 0.001389 0.001823 -0.000650
# 4 0.000588 -0.001600 0.001389 0.032220 0.000956 0.002897
# 5 0.006282 0.000526 0.001823 0.000956 0.035426 0.001491
# 6 0.000331 0.002226 -0.000650 0.002897 0.001491 0.027966
#
#
# Mechanical properties :
#
#
# Convention : Reuss Voigt Hill
#
# Bulk Modulus (GPa) = 57.69392 66.67263 62.18328
# Shear Modulus (GPa) = 34.69807 37.90774 36.30291
#
# Velocity S-wave (km/s) = 3.95570 4.13462 4.04615
# Velocity P-wave (km/s) = 6.84700 7.27051 7.06193
#
# Compressibility (1/GPa) = 0.01733285
#
# Stress axis : x y z
#
# Youngs Moduli (GPa) = 87.30938 105.01761 110.54339
#
# Poissons Ratio (x) = 0.35791 0.11744
# Poissons Ratio (y) = 0.29755 0.20718
# Poissons Ratio (z) = 0.09275 0.19682
#
# Static dielectric constant tensor:
#      x y z
#    x 4.444330 -0.188150 -0.164830 
#    y -0.188150 4.082480 0.082340 
#    z -0.164830 0.082340 4.259380 
# 
# 
# High freq. dielectric constant tensor:
#      x y z
#    x 1.881970 -0.005630 -0.006260 
#    y -0.005630 1.880090 0.001340 
#    z -0.006260 0.001340 1.891200 
# 
# From -- ./inp_files/595917.got.cif
#   From: 2010.06.25/outbox.cif.g09.slc.cpg/sg2_298_cif.got.tgz:595917.got - 2010.06.27 13:26:56.
