data_PCOD8022960
_publ_section_title
;
Structure prediction by ZEFSAII (Michael W. Deem and Ramdas Pophale) SiO2 
 PCOD8022960
Probable space group: P -1
;
_chemical_formula_sum "Si O2"
_cell_formula_units_Z 14
_cell_length_a 12.730920
_cell_length_b 15.701058
_cell_length_c 8.201938
_cell_angle_alpha 125.240510
_cell_angle_beta 114.604988
_cell_angle_gamma 31.049177
_cell_volume 678.695902
_symmetry_space_group_name_H-M "P -1"
_symmetry_group_IT_number 2
_symmetry_cell_setting 'triclinic'
loop_
_space_group_symop_operation_xyz
x,y,z
-x,-y,-z
loop_
_atom_site_type_symbol
_atom_site_label
_atom_site_fract_x
_atom_site_fract_y
_atom_site_fract_z
Si Si1 0.661526 0.289065 0.857095
Si Si2 0.748834 0.609884 0.829536
Si Si3 0.343339 0.400484 0.596534
Si Si4 0.450869 0.931087 0.482610
Si Si5 0.136896 0.250284 0.874216
Si Si6 0.353739 0.865445 0.067029
Si Si7 0.021731 0.783034 0.996734
O O1 0.573791 0.275764 0.646883
O O2 0.681686 0.222796 0.977788
O O3 0.500000 0.500000 0.000000
O O4 0.875175 0.187049 0.835897
O O5 0.680615 0.603455 0.613751
O O6 0.977277 0.401205 0.796103
O O7 0.763426 0.723963 0.942627
O O8 0.586124 0.702396 0.967803
O O9 0.343581 0.290292 0.576506
O O10 0.163863 0.614373 0.772217
O O11 0.313684 0.971342 0.309666
O O12 0.500000 0.000000 0.500000
O O13 0.324039 0.045507 0.691508
O O14 0.017036 0.267430 0.940000
O O15 0.806296 0.983131 0.006864
#
# Coordination Sequence:
#
# PCOD8022960 Si02
#       7
#     2   2   2   2   2   2   2
#     4   9  20  42  65  88 122 162 205 255 300 357
#     4  11  23  40  61  93 124 163 206 249 309 361
#     4  10  23  40  63  91 123 163 205 251 307 360
#     4  11  22  39  61  89 123 160 203 249 305 362
#     4  11  24  39  62  90 127 162 203 254 303 368
#     4  11  22  40  65  92 125 161 205 251 304 365
#     4  11  23  41  64  92 124 163 205 251 307 361
#
# _framework density 20.627794999999999
#
# number of rings (size 3 to 8) (size 9 to 14) (size 15 to 20)
#    0.000    1.429    1.429    4.714    4.000    1.714 
#    0.000   14.286    0.000    0.000    0.000    0.000 
#    0.000    0.000    0.000    0.000    0.000    0.000 
#
# Total GULP energy -173528.052247 kJ/mol
# GULP energy per Si atom -12394.860875 kJ/mol
# Density = 2.058085 g / cm^3
# Si number density = 20.627795 Si / 1000 Ang^3
#
#
#
# Elastic Constant Matrix: (Units=GPa)
#
#
# Indices 1 2 3 4 5 6 
#
# 1 133.1357 14.3437 34.3918 -4.4224 0.2822 12.7501
# 2 14.3437 82.8274 19.2375 -1.9824 12.0739 5.4315
# 3 34.3918 19.2375 90.1151 -12.4725 2.2273 -1.0759
# 4 -4.4224 -1.9824 -12.4725 34.6552 -0.4057 1.1565
# 5 0.2822 12.0739 2.2273 -0.4057 23.2934 4.1547
# 6 12.7501 5.4315 -1.0759 1.1565 4.1547 33.9967
#
#
#
# Elastic Compliance Matrix: (Units=1/GPa)
#
#
# Indices 1 2 3 4 5 6 
#
# 1 0.008754 -0.000707 -0.003256 0.000033 0.001182 -0.003419
# 2 -0.000707 0.013843 -0.002570 -0.000262 -0.006712 -0.001199
# 3 -0.003256 -0.002570 0.013501 0.004230 -0.000191 0.001938
# 4 0.000033 -0.000262 0.004230 0.030403 0.000425 -0.000923
# 5 0.001182 -0.006712 -0.000191 0.000425 0.047345 -0.005177
# 6 -0.003419 -0.001199 0.001938 -0.000923 -0.005177 0.031614
#
#
# Mechanical properties :
#
#
# Convention : Reuss Voigt Hill
#
# Bulk Modulus (GPa) = 43.41498 49.11382 46.26440
# Shear Modulus (GPa) = 30.08352 34.26272 32.17312
#
# Velocity S-wave (km/s) = 3.82304 4.07996 3.95358
# Velocity P-wave (km/s) = 6.37025 6.78645 6.58164
#
# Compressibility (1/GPa) = 0.02303352
#
# Stress axis : x y z
#
# Youngs Moduli (GPa) = 114.22957 72.23627 74.06691
#
# Poissons Ratio (x) = 0.05109 0.24113
# Poissons Ratio (y) = 0.08079 0.19035
# Poissons Ratio (z) = 0.37188 0.18565
#
# Static dielectric constant tensor:
#      x y z
#    x 9.312450 -8.270300 -4.938940 
#    y -8.270300 15.986860 7.747460 
#    z -4.938940 7.747460 8.810510 
# 
# 
# High freq. dielectric constant tensor:
#      x y z
#    x 1.812070 0.009860 0.013510 
#    y 0.009860 1.818810 0.001660 
#    z 0.013510 0.001660 1.796290 
# 
# From -- ./inp_files/268618.got.cif
#   From: 2010.06.25/outbox.cif.g09.slc.cpg/sg2_135_cif.got.tgz:268618.got - 2010.06.27 13:26:56.
