data_PCOD8022513
_publ_section_title
;
Structure prediction by ZEFSAII (Michael W. Deem and Ramdas Pophale) SiO2 
 PCOD8022513
Probable space group: P -1
;
_chemical_formula_sum "Si O2"
_cell_formula_units_Z 16
_cell_length_a 14.879910
_cell_length_b 8.719653
_cell_length_c 12.403600
_cell_angle_alpha 134.012543
_cell_angle_beta 141.916938
_cell_angle_gamma 68.495306
_cell_volume 652.252087
_symmetry_space_group_name_H-M "P -1"
_symmetry_group_IT_number 2
_symmetry_cell_setting 'triclinic'
loop_
_space_group_symop_operation_xyz
x,y,z
-x,-y,-z
loop_
_atom_site_type_symbol
_atom_site_label
_atom_site_fract_x
_atom_site_fract_y
_atom_site_fract_z
Si Si1 0.903772 0.142942 0.022969
Si Si2 0.169496 0.031009 0.895267
Si Si3 0.540978 0.601023 0.768817
Si Si4 0.981729 0.176844 0.654184
Si Si5 0.264177 0.660954 0.188080
Si Si6 0.673111 0.199648 0.445743
Si Si7 0.877336 0.431758 0.447875
Si Si8 0.528021 0.328093 0.025974
O O1 0.036924 0.407917 0.291443
O O2 0.819240 0.039271 0.005864
O O3 0.760963 0.135417 0.804893
O O4 0.000000 0.000000 0.000000
O O5 0.011468 0.082727 0.754084
O O6 0.164930 0.840269 0.706897
O O7 0.324005 0.255578 0.119243
O O8 0.561897 0.353344 0.671887
O O9 0.381944 0.612368 0.573021
O O10 0.561795 0.692070 0.955201
O O11 0.809279 0.183479 0.489757
O O12 0.000000 0.000000 0.500000
O O13 0.125124 0.428229 0.896130
O O14 0.244826 0.701049 0.314993
O O15 0.529913 0.940918 0.200418
O O16 0.716708 0.459801 0.281990
O O17 0.000000 0.500000 0.500000
O O18 0.500000 0.500000 0.000000
#
# Coordination Sequence:
#
# PCOD8022513 Si02
#       8
#     2   2   2   2   2   2   2   2
#     4  11  25  44  75 105 144 187 250 299 366 422
#     4  10  22  46  72 102 142 189 242 293 359 439
#     4  11  26  49  72 105 149 194 241 299 373 437
#     4  11  24  43  75 106 145 191 249 299 361 442
#     4  11  26  46  72 111 146 197 241 301 368 438
#     4  12  25  47  73 106 154 190 246 305 371 436
#     4  10  24  45  75  98 142 189 246 297 364 430
#     4  12  29  46  75 109 145 191 252 304 370 438
#
# _framework density 24.530391999999999
#
# number of rings (size 3 to 8) (size 9 to 14) (size 15 to 20)
#    0.000    1.000    1.250    4.125   12.250    1.000 
#    2.250    1.250    0.000    0.000    0.000    0.000 
#    0.000    0.000    0.000    0.000    0.000    0.000 
#
# Total GULP energy -198218.415827 kJ/mol
# GULP energy per Si atom -12388.650989 kJ/mol
# Density = 2.447456 g / cm^3
# Si number density = 24.530392 Si / 1000 Ang^3
#
#
#
# Elastic Constant Matrix: (Units=GPa)
#
#
# Indices 1 2 3 4 5 6 
#
# 1 128.8103 62.2688 44.0509 -18.8796 -6.7451 -16.8482
# 2 62.2688 182.8162 37.0447 -62.0711 -7.0116 -18.0570
# 3 44.0509 37.0447 80.1519 -18.9409 -8.9613 -5.5426
# 4 -18.8796 -62.0711 -18.9409 44.5687 -11.7472 3.7821
# 5 -6.7451 -7.0116 -8.9613 -11.7472 37.8303 -3.6110
# 6 -16.8482 -18.0570 -5.5426 3.7821 -3.6110 48.9126
#
#
#
# Elastic Compliance Matrix: (Units=1/GPa)
#
#
# Indices 1 2 3 4 5 6 
#
# 1 0.010988 -0.003362 -0.004950 -0.002414 -0.000382 0.002141
# 2 -0.003362 0.014141 0.001559 0.021092 0.009254 0.003291
# 3 -0.004950 0.001559 0.017385 0.009100 0.006409 0.000610
# 4 -0.002414 0.021092 0.009100 0.060812 0.025008 0.005130
# 5 -0.000382 0.009254 0.006409 0.025008 0.037829 0.004870
# 6 0.002141 0.003291 0.000610 0.005130 0.004870 0.022429
#
#
# Mechanical properties :
#
#
# Convention : Reuss Voigt Hill
#
# Bulk Modulus (GPa) = 34.47470 75.38971 54.93220
# Shear Modulus (GPa) = 26.77228 42.82327 34.79778
#
# Velocity S-wave (km/s) = 3.30721 4.18272 3.77046
# Velocity P-wave (km/s) = 5.35424 7.35709 6.43407
#
# Compressibility (1/GPa) = 0.02900678
#
# Stress axis : x y z
#
# Youngs Moduli (GPa) = 91.01027 70.71868 57.51945
#
# Poissons Ratio (x) = 0.23779 0.28472
# Poissons Ratio (y) = 0.30602 -0.08967
# Poissons Ratio (z) = 0.45050 -0.11024
#
# Static dielectric constant tensor:
#      x y z
#    x 3.777640 0.382270 0.960610 
#    y 0.382270 4.189810 -1.652990 
#    z 0.960610 -1.652990 2.489600 
# 
# 
# High freq. dielectric constant tensor:
#      x y z
#    x 1.969600 -0.012190 -0.010130 
#    y -0.012190 2.001630 -0.017090 
#    z -0.010130 -0.017090 1.967150 
# 
# From -- ./inp_files/448259.got.cif
#   From: 2010.06.25/outbox.cif.g09.slc.cpg/sg2_225_cif.got.tgz:448259.got - 2010.06.27 13:26:56.
