data_PCOD8022032
_publ_section_title
;
Structure prediction by ZEFSAII (Michael W. Deem and Ramdas Pophale) SiO2 
 PCOD8022032
Probable space group: P -1
;
_chemical_formula_sum "Si O2"
_cell_formula_units_Z 16
_cell_length_a 22.034848
_cell_length_b 17.951417
_cell_length_c 9.325207
_cell_angle_alpha 37.179817
_cell_angle_beta 143.384827
_cell_angle_gamma 160.981519
_cell_volume 703.175978
_symmetry_space_group_name_H-M "P -1"
_symmetry_group_IT_number 2
_symmetry_cell_setting 'triclinic'
loop_
_space_group_symop_operation_xyz
x,y,z
-x,-y,-z
loop_
_atom_site_type_symbol
_atom_site_label
_atom_site_fract_x
_atom_site_fract_y
_atom_site_fract_z
Si Si1 0.284038 0.785987 0.876707
Si Si2 0.630292 0.860653 0.579183
Si Si3 0.919744 0.546957 0.234016
Si Si4 0.195053 0.491166 0.348357
Si Si5 0.197931 0.190908 0.167886
Si Si6 0.899314 0.988458 0.435017
Si Si7 0.702530 0.936377 0.922064
Si Si8 0.291836 0.554843 0.748264
O O1 0.259018 0.665460 0.882183
O O2 0.238590 0.882036 0.602278
O O3 0.161763 0.597653 0.063689
O O4 0.500000 0.000000 0.000000
O O5 0.405337 0.657128 0.447338
O O6 0.687489 0.813977 0.648674
O O7 0.679062 0.860902 0.830953
O O8 0.842795 0.546187 0.221550
O O9 0.000000 0.500000 0.500000
O O10 0.090626 0.785990 0.103420
O O11 0.181774 0.486639 0.502045
O O12 0.036923 0.237714 0.372732
O O13 0.170749 0.162355 0.331094
O O14 0.321723 0.437826 0.982448
O O15 0.000000 0.000000 0.000000
O O16 0.000000 0.000000 0.500000
O O17 0.716208 0.851833 0.207094
O O18 0.514883 0.832249 0.754030
#
# Coordination Sequence:
#
# PCOD8022032 Si02
#       8
#     2   2   2   2   2   2   2   2
#     4  10  22  44  72  99 139 182 227 291 347 408
#     4  10  23  45  69 100 136 188 230 279 359 410
#     4  12  24  46  73  99 142 184 230 293 346 413
#     4  10  23  44  70 102 139 181 233 291 340 421
#     4  12  25  44  71  96 142 185 231 287 345 423
#     4  12  25  41  66 103 140 182 236 286 347 412
#     4  11  25  44  69 106 137 183 234 287 350 410
#     4  11  27  47  70 105 140 186 238 281 358 419
#
# _framework density 22.753906000000001
#
# number of rings (size 3 to 8) (size 9 to 14) (size 15 to 20)
#    0.000    1.000    3.750    2.250    1.750    4.000 
#    2.250    1.250    0.000    0.000    0.000    0.000 
#    0.000    0.000    0.000    0.000    0.000    0.000 
#
# Total GULP energy -198276.901770 kJ/mol
# GULP energy per Si atom -12392.306361 kJ/mol
# Density = 2.270212 g / cm^3
# Si number density = 22.753906 Si / 1000 Ang^3
#
#
#
# Elastic Constant Matrix: (Units=GPa)
#
#
# Indices 1 2 3 4 5 6 
#
# 1 90.0539 30.8235 51.9727 -5.0513 -10.4497 -2.4219
# 2 30.8235 84.8453 10.5811 7.5061 -8.5706 -3.3939
# 3 51.9727 10.5811 126.2843 -1.7947 -34.9114 -2.6026
# 4 -5.0513 7.5061 -1.7947 41.0360 -3.7210 -5.0158
# 5 -10.4497 -8.5706 -34.9114 -3.7210 40.9764 3.0509
# 6 -2.4219 -3.3939 -2.6026 -5.0158 3.0509 29.5896
#
#
#
# Elastic Compliance Matrix: (Units=1/GPa)
#
#
# Indices 1 2 3 4 5 6 
#
# 1 0.017157 -0.005818 -0.007318 0.002697 -0.002895 0.000849
# 2 -0.005818 0.014222 0.001963 -0.002906 0.002859 0.000540
# 3 -0.007318 0.001963 0.013568 0.000230 0.010139 -0.000187
# 4 0.002697 -0.002906 0.000230 0.025951 0.002330 0.004066
# 5 -0.002895 0.002859 0.010139 0.002330 0.033267 -0.002052
# 6 0.000849 0.000540 -0.000187 0.004066 -0.002052 0.034812
#
#
# Mechanical properties :
#
#
# Convention : Reuss Voigt Hill
#
# Bulk Modulus (GPa) = 44.24272 54.21535 49.22903
# Shear Modulus (GPa) = 29.61075 36.17415 32.89245
#
# Velocity S-wave (km/s) = 3.61133 3.99155 3.80619
# Velocity P-wave (km/s) = 6.07249 6.71728 6.40301
#
# Compressibility (1/GPa) = 0.02260259
#
# Stress axis : x y z
#
# Youngs Moduli (GPa) = 58.28373 70.31156 73.70065
#
# Poissons Ratio (x) = 0.40904 0.53935
# Poissons Ratio (y) = 0.33907 -0.14466
# Poissons Ratio (z) = 0.42653 -0.13801
#
# Static dielectric constant tensor:
#      x y z
#    x 3.378410 -0.006270 -0.195410 
#    y -0.006270 4.776690 -0.523670 
#    z -0.195410 -0.523670 5.087300 
# 
# 
# High freq. dielectric constant tensor:
#      x y z
#    x 1.877120 -0.005920 -0.020210 
#    y -0.005920 1.908010 0.002490 
#    z -0.020210 0.002490 1.918250 
# 
# From -- ./inp_files/283359.got.cif
#   From: 2010.06.25/outbox.cif.g09.slc.cpg/sg2_142_cif.got.tgz:283359.got - 2010.06.27 13:26:56.
