data_PCOD8022147
_publ_section_title
;
Structure prediction by ZEFSAII (Michael W. Deem and Ramdas Pophale) SiO2 
 PCOD8022147
Probable space group: P -1
;
_chemical_formula_sum "Si O2"
_cell_formula_units_Z 12
_cell_length_a 11.469065
_cell_length_b 9.151234
_cell_length_c 10.913704
_cell_angle_alpha 124.631300
_cell_angle_beta 142.967695
_cell_angle_gamma 42.743130
_cell_volume 467.770830
_symmetry_space_group_name_H-M "P -1"
_symmetry_group_IT_number 2
_symmetry_cell_setting 'triclinic'
loop_
_space_group_symop_operation_xyz
x,y,z
-x,-y,-z
loop_
_atom_site_type_symbol
_atom_site_label
_atom_site_fract_x
_atom_site_fract_y
_atom_site_fract_z
Si Si1 0.153254 0.678470 0.256492
Si Si2 0.524059 0.548141 0.798178
Si Si3 0.059727 0.656199 0.564211
Si Si4 0.977471 0.199506 0.141943
Si Si5 0.240670 0.251067 0.205638
Si Si6 0.306075 0.930632 0.643194
O O1 0.389571 0.568407 0.317703
O O2 0.148865 0.499078 0.243551
O O3 0.154000 0.840272 0.427879
O O4 0.921310 0.797894 0.034796
O O5 0.323132 0.523721 0.670497
O O6 0.429189 0.801371 0.812868
O O7 0.740500 0.431832 0.017928
O O8 0.024343 0.820356 0.722396
O O9 0.000000 0.500000 0.500000
O O10 0.878699 0.810129 0.377135
O O11 0.201478 0.203143 0.289359
O O12 0.000000 0.000000 0.000000
O O13 0.507204 0.097019 0.312897
#
# Coordination Sequence:
#
# PCOD8022147 Si02
#       6
#     2   2   2   2   2   2
#     4   9  19  38  71  97 130 171 231 287 320 394
#     4  10  22  45  66  95 134 179 224 274 338 399
#     4  12  28  42  64 103 144 177 217 282 353 400
#     4  11  25  45  72  97 136 184 222 282 341 410
#     4   9  19  37  67 101 125 168 239 272 330 391
#     4  11  23  43  71  97 133 185 227 282 325 413
#
# _framework density 25.653589
#
# number of rings (size 3 to 8) (size 9 to 14) (size 15 to 20)
#    0.000    1.667    0.000    6.000    7.000    0.667 
#    3.000    0.833    0.000    0.000    0.000    0.000 
#    0.000    0.000    0.000    0.000    0.000    0.000 
#
# Total GULP energy -148746.713456 kJ/mol
# GULP energy per Si atom -12395.559455 kJ/mol
# Density = 2.559520 g / cm^3
# Si number density = 25.653589 Si / 1000 Ang^3
#
#
#
# Elastic Constant Matrix: (Units=GPa)
#
#
# Indices 1 2 3 4 5 6 
#
# 1 115.2297 12.9841 18.9333 -1.4091 34.1386 17.1208
# 2 12.9841 101.3514 26.9291 -17.4754 11.9509 18.5319
# 3 18.9333 26.9291 54.2560 -4.3057 16.8934 -1.9717
# 4 -1.4091 -17.4754 -4.3057 35.7139 -0.1442 -2.5332
# 5 34.1386 11.9509 16.8934 -0.1442 44.0779 -3.0984
# 6 17.1208 18.5319 -1.9717 -2.5332 -3.0984 32.3880
#
#
#
# Elastic Compliance Matrix: (Units=1/GPa)
#
#
# Indices 1 2 3 4 5 6 
#
# 1 0.013433 0.002056 -0.002716 0.000498 -0.010580 -0.009416
# 2 0.002056 0.014583 -0.006725 0.005700 -0.003635 -0.009742
# 3 -0.002716 -0.006725 0.024509 -0.000017 -0.005024 0.006294
# 4 0.000498 0.005700 -0.000017 0.030707 -0.001916 -0.001307
# 5 -0.010580 -0.003635 -0.005024 -0.001916 0.034526 0.010520
# 6 -0.009416 -0.009742 0.006294 -0.001307 0.010520 0.042715
#
#
# Mechanical properties :
#
#
# Convention : Reuss Voigt Hill
#
# Bulk Modulus (GPa) = 26.48815 43.17001 34.82908
# Shear Modulus (GPa) = 26.62027 36.56867 31.59447
#
# Velocity S-wave (km/s) = 3.22480 3.77965 3.51320
# Velocity P-wave (km/s) = 4.92072 5.99268 5.48296
#
# Compressibility (1/GPa) = 0.03775274
#
# Stress axis : x y z
#
# Youngs Moduli (GPa) = 74.44594 68.57276 40.80192
#
# Poissons Ratio (x) = -0.14098 0.11083
# Poissons Ratio (y) = -0.15305 0.27441
# Poissons Ratio (z) = 0.20221 0.46118
#
# Static dielectric constant tensor:
#      x y z
#    x 4.992530 0.248380 -0.016090 
#    y 0.248380 4.611150 -0.309210 
#    z -0.016090 -0.309210 4.459420 
# 
# 
# High freq. dielectric constant tensor:
#      x y z
#    x 2.043260 0.014950 0.014880 
#    y 0.014950 2.015510 -0.016350 
#    z 0.014880 -0.016350 1.999640 
# 
# From -- ./inp_files/415854.got.cif
#   From: 2010.06.25/outbox.cif.g09.slc.cpg/sg2_208_cif.got.tgz:415854.got - 2010.06.27 13:26:56.
