data_PCOD8022227
_publ_section_title
;
Structure prediction by ZEFSAII (Michael W. Deem and Ramdas Pophale) SiO2 
 PCOD8022227
Probable space group: P -1
;
_chemical_formula_sum "Si O2"
_cell_formula_units_Z 16
_cell_length_a 9.112405
_cell_length_b 11.239790
_cell_length_c 9.330351
_cell_angle_alpha 83.056400
_cell_angle_beta 99.124435
_cell_angle_gamma 130.159998
_cell_volume 720.874817
_symmetry_space_group_name_H-M "P -1"
_symmetry_group_IT_number 2
_symmetry_cell_setting 'triclinic'
loop_
_space_group_symop_operation_xyz
x,y,z
-x,-y,-z
loop_
_atom_site_type_symbol
_atom_site_label
_atom_site_fract_x
_atom_site_fract_y
_atom_site_fract_z
Si Si1 0.580341 0.362128 0.644285
Si Si2 0.589105 0.968691 0.892873
Si Si3 0.827643 0.971868 0.389714
Si Si4 0.586735 0.559263 0.159805
Si Si5 0.699081 0.167095 0.394372
Si Si6 0.798637 0.483138 0.371899
Si Si7 0.822211 0.900565 0.088352
Si Si8 0.216193 0.762636 0.302013
O O1 0.370873 0.202855 0.586006
O O2 0.560090 0.457728 0.743979
O O3 0.701898 0.470884 0.510481
O O4 0.706362 0.321027 0.744129
O O5 0.779902 0.134783 0.836354
O O6 0.456021 0.892173 0.744385
O O7 0.500000 0.000000 0.000000
O O8 0.641402 0.867132 0.981123
O O9 0.876067 0.999433 0.225261
O O10 0.820797 0.108818 0.405442
O O11 0.000000 0.000000 0.500000
O O12 0.654834 0.463412 0.233795
O O13 0.772347 0.740127 0.147110
O O14 0.500000 0.500000 0.000000
O O15 0.828460 0.355980 0.377108
O O16 0.629254 0.130746 0.557248
O O17 0.007007 0.650773 0.358704
O O18 0.000000 0.000000 0.000000
#
# Coordination Sequence:
#
# PCOD8022227 Si02
#       8
#     2   2   2   2   2   2   2   2
#     4  10  22  45  68  98 134 177 226 282 343 396
#     4  12  22  43  71  95 136 183 225 276 335 404
#     4  11  25  42  70 104 135 174 232 289 337 403
#     4  11  24  46  64  95 136 182 225 273 338 409
#     4  11  23  43  70 102 130 177 231 273 343 403
#     4  11  25  44  69 101 138 179 222 286 340 406
#     4  11  25  44  64  98 136 174 225 282 337 395
#     4  11  24  43  68 104 140 172 227 288 336 406
#
# _framework density 22.195252
#
# number of rings (size 3 to 8) (size 9 to 14) (size 15 to 20)
#    0.000    1.000    2.500    4.500    7.000    1.000 
#    6.750    1.250    0.000    0.000    0.000    0.000 
#    0.000    0.000    0.000    0.000    0.000    0.000 
#
# Total GULP energy -198274.641232 kJ/mol
# GULP energy per Si atom -12392.165077 kJ/mol
# Density = 2.214473 g / cm^3
# Si number density = 22.195252 Si / 1000 Ang^3
#
#
#
# Elastic Constant Matrix: (Units=GPa)
#
#
# Indices 1 2 3 4 5 6 
#
# 1 120.7531 31.7400 56.0535 -0.1986 -2.9679 -6.4195
# 2 31.7400 63.1439 40.9581 -15.2227 -22.4749 0.6165
# 3 56.0535 40.9581 138.4341 -6.7576 -1.6397 -1.6188
# 4 -0.1986 -15.2227 -6.7576 36.2909 -0.2605 -4.9615
# 5 -2.9679 -22.4749 -1.6397 -0.2605 42.6440 -12.2537
# 6 -6.4195 0.6165 -1.6188 -4.9615 -12.2537 46.1273
#
#
#
# Elastic Compliance Matrix: (Units=1/GPa)
#
#
# Indices 1 2 3 4 5 6 
#
# 1 0.010974 -0.004548 -0.003221 -0.002347 -0.001537 0.000814
# 2 -0.004548 0.031765 -0.006666 0.012837 0.017617 0.004769
# 3 -0.003221 -0.006666 0.010393 -0.001052 -0.003654 -0.001078
# 4 -0.002347 0.012837 -0.001052 0.033511 0.008280 0.005269
# 5 -0.001537 0.017617 -0.003654 0.008280 0.035324 0.009697
# 6 0.000814 0.004769 -0.001078 0.005269 0.009697 0.024834
#
#
# Mechanical properties :
#
#
# Convention : Reuss Voigt Hill
#
# Bulk Modulus (GPa) = 41.21564 64.42603 52.82084
# Shear Modulus (GPa) = 27.20985 37.91775 32.56380
#
# Velocity S-wave (km/s) = 3.50513 4.13773 3.83450
# Velocity P-wave (km/s) = 5.91533 7.20539 6.59200
#
# Compressibility (1/GPa) = 0.02426264
#
# Stress axis : x y z
#
# Youngs Moduli (GPa) = 91.12817 31.48094 96.21969
#
# Poissons Ratio (x) = 0.14316 0.30993
# Poissons Ratio (y) = 0.41441 0.64139
# Poissons Ratio (z) = 0.29353 0.20985
#
# Static dielectric constant tensor:
#      x y z
#    x 5.057690 -0.432780 0.298050 
#    y -0.432780 4.180120 -0.238450 
#    z 0.298050 -0.238450 4.259590 
# 
# 
# High freq. dielectric constant tensor:
#      x y z
#    x 1.878680 -0.010910 0.001350 
#    y -0.010910 1.867910 -0.017840 
#    z 0.001350 -0.017840 1.885140 
# 
# From -- ./inp_files/187802.got.cif
#   From: 2010.06.25/outbox.cif.g09.slc.cpg/sg2_94_cif.got.tgz:187802.got - 2010.06.27 13:26:56.
