data_PCOD8022805
_publ_section_title
;
Structure prediction by ZEFSAII (Michael W. Deem and Ramdas Pophale) SiO2 
 PCOD8022805
Probable space group: P -1
;
_chemical_formula_sum "Si O2"
_cell_formula_units_Z 16
_cell_length_a 6.526467
_cell_length_b 29.433477
_cell_length_c 11.137174
_cell_angle_alpha 151.235919
_cell_angle_beta 68.115602
_cell_angle_gamma 131.137743
_cell_volume 640.898576
_symmetry_space_group_name_H-M "P -1"
_symmetry_group_IT_number 2
_symmetry_cell_setting 'triclinic'
loop_
_space_group_symop_operation_xyz
x,y,z
-x,-y,-z
loop_
_atom_site_type_symbol
_atom_site_label
_atom_site_fract_x
_atom_site_fract_y
_atom_site_fract_z
Si Si1 0.690861 0.300716 0.999679
Si Si2 0.573361 0.969981 0.534933
Si Si3 0.486201 0.191627 0.343994
Si Si4 0.196104 0.266099 0.152613
Si Si5 0.867236 0.099644 0.325804
Si Si6 0.034581 0.665898 0.228167
Si Si7 0.368525 0.615876 0.442711
Si Si8 0.131843 0.421022 0.396952
O O1 0.433355 0.144245 0.750249
O O2 0.715614 0.286849 0.821588
O O3 0.514228 0.345643 0.176240
O O4 0.025404 0.388072 0.204683
O O5 0.260894 0.898629 0.519141
O O6 0.500000 0.000000 0.500000
O O7 0.925009 0.098904 0.818496
O O8 0.819596 0.316593 0.634284
O O9 0.513250 0.256723 0.363820
O O10 0.182500 0.133354 0.355045
O O11 0.423836 0.059118 0.033748
O O12 0.340800 0.318362 0.376224
O O13 0.986443 0.291624 0.215488
O O14 0.996006 0.229758 0.519309
O O15 0.698051 0.498739 0.890001
O O16 0.018704 0.530487 0.392783
O O17 0.500000 0.500000 0.500000
#
# Coordination Sequence:
#
# PCOD8022805 Si02
#       8
#     2   2   2   2   2   2   2   2
#     4  10  23  39  63 103 132 177 230 273 348 403
#     4  11  22  40  69  98 133 173 228 280 343 403
#     4  11  25  46  71  95 139 183 229 285 329 402
#     4  11  23  40  65  95 142 178 217 290 337 405
#     4  10  26  45  68 100 133 177 236 277 347 395
#     4  11  24  44  68  98 136 177 232 283 329 409
#     4  11  26  43  67 104 135 183 234 270 348 406
#     4  11  22  40  65  94 137 178 218 282 342 404
#
# _framework density 24.964948
#
# number of rings (size 3 to 8) (size 9 to 14) (size 15 to 20)
#    0.000    1.250    1.250    3.375    3.500   11.500 
#    0.000    0.000    0.000    0.000    0.000    0.000 
#    0.000    0.000    0.000    0.000    0.000    0.000 
#
# Total GULP energy -198277.234117 kJ/mol
# GULP energy per Si atom -12392.327132 kJ/mol
# Density = 2.490813 g / cm^3
# Si number density = 24.964948 Si / 1000 Ang^3
#
#
#
# Elastic Constant Matrix: (Units=GPa)
#
#
# Indices 1 2 3 4 5 6 
#
# 1 117.9012 24.2442 57.3044 -10.0434 -10.3254 -16.9492
# 2 24.2442 49.0416 6.5362 -3.5457 0.3183 -9.7384
# 3 57.3044 6.5362 159.7054 4.9223 -1.6438 -16.5939
# 4 -10.0434 -3.5457 4.9223 35.9159 -3.1625 0.2760
# 5 -10.3254 0.3183 -1.6438 -3.1625 45.8328 0.9724
# 6 -16.9492 -9.7384 -16.5939 0.2760 0.9724 43.0435
#
#
#
# Elastic Compliance Matrix: (Units=1/GPa)
#
#
# Indices 1 2 3 4 5 6 
#
# 1 0.012356 -0.004893 -0.004103 0.003773 0.002887 0.002087
# 2 -0.004893 0.023476 0.001163 0.000649 -0.001261 0.003857
# 3 -0.004103 0.001163 0.007926 -0.002206 -0.000837 0.001736
# 4 0.003773 0.000649 -0.002206 0.029506 0.002791 0.000530
# 5 0.002887 -0.001261 -0.000837 0.002791 0.022640 -0.000001
# 6 0.002087 0.003857 0.001736 0.000530 -0.000001 0.025593
#
#
# Mechanical properties :
#
#
# Convention : Reuss Voigt Hill
#
# Bulk Modulus (GPa) = 35.59826 55.86863 45.73345
# Shear Modulus (GPa) = 34.12330 40.86268 37.49299
#
# Velocity S-wave (km/s) = 3.70110 4.05013 3.87954
# Velocity P-wave (km/s) = 5.70565 6.65574 6.19892
#
# Compressibility (1/GPa) = 0.02809126
#
# Stress axis : x y z
#
# Youngs Moduli (GPa) = 80.93025 42.59690 126.16837
#
# Poissons Ratio (x) = 0.20843 0.51767
# Poissons Ratio (y) = 0.39600 -0.14670
# Poissons Ratio (z) = 0.33206 -0.04953
#
# Static dielectric constant tensor:
#      x y z
#    x 9.721070 -3.044530 -3.599250 
#    y -3.044530 6.145370 2.142560 
#    z -3.599250 2.142560 6.729590 
# 
# 
# High freq. dielectric constant tensor:
#      x y z
#    x 1.999180 -0.004580 -0.024590 
#    y -0.004580 1.996980 0.021250 
#    z -0.024590 0.021250 2.014860 
# 
# From -- ./inp_files/371603.got.cif
#   From: 2010.06.25/outbox.cif.g09.slc.cpg/sg2_186_cif.got.tgz:371603.got - 2010.06.27 13:26:56.
