data_PCOD8022546
_publ_section_title
;
Structure prediction by ZEFSAII (Michael W. Deem and Ramdas Pophale) SiO2 
 PCOD8022546
Probable space group: P -1
;
_chemical_formula_sum "Si O2"
_cell_formula_units_Z 16
_cell_length_a 8.177393
_cell_length_b 12.087346
_cell_length_c 9.643583
_cell_angle_alpha 82.355962
_cell_angle_beta 86.419941
_cell_angle_gamma 129.359213
_cell_volume 716.922909
_symmetry_space_group_name_H-M "P -1"
_symmetry_group_IT_number 2
_symmetry_cell_setting 'triclinic'
loop_
_space_group_symop_operation_xyz
x,y,z
-x,-y,-z
loop_
_atom_site_type_symbol
_atom_site_label
_atom_site_fract_x
_atom_site_fract_y
_atom_site_fract_z
Si Si1 0.728299 0.324519 0.646700
Si Si2 0.747282 0.949836 0.269526
Si Si3 0.908920 0.741117 0.714646
Si Si4 0.136466 0.233580 0.789195
Si Si5 0.157929 0.404635 0.529204
Si Si6 0.152356 0.511270 0.102500
Si Si7 0.305630 0.998629 0.032446
Si Si8 0.384934 0.281971 0.043652
O O1 0.509128 0.156795 0.677023
O O2 0.909932 0.333672 0.560001
O O3 0.788010 0.376781 0.795129
O O4 0.692362 0.423827 0.546161
O O5 0.832135 0.861427 0.292393
O O6 0.809675 0.022501 0.102113
O O7 0.875901 0.088317 0.342818
O O8 0.967232 0.649938 0.802319
O O9 0.722671 0.723956 0.809065
O O10 0.820022 0.678756 0.576751
O O11 0.228518 0.380932 0.675283
O O12 0.264321 0.277803 0.917081
O O13 0.880856 0.140060 0.841543
O O14 0.369258 0.567006 0.003922
O O15 0.000000 0.500000 0.000000
O O16 0.389936 0.149844 0.071367
O O17 0.500000 0.000000 0.000000
#
# Coordination Sequence:
#
# PCOD8022546 Si02
#       8
#     2   2   2   2   2   2   2   2
#     4  10  22  47  65  97 137 180 229 270 335 412
#     4  11  21  40  70  96 133 172 226 282 332 398
#     4  11  24  44  63 102 141 171 223 286 333 394
#     4  11  21  40  70  98 130 182 223 270 337 410
#     4  10  25  43  67  94 142 184 220 271 336 405
#     4  11  25  42  69 101 134 173 227 288 340 389
#     4  11  21  36  68 103 129 173 225 275 335 397
#     4  11  22  43  68  98 135 175 227 283 336 399
#
# _framework density 22.317602000000001
#
# number of rings (size 3 to 8) (size 9 to 14) (size 15 to 20)
#    0.000    1.250    5.000    1.875    3.500    1.500 
#    0.000    2.500    0.000    0.000    0.000    0.000 
#    0.000    0.000    0.000    0.000    0.000    0.000 
#
# Total GULP energy -198432.829147 kJ/mol
# GULP energy per Si atom -12402.051822 kJ/mol
# Density = 2.226681 g / cm^3
# Si number density = 22.317602 Si / 1000 Ang^3
#
#
#
# Elastic Constant Matrix: (Units=GPa)
#
#
# Indices 1 2 3 4 5 6 
#
# 1 108.3292 30.1134 39.8403 7.1105 -6.3530 3.6878
# 2 30.1134 87.9427 30.5102 -8.1141 -10.4896 10.9875
# 3 39.8403 30.5102 98.1773 -12.1492 -3.9332 -2.3616
# 4 7.1105 -8.1141 -12.1492 22.3323 -12.3707 -8.2320
# 5 -6.3530 -10.4896 -3.9332 -12.3707 31.7459 -2.5713
# 6 3.6878 10.9875 -2.3616 -8.2320 -2.5713 36.6750
#
#
#
# Elastic Compliance Matrix: (Units=1/GPa)
#
#
# Indices 1 2 3 4 5 6 
#
# 1 0.013181 -0.003662 -0.006071 -0.012795 -0.004619 -0.003815
# 2 -0.003662 0.015229 -0.001843 0.009238 0.007532 -0.001711
# 3 -0.006071 -0.001843 0.015591 0.015762 0.006750 0.006178
# 4 -0.012795 0.009238 0.015762 0.091273 0.039860 0.022815
# 5 -0.004619 0.007532 0.006750 0.039860 0.050334 0.011118
# 6 -0.003815 -0.001711 0.006178 0.022815 0.011118 0.034461
#
#
# Mechanical properties :
#
#
# Convention : Reuss Voigt Hill
#
# Bulk Modulus (GPa) = 47.96251 55.04188 51.50220
# Shear Modulus (GPa) = 19.98643 31.08299 25.53471
#
# Velocity S-wave (km/s) = 2.99581 3.73601 3.38620
# Velocity P-wave (km/s) = 5.78827 6.58232 6.19802
#
# Compressibility (1/GPa) = 0.02084962
#
# Stress axis : x y z
#
# Youngs Moduli (GPa) = 75.86947 65.66474 64.13821
#
# Poissons Ratio (x) = 0.24046 0.38937
# Poissons Ratio (y) = 0.27783 0.11819
# Poissons Ratio (z) = 0.46059 0.12101
#
# Static dielectric constant tensor:
#      x y z
#    x 3.947000 -0.161690 -0.192150 
#    y -0.161690 4.111430 -0.277330 
#    z -0.192150 -0.277330 4.028020 
# 
# 
# High freq. dielectric constant tensor:
#      x y z
#    x 1.878630 -0.008570 -0.012970 
#    y -0.008570 1.877600 -0.020210 
#    z -0.012970 -0.020210 1.869110 
# 
# From -- ./inp_files/186752.got.cif
#   From: 2010.06.25/outbox.cif.g09.slc.cpg/sg2_94_cif.got.tgz:186752.got - 2010.06.27 13:26:56.
