data_PCOD8022111
_publ_section_title
;
Structure prediction by ZEFSAII (Michael W. Deem and Ramdas Pophale) SiO2 
 PCOD8022111
Probable space group: P -1
;
_chemical_formula_sum "Si O2"
_cell_formula_units_Z 16
_cell_length_a 14.782571
_cell_length_b 16.402186
_cell_length_c 12.346738
_cell_angle_alpha 37.418649
_cell_angle_beta 28.690033
_cell_angle_gamma 55.140109
_cell_volume 788.839387
_symmetry_space_group_name_H-M "P -1"
_symmetry_group_IT_number 2
_symmetry_cell_setting 'triclinic'
loop_
_space_group_symop_operation_xyz
x,y,z
-x,-y,-z
loop_
_atom_site_type_symbol
_atom_site_label
_atom_site_fract_x
_atom_site_fract_y
_atom_site_fract_z
Si Si1 0.362914 0.341538 0.362915
Si Si2 0.387520 0.662143 0.696190
Si Si3 0.359068 0.900183 0.346976
Si Si4 0.662210 0.592855 0.139594
Si Si5 0.924152 0.322872 0.279647
Si Si6 0.488830 0.810625 0.002371
Si Si7 0.929857 0.342026 0.790108
Si Si8 0.562198 0.162520 0.224066
O O1 0.430610 0.341594 0.415970
O O2 0.401179 0.218902 0.384893
O O3 0.119688 0.301380 0.660531
O O4 0.500000 0.500000 0.000000
O O5 0.479890 0.812622 0.369146
O O6 0.299646 0.518937 0.863210
O O7 0.197953 0.669597 0.954370
O O8 0.140346 0.771558 0.666069
O O9 0.500000 0.000000 0.000000
O O10 0.343511 0.021510 0.318067
O O11 0.500000 0.500000 0.500000
O O12 0.589446 0.696873 0.036479
O O13 0.881279 0.699149 0.852693
O O14 0.726543 0.250118 0.642061
O O15 0.000000 0.500000 0.000000
O O16 0.433680 0.815012 0.931400
O O17 0.000000 0.500000 0.500000
O O18 0.794729 0.241403 0.941579
O O19 0.500000 0.000000 0.500000
#
# Coordination Sequence:
#
# PCOD8022111 Si02
#       8
#     2   2   2   2   2   2   2   2
#     4  11  22  42  66  98 132 169 218 273 323 389
#     4  11  23  40  69  93 134 170 216 268 332 378
#     4  10  22  45  64  89 132 173 212 263 322 388
#     4  12  24  39  65 102 129 165 218 271 324 391
#     4  11  22  42  65  96 130 166 215 270 318 386
#     4  11  24  40  67  93 130 173 209 264 333 383
#     4  11  24  41  68  99 130 170 223 273 321 387
#     4  11  25  44  64  96 137 171 218 270 327 391
#
# _framework density 20.282965000000001
#
# number of rings (size 3 to 8) (size 9 to 14) (size 15 to 20)
#    0.000    1.000    5.000    3.000    1.750    2.000 
#    0.000    6.250    0.000    0.000    0.000    0.000 
#    0.000    0.000    0.000    0.000    0.000    0.000 
#
# Total GULP energy -198335.261746 kJ/mol
# GULP energy per Si atom -12395.953859 kJ/mol
# Density = 2.023680 g / cm^3
# Si number density = 20.282965 Si / 1000 Ang^3
#
#
#
# Elastic Constant Matrix: (Units=GPa)
#
#
# Indices 1 2 3 4 5 6 
#
# 1 176.6512 68.3313 77.5852 -5.8025 -1.7918 -3.8880
# 2 68.3313 122.9381 57.4618 -16.6580 -11.0021 -3.7421
# 3 77.5852 57.4618 107.6577 -19.4587 -12.3320 -6.9850
# 4 -5.8025 -16.6580 -19.4587 43.6857 -9.2314 -4.4196
# 5 -1.7918 -11.0021 -12.3320 -9.2314 39.2738 -6.3972
# 6 -3.8880 -3.7421 -6.9850 -4.4196 -6.3972 46.6190
#
#
#
# Elastic Compliance Matrix: (Units=1/GPa)
#
#
# Indices 1 2 3 4 5 6 
#
# 1 0.009447 -0.003166 -0.006241 -0.003586 -0.003457 -0.001216
# 2 -0.003166 0.012168 -0.003107 0.003642 0.003315 0.001047
# 3 -0.006241 -0.003107 0.017866 0.007756 0.006861 0.003584
# 4 -0.003586 0.003642 0.007756 0.030210 0.011300 0.005570
# 5 -0.003457 0.003315 0.006861 0.011300 0.032100 0.006482
# 6 -0.001216 0.001047 0.003584 0.005570 0.006482 0.023388
#
#
# Mechanical properties :
#
#
# Convention : Reuss Voigt Hill
#
# Bulk Modulus (GPa) = 69.19494 90.44485 79.81990
# Shear Modulus (GPa) = 32.25308 39.50695 35.88002
#
# Velocity S-wave (km/s) = 3.99200 4.41817 4.21048
# Velocity P-wave (km/s) = 7.44560 8.40924 7.94205
#
# Compressibility (1/GPa) = 0.01445192
#
# Stress axis : x y z
#
# Youngs Moduli (GPa) = 105.85279 82.18149 55.97368
#
# Poissons Ratio (x) = 0.26017 0.34935
# Poissons Ratio (y) = 0.33511 0.17392
# Poissons Ratio (z) = 0.66067 0.25536
#
# Static dielectric constant tensor:
#      x y z
#    x 4.133840 0.127180 -0.159360 
#    y 0.127180 4.048410 -0.373330 
#    z -0.159360 -0.373330 3.583600 
# 
# 
# High freq. dielectric constant tensor:
#      x y z
#    x 1.817590 0.002830 0.005470 
#    y 0.002830 1.795100 -0.017230 
#    z 0.005470 -0.017230 1.786300 
# 
# From -- ./inp_files/272512.got.cif
#   From: 2010.06.25/outbox.cif.g09.slc.cpg/sg2_137_cif.got.tgz:272512.got - 2010.06.27 13:26:56.
