data_PCOD8022633
_publ_section_title
;
Structure prediction by ZEFSAII (Michael W. Deem and Ramdas Pophale) SiO2 
 PCOD8022633
Probable space group: P -1
;
_chemical_formula_sum "Si O2"
_cell_formula_units_Z 16
_cell_length_a 14.487372
_cell_length_b 16.146939
_cell_length_c 5.139287
_cell_angle_alpha 89.240232
_cell_angle_beta 69.370829
_cell_angle_gamma 43.277144
_cell_volume 713.723047
_symmetry_space_group_name_H-M "P -1"
_symmetry_group_IT_number 2
_symmetry_cell_setting 'triclinic'
loop_
_space_group_symop_operation_xyz
x,y,z
-x,-y,-z
loop_
_atom_site_type_symbol
_atom_site_label
_atom_site_fract_x
_atom_site_fract_y
_atom_site_fract_z
Si Si1 0.531085 0.146269 0.601992
Si Si2 0.636547 0.471792 0.787266
Si Si3 0.349083 0.430688 0.718737
Si Si4 0.099320 0.490463 0.701196
Si Si5 0.633305 0.801428 0.728478
Si Si6 0.970408 0.190428 0.354749
Si Si7 0.104621 0.256178 0.407818
Si Si8 0.892692 0.898568 0.279426
O O1 0.472970 0.276921 0.614586
O O2 0.455450 0.134153 0.461715
O O3 0.714064 0.028452 0.389533
O O4 0.488202 0.144013 0.931959
O O5 0.587508 0.547854 0.564797
O O6 0.790063 0.318505 0.589876
O O7 0.500000 0.500000 0.000000
O O8 0.669225 0.515901 0.982803
O O9 0.179584 0.509025 0.795917
O O10 0.230237 0.354213 0.426826
O O11 0.996998 0.595973 0.563064
O O12 0.000000 0.500000 0.000000
O O13 0.714431 0.835187 0.732026
O O14 0.068467 0.214177 0.214679
O O15 0.053950 0.086592 0.512311
O O16 0.000212 0.129370 0.049465
O O17 0.063463 0.228287 0.709036
#
# Coordination Sequence:
#
# PCOD8022633 Si02
#       8
#     2   2   2   2   2   2   2   2
#     4  11  24  41  59  87 126 173 214 250 302 363
#     4  12  25  43  71  99 124 154 201 265 331 383
#     4  11  23  42  64  93 131 162 201 260 312 376
#     4  11  23  37  63  94 132 169 209 255 315 379
#     4  11  24  35  56  90 126 171 219 256 300 363
#     4  10  23  38  64  87 120 155 204 258 319 363
#     4  10  23  36  59  86 125 169 210 262 306 353
#     4  10  23  40  61  85 119 177 210 253 301 362
#
# _framework density 22.417656999999998
#
# number of rings (size 3 to 8) (size 9 to 14) (size 15 to 20)
#    0.750    0.500    1.250    5.250    5.250    1.000 
#    0.000    0.000    0.000    4.500    0.000    0.000 
#    0.000    0.000    0.000    0.000    0.000    0.000 
#
# Total GULP energy -198222.250742 kJ/mol
# GULP energy per Si atom -12388.890671 kJ/mol
# Density = 2.236663 g / cm^3
# Si number density = 22.417657 Si / 1000 Ang^3
#
#
#
# Elastic Constant Matrix: (Units=GPa)
#
#
# Indices 1 2 3 4 5 6 
#
# 1 47.9967 13.4097 23.4106 3.2952 -4.7379 -14.7985
# 2 13.4097 92.0726 37.8515 4.2504 6.7693 -29.5768
# 3 23.4106 37.8515 138.2076 -0.1224 8.2246 -18.6798
# 4 3.2952 4.2504 -0.1224 31.3003 -10.6650 -0.5709
# 5 -4.7379 6.7693 8.2246 -10.6650 30.4469 -5.9189
# 6 -14.7985 -29.5768 -18.6798 -0.5709 -5.9189 23.0556
#
#
#
# Elastic Compliance Matrix: (Units=1/GPa)
#
#
# Indices 1 2 3 4 5 6 
#
# 1 0.029655 0.004092 -0.003472 -0.000108 0.009239 0.023840
# 2 0.004092 0.019739 -0.002653 -0.002219 0.001255 0.026067
# 3 -0.003472 -0.002653 0.008806 0.000054 -0.002124 0.000960
# 4 -0.000108 -0.002219 0.000054 0.036962 0.013713 0.001564
# 5 0.009239 0.001255 -0.002124 0.013713 0.042709 0.017124
# 6 0.023840 0.026067 0.000960 0.001564 0.017124 0.097328
#
#
# Mechanical properties :
#
#
# Convention : Reuss Voigt Hill
#
# Bulk Modulus (GPa) = 18.47200 47.51340 32.99270
# Shear Modulus (GPa) = 19.43192 30.53424 24.98308
#
# Velocity S-wave (km/s) = 2.94736 3.69462 3.34194
# Velocity P-wave (km/s) = 4.45426 6.28020 5.44432
#
# Compressibility (1/GPa) = 0.05413598
#
# Stress axis : x y z
#
# Youngs Moduli (GPa) = 33.72144 50.66035 113.55649
#
# Poissons Ratio (x) = -0.20731 0.39422
# Poissons Ratio (y) = -0.13800 0.30124
# Poissons Ratio (z) = 0.11707 0.13439
#
# Static dielectric constant tensor:
#      x y z
#    x 4.026380 -0.283730 0.177340 
#    y -0.283730 4.069570 -0.154820 
#    z 0.177340 -0.154820 3.997370 
# 
# 
# High freq. dielectric constant tensor:
#      x y z
#    x 1.861240 -0.029210 0.011420 
#    y -0.029210 1.881250 -0.010170 
#    z 0.011420 -0.010170 1.887710 
# 
# From -- ./inp_files/99651.got.cif
#   From: 2010.06.25/outbox.cif.g09.slc.cpg/sg2_50_cif.got.tgz:99651.got - 2010.06.27 13:26:56.
