data_PCOD8022007
_publ_section_title
;
Structure prediction by ZEFSAII (Michael W. Deem and Ramdas Pophale) SiO2 
 PCOD8022007
Probable space group: P -1
;
_chemical_formula_sum "Si O2"
_cell_formula_units_Z 16
_cell_length_a 25.285396
_cell_length_b 8.776272
_cell_length_c 5.429632
_cell_angle_alpha 102.808982
_cell_angle_beta 61.487628
_cell_angle_gamma 138.792153
_cell_volume 677.565954
_symmetry_space_group_name_H-M "P -1"
_symmetry_group_IT_number 2
_symmetry_cell_setting 'triclinic'
loop_
_space_group_symop_operation_xyz
x,y,z
-x,-y,-z
loop_
_atom_site_type_symbol
_atom_site_label
_atom_site_fract_x
_atom_site_fract_y
_atom_site_fract_z
Si Si1 0.339374 0.662614 0.237683
Si Si2 0.818755 0.068219 0.217124
Si Si3 0.914461 0.691380 0.814248
Si Si4 0.507616 0.886329 0.238470
Si Si5 0.978887 0.157271 0.862955
Si Si6 0.248027 0.755904 0.731555
Si Si7 0.723131 0.784173 0.826825
Si Si8 0.421470 0.268589 0.746824
O O1 0.411674 0.706686 0.252216
O O2 0.263169 0.618477 0.520802
O O3 0.286015 0.414782 0.140684
O O4 0.397302 0.891854 0.026294
O O5 0.809112 0.238355 0.321529
O O6 0.774429 0.897386 0.491500
O O7 0.921626 0.206101 0.016804
O O8 0.773405 0.955603 0.010061
O O9 0.957748 0.709591 0.473184
O O10 0.911964 0.875667 0.879043
O O11 0.813502 0.414091 0.955148
O O12 0.967087 0.744561 0.965540
O O13 0.517781 0.727051 0.224395
O O14 0.500000 0.000000 0.500000
O O15 0.347437 0.020722 0.671723
O O16 0.628195 0.693623 0.972468
O O17 0.500000 0.500000 0.500000
#
# Coordination Sequence:
#
# PCOD8022007 Si02
#       8
#     2   2   2   2   2   2   2   2
#     4  11  25  41  66  97 129 184 234 294 349 407
#     4  11  25  45  69 105 142 180 227 282 352 417
#     4  10  23  42  71 104 137 176 227 280 345 418
#     4  11  23  41  66  92 130 177 243 292 347 410
#     4  10  22  44  72 102 137 179 220 279 353 426
#     4  11  25  44  67 105 139 181 233 289 343 410
#     4  11  26  43  70 101 140 185 232 291 345 411
#     4  11  25  45  70  97 142 191 237 289 351 409
#
# _framework density 23.613938999999998
#
# number of rings (size 3 to 8) (size 9 to 14) (size 15 to 20)
#    0.000    1.250    1.250    3.000    7.000    7.500 
#    0.000    0.000    0.000    0.000    0.000    0.000 
#    0.000    0.000    0.000    0.000    0.000    0.000 
#
# Total GULP energy -198238.206576 kJ/mol
# GULP energy per Si atom -12389.887911 kJ/mol
# Density = 2.356019 g / cm^3
# Si number density = 23.613939 Si / 1000 Ang^3
#
#
#
# Elastic Constant Matrix: (Units=GPa)
#
#
# Indices 1 2 3 4 5 6 
#
# 1 153.0250 28.4336 54.8830 11.2826 -19.9524 -22.9979
# 2 28.4336 82.0394 36.0071 -17.2528 -2.3612 -20.4495
# 3 54.8830 36.0071 156.3853 -16.0752 0.3650 -9.8080
# 4 11.2826 -17.2528 -16.0752 49.0205 -10.5354 5.6585
# 5 -19.9524 -2.3612 0.3650 -10.5354 50.6549 6.0376
# 6 -22.9979 -20.4495 -9.8080 5.6585 6.0376 39.1162
#
#
#
# Elastic Compliance Matrix: (Units=1/GPa)
#
#
# Indices 1 2 3 4 5 6 
#
# 1 0.009024 -0.001540 -0.002936 -0.003540 0.002300 0.003922
# 2 -0.001540 0.016318 -0.002341 0.004688 0.000395 0.006299
# 3 -0.002936 -0.002341 0.008151 0.002517 -0.000661 -0.001168
# 4 -0.003540 0.004688 0.002517 0.025017 0.004402 -0.003298
# 5 0.002300 0.000395 -0.000661 0.004402 0.021899 -0.002624
# 6 0.003922 0.006299 -0.001168 -0.003298 -0.002624 0.031753
#
#
# Mechanical properties :
#
#
# Convention : Reuss Voigt Hill
#
# Bulk Modulus (GPa) = 50.35253 70.01079 60.18166
# Shear Modulus (GPa) = 37.76047 45.90006 41.83026
#
# Velocity S-wave (km/s) = 4.00318 4.41360 4.21339
# Velocity P-wave (km/s) = 6.53734 7.46228 7.01507
#
# Compressibility (1/GPa) = 0.01985997
#
# Stress axis : x y z
#
# Youngs Moduli (GPa) = 110.81261 61.28335 122.68801
#
# Poissons Ratio (x) = 0.09437 0.36019
# Poissons Ratio (y) = 0.17064 0.28717
# Poissons Ratio (z) = 0.32532 0.14344
#
# Static dielectric constant tensor:
#      x y z
#    x 4.863200 -0.193020 -0.198120 
#    y -0.193020 4.109180 0.056210 
#    z -0.198120 0.056210 4.302970 
# 
# 
# High freq. dielectric constant tensor:
#      x y z
#    x 1.946960 -0.017300 -0.011130 
#    y -0.017300 1.937090 -0.004040 
#    z -0.011130 -0.004040 1.941760 
# 
# From -- ./inp_files/39015.got.cif
#   From: 2010.06.25/outbox.cif.g09.slc.cpg/sg2_20_cif.got.tgz:39015.got - 2010.06.27 13:26:56.
