data_PCOD8022511
_publ_section_title
;
Structure prediction by ZEFSAII (Michael W. Deem and Ramdas Pophale) SiO2 
 PCOD8022511
Probable space group: P -1
;
_chemical_formula_sum "Si O2"
_cell_formula_units_Z 16
_cell_length_a 11.222219
_cell_length_b 9.123689
_cell_length_c 9.937975
_cell_angle_alpha 45.674785
_cell_angle_beta 90.386642
_cell_angle_gamma 89.247825
_cell_volume 727.682798
_symmetry_space_group_name_H-M "P -1"
_symmetry_group_IT_number 2
_symmetry_cell_setting 'triclinic'
loop_
_space_group_symop_operation_xyz
x,y,z
-x,-y,-z
loop_
_atom_site_type_symbol
_atom_site_label
_atom_site_fract_x
_atom_site_fract_y
_atom_site_fract_z
Si Si1 0.760363 0.938999 0.217195
Si Si2 0.721871 0.889439 0.762393
Si Si3 0.751501 0.183875 0.804511
Si Si4 0.245842 0.821069 0.673936
Si Si5 0.602335 0.583512 0.540622
Si Si6 0.911064 0.558060 0.080103
Si Si7 0.491115 0.233898 0.308293
Si Si8 0.009784 0.308720 0.720191
O O1 0.652986 0.792535 0.348544
O O2 0.874032 0.820264 0.235683
O O3 0.801001 0.070131 0.260932
O O4 0.709774 0.089172 0.005431
O O5 0.605887 0.750896 0.822599
O O6 0.688452 0.060353 0.763749
O O7 0.759040 0.005822 0.552195
O O8 0.826924 0.742961 0.909962
O O9 0.710992 0.420426 0.650987
O O10 0.894097 0.169762 0.793577
O O11 0.160859 0.639570 0.748384
O O12 0.375874 0.712927 0.770991
O O13 0.500000 0.500000 0.500000
O O14 0.549463 0.619044 0.665219
O O15 0.985075 0.624013 0.167834
O O16 0.000000 0.500000 0.000000
O O17 0.500000 0.000000 0.500000
O O18 0.000000 0.500000 0.500000
#
# Coordination Sequence:
#
# PCOD8022511 Si02
#       8
#     2   2   2   2   2   2   2   2
#     4  12  26  46  71 108 140 188 239 291 358 429
#     4  11  25  47  70 103 144 184 234 295 354 424
#     4  12  27  46  74 104 146 189 237 299 361 422
#     4  11  26  47  75  99 143 192 232 289 366 415
#     4  12  26  46  76 105 145 189 242 295 359 431
#     4  12  29  46  71 108 142 184 248 292 351 429
#     4  10  22  46  72 101 143 185 234 291 350 428
#     4  12  26  48  74 102 150 190 239 297 359 426
#
# _framework density 21.987604000000001
#
# number of rings (size 3 to 8) (size 9 to 14) (size 15 to 20)
#    0.000    0.500    5.000    3.375    8.750    1.500 
#    0.000    0.000    0.000    0.000    0.000    0.000 
#    0.000    0.000    0.000    0.000    0.000    0.000 
#
# Total GULP energy -198480.230090 kJ/mol
# GULP energy per Si atom -12405.014381 kJ/mol
# Density = 2.193756 g / cm^3
# Si number density = 21.987604 Si / 1000 Ang^3
#
#
#
# Elastic Constant Matrix: (Units=GPa)
#
#
# Indices 1 2 3 4 5 6 
#
# 1 75.0340 14.3798 10.9906 -1.1235 5.1293 7.4260
# 2 14.3798 121.2758 24.3958 21.9070 9.3254 -0.1352
# 3 10.9906 24.3958 110.0979 14.0346 6.0480 3.0968
# 4 -1.1235 21.9070 14.0346 40.3189 5.5172 -2.0024
# 5 5.1293 9.3254 6.0480 5.5172 27.3377 3.0283
# 6 7.4260 -0.1352 3.0968 -2.0024 3.0283 42.6781
#
#
#
# Elastic Compliance Matrix: (Units=1/GPa)
#
#
# Indices 1 2 3 4 5 6 
#
# 1 0.014183 -0.001639 -0.001117 0.001839 -0.001986 -0.002165
# 2 -0.001639 0.009670 -0.001305 -0.004581 -0.001814 0.000324
# 3 -0.001117 -0.001305 0.009891 -0.002667 -0.000930 -0.000587
# 4 0.001839 -0.004581 -0.002667 0.028921 -0.004197 0.001514
# 5 -0.001986 -0.001814 -0.000930 -0.004197 0.038906 -0.002550
# 6 -0.002165 0.000324 -0.000587 0.001514 -0.002550 0.024103
#
#
# Mechanical properties :
#
#
# Convention : Reuss Voigt Hill
#
# Bulk Modulus (GPa) = 39.02815 45.10446 42.06631
# Shear Modulus (GPa) = 35.12841 39.17639 37.15240
#
# Velocity S-wave (km/s) = 4.00139 4.22566 4.11505
# Velocity P-wave (km/s) = 6.25594 6.66081 6.46155
#
# Compressibility (1/GPa) = 0.02562253
#
# Stress axis : x y z
#
# Youngs Moduli (GPa) = 70.50939 103.41494 101.10209
#
# Poissons Ratio (x) = 0.16947 0.11294
# Poissons Ratio (y) = 0.11555 0.13189
# Poissons Ratio (z) = 0.07876 0.13491
#
# Static dielectric constant tensor:
#      x y z
#    x 4.687830 0.170770 0.026620 
#    y 0.170770 4.238310 0.062980 
#    z 0.026620 0.062980 4.125650 
# 
# 
# High freq. dielectric constant tensor:
#      x y z
#    x 1.870860 0.001400 0.002470 
#    y 0.001400 1.883380 0.001270 
#    z 0.002470 0.001270 1.869100 
# 
# From -- ./inp_files/242182.got.cif
#   From: 2010.06.25/outbox.cif.g09.slc.cpg/sg2_122_cif.got.tgz:242182.got - 2010.06.27 13:26:56.
