data_PCOD8022936
_publ_section_title
;
Structure prediction by ZEFSAII (Michael W. Deem and Ramdas Pophale) SiO2 
 PCOD8022936
Probable space group: P -1
;
_chemical_formula_sum "Si O2"
_cell_formula_units_Z 16
_cell_length_a 8.939975
_cell_length_b 14.944254
_cell_length_c 14.998750
_cell_angle_alpha 152.795648
_cell_angle_beta 95.872937
_cell_angle_gamma 100.423523
_cell_volume 730.424870
_symmetry_space_group_name_H-M "P -1"
_symmetry_group_IT_number 2
_symmetry_cell_setting 'triclinic'
loop_
_space_group_symop_operation_xyz
x,y,z
-x,-y,-z
loop_
_atom_site_type_symbol
_atom_site_label
_atom_site_fract_x
_atom_site_fract_y
_atom_site_fract_z
Si Si1 0.314305 0.280892 0.744272
Si Si2 0.031717 0.214726 0.131021
Si Si3 0.415532 0.677121 0.542769
Si Si4 0.627253 0.605876 0.349745
Si Si5 0.018141 0.748193 0.223289
Si Si6 0.354384 0.080657 0.886633
Si Si7 0.665534 0.979385 0.972228
Si Si8 0.979780 0.937630 0.201093
O O1 0.384226 0.320463 0.683823
O O2 0.152868 0.314937 0.780897
O O3 0.212621 0.985823 0.491182
O O4 0.500000 0.500000 0.000000
O O5 0.227860 0.460309 0.388500
O O6 0.034838 0.201356 0.012256
O O7 0.856663 0.218640 0.153608
O O8 0.000000 0.000000 0.000000
O O9 0.471594 0.606888 0.395359
O O10 0.582165 0.770092 0.706561
O O11 0.376824 0.870422 0.683961
O O12 0.837950 0.784841 0.556984
O O13 0.560893 0.329165 0.101715
O O14 0.996085 0.813245 0.178714
O O15 0.000000 0.500000 0.000000
O O16 0.199146 0.058106 0.792766
O O17 0.289271 0.089207 0.991473
O O18 0.500000 0.000000 0.000000
#
# Coordination Sequence:
#
# PCOD8022936 Si02
#       8
#     2   2   2   2   2   2   2   2
#     4  10  23  45  71 101 135 172 223 286 354 411
#     4  12  23  41  67  96 132 183 219 269 335 388
#     4  11  25  41  64  98 135 178 231 271 330 401
#     4  11  23  42  66  96 133 173 220 278 337 400
#     4  10  24  48  71 102 135 178 229 288 345 412
#     4  11  24  42  64  99 134 178 224 278 328 398
#     4  10  23  40  61  94 134 173 223 273 320 387
#     4  11  23  43  68  96 134 175 225 272 337 399
#
# _framework density 21.905061
#
# number of rings (size 3 to 8) (size 9 to 14) (size 15 to 20)
#    0.000    1.250    3.750    0.750    1.750    7.500 
#    9.000    0.000    0.000    0.000    0.000    0.000 
#    0.000    0.000    0.000    0.000    0.000    0.000 
#
# Total GULP energy -198211.889045 kJ/mol
# GULP energy per Si atom -12388.243065 kJ/mol
# Density = 2.185520 g / cm^3
# Si number density = 21.905061 Si / 1000 Ang^3
#
#
#
# Elastic Constant Matrix: (Units=GPa)
#
#
# Indices 1 2 3 4 5 6 
#
# 1 88.5804 37.1443 51.3465 11.5512 3.1665 7.3720
# 2 37.1443 86.0085 36.4196 6.2311 4.3768 8.7220
# 3 51.3465 36.4196 146.3545 25.0229 9.2270 -1.4564
# 4 11.5512 6.2311 25.0229 37.7423 -3.0799 3.6276
# 5 3.1665 4.3768 9.2270 -3.0799 41.8559 5.7344
# 6 7.3720 8.7220 -1.4564 3.6276 5.7344 39.4660
#
#
#
# Elastic Compliance Matrix: (Units=1/GPa)
#
#
# Indices 1 2 3 4 5 6 
#
# 1 0.016126 -0.004875 -0.004317 -0.001034 0.000448 -0.002064
# 2 -0.004875 0.014839 -0.002095 0.000639 -0.000338 -0.002456
# 3 -0.004317 -0.002095 0.009962 -0.005370 -0.002385 0.002477
# 4 -0.001034 0.000639 -0.005370 0.030933 0.003960 -0.003565
# 5 0.000448 -0.000338 -0.002385 0.003960 0.025276 -0.004134
# 6 -0.002064 -0.002456 0.002477 -0.003565 -0.004134 0.027286
#
#
# Mechanical properties :
#
#
# Convention : Reuss Voigt Hill
#
# Bulk Modulus (GPa) = 54.48413 63.41825 58.95119
# Shear Modulus (GPa) = 32.65566 36.88169 34.76867
#
# Velocity S-wave (km/s) = 3.86525 4.10775 3.98835
# Velocity P-wave (km/s) = 6.69680 7.17722 6.94116
#
# Compressibility (1/GPa) = 0.01835397
#
# Stress axis : x y z
#
# Youngs Moduli (GPa) = 62.01099 67.38964 100.38586
#
# Poissons Ratio (x) = 0.32853 0.43332
# Poissons Ratio (y) = 0.30231 0.21028
# Poissons Ratio (z) = 0.26767 0.14116
#
# Static dielectric constant tensor:
#      x y z
#    x 4.083120 0.257170 0.495820 
#    y 0.257170 4.272090 -0.124360 
#    z 0.495820 -0.124360 4.592900 
# 
# 
# High freq. dielectric constant tensor:
#      x y z
#    x 1.853510 0.022470 0.020920 
#    y 0.022470 1.864400 -0.001020 
#    z 0.020920 -0.001020 1.875360 
# 
# From -- ./inp_files/505845.got.cif
#   From: 2010.06.25/outbox.cif.g09.slc.cpg/sg2_253_cif.got.tgz:505845.got - 2010.06.27 13:26:56.
