data_PCOD8022325
_publ_section_title
;
Structure prediction by ZEFSAII (Michael W. Deem and Ramdas Pophale) SiO2 
 PCOD8022325
Probable space group: P -1
;
_chemical_formula_sum "Si O2"
_cell_formula_units_Z 16
_cell_length_a 8.244359
_cell_length_b 7.917644
_cell_length_c 18.702085
_cell_angle_alpha 131.497488
_cell_angle_beta 71.031886
_cell_angle_gamma 127.010644
_cell_volume 724.554240
_symmetry_space_group_name_H-M "P -1"
_symmetry_group_IT_number 2
_symmetry_cell_setting 'triclinic'
loop_
_space_group_symop_operation_xyz
x,y,z
-x,-y,-z
loop_
_atom_site_type_symbol
_atom_site_label
_atom_site_fract_x
_atom_site_fract_y
_atom_site_fract_z
Si Si1 0.884586 0.616334 0.011707
Si Si2 0.653468 0.152700 0.456372
Si Si3 0.409142 0.956594 0.782758
Si Si4 0.540836 0.858730 0.018238
Si Si5 0.989156 0.833209 0.781936
Si Si6 0.411059 0.217000 0.396232
Si Si7 0.741593 0.556477 0.867794
Si Si8 0.937813 0.790601 0.615973
O O1 0.966305 0.911469 0.108691
O O2 0.649216 0.433277 0.015658
O O3 0.905409 0.603430 0.919124
O O4 0.000000 0.500000 0.000000
O O5 0.490636 0.062866 0.389228
O O6 0.795637 0.471761 0.535244
O O7 0.821153 0.070301 0.399274
O O8 0.500000 0.000000 0.500000
O O9 0.389079 0.944598 0.868172
O O10 0.541663 0.260899 0.820570
O O11 0.186676 0.817606 0.740057
O O12 0.500344 0.780031 0.694652
O O13 0.708712 0.800592 0.952845
O O14 0.500000 0.000000 0.000000
O O15 0.826219 0.577586 0.781490
O O16 0.909124 0.836696 0.715886
O O17 0.500000 0.500000 0.500000
O O18 0.165066 0.081876 0.382033
#
# Coordination Sequence:
#
# PCOD8022325 Si02
#       8
#     2   2   2   2   2   2   2   2
#     4  11  23  40  60  91 133 174 219 273 322 390
#     4  10  22  45  71  91 128 172 213 277 344 393
#     4  11  23  44  64  93 135 179 222 278 336 394
#     4  11  23  41  64  95 134 177 224 272 327 403
#     4  12  23  40  67  92 132 172 220 274 334 403
#     4  10  23  45  67  94 137 172 218 287 337 392
#     4  11  24  41  62  93 130 178 222 265 334 396
#     4  10  24  41  65 101 126 166 222 268 336 408
#
# _framework density 22.082543000000001
#
# number of rings (size 3 to 8) (size 9 to 14) (size 15 to 20)
#    0.000    1.250    3.750    1.875    8.750    0.500 
#    0.000    2.500    0.000    0.000    0.000    0.000 
#    0.000    0.000    0.000    0.000    0.000    0.000 
#
# Total GULP energy -198254.192336 kJ/mol
# GULP energy per Si atom -12390.887021 kJ/mol
# Density = 2.203228 g / cm^3
# Si number density = 22.082543 Si / 1000 Ang^3
#
#
#
# Elastic Constant Matrix: (Units=GPa)
#
#
# Indices 1 2 3 4 5 6 
#
# 1 185.8365 36.9365 42.5042 -27.0816 7.8692 5.2729
# 2 36.9365 75.1918 22.2570 -26.3537 3.6158 6.1808
# 3 42.5042 22.2570 106.4966 -19.8977 -1.0969 3.1945
# 4 -27.0816 -26.3537 -19.8977 29.6746 -3.9521 -3.3817
# 5 7.8692 3.6158 -1.0969 -3.9521 41.7051 -5.1239
# 6 5.2729 6.1808 3.1945 -3.3817 -5.1239 24.5887
#
#
#
# Elastic Compliance Matrix: (Units=1/GPa)
#
#
# Indices 1 2 3 4 5 6 
#
# 1 0.006610 -0.001460 -0.001687 0.003421 -0.000908 -0.000550
# 2 -0.001460 0.019880 -0.000584 0.015605 -0.000295 -0.002524
# 3 -0.001687 -0.000584 0.011252 0.005657 0.001210 0.000077
# 4 0.003421 0.015605 0.005657 0.055315 0.003761 0.003000
# 5 -0.000908 -0.000295 0.001210 0.003761 0.025288 0.005898
# 6 -0.000550 -0.002524 0.000077 0.003000 0.005898 0.043053
#
#
# Mechanical properties :
#
#
# Convention : Reuss Voigt Hill
#
# Bulk Modulus (GPa) = 33.02340 63.43561 48.22950
# Shear Modulus (GPa) = 27.94038 36.91549 32.42794
#
# Velocity S-wave (km/s) = 3.56092 4.09308 3.83624
# Velocity P-wave (km/s) = 5.64747 7.15030 6.44285
#
# Compressibility (1/GPa) = 0.03028156
#
# Stress axis : x y z
#
# Youngs Moduli (GPa) = 151.29584 50.30170 88.87083
#
# Poissons Ratio (x) = 0.07342 0.14989
# Poissons Ratio (y) = 0.22083 0.05190
# Poissons Ratio (z) = 0.25517 0.02938
#
# Static dielectric constant tensor:
#      x y z
#    x 4.401130 0.126040 -0.028930 
#    y 0.126040 3.766800 -0.152310 
#    z -0.028930 -0.152310 4.098840 
# 
# 
# High freq. dielectric constant tensor:
#      x y z
#    x 1.884590 0.007630 0.007780 
#    y 0.007630 1.842830 -0.012730 
#    z 0.007780 -0.012730 1.877480 
# 
# From -- ./inp_files/356537.got.cif
#   From: 2010.06.25/outbox.cif.g09.slc.cpg/sg2_179_cif.got.tgz:356537.got - 2010.06.27 13:26:56.
