data_PCOD8022918
_publ_section_title
;
Structure prediction by ZEFSAII (Michael W. Deem and Ramdas Pophale) SiO2 
 PCOD8022918
Probable space group: P -1
;
_chemical_formula_sum "Si O2"
_cell_formula_units_Z 16
_cell_length_a 13.962818
_cell_length_b 16.474612
_cell_length_c 9.158885
_cell_angle_alpha 103.617616
_cell_angle_beta 67.982745
_cell_angle_gamma 43.596724
_cell_volume 820.594398
_symmetry_space_group_name_H-M "P -1"
_symmetry_group_IT_number 2
_symmetry_cell_setting 'triclinic'
loop_
_space_group_symop_operation_xyz
x,y,z
-x,-y,-z
loop_
_atom_site_type_symbol
_atom_site_label
_atom_site_fract_x
_atom_site_fract_y
_atom_site_fract_z
Si Si1 0.596100 0.610127 0.770749
Si Si2 0.279580 0.443497 0.003934
Si Si3 0.528423 0.595181 0.385570
Si Si4 0.872230 0.558489 0.456005
Si Si5 0.746655 0.800255 0.450892
Si Si6 0.796517 0.088895 0.089876
Si Si7 0.191383 0.687529 0.636000
Si Si8 0.702076 0.762847 0.138761
O O1 0.690205 0.619673 0.629006
O O2 0.331573 0.781712 0.929566
O O3 0.776850 0.401488 0.550765
O O4 0.576277 0.643742 0.966837
O O5 0.356484 0.457215 0.850933
O O6 0.338591 0.306957 0.858382
O O7 0.998500 0.659979 0.286527
O O8 0.407817 0.763459 0.605618
O O9 0.332914 0.666849 0.496172
O O10 0.727484 0.409574 0.297241
O O11 0.709778 0.748673 0.556756
O O12 0.000000 0.500000 0.500000
O O13 0.075131 0.377488 0.152076
O O14 0.762284 0.756150 0.258482
O O15 0.537565 0.018982 0.692374
O O16 0.000000 0.000000 0.000000
O O17 0.911687 0.914897 0.914024
#
# Coordination Sequence:
#
# PCOD8022918 Si02
#       8
#     2   2   2   2   2   2   2   2
#     4  11  23  37  61  88 120 161 194 237 301 349
#     4  11  22  40  57  88 125 155 193 246 299 347
#     4   9  20  38  64  83 115 153 192 250 296 344
#     4  11  21  41  59  87 127 159 188 245 293 350
#     4  10  23  40  61  86 121 158 200 244 288 348
#     4   9  20  40  61  84 115 149 199 249 285 346
#     4   9  20  39  59  88 112 149 203 240 291 357
#     4  10  23  40  60  86 121 157 203 240 289 353
#
# _framework density 19.498061
#
# number of rings (size 3 to 8) (size 9 to 14) (size 15 to 20)
#    0.000    2.000    2.500    2.250    7.000    4.000 
#    0.000    2.500    0.000    0.000    0.000    0.000 
#    0.000    0.000    0.000    0.000    0.000    0.000 
#
# Total GULP energy -198340.489959 kJ/mol
# GULP energy per Si atom -12396.280622 kJ/mol
# Density = 1.945368 g / cm^3
# Si number density = 19.498061 Si / 1000 Ang^3
#
#
#
# Elastic Constant Matrix: (Units=GPa)
#
#
# Indices 1 2 3 4 5 6 
#
# 1 64.9731 28.4690 15.7913 -1.3233 2.7510 -5.0940
# 2 28.4690 95.3975 52.3510 10.0461 0.2413 7.7052
# 3 15.7913 52.3510 68.2881 6.5314 3.6992 13.2323
# 4 -1.3233 10.0461 6.5314 43.4559 3.5681 -0.8935
# 5 2.7510 0.2413 3.6992 3.5681 18.6343 -0.1261
# 6 -5.0940 7.7052 13.2323 -0.8935 -0.1261 37.2117
#
#
#
# Elastic Compliance Matrix: (Units=1/GPa)
#
#
# Indices 1 2 3 4 5 6 
#
# 1 0.018554 -0.005664 -0.000795 0.002317 -0.002924 0.004041
# 2 -0.005664 0.020236 -0.014126 -0.003053 0.003963 -0.000002
# 3 -0.000795 -0.014126 0.027331 -0.000594 -0.005059 -0.006934
# 4 0.002317 -0.003053 -0.000594 0.024309 -0.004828 0.001728
# 5 -0.002924 0.003963 -0.005059 -0.004828 0.055978 0.000652
# 6 0.004041 -0.000002 -0.006934 0.001728 0.000652 0.029936
#
#
# Mechanical properties :
#
#
# Convention : Reuss Voigt Hill
#
# Bulk Modulus (GPa) = 40.07657 46.87569 43.47613
# Shear Modulus (GPa) = 22.14048 28.66355 25.40201
#
# Velocity S-wave (km/s) = 3.37341 3.83831 3.61334
# Velocity P-wave (km/s) = 5.98096 6.61339 6.30511
#
# Compressibility (1/GPa) = 0.02495223
#
# Stress axis : x y z
#
# Youngs Moduli (GPa) = 53.89794 49.41646 36.58812
#
# Poissons Ratio (x) = 0.27988 0.02908
# Poissons Ratio (y) = 0.30526 0.51684
# Poissons Ratio (z) = 0.04283 0.69805
#
# Static dielectric constant tensor:
#      x y z
#    x 3.375870 -0.167640 0.311270 
#    y -0.167640 3.602390 0.393470 
#    z 0.311270 0.393470 3.543060 
# 
# 
# High freq. dielectric constant tensor:
#      x y z
#    x 1.757920 -0.005660 0.009750 
#    y -0.005660 1.759880 0.011300 
#    z 0.009750 0.011300 1.753780 
# 
# From -- ./inp_files/313286.got.cif
#   From: 2010.06.25/outbox.cif.g09.slc.cpg/sg2_157_cif.got.tgz:313286.got - 2010.06.27 13:26:56.
