data_PCOD8022437
_publ_section_title
;
Structure prediction by ZEFSAII (Michael W. Deem and Ramdas Pophale) SiO2 
 PCOD8022437
Probable space group: P -1
;
_chemical_formula_sum "Si O2"
_cell_formula_units_Z 16
_cell_length_a 18.905370
_cell_length_b 6.642146
_cell_length_c 21.737369
_cell_angle_alpha 60.930080
_cell_angle_beta 161.109906
_cell_angle_gamma 121.317246
_cell_volume 754.793469
_symmetry_space_group_name_H-M "P -1"
_symmetry_group_IT_number 2
_symmetry_cell_setting 'triclinic'
loop_
_space_group_symop_operation_xyz
x,y,z
-x,-y,-z
loop_
_atom_site_type_symbol
_atom_site_label
_atom_site_fract_x
_atom_site_fract_y
_atom_site_fract_z
Si Si1 0.587067 0.333709 0.767248
Si Si2 0.560307 0.959892 0.894757
Si Si3 0.563156 0.224117 0.976544
Si Si4 0.765808 0.507832 0.281104
Si Si5 0.884751 0.651586 0.223728
Si Si6 0.278744 0.701928 0.459614
Si Si7 0.303241 0.912514 0.223742
Si Si8 0.025107 0.290157 0.910737
O O1 0.390922 0.477090 0.581601
O O2 0.651046 0.281022 0.758238
O O3 0.491319 0.080161 0.758288
O O4 0.802980 0.471098 0.962641
O O5 0.366332 0.760664 0.794795
O O6 0.610823 0.169234 0.954241
O O7 0.775511 0.851032 0.072009
O O8 0.362690 0.363466 0.794761
O O9 0.792516 0.388932 0.162615
O O10 0.500000 0.000000 0.000000
O O11 0.806886 0.653564 0.230111
O O12 0.000000 0.500000 0.500000
O O13 0.148221 0.704534 0.417237
O O14 0.095360 0.686631 0.256787
O O15 0.468958 0.939947 0.579942
O O16 0.166541 0.766716 0.187654
O O17 0.161916 0.082365 0.049192
#
# Coordination Sequence:
#
# PCOD8022437 Si02
#       8
#     2   2   2   2   2   2   2   2
#     4  11  25  40  64  99 127 164 212 259 310 375
#     4  11  23  42  62  85 123 164 208 253 308 366
#     4  11  20  41  63  82 111 163 214 249 306 364
#     4  11  25  38  59  89 121 161 206 257 306 362
#     4  11  23  41  61  87 122 164 207 254 310 365
#     4  11  25  40  64  99 129 162 211 261 310 373
#     4  10  23  43  70  93 128 167 206 254 315 382
#     4  10  22  46  67  94 128 167 205 255 318 375
#
# _framework density 21.197852000000001
#
# number of rings (size 3 to 8) (size 9 to 14) (size 15 to 20)
#    0.000    1.250    2.500    3.000    3.500    7.000 
#    0.000    0.000    0.000    0.000    0.000    0.000 
#    0.000    0.000    0.000    0.000    0.000    0.000 
#
# Total GULP energy -198389.623726 kJ/mol
# GULP energy per Si atom -12399.351483 kJ/mol
# Density = 2.114961 g / cm^3
# Si number density = 21.197852 Si / 1000 Ang^3
#
#
#
# Elastic Constant Matrix: (Units=GPa)
#
#
# Indices 1 2 3 4 5 6 
#
# 1 93.5426 33.2615 31.6396 -1.2570 17.9837 1.3294
# 2 33.2615 82.9754 35.7472 -12.0748 3.0925 -6.6810
# 3 31.6396 35.7472 121.7357 2.3690 7.5700 -0.4054
# 4 -1.2570 -12.0748 2.3690 15.5225 -4.5649 -4.9492
# 5 17.9837 3.0925 7.5700 -4.5649 36.3746 -1.9058
# 6 1.3294 -6.6810 -0.4054 -4.9492 -1.9058 35.7337
#
#
#
# Elastic Compliance Matrix: (Units=1/GPa)
#
#
# Indices 1 2 3 4 5 6 
#
# 1 0.014782 -0.006239 -0.001427 -0.006606 -0.007470 -0.003046
# 2 -0.006239 0.019833 -0.004880 0.019381 0.005205 0.006847
# 3 -0.001427 -0.004880 0.010262 -0.006609 -0.001937 -0.001762
# 4 -0.006606 0.019381 -0.006609 0.089869 0.015166 0.017050
# 5 -0.007470 0.005205 -0.001937 0.015166 0.033316 0.005106
# 6 -0.003046 0.006847 -0.001762 0.017050 0.005106 0.031992
#
#
# Mechanical properties :
#
#
# Convention : Reuss Voigt Hill
#
# Bulk Modulus (GPa) = 50.54585 55.50561 53.02573
# Shear Modulus (GPa) = 21.57582 30.69986 26.13784
#
# Velocity S-wave (km/s) = 3.19381 3.80972 3.51528
# Velocity P-wave (km/s) = 6.12349 6.75228 6.44556
#
# Compressibility (1/GPa) = 0.01978402
#
# Stress axis : x y z
#
# Youngs Moduli (GPa) = 67.65009 50.42115 97.44986
#
# Poissons Ratio (x) = 0.31458 0.13906
# Poissons Ratio (y) = 0.42207 0.47559
# Poissons Ratio (z) = 0.09653 0.24607
#
# Static dielectric constant tensor:
#      x y z
#    x 3.704760 -0.181650 0.192180 
#    y -0.181650 3.965580 -0.017830 
#    z 0.192180 -0.017830 3.752000 
# 
# 
# High freq. dielectric constant tensor:
#      x y z
#    x 1.841360 -0.000470 0.011210 
#    y -0.000470 1.837920 -0.001560 
#    z 0.011210 -0.001560 1.826680 
# 
# From -- ./inp_files/47589.got.cif
#   From: 2010.06.25/outbox.cif.g09.slc.cpg/sg2_24_cif.got.tgz:47589.got - 2010.06.27 13:26:56.
