data_PCOD8022628
_publ_section_title
;
Structure prediction by ZEFSAII (Michael W. Deem and Ramdas Pophale) SiO2 
 PCOD8022628
Probable space group: P -1
;
_chemical_formula_sum "Si O2"
_cell_formula_units_Z 14
_cell_length_a 19.285152
_cell_length_b 8.137856
_cell_length_c 8.959538
_cell_angle_alpha 32.538220
_cell_angle_beta 68.981710
_cell_angle_gamma 55.559708
_cell_volume 601.210404
_symmetry_space_group_name_H-M "P -1"
_symmetry_group_IT_number 2
_symmetry_cell_setting 'triclinic'
loop_
_space_group_symop_operation_xyz
x,y,z
-x,-y,-z
loop_
_atom_site_type_symbol
_atom_site_label
_atom_site_fract_x
_atom_site_fract_y
_atom_site_fract_z
Si Si1 0.402026 0.100997 0.988141
Si Si2 0.997503 0.379479 0.929079
Si Si3 0.827646 0.720818 0.137606
Si Si4 0.337518 0.603475 0.383657
Si Si5 0.289629 0.169191 0.584856
Si Si6 0.714456 0.490073 0.971275
Si Si7 0.113681 0.886547 0.686208
O O1 0.345218 0.453257 0.660357
O O2 0.357690 0.188044 0.118275
O O3 0.500000 0.000000 0.000000
O O4 0.402461 0.750391 0.195428
O O5 0.094766 0.220856 0.910547
O O6 0.921606 0.711879 0.642678
O O7 0.000000 0.500000 0.000000
O O8 0.965871 0.096980 0.171777
O O9 0.787652 0.660175 0.364166
O O10 0.863076 0.368294 0.280360
O O11 0.759781 0.064120 0.828715
O O12 0.360599 0.268421 0.512280
O O13 0.326470 0.744910 0.873393
O O14 0.259816 0.344233 0.311140
O O15 0.802436 0.230133 0.189896
#
# Coordination Sequence:
#
# PCOD8022628 Si02
#       7
#     2   2   2   2   2   2   2
#     4  12  27  48  76 104 130 168 226 283 333 401
#     4  10  23  35  63 102 130 169 238 290 313 372
#     4  11  23  41  72  95 134 181 234 268 330 398
#     4  12  23  46  74  99 132 180 225 264 340 404
#     4  12  25  42  69 100 137 186 218 265 337 416
#     4  12  25  44  68  99 138 178 221 276 341 399
#     4  11  23  40  65  97 132 178 233 284 325 374
#
# _framework density 23.286356999999999
#
# number of rings (size 3 to 8) (size 9 to 14) (size 15 to 20)
#    0.000    0.571    4.286    3.857   10.000    0.000 
#    0.000    8.571    0.000    0.000    0.000    0.000 
#    0.000    0.000    0.000    0.000    0.000    0.000 
#
# Total GULP energy -173548.784106 kJ/mol
# GULP energy per Si atom -12396.341722 kJ/mol
# Density = 2.323336 g / cm^3
# Si number density = 23.286357 Si / 1000 Ang^3
#
#
#
# Elastic Constant Matrix: (Units=GPa)
#
#
# Indices 1 2 3 4 5 6 
#
# 1 113.5328 49.6062 25.4950 7.5120 -19.5683 -9.5927
# 2 49.6062 59.2359 39.4317 21.4633 9.8437 -6.7019
# 3 25.4950 39.4317 139.5028 24.6585 -4.0668 -3.6948
# 4 7.5120 21.4633 24.6585 31.7328 7.5770 -8.5568
# 5 -19.5683 9.8437 -4.0668 7.5770 40.8558 -4.5605
# 6 -9.5927 -6.7019 -3.6948 -8.5568 -4.5605 19.4037
#
#
#
# Elastic Compliance Matrix: (Units=1/GPa)
#
#
# Indices 1 2 3 4 5 6 
#
# 1 0.022335 -0.024853 0.002151 0.008782 0.016455 0.010608
# 2 -0.024853 0.053160 -0.007613 -0.021500 -0.022618 -0.010172
# 3 0.002151 -0.007613 0.009787 -0.004182 0.004561 -0.000474
# 4 0.008782 -0.021500 -0.004182 0.052118 0.001476 0.019450
# 5 0.016455 -0.022618 0.004561 0.001476 0.039222 0.011061
# 6 0.010608 -0.010172 -0.000474 0.019450 0.011061 0.064354
#
#
# Mechanical properties :
#
#
# Convention : Reuss Voigt Hill
#
# Bulk Modulus (GPa) = 40.56263 60.14858 50.35560
# Shear Modulus (GPa) = 16.13827 31.58103 23.85965
#
# Velocity S-wave (km/s) = 2.63541 3.68666 3.20444
# Velocity P-wave (km/s) = 5.16889 6.63385 5.94665
#
# Compressibility (1/GPa) = 0.02465324
#
# Stress axis : x y z
#
# Youngs Moduli (GPa) = 44.77182 18.81121 102.18101
#
# Poissons Ratio (x) = 0.46752 -0.21982
# Poissons Ratio (y) = 1.11272 0.77785
# Poissons Ratio (z) = -0.09632 0.14320
#
# Static dielectric constant tensor:
#      x y z
#    x 4.744760 0.081290 -0.315260 
#    y 0.081290 4.009240 0.185090 
#    z -0.315260 0.185090 4.491830 
# 
# 
# High freq. dielectric constant tensor:
#      x y z
#    x 1.923550 0.012260 -0.015720 
#    y 0.012260 1.882640 0.013100 
#    z -0.015720 0.013100 1.943610 
# 
# From -- ./inp_files/343182.got.cif
#   From: 2010.06.25/outbox.cif.g09.slc.cpg/sg2_172_cif.got.tgz:343182.got - 2010.06.27 13:26:56.
