data_PCOD8022829
_publ_section_title
;
Structure prediction by ZEFSAII (Michael W. Deem and Ramdas Pophale) SiO2 
 PCOD8022829
Probable space group: P -1
;
_chemical_formula_sum "Si O2"
_cell_formula_units_Z 14
_cell_length_a 8.990977
_cell_length_b 5.530562
_cell_length_c 14.896517
_cell_angle_alpha 92.487561
_cell_angle_beta 118.958616
_cell_angle_gamma 70.148142
_cell_volume 602.975470
_symmetry_space_group_name_H-M "P -1"
_symmetry_group_IT_number 2
_symmetry_cell_setting 'triclinic'
loop_
_space_group_symop_operation_xyz
x,y,z
-x,-y,-z
loop_
_atom_site_type_symbol
_atom_site_label
_atom_site_fract_x
_atom_site_fract_y
_atom_site_fract_z
Si Si1 0.292492 0.354408 0.631805
Si Si2 0.736372 0.133658 0.065226
Si Si3 0.651224 0.672479 0.953238
Si Si4 0.580651 0.889276 0.616144
Si Si5 0.109249 0.946080 0.268023
Si Si6 0.043874 0.766749 0.436744
Si Si7 0.603244 0.501002 0.752001
O O1 0.198627 0.512978 0.518148
O O2 0.406360 0.491278 0.726221
O O3 0.138640 0.291996 0.641369
O O4 0.458965 0.096453 0.653787
O O5 0.554249 0.210166 0.070684
O O6 0.739420 0.371310 0.006938
O O7 0.901429 0.083151 0.181318
O O8 0.758067 0.864089 0.014888
O O9 0.656955 0.666354 0.846451
O O10 0.565111 0.623941 0.642017
O O11 0.500000 0.000000 0.500000
O O12 0.795234 0.844025 0.684778
O O13 0.121967 0.815190 0.366813
O O14 0.223060 0.761060 0.218198
O O15 0.000000 0.000000 0.500000
#
# Coordination Sequence:
#
# PCOD8022829 Si02
#       7
#     2   2   2   2   2   2   2
#     4  10  23  39  64  96 133 182 233 279 347 415
#     4  10  25  47  73 107 135 186 233 310 349 433
#     4  10  25  48  74 101 145 178 242 294 372 414
#     4  11  23  43  64  97 145 184 226 284 350 422
#     4  11  26  41  68 103 138 181 239 284 361 416
#     4  11  23  41  64 102 135 184 230 296 338 424
#     4  11  25  43  69  99 136 193 221 295 352 430
#
# _framework density 23.218191000000001
#
# number of rings (size 3 to 8) (size 9 to 14) (size 15 to 20)
#    0.000    1.429    0.000    3.429   10.000    6.857 
#    0.000    0.000    0.000    0.000    0.000    0.000 
#    0.000    0.000    0.000    0.000    0.000    0.000 
#
# Total GULP energy -173440.773501 kJ/mol
# GULP energy per Si atom -12388.626679 kJ/mol
# Density = 2.316535 g / cm^3
# Si number density = 23.218191 Si / 1000 Ang^3
#
#
#
# Elastic Constant Matrix: (Units=GPa)
#
#
# Indices 1 2 3 4 5 6 
#
# 1 88.6812 23.7615 21.2293 3.6837 14.2696 8.5473
# 2 23.7615 84.6767 25.4361 1.8062 4.8040 21.1518
# 3 21.2293 25.4361 80.3520 5.3844 7.8229 -2.7842
# 4 3.6837 1.8062 5.3844 36.3349 -1.3687 -0.9101
# 5 14.2696 4.8040 7.8229 -1.3687 44.7876 2.5254
# 6 8.5473 21.1518 -2.7842 -0.9101 2.5254 21.9711
#
#
#
# Elastic Compliance Matrix: (Units=1/GPa)
#
#
# Indices 1 2 3 4 5 6 
#
# 1 0.013334 -0.001898 -0.002632 -0.001080 -0.003430 -0.003344
# 2 -0.001898 0.018650 -0.006077 -0.000261 0.000677 -0.018075
# 3 -0.002632 -0.006077 0.015658 -0.001594 -0.001801 0.008999
# 4 -0.001080 -0.000261 -0.001594 0.027971 0.001423 0.001465
# 5 -0.003430 0.000677 -0.001801 0.001423 0.023831 -0.002226
# 6 -0.003344 -0.018075 0.008999 0.001465 -0.002226 0.065673
#
#
# Mechanical properties :
#
#
# Convention : Reuss Voigt Hill
#
# Bulk Modulus (GPa) = 37.83803 43.84040 40.83922
# Shear Modulus (GPa) = 25.62265 32.83758 29.23012
#
# Velocity S-wave (km/s) = 3.32559 3.76480 3.55199
# Velocity P-wave (km/s) = 5.57478 6.14990 5.86939
#
# Compressibility (1/GPa) = 0.02642844
#
# Stress axis : x y z
#
# Youngs Moduli (GPa) = 74.99650 53.61951 63.86443
#
# Poissons Ratio (x) = 0.10179 0.16806
# Poissons Ratio (y) = 0.14237 0.38810
# Poissons Ratio (z) = 0.19735 0.32584
#
# Static dielectric constant tensor:
#      x y z
#    x 4.549730 0.245860 0.175660 
#    y 0.245860 4.539510 0.081130 
#    z 0.175660 0.081130 4.002020 
# 
# 
# High freq. dielectric constant tensor:
#      x y z
#    x 1.926330 0.005510 0.011760 
#    y 0.005510 1.921100 -0.002590 
#    z 0.011760 -0.002590 1.909900 
# 
# From -- ./inp_files/27855.got.cif
#   From: 2010.06.25/outbox.cif.g09.slc.cpg/sg2_14_cif.got.tgz:27855.got - 2010.06.27 13:26:56.
