data_PCOD8022922
_publ_section_title
;
Structure prediction by ZEFSAII (Michael W. Deem and Ramdas Pophale) SiO2 
 PCOD8022922
Probable space group: P -1
;
_chemical_formula_sum "Si O2"
_cell_formula_units_Z 16
_cell_length_a 11.585767
_cell_length_b 11.954129
_cell_length_c 15.755419
_cell_angle_alpha 54.963344
_cell_angle_beta 142.019977
_cell_angle_gamma 94.946386
_cell_volume 754.986937
_symmetry_space_group_name_H-M "P -1"
_symmetry_group_IT_number 2
_symmetry_cell_setting 'triclinic'
loop_
_space_group_symop_operation_xyz
x,y,z
-x,-y,-z
loop_
_atom_site_type_symbol
_atom_site_label
_atom_site_fract_x
_atom_site_fract_y
_atom_site_fract_z
Si Si1 0.179893 0.416215 0.909024
Si Si2 0.799212 0.991197 0.643001
Si Si3 0.282960 0.115035 0.750360
Si Si4 0.688702 0.143406 0.237753
Si Si5 0.153750 0.307219 0.113252
Si Si6 0.761717 0.314430 0.465911
Si Si7 0.096809 0.489340 0.465260
Si Si8 0.232065 0.659681 0.912388
O O1 0.091843 0.619167 0.788618
O O2 0.117775 0.396634 0.786364
O O3 0.513100 0.239803 0.180700
O O4 0.061223 0.382737 0.929311
O O5 0.477970 0.146469 0.377272
O O6 0.845150 0.124984 0.639921
O O7 0.918412 0.812303 0.854487
O O8 0.975260 0.873393 0.711735
O O9 0.300895 0.258636 0.658966
O O10 0.978980 0.234643 0.552906
O O11 0.377913 0.963109 0.799539
O O12 0.500000 0.000000 0.000000
O O13 0.593524 0.320683 0.046484
O O14 0.000000 0.000000 0.500000
O O15 0.000000 0.500000 0.000000
O O16 0.769645 0.431150 0.490098
O O17 0.448747 0.472252 0.182614
O O18 0.000000 0.500000 0.500000
#
# Coordination Sequence:
#
# PCOD8022922 Si02
#       8
#     2   2   2   2   2   2   2   2
#     4  12  23  41  62  98 134 173 216 273 336 387
#     4  11  22  41  73  99 128 175 225 274 338 383
#     4  11  21  38  60  91 132 182 218 251 324 404
#     4  12  22  34  59  98 135 164 215 269 330 402
#     4  11  23  44  69 100 134 169 223 285 332 378
#     4  11  21  41  65  95 132 178 219 268 330 392
#     4  10  23  40  60  89 138 178 208 262 326 400
#     4  12  22  40  67  99 135 169 219 282 331 394
#
# _framework density 21.192419000000001
#
# number of rings (size 3 to 8) (size 9 to 14) (size 15 to 20)
#    0.000    0.750    3.750    6.375    0.000    0.000 
#    0.000    0.625    0.000    3.000    0.000    0.000 
#    0.000    0.000    0.000    0.000    0.000    0.000 
#
# Total GULP energy -198213.212155 kJ/mol
# GULP energy per Si atom -12388.325760 kJ/mol
# Density = 2.114418 g / cm^3
# Si number density = 21.192419 Si / 1000 Ang^3
#
#
#
# Elastic Constant Matrix: (Units=GPa)
#
#
# Indices 1 2 3 4 5 6 
#
# 1 97.6271 55.7093 24.6328 -11.2897 -16.3536 2.3843
# 2 55.7093 169.3731 37.8810 -10.0492 -26.8573 30.6090
# 3 24.6328 37.8810 82.3648 -10.1765 -1.2417 -8.3871
# 4 -11.2897 -10.0492 -10.1765 35.8722 3.8858 -13.0897
# 5 -16.3536 -26.8573 -1.2417 3.8858 31.7868 -7.6990
# 6 2.3843 30.6090 -8.3871 -13.0897 -7.6990 37.1058
#
#
#
# Elastic Compliance Matrix: (Units=1/GPa)
#
#
# Indices 1 2 3 4 5 6 
#
# 1 0.014062 -0.004307 -0.001167 0.004157 0.004185 0.004720
# 2 -0.004307 0.010852 -0.005180 -0.004055 0.004755 -0.010290
# 3 -0.001167 -0.005180 0.016693 0.006852 -0.002749 0.009968
# 4 0.004157 -0.004055 0.006852 0.036411 -0.001305 0.017200
# 5 0.004185 0.004755 -0.002749 -0.001305 0.038331 0.002681
# 6 0.004720 -0.010290 0.009968 0.017200 0.002681 0.044012
#
#
# Mechanical properties :
#
#
# Convention : Reuss Voigt Hill
#
# Bulk Modulus (GPa) = 49.26565 65.09015 57.17790
# Shear Modulus (GPa) = 26.53423 36.36240 31.44832
#
# Velocity S-wave (km/s) = 3.54229 4.14674 3.85638
# Velocity P-wave (km/s) = 6.32674 7.32856 6.84600
#
# Compressibility (1/GPa) = 0.02029812
#
# Stress axis : x y z
#
# Youngs Moduli (GPa) = 71.11545 92.14679 59.90552
#
# Poissons Ratio (x) = 0.39685 0.06993
# Poissons Ratio (y) = 0.30628 0.31033
# Poissons Ratio (z) = 0.08302 0.47734
#
# Static dielectric constant tensor:
#      x y z
#    x 4.173590 0.345000 -0.136530 
#    y 0.345000 4.368250 -0.378020 
#    z -0.136530 -0.378020 3.802960 
# 
# 
# High freq. dielectric constant tensor:
#      x y z
#    x 1.806100 0.010220 -0.001110 
#    y 0.010220 1.847180 -0.030630 
#    z -0.001110 -0.030630 1.824650 
# 
# From -- ./inp_files/519628.got.cif
#   From: 2010.06.25/outbox.cif.g09.slc.cpg/sg2_260_cif.got.tgz:519628.got - 2010.06.27 13:26:56.
