data_PCOD8022444
_publ_section_title
;
Structure prediction by ZEFSAII (Michael W. Deem and Ramdas Pophale) SiO2 
 PCOD8022444
Probable space group: P -1
;
_chemical_formula_sum "Si O2"
_cell_formula_units_Z 16
_cell_length_a 8.446176
_cell_length_b 18.569171
_cell_length_c 5.512231
_cell_angle_alpha 60.142527
_cell_angle_beta 121.257289
_cell_angle_gamma 112.932413
_cell_volume 630.809233
_symmetry_space_group_name_H-M "P -1"
_symmetry_group_IT_number 2
_symmetry_cell_setting 'triclinic'
loop_
_space_group_symop_operation_xyz
x,y,z
-x,-y,-z
loop_
_atom_site_type_symbol
_atom_site_label
_atom_site_fract_x
_atom_site_fract_y
_atom_site_fract_z
Si Si1 0.708418 0.494621 0.255004
Si Si2 0.737195 0.160006 0.672203
Si Si3 0.347560 0.363815 0.716945
Si Si4 0.263301 0.651503 0.767995
Si Si5 0.891235 0.772166 0.902716
Si Si6 0.218554 0.005268 0.206247
Si Si7 0.928378 0.625631 0.886514
Si Si8 0.345669 0.099658 0.655429
O O1 0.723765 0.546541 0.430327
O O2 0.732472 0.395717 0.415574
O O3 0.500000 0.500000 0.000000
O O4 0.877924 0.540874 0.141703
O O5 0.715119 0.248955 0.393116
O O6 0.568302 0.135423 0.770415
O O7 0.725709 0.087898 0.576704
O O8 0.944543 0.163157 0.944299
O O9 0.270406 0.349909 0.407620
O O10 0.571743 0.372860 0.890322
O O11 0.255580 0.284827 0.940309
O O12 0.069417 0.612639 0.807848
O O13 0.008339 0.709081 0.965266
O O14 0.774940 0.825123 0.549440
O O15 0.286815 0.051073 0.435318
O O16 0.316035 0.046665 0.967391
O O17 0.000000 0.000000 0.000000
#
# Coordination Sequence:
#
# PCOD8022444 Si02
#       8
#     2   2   2   2   2   2   2   2
#     4   9  22  44  64  98 142 184 237 290 363 435
#     4  12  26  47  74 107 145 185 245 301 365 441
#     4  10  22  46  67  98 143 183 233 294 360 435
#     4  11  23  42  70 103 137 182 240 298 359 433
#     4  11  25  44  68 105 140 187 233 301 360 431
#     4  12  28  51  81 107 151 197 240 306 373 440
#     4  11  24  41  70  99 141 187 240 293 362 430
#     4  12  28  51  78 109 150 195 244 301 374 441
#
# _framework density 25.364246000000001
#
# number of rings (size 3 to 8) (size 9 to 14) (size 15 to 20)
#    0.000    1.000    3.750    1.500    3.500    4.500 
#    2.250    0.000    0.000    0.000    0.000    0.000 
#    0.000    0.000    0.000    0.000    0.000    0.000 
#
# Total GULP energy -198223.894172 kJ/mol
# GULP energy per Si atom -12388.993386 kJ/mol
# Density = 2.530652 g / cm^3
# Si number density = 25.364246 Si / 1000 Ang^3
#
#
#
# Elastic Constant Matrix: (Units=GPa)
#
#
# Indices 1 2 3 4 5 6 
#
# 1 107.8703 36.4822 5.3594 -7.0108 7.1229 2.0198
# 2 36.4822 114.3092 31.7387 -29.0692 -3.4369 -6.2023
# 3 5.3594 31.7387 60.5375 -13.6557 -2.1318 -10.2260
# 4 -7.0108 -29.0692 -13.6557 37.6585 -6.3290 17.8915
# 5 7.1229 -3.4369 -2.1318 -6.3290 38.1863 2.4641
# 6 2.0198 -6.2023 -10.2260 17.8915 2.4641 32.8667
#
#
#
# Elastic Compliance Matrix: (Units=1/GPa)
#
#
# Indices 1 2 3 4 5 6 
#
# 1 0.010680 -0.003970 0.000748 -0.001006 -0.002446 -0.000442
# 2 -0.003970 0.014240 -0.005267 0.011518 0.003978 -0.005276
# 3 0.000748 -0.005267 0.020300 0.001377 0.000458 0.004492
# 4 -0.001006 0.011518 0.001377 0.049586 0.011143 -0.025164
# 5 -0.002446 0.003978 0.000458 0.011143 0.029340 -0.007222
# 6 -0.000442 -0.005276 0.004492 -0.025164 -0.007222 0.045095
#
#
# Mechanical properties :
#
#
# Convention : Reuss Voigt Hill
#
# Bulk Modulus (GPa) = 35.40823 47.76417 41.58620
# Shear Modulus (GPa) = 25.55805 35.68475 30.62140
#
# Velocity S-wave (km/s) = 3.17778 3.75492 3.47834
# Velocity P-wave (km/s) = 5.23971 6.13771 5.70640
#
# Compressibility (1/GPa) = 0.02824202
#
# Stress axis : x y z
#
# Youngs Moduli (GPa) = 93.63146 70.22444 49.26205
#
# Poissons Ratio (x) = 0.27876 -0.03685
# Poissons Ratio (y) = 0.37168 0.25948
# Poissons Ratio (z) = -0.07004 0.36990
#
# Static dielectric constant tensor:
#      x y z
#    x 4.735960 -0.029320 0.199180 
#    y -0.029320 5.078150 0.004510 
#    z 0.199180 0.004510 4.317720 
# 
# 
# High freq. dielectric constant tensor:
#      x y z
#    x 2.025660 0.002860 0.023220 
#    y 0.002860 2.035550 -0.001910 
#    z 0.023220 -0.001910 1.990570 
# 
# From -- ./inp_files/46838.got.cif
#   From: 2010.06.25/outbox.cif.g09.slc.cpg/sg2_24_cif.got.tgz:46838.got - 2010.06.27 13:26:56.
