data_PCOD8022679
_publ_section_title
;
Structure prediction by ZEFSAII (Michael W. Deem and Ramdas Pophale) SiO2 
 PCOD8022679
Probable space group: P -1
;
_chemical_formula_sum "Si O2"
_cell_formula_units_Z 12
_cell_length_a 14.436542
_cell_length_b 7.848833
_cell_length_c 7.969163
_cell_angle_alpha 97.362363
_cell_angle_beta 119.939990
_cell_angle_gamma 42.675089
_cell_volume 484.588527
_symmetry_space_group_name_H-M "P -1"
_symmetry_group_IT_number 2
_symmetry_cell_setting 'triclinic'
loop_
_space_group_symop_operation_xyz
x,y,z
-x,-y,-z
loop_
_atom_site_type_symbol
_atom_site_label
_atom_site_fract_x
_atom_site_fract_y
_atom_site_fract_z
Si Si1 0.559643 0.956008 0.785445
Si Si2 0.839702 0.578375 0.756974
Si Si3 0.346135 0.818096 0.929413
Si Si4 0.982766 0.965527 0.288153
Si Si5 0.795590 0.757405 0.403909
Si Si6 0.103970 0.570514 0.852947
O O1 0.634827 0.839892 0.647809
O O2 0.364116 0.158914 0.670247
O O3 0.685717 0.681907 0.985666
O O4 0.592648 0.111498 0.883013
O O5 0.883432 0.669441 0.661026
O O6 0.942848 0.467863 0.014977
O O7 0.869808 0.352034 0.673429
O O8 0.195214 0.905383 0.893813
O O9 0.273788 0.980676 0.706020
O O10 0.500000 0.500000 0.000000
O O11 0.987263 0.130600 0.197461
O O12 0.000000 0.000000 0.500000
O O13 0.926232 0.490744 0.362713
#
# Coordination Sequence:
#
# PCOD8022679 Si02
#       6
#     2   2   2   2   2   2
#     4   9  21  40  66  92 126 169 212 259 319 370
#     4  10  23  37  69  94 127 167 217 257 318 379
#     4  11  24  41  69  92 128 171 212 265 319 376
#     4  12  23  42  65  97 131 170 209 261 323 378
#     4  11  19  43  66  94 130 167 213 261 318 378
#     4   9  20  39  64  90 124 172 207 255 315 373
#
# _framework density 24.763279000000001
#
# number of rings (size 3 to 8) (size 9 to 14) (size 15 to 20)
#    1.000    0.667    1.667    5.000    0.000    1.333 
#    0.000    2.500    0.000    0.000    0.000    0.000 
#    0.000    0.000    0.000    0.000    0.000    0.000 
#
# Total GULP energy -148698.063254 kJ/mol
# GULP energy per Si atom -12391.505271 kJ/mol
# Density = 2.470692 g / cm^3
# Si number density = 24.763279 Si / 1000 Ang^3
#
#
#
# Elastic Constant Matrix: (Units=GPa)
#
#
# Indices 1 2 3 4 5 6 
#
# 1 156.6728 60.5297 68.9271 1.3554 -26.6363 -12.3694
# 2 60.5297 190.0288 64.5268 -2.3472 -23.1519 -2.1364
# 3 68.9271 64.5268 117.1093 13.7245 -23.4202 -8.7331
# 4 1.3554 -2.3472 13.7245 36.3238 3.3844 -16.0187
# 5 -26.6363 -23.1519 -23.4202 3.3844 52.4849 -9.5111
# 6 -12.3694 -2.1364 -8.7331 -16.0187 -9.5111 38.5494
#
#
#
# Elastic Compliance Matrix: (Units=1/GPa)
#
#
# Indices 1 2 3 4 5 6 
#
# 1 0.009537 -0.001096 -0.004462 0.002671 0.002884 0.003810
# 2 -0.001096 0.006803 -0.003076 0.001668 0.001014 0.000272
# 3 -0.004462 -0.003076 0.014133 -0.005655 0.003050 0.000002
# 4 0.002671 0.001668 -0.005655 0.036152 -0.000106 0.014664
# 5 0.002884 0.001014 0.003050 -0.000106 0.023686 0.007472
# 6 0.003810 0.000272 0.000002 0.014664 0.007472 0.035116
#
#
# Mechanical properties :
#
#
# Convention : Reuss Voigt Hill
#
# Bulk Modulus (GPa) = 75.72095 94.64201 85.18148
# Shear Modulus (GPa) = 33.99155 43.46012 38.72584
#
# Velocity S-wave (km/s) = 3.70896 4.19384 3.95883
# Velocity P-wave (km/s) = 6.99901 7.85829 7.44107
#
# Compressibility (1/GPa) = 0.01320638
#
# Stress axis : x y z
#
# Youngs Moduli (GPa) = 104.85664 146.99261 70.75724
#
# Poissons Ratio (x) = 0.16104 0.31568
# Poissons Ratio (y) = 0.11488 0.21765
# Poissons Ratio (z) = 0.46782 0.45216
#
# Static dielectric constant tensor:
#      x y z
#    x 4.594820 -0.261770 -0.173170 
#    y -0.261770 4.793120 0.110940 
#    z -0.173170 0.110940 4.872300 
# 
# 
# High freq. dielectric constant tensor:
#      x y z
#    x 2.005170 -0.022410 0.003340 
#    y -0.022410 1.977380 -0.002060 
#    z 0.003340 -0.002060 2.025620 
# 
# From -- ./inp_files/325026.got.cif
#   From: 2010.06.25/outbox.cif.g09.slc.cpg/sg2_163_cif.got.tgz:325026.got - 2010.06.27 13:26:56.
