data_PCOD8022980
_publ_section_title
;
Structure prediction by ZEFSAII (Michael W. Deem and Ramdas Pophale) SiO2 
 PCOD8022980
Probable space group: P -1
;
_chemical_formula_sum "Si O2"
_cell_formula_units_Z 14
_cell_length_a 21.251072
_cell_length_b 7.240738
_cell_length_c 13.132496
_cell_angle_alpha 86.577452
_cell_angle_beta 159.590537
_cell_angle_gamma 102.503052
_cell_volume 624.157190
_symmetry_space_group_name_H-M "P -1"
_symmetry_group_IT_number 2
_symmetry_cell_setting 'triclinic'
loop_
_space_group_symop_operation_xyz
x,y,z
-x,-y,-z
loop_
_atom_site_type_symbol
_atom_site_label
_atom_site_fract_x
_atom_site_fract_y
_atom_site_fract_z
Si Si1 0.277355 0.884319 0.858068
Si Si2 0.238401 0.223935 0.668378
Si Si3 0.510289 0.661550 0.150903
Si Si4 0.801159 0.864720 0.766637
Si Si5 0.856334 0.268551 0.130773
Si Si6 0.295997 0.495879 0.231890
Si Si7 0.442394 0.919050 0.548726
O O1 0.116446 0.737727 0.705278
O O2 0.180200 0.004252 0.642039
O O3 0.337336 0.739921 0.881738
O O4 0.479098 0.055393 0.215748
O O5 0.321608 0.216124 0.683388
O O6 0.036410 0.249751 0.346848
O O7 0.405561 0.414667 0.980751
O O8 0.614544 0.709213 0.417707
O O9 0.844059 0.721601 0.917220
O O10 0.736945 0.014313 0.728373
O O11 0.000000 0.000000 0.000000
O O12 0.840983 0.477525 0.067153
O O13 0.637733 0.075490 0.769915
O O14 0.500000 0.500000 0.500000
O O15 0.352928 0.679782 0.393130
#
# Coordination Sequence:
#
# PCOD8022980 Si02
#       7
#     2   2   2   2   2   2   2
#     4   9  20  42  63  88 127 167 208 265 320 374
#     4  11  22  41  65  93 132 166 215 269 318 389
#     4  10  23  43  62  94 127 171 219 258 326 394
#     4  11  25  44  67  96 130 174 219 269 328 392
#     4  10  23  40  64 100 126 168 217 265 329 389
#     4  12  22  42  67  93 133 174 211 277 327 378
#     4   9  22  41  64  95 131 161 222 265 323 389
#
# _framework density 22.430246
#
# number of rings (size 3 to 8) (size 9 to 14) (size 15 to 20)
#    0.857    0.857    1.429    2.143    2.000    1.143 
#   15.429    0.000    0.000    0.000    0.000    0.000 
#    0.000    0.000    0.000    0.000    0.000    0.000 
#
# Total GULP energy -173602.945907 kJ/mol
# GULP energy per Si atom -12400.210422 kJ/mol
# Density = 2.237919 g / cm^3
# Si number density = 22.430246 Si / 1000 Ang^3
#
#
#
# Elastic Constant Matrix: (Units=GPa)
#
#
# Indices 1 2 3 4 5 6 
#
# 1 106.3736 57.2667 11.3520 -8.5323 19.7398 -1.2317
# 2 57.2667 149.9214 13.7384 -23.4212 7.2800 13.3673
# 3 11.3520 13.7384 35.1045 -10.4479 12.9283 5.2526
# 4 -8.5323 -23.4212 -10.4479 36.7613 -3.2568 -2.7367
# 5 19.7398 7.2800 12.9283 -3.2568 33.0823 0.6827
# 6 -1.2317 13.3673 5.2526 -2.7367 0.6827 48.6135
#
#
#
# Elastic Compliance Matrix: (Units=1/GPa)
#
#
# Indices 1 2 3 4 5 6 
#
# 1 0.013372 -0.005009 -0.000300 -0.000646 -0.006860 0.001809
# 2 -0.005009 0.009523 -0.001047 0.004588 0.001804 -0.002399
# 3 -0.000300 -0.001047 0.036735 0.008320 -0.013065 -0.003037
# 4 -0.000646 0.004588 0.008320 0.032253 -0.000693 -0.000352
# 5 -0.006860 0.001804 -0.013065 -0.000693 0.038958 0.000156
# 6 0.001809 -0.002399 -0.003037 -0.000352 0.000156 0.021582
#
#
# Mechanical properties :
#
#
# Convention : Reuss Voigt Hill
#
# Bulk Modulus (GPa) = 21.31411 50.67931 35.99671
# Shear Modulus (GPa) = 27.65881 37.62757 32.64319
#
# Velocity S-wave (km/s) = 3.51537 4.10022 3.81900
# Velocity P-wave (km/s) = 5.09903 6.71260 5.96066
#
# Compressibility (1/GPa) = 0.04691728
#
# Stress axis : x y z
#
# Youngs Moduli (GPa) = 74.78431 105.01289 27.22182
#
# Poissons Ratio (x) = 0.52605 0.00817
# Poissons Ratio (y) = 0.37462 0.02849
# Poissons Ratio (z) = 0.02246 0.10990
#
# Static dielectric constant tensor:
#      x y z
#    x 3.998300 -0.033860 -0.035880 
#    y -0.033860 4.032900 -0.111450 
#    z -0.035880 -0.111450 3.701960 
# 
# 
# High freq. dielectric constant tensor:
#      x y z
#    x 1.890100 -0.006230 -0.002240 
#    y -0.006230 1.887470 -0.008060 
#    z -0.002240 -0.008060 1.863810 
# 
# From -- ./inp_files/542190.got.cif
#   From: 2010.06.25/outbox.cif.g09.slc.cpg/sg2_272_cif.got.tgz:542190.got - 2010.06.27 13:26:56.
