data_PCOD8022165
_publ_section_title
;
Structure prediction by ZEFSAII (Michael W. Deem and Ramdas Pophale) SiO2 
 PCOD8022165
Probable space group: P -1
;
_chemical_formula_sum "Si O2"
_cell_formula_units_Z 16
_cell_length_a 14.153739
_cell_length_b 5.290524
_cell_length_c 17.443211
_cell_angle_alpha 75.707685
_cell_angle_beta 32.323421
_cell_angle_gamma 68.033484
_cell_volume 641.355164
_symmetry_space_group_name_H-M "P -1"
_symmetry_group_IT_number 2
_symmetry_cell_setting 'triclinic'
loop_
_space_group_symop_operation_xyz
x,y,z
-x,-y,-z
loop_
_atom_site_type_symbol
_atom_site_label
_atom_site_fract_x
_atom_site_fract_y
_atom_site_fract_z
Si Si1 0.430078 0.501960 0.277549
Si Si2 0.783734 0.960317 0.345310
Si Si3 0.981863 0.299788 0.461421
Si Si4 0.018985 0.359471 0.187190
Si Si5 0.296300 0.278012 0.128242
Si Si6 0.585393 0.016145 0.320108
Si Si7 0.596624 0.227492 0.039602
Si Si8 0.717312 0.762994 0.101312
O O1 0.221753 0.588939 0.445911
O O2 0.555169 0.272121 0.266079
O O3 0.429398 0.421162 0.194120
O O4 0.523228 0.742103 0.202297
O O5 0.906696 0.638365 0.288112
O O6 0.608342 0.022020 0.518243
O O7 0.892332 0.164963 0.281788
O O8 0.709303 0.042617 0.304585
O O9 0.000000 0.500000 0.500000
O O10 0.130734 0.289549 0.296916
O O11 0.000000 0.000000 0.500000
O O12 0.215212 0.182635 0.111713
O O13 0.090113 0.450344 0.049502
O O14 0.493487 0.106266 0.049843
O O15 0.296539 0.587008 0.089088
O O16 0.706935 0.763578 0.201015
O O17 0.729696 0.038466 0.028101
#
# Coordination Sequence:
#
# PCOD8022165 Si02
#       8
#     2   2   2   2   2   2   2   2
#     4  11  23  45  69 104 142 191 236 300 358 434
#     4  11  28  51  74 110 140 193 243 308 361 444
#     4  12  27  44  67 104 144 188 242 294 351 423
#     4  12  27  47  73 108 149 183 251 301 366 421
#     4  11  23  44  70 100 143 196 234 300 348 428
#     4  10  27  48  78 101 147 190 245 296 379 432
#     4  10  22  45  67 103 147 191 245 287 360 434
#     4  11  25  44  73 108 145 192 239 304 363 440
#
# _framework density 24.947177
#
# number of rings (size 3 to 8) (size 9 to 14) (size 15 to 20)
#    0.000    1.000    2.500    2.250    8.750    4.500 
#    2.250    0.000    0.000    0.000    0.000    0.000 
#    0.000    0.000    0.000    0.000    0.000    0.000 
#
# Total GULP energy -198242.944670 kJ/mol
# GULP energy per Si atom -12390.184042 kJ/mol
# Density = 2.489040 g / cm^3
# Si number density = 24.947177 Si / 1000 Ang^3
#
#
#
# Elastic Constant Matrix: (Units=GPa)
#
#
# Indices 1 2 3 4 5 6 
#
# 1 133.0049 48.9236 56.9313 -8.0376 2.3602 11.9451
# 2 48.9236 68.9489 24.4033 -12.5592 -3.9530 8.3949
# 3 56.9313 24.4033 139.5305 -15.4872 8.5151 3.1010
# 4 -8.0376 -12.5592 -15.4872 31.9452 5.3254 -3.4530
# 5 2.3602 -3.9530 8.5151 5.3254 55.9117 1.2693
# 6 11.9451 8.3949 3.1010 -3.4530 1.2693 41.1131
#
#
#
# Elastic Compliance Matrix: (Units=1/GPa)
#
#
# Indices 1 2 3 4 5 6 
#
# 1 0.011808 -0.007187 -0.003707 -0.001812 -0.000228 -0.001829
# 2 -0.007187 0.021021 -0.000118 0.005999 0.001275 -0.001731
# 3 -0.003707 -0.000118 0.009209 0.003843 -0.001638 0.000780
# 4 -0.001812 0.005999 0.003843 0.035893 -0.003552 0.002136
# 5 -0.000228 0.001275 -0.001638 -0.003552 0.018594 -0.000943
# 6 -0.001829 -0.001731 0.000780 0.002136 -0.000943 0.025358
#
#
# Mechanical properties :
#
#
# Convention : Reuss Voigt Hill
#
# Bulk Modulus (GPa) = 49.96275 66.88897 58.42586
# Shear Modulus (GPa) = 33.20549 39.87574 36.54062
#
# Velocity S-wave (km/s) = 3.65229 4.00235 3.83132
# Velocity P-wave (km/s) = 6.15276 6.94470 6.56069
#
# Compressibility (1/GPa) = 0.02001491
#
# Stress axis : x y z
#
# Youngs Moduli (GPa) = 84.69069 47.57121 108.58503
#
# Poissons Ratio (x) = 0.34187 0.40257
# Poissons Ratio (y) = 0.60863 0.01278
# Poissons Ratio (z) = 0.31398 0.00560
#
# Static dielectric constant tensor:
#      x y z
#    x 4.808950 0.215250 0.315690 
#    y 0.215250 4.533340 0.383710 
#    z 0.315690 0.383710 5.069720 
# 
# 
# High freq. dielectric constant tensor:
#      x y z
#    x 2.003820 0.010000 0.009550 
#    y 0.010000 1.986810 0.008490 
#    z 0.009550 0.008490 2.024930 
# 
# From -- ./inp_files/571626.got.cif
#   From: 2010.06.25/outbox.cif.g09.slc.cpg/sg2_286_cif.got.tgz:571626.got - 2010.06.27 13:26:56.
