data_PCOD8022818
_publ_section_title
;
Structure prediction by ZEFSAII (Michael W. Deem and Ramdas Pophale) SiO2 
 PCOD8022818
Probable space group: P -1
;
_chemical_formula_sum "Si O2"
_cell_formula_units_Z 12
_cell_length_a 26.227236
_cell_length_b 26.135154
_cell_length_c 8.597386
_cell_angle_alpha 29.644196
_cell_angle_beta 150.276817
_cell_angle_gamma 168.788338
_cell_volume 558.933275
_symmetry_space_group_name_H-M "P -1"
_symmetry_group_IT_number 2
_symmetry_cell_setting 'triclinic'
loop_
_space_group_symop_operation_xyz
x,y,z
-x,-y,-z
loop_
_atom_site_type_symbol
_atom_site_label
_atom_site_fract_x
_atom_site_fract_y
_atom_site_fract_z
Si Si1 0.276009 0.217441 0.720290
Si Si2 0.934042 0.554752 0.637932
Si Si3 0.387016 0.090412 0.251898
Si Si4 0.391385 0.178641 0.700475
Si Si5 0.893517 0.671106 0.507703
Si Si6 0.413775 0.427949 0.134125
O O1 0.500000 0.500000 0.500000
O O2 0.318249 0.277595 0.855759
O O3 0.321020 0.140385 0.013146
O O4 0.000000 0.000000 0.500000
O O5 0.653788 0.296614 0.491044
O O6 0.933237 0.617365 0.631067
O O7 0.149276 0.794536 0.451267
O O8 0.000000 0.500000 0.000000
O O9 0.413257 0.117592 0.061696
O O10 0.660988 0.428994 0.653756
O O11 0.332818 0.236143 0.478536
O O12 0.158665 0.931195 0.621779
O O13 0.829857 0.716178 0.118683
O O14 0.500000 0.500000 0.000000
#
# Coordination Sequence:
#
# PCOD8022818 Si02
#       6
#     2   2   2   2   2   2
#     4  12  25  39  64 101 142 177 219 266 328 410
#     4  12  27  49  73  96 127 178 239 294 339 385
#     4  12  25  45  70 100 138 175 227 283 336 400
#     4  11  24  41  67 101 140 178 213 265 340 415
#     4  11  24  44  65  98 138 180 222 272 329 399
#     4  10  23  39  63  98 144 178 217 253 333 406
#
# _framework density 21.469469
#
# number of rings (size 3 to 8) (size 9 to 14) (size 15 to 20)
#    0.000    0.667    3.333    4.000    7.000    0.000 
#    0.000    5.000    0.000    0.000    0.000    0.000 
#    0.000    0.000    0.000    0.000    0.000    0.000 
#
# Total GULP energy -148769.630680 kJ/mol
# GULP energy per Si atom -12397.469223 kJ/mol
# Density = 2.142060 g / cm^3
# Si number density = 21.469469 Si / 1000 Ang^3
#
#
#
# Elastic Constant Matrix: (Units=GPa)
#
#
# Indices 1 2 3 4 5 6 
#
# 1 83.1135 40.3844 55.9482 9.2707 -8.7534 -18.9763
# 2 40.3844 -25.2382 -43.8774 13.4267 27.6209 56.5076
# 3 55.9482 -43.8774 100.1969 8.0300 23.2490 34.0877
# 4 9.2707 13.4267 8.0300 46.8228 -0.3553 -14.9440
# 5 -8.7534 27.6209 23.2490 -0.3553 29.8585 -8.9566
# 6 -18.9763 56.5076 34.0877 -14.9440 -8.9566 15.3834
#
#
#
# Elastic Compliance Matrix: (Units=1/GPa)
#
#
# Indices 1 2 3 4 5 6 
#
# 1 0.010238 0.004275 -0.001522 -0.004559 -0.001286 -0.004878
# 2 0.004275 0.003461 -0.005302 0.002033 0.004953 0.009166
# 3 -0.001522 -0.005302 0.007071 0.001802 0.000095 0.003736
# 4 -0.004559 0.002033 0.001802 0.022025 -0.003714 0.002148
# 5 -0.001286 0.004953 0.000095 -0.003714 0.025850 -0.008548
# 6 -0.004878 0.009166 0.003736 0.002148 -0.008548 0.014149
#
#
# Mechanical properties :
#
#
# Convention : Reuss Voigt Hill
#
# Bulk Modulus (GPa) = 63.80399 29.22029 46.51214
# Shear Modulus (GPa) = 53.69603 25.45408 39.57505
#
# Velocity S-wave (km/s) = 5.00647 3.44698 4.29805
# Velocity P-wave (km/s) = 7.95001 5.42973 6.80752
#
# Compressibility (1/GPa) = 0.01567300
#
# Stress axis : x y z
#
# Youngs Moduli (GPa) = 97.67163 288.89943 141.42244
#
# Poissons Ratio (x) = -1.23500 0.21522
# Poissons Ratio (y) = -0.41753 0.74982
# Poissons Ratio (z) = 0.14864 1.53173
#
# Static dielectric constant tensor:
#      x y z
#    x 3.806380 -0.198130 -1.672490 
#    y -0.198130 3.539390 -1.058540 
#    z -1.672490 -1.058540 -1.592180 
# 
# 
# High freq. dielectric constant tensor:
#      x y z
#    x 1.853200 -0.006780 -0.024660 
#    y -0.006780 1.859010 0.003220 
#    z -0.024660 0.003220 1.843360 
# 
# From -- ./inp_files/59373.got.cif
#   From: 2010.06.25/outbox.cif.g09.slc.cpg/sg2_30_cif.got.tgz:59373.got - 2010.06.27 13:26:56.
