data_PCOD8022174
_publ_section_title
;
Structure prediction by ZEFSAII (Michael W. Deem and Ramdas Pophale) SiO2 
 PCOD8022174
Probable space group: P -1
;
_chemical_formula_sum "Si O2"
_cell_formula_units_Z 16
_cell_length_a 26.907178
_cell_length_b 8.896132
_cell_length_c 8.778995
_cell_angle_alpha 109.662650
_cell_angle_beta 43.274088
_cell_angle_gamma 142.742621
_cell_volume 706.909377
_symmetry_space_group_name_H-M "P -1"
_symmetry_group_IT_number 2
_symmetry_cell_setting 'triclinic'
loop_
_space_group_symop_operation_xyz
x,y,z
-x,-y,-z
loop_
_atom_site_type_symbol
_atom_site_label
_atom_site_fract_x
_atom_site_fract_y
_atom_site_fract_z
Si Si1 0.364467 0.587689 0.506057
Si Si2 0.294262 0.229204 0.125814
Si Si3 0.734184 0.068634 0.170951
Si Si4 0.339460 0.652153 0.254679
Si Si5 0.666163 0.204860 0.144131
Si Si6 0.398533 0.280818 0.339400
Si Si7 0.217843 0.706916 0.376643
Si Si8 0.033552 0.604104 0.633481
O O1 0.301130 0.529066 0.468887
O O2 0.288639 0.538643 0.798239
O O3 0.346350 0.364568 0.482551
O O4 0.523272 0.946617 0.281194
O O5 0.312613 0.452374 0.134248
O O6 0.171527 0.973266 0.437686
O O7 0.435515 0.418320 0.944119
O O8 0.264614 0.094347 0.982250
O O9 0.650090 0.046557 0.261881
O O10 0.655622 0.901269 0.446931
O O11 0.896472 0.427054 0.954378
O O12 0.232763 0.593016 0.426768
O O13 0.500000 0.000000 0.000000
O O14 0.778189 0.354750 0.824764
O O15 0.338536 0.064274 0.260171
O O16 0.070352 0.523028 0.636453
O O17 0.000000 0.500000 0.500000
#
# Coordination Sequence:
#
# PCOD8022174 Si02
#       8
#     2   2   2   2   2   2   2   2
#     4  11  24  37  59 101 138 167 212 286 335 389
#     4  11  22  40  69  99 133 173 224 276 327 396
#     4  11  24  42  68  99 135 179 221 274 330 403
#     4  12  24  38  63 101 139 169 219 281 341 388
#     4  11  22  38  64  93 135 175 218 270 340 390
#     4  12  24  40  70 104 134 168 229 283 333 385
#     4  12  23  42  68  96 133 178 220 272 339 394
#     4  10  22  45  67  95 130 184 222 268 327 407
#
# _framework density 22.633734
#
# number of rings (size 3 to 8) (size 9 to 14) (size 15 to 20)
#    0.000    0.750    6.250    1.875    1.750    2.000 
#    0.000    3.750    0.000    3.000    0.000    0.000 
#    0.000    0.000    0.000    0.000    0.000    0.000 
#
# Total GULP energy -198314.240580 kJ/mol
# GULP energy per Si atom -12394.640036 kJ/mol
# Density = 2.258222 g / cm^3
# Si number density = 22.633734 Si / 1000 Ang^3
#
#
#
# Elastic Constant Matrix: (Units=GPa)
#
#
# Indices 1 2 3 4 5 6 
#
# 1 148.5699 30.7058 20.3058 -7.3671 0.2753 -11.3321
# 2 30.7058 123.3438 33.7864 15.9110 -4.6365 -20.8901
# 3 20.3058 33.7864 59.2067 -5.9981 -6.5666 1.9184
# 4 -7.3671 15.9110 -5.9981 29.9858 3.7735 -2.8043
# 5 0.2753 -4.6365 -6.5666 3.7735 24.4602 -4.2906
# 6 -11.3321 -20.8901 1.9184 -2.8043 -4.2906 31.2717
#
#
#
# Elastic Compliance Matrix: (Units=1/GPa)
#
#
# Indices 1 2 3 4 5 6 
#
# 1 0.007538 -0.001455 -0.001652 0.002586 -0.000857 0.001975
# 2 -0.001455 0.013302 -0.007880 -0.008604 0.003244 0.008516
# 3 -0.001652 -0.007880 0.023194 0.007515 0.002493 -0.006269
# 4 0.002586 -0.008604 0.007515 0.040618 -0.006347 -0.002500
# 5 -0.000857 0.003244 0.002493 -0.006347 0.044424 0.007229
# 6 0.001975 0.008516 -0.006269 -0.002500 0.007229 0.039534
#
#
# Mechanical properties :
#
#
# Convention : Reuss Voigt Hill
#
# Bulk Modulus (GPa) = 45.32983 55.63515 50.48249
# Shear Modulus (GPa) = 25.26059 33.56503 29.41281
#
# Velocity S-wave (km/s) = 3.34437 3.85511 3.60879
# Velocity P-wave (km/s) = 5.91474 6.66707 6.30214
#
# Compressibility (1/GPa) = 0.02206053
#
# Stress axis : x y z
#
# Youngs Moduli (GPa) = 132.66369 75.17586 43.11497
#
# Poissons Ratio (x) = 0.10941 0.07121
# Poissons Ratio (y) = 0.19308 0.33973
# Poissons Ratio (z) = 0.21912 0.59235
#
# Static dielectric constant tensor:
#      x y z
#    x 4.282590 0.079070 -0.180820 
#    y 0.079070 4.390790 0.110660 
#    z -0.180820 0.110660 4.096000 
# 
# 
# High freq. dielectric constant tensor:
#      x y z
#    x 1.906770 0.001190 0.000120 
#    y 0.001190 1.889390 0.018580 
#    z 0.000120 0.018580 1.860060 
# 
# From -- ./inp_files/356455.got.cif
#   From: 2010.06.25/outbox.cif.g09.slc.cpg/sg2_179_cif.got.tgz:356455.got - 2010.06.27 13:26:56.
