data_PCOD8022909
_publ_section_title
;
Structure prediction by ZEFSAII (Michael W. Deem and Ramdas Pophale) SiO2 
 PCOD8022909
Probable space group: P -1
;
_chemical_formula_sum "Si O2"
_cell_formula_units_Z 14
_cell_length_a 14.228058
_cell_length_b 27.222316
_cell_length_c 27.806358
_cell_angle_alpha 169.627652
_cell_angle_beta 161.365728
_cell_angle_gamma 19.300718
_cell_volume 606.626745
_symmetry_space_group_name_H-M "P -1"
_symmetry_group_IT_number 2
_symmetry_cell_setting 'triclinic'
loop_
_space_group_symop_operation_xyz
x,y,z
-x,-y,-z
loop_
_atom_site_type_symbol
_atom_site_label
_atom_site_fract_x
_atom_site_fract_y
_atom_site_fract_z
Si Si1 0.419364 0.656924 0.959567
Si Si2 0.485037 0.888259 0.986309
Si Si3 0.745247 0.057641 0.365918
Si Si4 0.392434 0.800403 0.460831
Si Si5 0.285206 0.288109 0.685080
Si Si6 0.117374 0.467706 0.362578
Si Si7 0.975582 0.543988 0.182094
O O1 0.446922 0.500583 0.771072
O O2 0.098500 0.663977 0.834136
O O3 0.672996 0.491009 0.959037
O O4 0.463445 0.970042 0.275743
O O5 0.536868 0.901821 0.082262
O O6 0.370887 0.202258 0.212824
O O7 0.249255 0.693257 0.673898
O O8 0.806785 0.755432 0.989383
O O9 0.553933 0.191109 0.447883
O O10 0.838252 0.300390 0.613606
O O11 0.037327 0.838214 0.314226
O O12 0.102932 0.275577 0.633937
O O13 0.046129 0.377283 0.613217
O O14 0.500000 0.000000 0.500000
O O15 0.500000 0.500000 0.000000
#
# Coordination Sequence:
#
# PCOD8022909 Si02
#       7
#     2   2   2   2   2   2   2
#     4  11  23  43  70 104 131 189 233 286 341 402
#     4  12  25  46  69 102 150 182 225 284 363 406
#     4  10  23  43  68 107 136 182 230 296 336 403
#     4  10  23  39  74 100 136 177 250 281 331 404
#     4  12  28  47  75 108 134 179 239 288 341 413
#     4  12  27  46  69 104 148 181 225 293 350 415
#     4  11  25  45  78  97 141 184 234 287 344 415
#
# _framework density 23.078441000000002
#
# number of rings (size 3 to 8) (size 9 to 14) (size 15 to 20)
#    0.000    0.857    4.286    1.714    8.000    2.857 
#    0.000    4.286    0.000    0.000    0.000    0.000 
#    0.000    0.000    0.000    0.000    0.000    0.000 
#
# Total GULP energy -173644.759536 kJ/mol
# GULP energy per Si atom -12403.197110 kJ/mol
# Density = 2.302591 g / cm^3
# Si number density = 23.078441 Si / 1000 Ang^3
#
#
#
# Elastic Constant Matrix: (Units=GPa)
#
#
# Indices 1 2 3 4 5 6 
#
# 1 107.7136 38.2379 24.3997 6.1036 -32.8957 9.8829
# 2 38.2379 118.1273 51.3771 6.1172 -21.6519 8.6848
# 3 24.3997 51.3771 133.9605 -9.1871 -22.0311 7.1549
# 4 6.1036 6.1172 -9.1871 44.3361 -1.2032 -12.6938
# 5 -32.8957 -21.6519 -22.0311 -1.2032 37.0711 4.0944
# 6 9.8829 8.6848 7.1549 -12.6938 4.0944 23.6069
#
#
#
# Elastic Compliance Matrix: (Units=1/GPa)
#
#
# Indices 1 2 3 4 5 6 
#
# 1 0.015221 -0.001513 0.000355 -0.004517 0.013876 -0.010759
# 2 -0.001513 0.011785 -0.003572 -0.003540 0.003876 -0.005195
# 3 0.000355 -0.003572 0.009681 0.002186 0.004199 -0.001322
# 4 -0.004517 -0.003540 0.002186 0.029522 -0.005966 0.019440
# 5 0.013876 0.003876 0.004199 -0.005966 0.046029 -0.019699
# 6 -0.010759 -0.005195 -0.001322 0.019440 -0.019699 0.063046
#
#
# Mechanical properties :
#
#
# Convention : Reuss Voigt Hill
#
# Bulk Modulus (GPa) = 36.72898 65.31452 51.02175
# Shear Modulus (GPa) = 25.79699 37.38859 31.59279
#
# Velocity S-wave (km/s) = 3.34697 4.02937 3.70392
# Velocity P-wave (km/s) = 5.55749 7.07180 6.35987
#
# Compressibility (1/GPa) = 0.02722645
#
# Stress axis : x y z
#
# Youngs Moduli (GPa) = 65.69691 84.85687 103.29286
#
# Poissons Ratio (x) = 0.12841 -0.03665
# Poissons Ratio (y) = 0.09942 0.36895
# Poissons Ratio (z) = -0.02331 0.30309
#
# Static dielectric constant tensor:
#      x y z
#    x 4.237210 -0.010700 -0.311110 
#    y -0.010700 4.384550 -0.110590 
#    z -0.311110 -0.110590 4.187520 
# 
# 
# High freq. dielectric constant tensor:
#      x y z
#    x 1.902400 -0.002600 -0.015880 
#    y -0.002600 1.910190 -0.003560 
#    z -0.015880 -0.003560 1.923070 
# 
# From -- ./inp_files/548366.got.cif
#   From: 2010.06.25/outbox.cif.g09.slc.cpg/sg2_275_cif.got.tgz:548366.got - 2010.06.27 13:26:56.
