data_PCOD8022073
_publ_section_title
;
Structure prediction by ZEFSAII (Michael W. Deem and Ramdas Pophale) SiO2 
 PCOD8022073
Probable space group: P -1
;
_chemical_formula_sum "Si O2"
_cell_formula_units_Z 16
_cell_length_a 18.886654
_cell_length_b 10.544700
_cell_length_c 9.338391
_cell_angle_alpha 140.848709
_cell_angle_beta 51.069581
_cell_angle_gamma 147.704201
_cell_volume 625.334998
_symmetry_space_group_name_H-M "P -1"
_symmetry_group_IT_number 2
_symmetry_cell_setting 'triclinic'
loop_
_space_group_symop_operation_xyz
x,y,z
-x,-y,-z
loop_
_atom_site_type_symbol
_atom_site_label
_atom_site_fract_x
_atom_site_fract_y
_atom_site_fract_z
Si Si1 0.472601 0.360228 0.173831
Si Si2 0.699332 0.353078 0.431906
Si Si3 0.021814 0.266485 0.670145
Si Si4 0.119781 0.770311 0.426827
Si Si5 0.398507 0.109485 0.342925
Si Si6 0.596103 0.224244 0.763635
Si Si7 0.206328 0.069989 0.141939
Si Si8 0.949858 0.134154 0.120430
O O1 0.467589 0.206023 0.185313
O O2 0.511383 0.643191 0.429746
O O3 0.337711 0.141018 0.054955
O O4 0.592214 0.457252 0.008549
O O5 0.821480 0.413606 0.262645
O O6 0.677346 0.297617 0.583404
O O7 0.746372 0.651779 0.595313
O O8 0.561258 0.080072 0.296279
O O9 0.971480 0.220858 0.534008
O O10 0.000000 0.000000 0.500000
O O11 0.926698 0.235327 0.876911
O O12 0.119385 0.837855 0.649752
O O13 0.074149 0.464601 0.194433
O O14 0.268795 0.035300 0.411380
O O15 0.345938 0.812548 0.211206
O O16 0.163990 0.065914 0.031620
O O17 0.000000 0.000000 0.000000
#
# Coordination Sequence:
#
# PCOD8022073 Si02
#       8
#     2   2   2   2   2   2   2   2
#     4  11  25  45  72 105 142 190 241 296 367 423
#     4  10  24  43  69 103 144 179 246 292 363 425
#     4  10  22  44  74 102 143 188 236 304 359 426
#     4  11  26  45  72 104 142 197 233 299 374 425
#     4  11  25  47  70 103 150 185 245 295 356 445
#     4  11  25  43  70 104 142 193 233 300 356 428
#     4  11  23  46  71 106 141 187 246 296 366 427
#     4  11  27  45  69 106 147 185 241 302 365 441
#
# _framework density 25.586286000000001
#
# number of rings (size 3 to 8) (size 9 to 14) (size 15 to 20)
#    0.000    1.250    2.500    1.875    8.750    3.000 
#    0.000    0.000    0.000    0.000    0.000    0.000 
#    0.000    0.000    0.000    0.000    0.000    0.000 
#
# Total GULP energy -198216.175401 kJ/mol
# GULP energy per Si atom -12388.510963 kJ/mol
# Density = 2.552805 g / cm^3
# Si number density = 25.586286 Si / 1000 Ang^3
#
#
#
# Elastic Constant Matrix: (Units=GPa)
#
#
# Indices 1 2 3 4 5 6 
#
# 1 126.9147 28.1596 23.4254 3.0415 4.2046 -2.8656
# 2 28.1596 109.4157 2.1596 -4.2366 -5.6606 11.8006
# 3 23.4254 2.1596 59.5525 -1.0807 5.3639 5.9339
# 4 3.0415 -4.2366 -1.0807 36.2959 8.2608 0.3131
# 5 4.2046 -5.6606 5.3639 8.2608 30.9895 0.7332
# 6 -2.8656 11.8006 5.9339 0.3131 0.7332 35.5324
#
#
#
# Elastic Compliance Matrix: (Units=1/GPa)
#
#
# Indices 1 2 3 4 5 6 
#
# 1 0.009254 -0.002638 -0.003710 -0.001013 -0.000879 0.002269
# 2 -0.002638 0.010355 0.000893 0.001056 0.001904 -0.003850
# 3 -0.003710 0.000893 0.018885 0.001684 -0.002964 -0.003703
# 4 -0.001013 0.001056 0.001684 0.029599 -0.007832 -0.000813
# 5 -0.000879 0.001904 -0.002964 -0.007832 0.035357 -0.000869
# 6 0.002269 -0.003850 -0.003703 -0.000813 -0.000869 0.030248
#
#
# Mechanical properties :
#
#
# Convention : Reuss Voigt Hill
#
# Bulk Modulus (GPa) = 36.25032 44.81912 40.53472
# Shear Modulus (GPa) = 32.50905 36.70610 34.60758
#
# Velocity S-wave (km/s) = 3.56837 3.79172 3.68174
# Velocity P-wave (km/s) = 5.58357 6.06007 5.82669
#
# Compressibility (1/GPa) = 0.02758596
#
# Stress axis : x y z
#
# Youngs Moduli (GPa) = 108.06200 96.56894 52.95133
#
# Poissons Ratio (x) = 0.25473 0.19644
# Poissons Ratio (y) = 0.28505 -0.04730
# Poissons Ratio (z) = 0.40088 -0.08627
#
# Static dielectric constant tensor:
#      x y z
#    x 1.221280 -7.682930 2.985940 
#    y -7.682930 -13.818230 7.252830 
#    z 2.985940 7.252830 1.626820 
# 
# 
# High freq. dielectric constant tensor:
#      x y z
#    x 2.025990 0.004160 -0.005090 
#    y 0.004160 2.034150 -0.000420 
#    z -0.005090 -0.000420 2.011740 
# 
# From -- ./inp_files/346462.got.cif
#   From: 2010.06.25/outbox.cif.g09.slc.cpg/sg2_174_cif.got.tgz:346462.got - 2010.06.27 13:26:56.
