data_PCOD8022398
_publ_section_title
;
Structure prediction by ZEFSAII (Michael W. Deem and Ramdas Pophale) SiO2 
 PCOD8022398
Probable space group: P -1
;
_chemical_formula_sum "Si O2"
_cell_formula_units_Z 14
_cell_length_a 9.443580
_cell_length_b 15.397824
_cell_length_c 14.335431
_cell_angle_alpha 150.763390
_cell_angle_beta 139.724834
_cell_angle_gamma 37.506731
_cell_volume 602.099928
_symmetry_space_group_name_H-M "P -1"
_symmetry_group_IT_number 2
_symmetry_cell_setting 'triclinic'
loop_
_space_group_symop_operation_xyz
x,y,z
-x,-y,-z
loop_
_atom_site_type_symbol
_atom_site_label
_atom_site_fract_x
_atom_site_fract_y
_atom_site_fract_z
Si Si1 0.733273 0.340922 0.923475
Si Si2 0.463593 0.122005 0.499975
Si Si3 0.950999 0.271625 0.315889
Si Si4 0.087752 0.128381 0.059831
Si Si5 0.409081 0.941187 0.705826
Si Si6 0.114062 0.361473 0.010516
Si Si7 0.474923 0.533501 0.409747
O O1 0.631656 0.238976 0.699945
O O2 0.903817 0.431336 0.047236
O O3 0.500000 0.500000 0.000000
O O4 0.900594 0.189205 0.939367
O O5 0.536319 0.018027 0.336886
O O6 0.179912 0.251903 0.474807
O O7 0.500000 0.000000 0.500000
O O8 0.732773 0.458388 0.419599
O O9 0.995360 0.294685 0.250156
O O10 0.889948 0.084657 0.105322
O O11 0.359353 0.102667 0.151947
O O12 0.336593 0.758131 0.516676
O O13 0.190443 0.134172 0.812177
O O14 0.343344 0.397665 0.187881
O O15 0.000000 0.500000 0.000000
O O16 0.500000 0.500000 0.500000
#
# Coordination Sequence:
#
# PCOD8022398 Si02
#       7
#     2   2   2   2   2   2   2
#     4  12  29  44  74 109 149 195 249 305 377 442
#     4  11  25  44  74 107 147 194 248 306 367 447
#     4  10  23  43  72 107 142 194 242 301 368 435
#     4  10  22  45  75 102 149 192 244 302 364 444
#     4  11  27  49  75 111 146 202 252 302 378 445
#     4  12  30  51  75 107 156 195 244 316 376 442
#     4  12  28  46  77 108 149 194 252 308 372 446
#
# _framework density 23.251954999999999
#
# number of rings (size 3 to 8) (size 9 to 14) (size 15 to 20)
#    0.000    0.857    2.857    1.714   12.000    4.571 
#    0.000    0.000    0.000    0.000    0.000    0.000 
#    0.000    0.000    0.000    0.000    0.000    0.000 
#
# Total GULP energy -173496.463903 kJ/mol
# GULP energy per Si atom -12392.604564 kJ/mol
# Density = 2.319903 g / cm^3
# Si number density = 23.251955 Si / 1000 Ang^3
#
#
#
# Elastic Constant Matrix: (Units=GPa)
#
#
# Indices 1 2 3 4 5 6 
#
# 1 117.3151 51.1769 27.2596 12.7241 2.1235 -10.4782
# 2 51.1769 107.2228 52.9437 5.2811 -9.2637 -9.6020
# 3 27.2596 52.9437 87.1267 -9.2664 0.6165 -4.2499
# 4 12.7241 5.2811 -9.2664 48.6635 -1.3715 3.6322
# 5 2.1235 -9.2637 0.6165 -1.3715 34.9443 -2.0476
# 6 -10.4782 -9.6020 -4.2499 3.6322 -2.0476 41.4055
#
#
#
# Elastic Compliance Matrix: (Units=1/GPa)
#
#
# Indices 1 2 3 4 5 6 
#
# 1 0.011339 -0.004914 -0.000754 -0.002765 -0.001982 0.001797
# 2 -0.004914 0.016753 -0.008809 -0.002234 0.004935 0.002177
# 3 -0.000754 -0.008809 0.017515 0.004490 -0.002478 -0.000952
# 4 -0.002765 -0.002234 0.004490 0.022579 0.000223 -0.002727
# 5 -0.001982 0.004935 -0.002478 0.000223 0.030207 0.001863
# 6 0.001797 0.002177 -0.000952 -0.002727 0.001863 0.025345
#
#
# Mechanical properties :
#
#
# Convention : Reuss Voigt Hill
#
# Bulk Modulus (GPa) = 60.04933 63.82500 61.93717
# Shear Modulus (GPa) = 31.59699 37.02163 34.30931
#
# Velocity S-wave (km/s) = 3.69032 3.99456 3.84545
# Velocity P-wave (km/s) = 6.63623 6.98457 6.81263
#
# Compressibility (1/GPa) = 0.01665297
#
# Stress axis : x y z
#
# Youngs Moduli (GPa) = 88.18995 59.69195 57.09417
#
# Poissons Ratio (x) = 0.29331 0.04306
# Poissons Ratio (y) = 0.43335 0.50294
# Poissons Ratio (z) = 0.06651 0.52582
#
# Static dielectric constant tensor:
#      x y z
#    x 4.212370 0.238540 -0.039990 
#    y 0.238540 5.074250 -0.880830 
#    z -0.039990 -0.880830 4.930470 
# 
# 
# High freq. dielectric constant tensor:
#      x y z
#    x 1.922130 0.001010 0.007210 
#    y 0.001010 1.922010 -0.013680 
#    z 0.007210 -0.013680 1.929860 
# 
# From -- ./inp_files/447983.got.cif
#   From: 2010.06.25/outbox.cif.g09.slc.cpg/sg2_224_cif.got.tgz:447983.got - 2010.06.27 13:26:56.
