data_PCOD8022531
_publ_section_title
;
Structure prediction by ZEFSAII (Michael W. Deem and Ramdas Pophale) SiO2 
 PCOD8022531
Probable space group: P -1
;
_chemical_formula_sum "Si O2"
_cell_formula_units_Z 16
_cell_length_a 19.354237
_cell_length_b 7.260789
_cell_length_c 8.765190
_cell_angle_alpha 58.262682
_cell_angle_beta 131.034451
_cell_angle_gamma 126.933566
_cell_volume 724.792045
_symmetry_space_group_name_H-M "P -1"
_symmetry_group_IT_number 2
_symmetry_cell_setting 'triclinic'
loop_
_space_group_symop_operation_xyz
x,y,z
-x,-y,-z
loop_
_atom_site_type_symbol
_atom_site_label
_atom_site_fract_x
_atom_site_fract_y
_atom_site_fract_z
Si Si1 0.548598 0.758313 0.392928
Si Si2 0.735843 0.508380 0.193415
Si Si3 0.533072 0.532412 0.862683
Si Si4 0.890122 0.888404 0.454969
Si Si5 0.796396 0.250930 0.127378
Si Si6 0.110166 0.510581 0.149391
Si Si7 0.703098 0.179305 0.561322
Si Si8 0.402189 0.951388 0.239791
O O1 0.500000 0.500000 0.500000
O O2 0.547869 0.699806 0.237295
O O3 0.478314 0.894005 0.270053
O O4 0.660044 0.908535 0.553291
O O5 0.822163 0.741650 0.281853
O O6 0.784244 0.404090 0.181281
O O7 0.685572 0.328575 0.335475
O O8 0.644385 0.556901 0.971807
O O9 0.538319 0.790187 0.709713
O O10 0.500000 0.500000 0.000000
O O11 0.883814 0.728680 0.667040
O O12 0.856926 0.103526 0.348020
O O13 0.000000 0.000000 0.500000
O O14 0.853961 0.439216 0.995706
O O15 0.689833 0.063012 0.994453
O O16 0.180494 0.731070 0.261493
O O17 0.000000 0.500000 0.000000
O O18 0.642230 0.215225 0.604260
#
# Coordination Sequence:
#
# PCOD8022531 Si02
#       8
#     2   2   2   2   2   2   2   2
#     4  12  25  42  68 100 136 183 236 283 346 421
#     4  11  25  45  66 103 134 177 235 286 347 421
#     4  12  26  41  69  96 136 183 229 282 349 410
#     4  11  23  45  75 102 137 184 230 290 359 413
#     4  11  23  45  73  99 143 179 235 287 348 423
#     4  10  22  46  74 101 139 184 229 294 354 412
#     4  10  24  42  67  96 139 176 230 285 346 411
#     4  11  23  45  65  97 136 184 228 288 345 413
#
# _framework density 22.075295000000001
#
# number of rings (size 3 to 8) (size 9 to 14) (size 15 to 20)
#    0.000    1.000    5.000    1.125    3.500    1.500 
#    6.750    0.625    0.000    0.000    0.000    0.000 
#    0.000    0.000    0.000    0.000    0.000    0.000 
#
# Total GULP energy -198285.000371 kJ/mol
# GULP energy per Si atom -12392.812523 kJ/mol
# Density = 2.202505 g / cm^3
# Si number density = 22.075295 Si / 1000 Ang^3
#
#
#
# Elastic Constant Matrix: (Units=GPa)
#
#
# Indices 1 2 3 4 5 6 
#
# 1 117.4361 58.1890 48.7182 0.6398 -4.5465 -12.6763
# 2 58.1890 119.9845 35.1696 2.9231 -0.1802 -3.8592
# 3 48.7182 35.1696 95.8531 -7.8810 -4.8529 -3.6165
# 4 0.6398 2.9231 -7.8810 41.3551 1.8640 0.7218
# 5 -4.5465 -0.1802 -4.8529 1.8640 41.9560 1.2528
# 6 -12.6763 -3.8592 -3.6165 0.7218 1.2528 42.8607
#
#
#
# Elastic Compliance Matrix: (Units=1/GPa)
#
#
# Indices 1 2 3 4 5 6 
#
# 1 0.013353 -0.004918 -0.004898 -0.000882 0.000806 0.003084
# 2 -0.004918 0.011242 -0.001761 -0.001016 -0.000627 -0.000556
# 3 -0.004898 -0.001761 0.013827 0.002801 0.000952 -0.000515
# 4 -0.000882 -0.001016 0.002801 0.024848 -0.000865 -0.000509
# 5 0.000806 -0.000627 0.000952 -0.000865 0.024080 -0.000427
# 6 0.003084 -0.000556 -0.000515 -0.000509 -0.000427 0.024171
#
#
# Mechanical properties :
#
#
# Convention : Reuss Voigt Hill
#
# Bulk Modulus (GPa) = 65.49731 68.60304 67.05018
# Shear Modulus (GPa) = 35.77432 37.98081 36.87757
#
# Velocity S-wave (km/s) = 4.02998 4.15241 4.09165
# Velocity P-wave (km/s) = 7.16859 7.35760 7.26371
#
# Compressibility (1/GPa) = 0.01526780
#
# Stress axis : x y z
#
# Youngs Moduli (GPa) = 74.88968 88.95328 72.32162
#
# Poissons Ratio (x) = 0.43750 0.35420
# Poissons Ratio (y) = 0.36833 0.12737
# Poissons Ratio (z) = 0.36677 0.15667
#
# Static dielectric constant tensor:
#      x y z
#    x 3.965610 0.420850 0.029230 
#    y 0.420850 3.397750 -0.520640 
#    z 0.029230 -0.520640 3.941510 
# 
# 
# High freq. dielectric constant tensor:
#      x y z
#    x 1.864890 0.010630 -0.007880 
#    y 0.010630 1.869790 0.004820 
#    z -0.007880 0.004820 1.881620 
# 
# From -- ./inp_files/107104.got.cif
#   From: 2010.06.25/outbox.cif.g09.slc.cpg/sg2_54_cif.got.tgz:107104.got - 2010.06.27 13:26:56.
