data_PCOD8022240
_publ_section_title
;
Structure prediction by ZEFSAII (Michael W. Deem and Ramdas Pophale) SiO2 
 PCOD8022240
Probable space group: P -1
;
_chemical_formula_sum "Si O2"
_cell_formula_units_Z 14
_cell_length_a 8.766201
_cell_length_b 8.252513
_cell_length_c 12.256503
_cell_angle_alpha 86.011982
_cell_angle_beta 48.354206
_cell_angle_gamma 110.694151
_cell_volume 557.992868
_symmetry_space_group_name_H-M "P -1"
_symmetry_group_IT_number 2
_symmetry_cell_setting 'triclinic'
loop_
_space_group_symop_operation_xyz
x,y,z
-x,-y,-z
loop_
_atom_site_type_symbol
_atom_site_label
_atom_site_fract_x
_atom_site_fract_y
_atom_site_fract_z
Si Si1 0.754892 0.673218 0.002702
Si Si2 0.747946 0.431409 0.185393
Si Si3 0.707814 0.413617 0.848834
Si Si4 0.223925 0.043043 0.704014
Si Si5 0.075412 0.348336 0.463907
Si Si6 0.627550 0.008092 0.596410
Si Si7 0.883989 0.650178 0.320705
O O1 0.752473 0.507166 0.940939
O O2 0.023397 0.856971 0.873660
O O3 0.668504 0.572832 0.167597
O O4 0.576539 0.735621 0.035422
O O5 0.548980 0.208736 0.266176
O O6 0.764598 0.459602 0.309308
O O7 0.000000 0.500000 0.000000
O O8 0.776838 0.589385 0.722148
O O9 0.843497 0.297464 0.784031
O O10 0.476575 0.110876 0.642229
O O11 0.236215 0.985942 0.578004
O O12 0.143321 0.195737 0.739949
O O13 0.227120 0.370427 0.502727
O O14 0.000000 0.500000 0.500000
O O15 0.838324 0.130948 0.578563
#
# Coordination Sequence:
#
# PCOD8022240 Si02
#       7
#     2   2   2   2   2   2   2
#     4  11  23  45  75  99 143 195 235 290 360 427
#     4  12  25  49  74 103 145 194 239 295 358 432
#     4  10  22  45  69 101 145 188 232 294 361 420
#     4  11  25  44  75 108 140 188 248 290 355 426
#     4  10  24  46  72 106 145 185 237 301 352 424
#     4  11  25  48  76 102 147 192 239 287 365 431
#     4  11  26  45  69 108 147 180 246 296 353 420
#
# _framework density 25.089925999999998
#
# number of rings (size 3 to 8) (size 9 to 14) (size 15 to 20)
#    0.000    1.143    4.286    0.000    8.000    6.857 
#    5.143    0.000    0.000    0.000    0.000    0.000 
#    0.000    0.000    0.000    0.000    0.000    0.000 
#
# Total GULP energy -173441.819233 kJ/mol
# GULP energy per Si atom -12388.701374 kJ/mol
# Density = 2.503282 g / cm^3
# Si number density = 25.089926 Si / 1000 Ang^3
#
#
#
# Elastic Constant Matrix: (Units=GPa)
#
#
# Indices 1 2 3 4 5 6 
#
# 1 90.0001 36.1929 22.6254 10.1224 9.5041 -10.1959
# 2 36.1929 79.1357 34.5491 -9.0322 2.5820 5.4046
# 3 22.6254 34.5491 93.7040 -11.6060 16.5089 12.8006
# 4 10.1224 -9.0322 -11.6060 31.4668 1.6468 3.1553
# 5 9.5041 2.5820 16.5089 1.6468 39.9655 7.1359
# 6 -10.1959 5.4046 12.8006 3.1553 7.1359 54.5308
#
#
#
# Elastic Compliance Matrix: (Units=1/GPa)
#
#
# Indices 1 2 3 4 5 6 
#
# 1 0.016880 -0.007944 -0.002462 -0.009003 -0.003085 0.005446
# 2 -0.007944 0.019041 -0.004346 0.006585 0.002735 -0.003091
# 3 -0.002462 -0.004346 0.014870 0.005608 -0.004936 -0.003199
# 4 -0.009003 0.006585 0.005608 0.039275 -0.001189 -0.005769
# 5 -0.003085 0.002735 -0.004936 -0.001189 0.028259 -0.003318
# 6 0.005446 -0.003091 -0.003199 -0.005769 -0.003318 0.021182
#
#
# Mechanical properties :
#
#
# Convention : Reuss Voigt Hill
#
# Bulk Modulus (GPa) = 46.97982 49.95273 48.46627
# Shear Modulus (GPa) = 28.39175 36.49080 32.44127
#
# Velocity S-wave (km/s) = 3.36757 3.81780 3.59973
# Velocity P-wave (km/s) = 5.82117 6.27589 6.05280
#
# Compressibility (1/GPa) = 0.02128574
#
# Stress axis : x y z
#
# Youngs Moduli (GPa) = 59.24120 52.51918 67.24862
#
# Poissons Ratio (x) = 0.41721 0.16559
# Poissons Ratio (y) = 0.47061 0.29228
# Poissons Ratio (z) = 0.14587 0.22826
#
# Static dielectric constant tensor:
#      x y z
#    x 5.035500 -0.077380 0.516470 
#    y -0.077380 4.253360 0.033390 
#    z 0.516470 0.033390 5.549450 
# 
# 
# High freq. dielectric constant tensor:
#      x y z
#    x 2.017000 -0.003020 0.003010 
#    y -0.003020 1.974080 0.013380 
#    z 0.003010 0.013380 1.999450 
# 
# From -- ./inp_files/378601.got.cif
#   From: 2010.06.25/outbox.cif.g09.slc.cpg/sg2_190_cif.got.tgz:378601.got - 2010.06.27 13:26:56.
