data_PCOD8022692
_publ_section_title
;
Structure prediction by ZEFSAII (Michael W. Deem and Ramdas Pophale) SiO2 
 PCOD8022692
Probable space group: P -1
;
_chemical_formula_sum "Si O2"
_cell_formula_units_Z 16
_cell_length_a 19.655864
_cell_length_b 8.596536
_cell_length_c 14.404249
_cell_angle_alpha 149.784198
_cell_angle_beta 139.133368
_cell_angle_gamma 41.588527
_cell_volume 767.775555
_symmetry_space_group_name_H-M "P -1"
_symmetry_group_IT_number 2
_symmetry_cell_setting 'triclinic'
loop_
_space_group_symop_operation_xyz
x,y,z
-x,-y,-z
loop_
_atom_site_type_symbol
_atom_site_label
_atom_site_fract_x
_atom_site_fract_y
_atom_site_fract_z
Si Si1 0.774313 0.205959 0.059044
Si Si2 0.003342 0.111624 0.957542
Si Si3 0.347454 0.390945 0.020510
Si Si4 0.085448 0.677341 0.388147
Si Si5 0.409884 0.637300 0.720412
Si Si6 0.275308 0.466239 0.346990
Si Si7 0.745360 0.545810 0.394891
Si Si8 0.234427 0.785491 0.278207
O O1 0.699988 0.502856 0.075846
O O2 0.734799 0.892199 0.838256
O O3 0.767961 0.288625 0.203149
O O4 0.899039 0.138995 0.124246
O O5 0.895149 0.116886 0.793027
O O6 0.018022 0.467679 0.159439
O O7 0.000000 0.000000 0.000000
O O8 0.462119 0.463490 0.185619
O O9 0.264416 0.597911 0.116186
O O10 0.357445 0.020257 0.857295
O O11 0.173910 0.722810 0.427412
O O12 0.150750 0.504809 0.456925
O O13 0.000000 0.000000 0.500000
O O14 0.385725 0.475714 0.516807
O O15 0.358988 0.493779 0.679548
O O16 0.286811 0.556206 0.299107
O O17 0.720566 0.904605 0.513136
#
# Coordination Sequence:
#
# PCOD8022692 Si02
#       8
#     2   2   2   2   2   2   2   2
#     4  11  24  41  64  94 128 165 210 253 309 369
#     4  11  22  40  60  92 130 164 210 251 305 371
#     4  11  23  43  70  91 121 165 202 265 318 366
#     4  10  23  38  60  88 124 170 207 252 308 358
#     4  10  24  45  66  93 123 158 212 259 317 371
#     4  10  24  41  61  94 126 162 210 255 304 374
#     4  11  24  41  61  93 126 165 210 254 307 371
#     4  12  24  40  65  93 129 168 207 255 309 367
#
# _framework density 20.839421999999999
#
# number of rings (size 3 to 8) (size 9 to 14) (size 15 to 20)
#    0.000    1.250    2.500    3.000    7.000    5.500 
#    0.000    0.000    0.000    0.000    0.000    0.000 
#    0.000    0.000    0.000    0.000    0.000    0.000 
#
# Total GULP energy -198472.705191 kJ/mol
# GULP energy per Si atom -12404.544074 kJ/mol
# Density = 2.079199 g / cm^3
# Si number density = 20.839422 Si / 1000 Ang^3
#
#
#
# Elastic Constant Matrix: (Units=GPa)
#
#
# Indices 1 2 3 4 5 6 
#
# 1 79.2969 31.7595 31.5160 -18.4306 6.1199 13.6497
# 2 31.7595 77.8886 21.8629 -4.1426 11.4732 -0.4798
# 3 31.5160 21.8629 91.3856 -14.9455 7.6114 -3.9259
# 4 -18.4306 -4.1426 -14.9455 27.8114 1.9517 0.0858
# 5 6.1199 11.4732 7.6114 1.9517 40.1784 -3.0492
# 6 13.6497 -0.4798 -3.9259 0.0858 -3.0492 26.3997
#
#
#
# Elastic Compliance Matrix: (Units=1/GPa)
#
#
# Indices 1 2 3 4 5 6 
#
# 1 0.022130 -0.006937 -0.004473 0.011410 -0.002046 -0.012507
# 2 -0.006937 0.016423 -0.001611 -0.002820 -0.002939 0.003315
# 3 -0.004473 -0.001611 0.013874 0.004335 -0.001381 0.004173
# 4 0.011410 -0.002820 0.004335 0.045757 -0.004429 -0.005966
# 5 -0.002046 -0.002939 -0.001381 -0.004429 0.026813 0.003910
# 6 -0.012507 0.003315 0.004173 -0.005966 0.003910 0.045497
#
#
# Mechanical properties :
#
#
# Convention : Reuss Voigt Hill
#
# Bulk Modulus (GPa) = 37.89967 46.53866 42.21916
# Shear Modulus (GPa) = 24.35097 29.77344 27.06220
#
# Velocity S-wave (km/s) = 3.42205 3.78393 3.60753
# Velocity P-wave (km/s) = 5.81721 6.43982 6.13642
#
# Compressibility (1/GPa) = 0.02638546
#
# Stress axis : x y z
#
# Youngs Moduli (GPa) = 45.18824 60.89083 72.07764
#
# Poissons Ratio (x) = 0.42238 0.32241
# Poissons Ratio (y) = 0.31346 0.11610
# Poissons Ratio (z) = 0.20213 0.09808
#
# Static dielectric constant tensor:
#      x y z
#    x 3.831640 -0.047020 0.160180 
#    y -0.047020 3.513020 0.681290 
#    z 0.160180 0.681290 0.741200 
# 
# 
# High freq. dielectric constant tensor:
#      x y z
#    x 1.822020 0.004570 0.004200 
#    y 0.004570 1.808230 -0.002740 
#    z 0.004200 -0.002740 1.827030 
# 
# From -- ./inp_files/188080.got.cif
#   From: 2010.06.25/outbox.cif.g09.slc.cpg/sg2_95_cif.got.tgz:188080.got - 2010.06.27 13:26:56.
