data_PCOD8022997
_publ_section_title
;
Structure prediction by ZEFSAII (Michael W. Deem and Ramdas Pophale) SiO2 
 PCOD8022997
Probable space group: P -1
;
_chemical_formula_sum "Si O2"
_cell_formula_units_Z 14
_cell_length_a 7.240893
_cell_length_b 11.126548
_cell_length_c 8.281756
_cell_angle_alpha 85.781381
_cell_angle_beta 76.145875
_cell_angle_gamma 104.720816
_cell_volume 620.102654
_symmetry_space_group_name_H-M "P -1"
_symmetry_group_IT_number 2
_symmetry_cell_setting 'triclinic'
loop_
_space_group_symop_operation_xyz
x,y,z
-x,-y,-z
loop_
_atom_site_type_symbol
_atom_site_label
_atom_site_fract_x
_atom_site_fract_y
_atom_site_fract_z
Si Si1 0.493324 0.754767 0.121270
Si Si2 0.114389 0.098808 0.094307
Si Si3 0.370782 0.978743 0.284966
Si Si4 0.241893 0.849639 0.655403
Si Si5 0.285274 0.501199 0.344281
Si Si6 0.577220 0.416558 0.120147
Si Si7 0.130137 0.560168 0.694309
O O1 0.416567 0.871640 0.175087
O O2 0.424109 0.642949 0.275933
O O3 0.732001 0.794080 0.053329
O O4 0.412892 0.709784 0.960826
O O5 0.964427 0.157217 0.215053
O O6 0.232115 0.040144 0.204822
O O7 0.000000 0.000000 0.000000
O O8 0.253664 0.921284 0.476227
O O9 0.574386 0.081864 0.276787
O O10 0.241747 0.707443 0.634418
O O11 0.411740 0.400374 0.300050
O O12 0.196562 0.482763 0.543543
O O13 0.107244 0.473825 0.252166
O O14 0.792056 0.481524 0.148433
O O15 0.500000 0.500000 0.000000
#
# Coordination Sequence:
#
# PCOD8022997 Si02
#       7
#     2   2   2   2   2   2   2
#     4  11  22  44  64  97 135 170 213 274 327 382
#     4  12  25  41  65  99 134 171 217 268 329 391
#     4  11  24  45  66  98 135 172 221 269 326 390
#     4  11  24  44  70  95 132 177 221 268 324 394
#     4  10  23  44  64  97 131 168 224 269 321 394
#     4  10  23  40  64  95 132 167 214 268 324 386
#     4  11  22  42  70  94 129 177 218 265 330 387
#
# _framework density 22.576906000000001
#
# number of rings (size 3 to 8) (size 9 to 14) (size 15 to 20)
#    0.000    1.143    2.857    3.000    2.000    2.286 
#    5.143    1.429    0.000    0.000    0.000    0.000 
#    0.000    0.000    0.000    0.000    0.000    0.000 
#
# Total GULP energy -173546.506967 kJ/mol
# GULP energy per Si atom -12396.179069 kJ/mol
# Density = 2.252552 g / cm^3
# Si number density = 22.576906 Si / 1000 Ang^3
#
#
#
# Elastic Constant Matrix: (Units=GPa)
#
#
# Indices 1 2 3 4 5 6 
#
# 1 132.0476 25.7601 48.2757 6.3956 16.8399 16.2541
# 2 25.7601 75.1253 25.4740 9.8022 6.2171 12.9918
# 3 48.2757 25.4740 72.9831 15.7191 5.9012 3.0995
# 4 6.3956 9.8022 15.7191 47.3109 -1.6914 -5.1601
# 5 16.8399 6.2171 5.9012 -1.6914 48.7921 5.6854
# 6 16.2541 12.9918 3.0995 -5.1601 5.6854 35.8722
#
#
#
# Elastic Compliance Matrix: (Units=1/GPa)
#
#
# Indices 1 2 3 4 5 6 
#
# 1 0.010899 -0.000681 -0.006708 0.000410 -0.002422 -0.003669
# 2 -0.000681 0.016381 -0.004446 -0.002449 -0.000762 -0.005471
# 3 -0.006708 -0.004446 0.020633 -0.004790 -0.000034 0.002183
# 4 0.000410 -0.002449 -0.004790 0.023693 0.001064 0.004355
# 5 -0.002422 -0.000762 -0.000034 0.001064 0.021691 -0.001909
# 6 -0.003669 -0.005471 0.002183 0.004355 -0.001909 0.032261
#
#
# Mechanical properties :
#
#
# Convention : Reuss Voigt Hill
#
# Bulk Modulus (GPa) = 41.24979 53.24171 47.24575
# Shear Modulus (GPa) = 31.78454 38.43814 35.11134
#
# Velocity S-wave (km/s) = 3.75618 4.13066 3.94787
# Velocity P-wave (km/s) = 6.09281 6.81054 6.46165
#
# Compressibility (1/GPa) = 0.02424254
#
# Stress axis : x y z
#
# Youngs Moduli (GPa) = 91.75124 61.04685 48.46706
#
# Poissons Ratio (x) = 0.04158 0.32513
# Poissons Ratio (y) = 0.06249 0.21547
# Poissons Ratio (z) = 0.61549 0.27140
#
# Static dielectric constant tensor:
#      x y z
#    x 4.261930 0.131190 -0.268520 
#    y 0.131190 4.243870 0.365710 
#    z -0.268520 0.365710 4.669070 
# 
# 
# High freq. dielectric constant tensor:
#      x y z
#    x 1.896270 0.007560 -0.007540 
#    y 0.007560 1.882980 0.023090 
#    z -0.007540 0.023090 1.905000 
# 
# From -- ./inp_files/26805.got.cif
#   From: 2010.06.25/outbox.cif.g09.slc.cpg/sg2_14_cif.got.tgz:26805.got - 2010.06.27 13:26:56.
