data_PCOD8022129
_publ_section_title
;
Structure prediction by ZEFSAII (Michael W. Deem and Ramdas Pophale) SiO2 
 PCOD8022129
Probable space group: P -1
;
_chemical_formula_sum "Si O2"
_cell_formula_units_Z 14
_cell_length_a 8.314136
_cell_length_b 20.319815
_cell_length_c 6.755685
_cell_angle_alpha 128.651520
_cell_angle_beta 53.239075
_cell_angle_gamma 134.431533
_cell_volume 609.299476
_symmetry_space_group_name_H-M "P -1"
_symmetry_group_IT_number 2
_symmetry_cell_setting 'triclinic'
loop_
_space_group_symop_operation_xyz
x,y,z
-x,-y,-z
loop_
_atom_site_type_symbol
_atom_site_label
_atom_site_fract_x
_atom_site_fract_y
_atom_site_fract_z
Si Si1 0.460460 0.831104 0.624216
Si Si2 0.166580 0.455786 0.015745
Si Si3 0.681056 0.594267 0.809476
Si Si4 0.082495 0.624369 0.332938
Si Si5 0.472436 0.862821 0.127582
Si Si6 0.762405 0.085625 0.288389
Si Si7 0.261500 0.200640 0.921232
O O1 0.254344 0.734604 0.485129
O O2 0.434487 0.920565 0.729214
O O3 0.713392 0.848907 0.396072
O O4 0.414559 0.819645 0.868953
O O5 0.149983 0.395676 0.111562
O O6 0.156365 0.553546 0.250074
O O7 0.427859 0.494600 0.811232
O O8 0.943299 0.385430 0.906407
O O9 0.813579 0.588533 0.511246
O O10 0.654977 0.688897 0.993490
O O11 0.253104 0.863128 0.398146
O O12 0.545077 0.794902 0.063361
O O13 0.698144 0.974841 0.169391
O O14 0.011008 0.144558 0.105736
#
# Coordination Sequence:
#
# PCOD8022129 Si02
#       7
#     2   2   2   2   2   2   2
#     4  11  23  41  65  98 129 167 217 265 315 384
#     4  10  24  42  65  88 125 168 211 268 317 376
#     4  11  22  42  63  93 123 166 216 260 323 376
#     4  11  22  43  63  91 125 166 216 261 318 378
#     4  10  24  42  68  93 133 171 209 264 322 382
#     4  10  22  45  65  95 130 170 216 259 322 384
#     4  11  23  41  65  98 130 163 220 264 314 387
#
# _framework density 22.977205999999999
#
# number of rings (size 3 to 8) (size 9 to 14) (size 15 to 20)
#    0.000    1.429    2.857    1.714    0.000    5.143 
#    2.571    0.000    0.000    0.000    0.000    0.000 
#    0.000    0.000    0.000    0.000    0.000    0.000 
#
# Total GULP energy -173486.670721 kJ/mol
# GULP energy per Si atom -12391.905051 kJ/mol
# Density = 2.292491 g / cm^3
# Si number density = 22.977206 Si / 1000 Ang^3
#
#
#
# Elastic Constant Matrix: (Units=GPa)
#
#
# Indices 1 2 3 4 5 6 
#
# 1 99.1143 37.1732 46.1752 9.3442 6.8953 -26.6337
# 2 37.1732 66.0521 27.8172 -4.9335 9.0672 -5.3229
# 3 46.1752 27.8172 133.1173 -21.3607 3.3977 8.5835
# 4 9.3442 -4.9335 -21.3607 31.1097 6.6301 -6.9789
# 5 6.8953 9.0672 3.3977 6.6301 39.7017 -10.7971
# 6 -26.6337 -5.3229 8.5835 -6.9789 -10.7971 43.0136
#
#
#
# Elastic Compliance Matrix: (Units=1/GPa)
#
#
# Indices 1 2 3 4 5 6 
#
# 1 0.021929 -0.009176 -0.008585 -0.011925 0.004655 0.013389
# 2 -0.009176 0.021181 0.000167 0.006602 -0.005270 -0.003346
# 3 -0.008585 0.000167 0.012661 0.010435 -0.003263 -0.006947
# 4 -0.011925 0.006602 0.010435 0.045019 -0.008815 -0.003557
# 5 0.004655 -0.005270 -0.003263 -0.008815 0.029761 0.008921
# 6 0.013389 -0.003346 -0.006947 -0.003557 0.008921 0.034173
#
#
# Mechanical properties :
#
#
# Convention : Reuss Voigt Hill
#
# Bulk Modulus (GPa) = 48.58718 57.84610 53.21664
# Shear Modulus (GPa) = 24.18120 35.23953 29.71037
#
# Velocity S-wave (km/s) = 3.24759 3.92046 3.59978
# Velocity P-wave (km/s) = 5.93752 6.76191 6.36308
#
# Compressibility (1/GPa) = 0.02058156
#
# Stress axis : x y z
#
# Youngs Moduli (GPa) = 45.60230 47.21281 78.98383
#
# Poissons Ratio (x) = 0.43325 0.67804
# Poissons Ratio (y) = 0.41847 -0.01317
# Poissons Ratio (z) = 0.39148 -0.00787
#
# Static dielectric constant tensor:
#      x y z
#    x 4.028760 -0.309800 -0.296700 
#    y -0.309800 4.034130 -0.268060 
#    z -0.296700 -0.268060 4.505700 
# 
# 
# High freq. dielectric constant tensor:
#      x y z
#    x 1.895700 -0.022510 -0.016900 
#    y -0.022510 1.908200 -0.016150 
#    z -0.016900 -0.016150 1.917850 
# 
# From -- ./inp_files/53890.got.cif
#   From: 2010.06.25/outbox.cif.g09.slc.cpg/sg2_27_cif.got.tgz:53890.got - 2010.06.27 13:26:56.
