data_PCOD8022036
_publ_section_title
;
Structure prediction by ZEFSAII (Michael W. Deem and Ramdas Pophale) SiO2 
 PCOD8022036
Probable space group: P -1
;
_chemical_formula_sum "Si O2"
_cell_formula_units_Z 16
_cell_length_a 11.901029
_cell_length_b 6.429593
_cell_length_c 11.598586
_cell_angle_alpha 107.896938
_cell_angle_beta 81.052555
_cell_angle_gamma 126.500866
_cell_volume 678.469276
_symmetry_space_group_name_H-M "P -1"
_symmetry_group_IT_number 2
_symmetry_cell_setting 'triclinic'
loop_
_space_group_symop_operation_xyz
x,y,z
-x,-y,-z
loop_
_atom_site_type_symbol
_atom_site_label
_atom_site_fract_x
_atom_site_fract_y
_atom_site_fract_z
Si Si1 0.536386 0.714347 0.129084
Si Si2 0.727140 0.332644 0.864438
Si Si3 0.212736 0.027350 0.339595
Si Si4 0.901941 0.566233 0.084539
Si Si5 0.944784 0.852007 0.778068
Si Si6 0.439800 0.604205 0.371479
Si Si7 0.296660 0.871119 0.498831
Si Si8 0.815663 0.217886 0.252033
O O1 0.439685 0.821508 0.145884
O O2 0.495527 0.574102 0.236042
O O3 0.700401 0.961076 0.149212
O O4 0.500000 0.500000 0.000000
O O5 0.809632 0.609209 0.824267
O O6 0.771412 0.137078 0.790538
O O7 0.759420 0.408955 0.007326
O O8 0.099858 0.079966 0.323950
O O9 0.359223 0.311798 0.390067
O O10 0.179002 0.867035 0.439624
O O11 0.873861 0.480054 0.208952
O O12 0.977150 0.881853 0.111400
O O13 0.000000 0.500000 0.000000
O O14 0.056908 0.788474 0.726301
O O15 0.333391 0.692899 0.391337
O O16 0.567745 0.822177 0.467295
O O17 0.248894 0.755882 0.615871
#
# Coordination Sequence:
#
# PCOD8022036 Si02
#       8
#     2   2   2   2   2   2   2   2
#     4  11  24  44  71 106 145 175 229 303 354 405
#     4  12  25  45  72 104 140 185 236 291 347 428
#     4  12  22  41  75 104 129 193 239 274 354 425
#     4  12  25  43  72 100 140 194 232 280 361 423
#     4  12  24  45  71 101 142 187 238 282 354 420
#     4  10  22  44  72  99 146 192 223 290 356 418
#     4  10  23  46  68 102 147 184 238 287 347 416
#     4  11  27  46  67 108 143 184 235 298 346 413
#
# _framework density 23.582494000000001
#
# number of rings (size 3 to 8) (size 9 to 14) (size 15 to 20)
#    0.000    0.750    5.000    1.500    3.500    2.000 
#    4.500    4.375    0.000    0.000    0.000    0.000 
#    0.000    0.000    0.000    0.000    0.000    0.000 
#
# Total GULP energy -198330.664603 kJ/mol
# GULP energy per Si atom -12395.666538 kJ/mol
# Density = 2.352882 g / cm^3
# Si number density = 23.582494 Si / 1000 Ang^3
#
#
#
# Elastic Constant Matrix: (Units=GPa)
#
#
# Indices 1 2 3 4 5 6 
#
# 1 111.7634 20.1921 20.5123 -17.5471 18.4139 -3.1228
# 2 20.1921 102.4805 44.8970 3.2547 -0.1241 -3.0544
# 3 20.5123 44.8970 112.8058 -2.8094 9.1032 -8.2391
# 4 -17.5471 3.2547 -2.8094 35.5006 -7.6048 1.9194
# 5 18.4139 -0.1241 9.1032 -7.6048 35.3172 -8.0516
# 6 -3.1228 -3.0544 -8.2391 1.9194 -8.0516 23.5933
#
#
#
# Elastic Compliance Matrix: (Units=1/GPa)
#
#
# Indices 1 2 3 4 5 6 
#
# 1 0.010920 -0.001996 -0.000772 0.004557 -0.004767 -0.001080
# 2 -0.001996 0.012296 -0.004703 -0.002094 0.001965 0.000526
# 3 -0.000772 -0.004703 0.011222 0.000406 -0.001838 0.002547
# 4 0.004557 -0.002094 0.000406 0.031572 0.004156 -0.000676
# 5 -0.004767 0.001965 -0.001838 0.004156 0.034555 0.010436
# 6 -0.001080 0.000526 0.002547 -0.000676 0.010436 0.046816
#
#
# Mechanical properties :
#
#
# Convention : Reuss Voigt Hill
#
# Bulk Modulus (GPa) = 51.29401 55.36138 53.32770
# Shear Modulus (GPa) = 29.61686 34.97878 32.29782
#
# Velocity S-wave (km/s) = 3.54769 3.85548 3.70478
# Velocity P-wave (km/s) = 6.21125 6.58378 6.40023
#
# Compressibility (1/GPa) = 0.01949545
#
# Stress axis : x y z
#
# Youngs Moduli (GPa) = 91.57148 81.32492 89.11385
#
# Poissons Ratio (x) = 0.16234 0.06879
# Poissons Ratio (y) = 0.18279 0.41913
# Poissons Ratio (z) = 0.07069 0.38250
#
# Static dielectric constant tensor:
#      x y z
#    x 4.349930 0.079000 0.349750 
#    y 0.079000 4.303680 0.055690 
#    z 0.349750 0.055690 4.284680 
# 
# 
# High freq. dielectric constant tensor:
#      x y z
#    x 1.933350 0.002210 0.027810 
#    y 0.002210 1.931320 0.011300 
#    z 0.027810 0.011300 1.932030 
# 
# From -- ./inp_files/410782.got.cif
#   From: 2010.06.25/outbox.cif.g09.slc.cpg/sg2_206_cif.got.tgz:410782.got - 2010.06.27 13:26:56.
