data_PCOD8022052
_publ_section_title
;
Structure prediction by ZEFSAII (Michael W. Deem and Ramdas Pophale) SiO2 
 PCOD8022052
Probable space group: P -1
;
_chemical_formula_sum "Si O2"
_cell_formula_units_Z 16
_cell_length_a 9.110289
_cell_length_b 9.344459
_cell_length_c 15.059356
_cell_angle_alpha 35.499175
_cell_angle_beta 78.430705
_cell_angle_gamma 82.105461
_cell_volume 728.571344
_symmetry_space_group_name_H-M "P -1"
_symmetry_group_IT_number 2
_symmetry_cell_setting 'triclinic'
loop_
_space_group_symop_operation_xyz
x,y,z
-x,-y,-z
loop_
_atom_site_type_symbol
_atom_site_label
_atom_site_fract_x
_atom_site_fract_y
_atom_site_fract_z
Si Si1 0.264476 0.103688 0.117965
Si Si2 0.597928 0.156050 0.052564
Si Si3 0.163403 0.111794 0.936616
Si Si4 0.678849 0.328673 0.146167
Si Si5 0.461932 0.406119 0.282949
Si Si6 0.805497 0.951467 0.442816
Si Si7 0.758030 0.369949 0.368659
Si Si8 0.074020 0.716420 0.443513
O O1 0.434199 0.028155 0.157674
O O2 0.136985 0.954901 0.263060
O O3 0.235656 0.018779 0.064452
O O4 0.248536 0.397669 0.983554
O O5 0.643564 0.314260 0.053988
O O6 0.723747 0.958536 0.121134
O O7 0.589738 0.328335 0.878543
O O8 0.141131 0.402365 0.796562
O O9 0.000000 0.000000 0.000000
O O10 0.530751 0.279937 0.250457
O O11 0.786853 0.115841 0.272768
O O12 0.328102 0.247708 0.422639
O O13 0.586777 0.424592 0.336285
O O14 0.952302 0.799655 0.487406
O O15 0.816862 0.123459 0.441272
O O16 0.784845 0.370067 0.471711
O O17 0.000000 0.500000 0.500000
#
# Coordination Sequence:
#
# PCOD8022052 Si02
#       8
#     2   2   2   2   2   2   2   2
#     4  11  24  47  69  94 140 174 229 278 328 407
#     4  11  25  42  75 104 129 176 227 278 345 384
#     4  12  26  44  68  97 139 178 223 281 332 402
#     4  10  22  44  73 105 128 171 234 282 327 397
#     4  10  22  44  75 100 133 173 231 276 330 408
#     4  11  25  45  72  98 137 180 221 276 344 399
#     4  11  24  47  66  98 133 183 227 266 339 404
#     4  12  30  45  64 102 143 177 225 280 335 396
#
# _framework density 21.960787
#
# number of rings (size 3 to 8) (size 9 to 14) (size 15 to 20)
#    0.000    1.000    3.750    4.500   12.250    1.500 
#    0.000    1.250    0.000    0.000    0.000    0.000 
#    0.000    0.000    0.000    0.000    0.000    0.000 
#
# Total GULP energy -198315.065098 kJ/mol
# GULP energy per Si atom -12394.691569 kJ/mol
# Density = 2.191080 g / cm^3
# Si number density = 21.960787 Si / 1000 Ang^3
#
#
#
# Elastic Constant Matrix: (Units=GPa)
#
#
# Indices 1 2 3 4 5 6 
#
# 1 87.2522 57.3300 47.6056 -7.4916 -13.6070 11.9149
# 2 57.3300 92.3295 28.4238 6.5754 -9.3906 21.2967
# 3 47.6056 28.4238 116.9025 0.8742 -23.6642 8.9319
# 4 -7.4916 6.5754 0.8742 27.6937 11.1854 4.6605
# 5 -13.6070 -9.3906 -23.6642 11.1854 41.8328 1.7264
# 6 11.9149 21.2967 8.9319 4.6605 1.7264 34.1064
#
#
#
# Elastic Compliance Matrix: (Units=1/GPa)
#
#
# Indices 1 2 3 4 5 6 
#
# 1 0.026023 -0.015097 -0.007554 0.011672 -0.002353 0.000838
# 2 -0.015097 0.022575 0.002262 -0.009910 0.004429 -0.008285
# 3 -0.007554 0.002262 0.012604 -0.005400 0.006693 -0.001675
# 4 0.011672 -0.009910 -0.005400 0.047913 -0.014199 -0.002304
# 5 -0.002353 0.004429 0.006693 -0.014199 0.031855 -0.003368
# 6 0.000838 -0.008285 -0.001675 -0.002304 -0.003368 0.035125
#
#
# Mechanical properties :
#
#
# Convention : Reuss Voigt Hill
#
# Bulk Modulus (GPa) = 48.95995 62.57811 55.76903
# Shear Modulus (GPa) = 22.35341 31.60157 26.97749
#
# Velocity S-wave (km/s) = 3.19388 3.79753 3.50871
# Velocity P-wave (km/s) = 5.99532 6.91271 6.47029
#
# Compressibility (1/GPa) = 0.02042486
#
# Stress axis : x y z
#
# Youngs Moduli (GPa) = 38.42795 44.29592 79.34230
#
# Poissons Ratio (x) = 0.66872 0.59936
# Poissons Ratio (y) = 0.58013 -0.17950
# Poissons Ratio (z) = 0.29029 -0.10021
#
# Static dielectric constant tensor:
#      x y z
#    x 3.956910 0.210840 0.113160 
#    y 0.210840 4.029290 -0.042250 
#    z 0.113160 -0.042250 3.999880 
# 
# 
# High freq. dielectric constant tensor:
#      x y z
#    x 1.863750 0.013440 0.005450 
#    y 0.013440 1.861880 -0.003730 
#    z 0.005450 -0.003730 1.865660 
# 
# From -- ./inp_files/494263.got.cif
#   From: 2010.06.25/outbox.cif.g09.slc.cpg/sg2_248_cif.got.tgz:494263.got - 2010.06.27 13:26:56.
