data_PCOD8022930
_publ_section_title
;
Structure prediction by ZEFSAII (Michael W. Deem and Ramdas Pophale) SiO2 
 PCOD8022930
Probable space group: P -1
;
_chemical_formula_sum "Si O2"
_cell_formula_units_Z 14
_cell_length_a 7.599899
_cell_length_b 8.227739
_cell_length_c 21.281797
_cell_angle_alpha 53.066687
_cell_angle_beta 51.735226
_cell_angle_gamma 34.945826
_cell_volume 585.484335
_symmetry_space_group_name_H-M "P -1"
_symmetry_group_IT_number 2
_symmetry_cell_setting 'triclinic'
loop_
_space_group_symop_operation_xyz
x,y,z
-x,-y,-z
loop_
_atom_site_type_symbol
_atom_site_label
_atom_site_fract_x
_atom_site_fract_y
_atom_site_fract_z
Si Si1 0.577746 0.361503 0.333599
Si Si2 0.435575 0.880930 0.095495
Si Si3 0.126465 0.429498 0.249523
Si Si4 0.517471 0.115741 0.776811
Si Si5 0.942307 0.620432 0.582790
Si Si6 0.605304 0.248564 0.488893
Si Si7 0.750083 0.267378 0.180028
O O1 0.414710 0.687237 0.287787
O O2 0.327357 0.340879 0.397308
O O3 0.746236 0.239024 0.393312
O O4 0.791292 0.189636 0.263638
O O5 0.447155 0.986777 0.135756
O O6 0.707593 0.534474 0.115312
O O7 0.089518 0.993117 0.137082
O O8 0.500000 0.000000 0.000000
O O9 0.994999 0.488885 0.334522
O O10 0.455917 0.342577 0.195105
O O11 0.834250 0.721549 0.208482
O O12 0.199879 0.167401 0.260708
O O13 0.258368 0.364366 0.531666
O O14 0.857397 0.918609 0.535909
O O15 0.500000 0.500000 0.500000
#
# Coordination Sequence:
#
# PCOD8022930 Si02
#       7
#     2   2   2   2   2   2   2
#     4  10  23  40  61  87 120 162 210 248 301 368
#     4  11  23  43  66  94 124 159 201 247 304 372
#     4  11  22  41  62  92 125 161 209 251 302 363
#     4  11  23  40  65  91 120 161 204 255 303 363
#     4  11  24  39  59  85 122 163 203 256 305 353
#     4  12  24  38  58  87 121 160 206 261 306 346
#     4  10  23  41  66  90 124 166 201 248 306 369
#
# _framework density 23.911826000000001
#
# number of rings (size 3 to 8) (size 9 to 14) (size 15 to 20)
#    0.000    1.143    0.000    6.857    0.000   10.286 
#    0.000    4.286    0.000    0.000    0.000    0.000 
#    0.000    0.000    0.000    0.000    0.000    0.000 
#
# Total GULP energy -173550.377506 kJ/mol
# GULP energy per Si atom -12396.455536 kJ/mol
# Density = 2.385740 g / cm^3
# Si number density = 23.911826 Si / 1000 Ang^3
#
#
#
# Elastic Constant Matrix: (Units=GPa)
#
#
# Indices 1 2 3 4 5 6 
#
# 1 58.7600 -5.9390 38.0045 -4.0795 10.7601 4.3613
# 2 -5.9390 82.2629 19.0570 7.2333 9.0990 -18.1485
# 3 38.0045 19.0570 139.0438 2.7920 13.1464 -13.8227
# 4 -4.0795 7.2333 2.7920 24.7053 -5.4739 4.3735
# 5 10.7601 9.0990 13.1464 -5.4739 29.0082 0.2224
# 6 4.3613 -18.1485 -13.8227 4.3735 0.2224 32.8362
#
#
#
# Elastic Compliance Matrix: (Units=1/GPa)
#
#
# Indices 1 2 3 4 5 6 
#
# 1 0.023268 0.002451 -0.006729 0.003519 -0.005648 -0.004999
# 2 0.002451 0.015991 -0.001172 -0.007258 -0.006833 0.009032
# 3 -0.006729 -0.001172 0.009962 -0.003270 -0.002305 0.004891
# 4 0.003519 -0.007258 -0.003270 0.048328 0.011668 -0.012371
# 5 -0.005648 -0.006833 -0.002305 0.011668 0.042003 -0.005835
# 6 -0.004999 0.009032 0.004891 -0.012371 -0.005835 0.039856
#
#
# Mechanical properties :
#
#
# Convention : Reuss Voigt Hill
#
# Bulk Modulus (GPa) = 26.09551 42.47908 34.28730
# Shear Modulus (GPa) = 24.62064 32.57289 28.59676
#
# Velocity S-wave (km/s) = 3.21229 3.69481 3.46197
# Velocity P-wave (km/s) = 4.96944 6.00047 5.50913
#
# Compressibility (1/GPa) = 0.03832077
#
# Stress axis : x y z
#
# Youngs Moduli (GPa) = 42.97737 62.53437 100.38352
#
# Poissons Ratio (x) = -0.15329 0.67552
# Poissons Ratio (y) = -0.10535 0.11765
# Poissons Ratio (z) = 0.28921 0.07329
#
# Static dielectric constant tensor:
#      x y z
#    x 4.721420 -0.108290 -0.019960 
#    y -0.108290 4.381120 0.154160 
#    z -0.019960 0.154160 4.132330 
# 
# 
# High freq. dielectric constant tensor:
#      x y z
#    x 1.965160 -0.008690 0.000970 
#    y -0.008690 1.951990 0.004720 
#    z 0.000970 0.004720 1.928490 
# 
# From -- ./inp_files/51091.got.cif
#   From: 2010.06.25/outbox.cif.g09.slc.cpg/sg2_26_cif.got.tgz:51091.got - 2010.06.27 13:26:56.
