data_PCOD8022695
_publ_section_title
;
Structure prediction by ZEFSAII (Michael W. Deem and Ramdas Pophale) SiO2 
 PCOD8022695
Probable space group: P -1
;
_chemical_formula_sum "Si O2"
_cell_formula_units_Z 16
_cell_length_a 15.589536
_cell_length_b 9.212286
_cell_length_c 11.524808
_cell_angle_alpha 140.489149
_cell_angle_beta 54.357831
_cell_angle_gamma 132.838205
_cell_volume 766.146943
_symmetry_space_group_name_H-M "P -1"
_symmetry_group_IT_number 2
_symmetry_cell_setting 'triclinic'
loop_
_space_group_symop_operation_xyz
x,y,z
-x,-y,-z
loop_
_atom_site_type_symbol
_atom_site_label
_atom_site_fract_x
_atom_site_fract_y
_atom_site_fract_z
Si Si1 0.871847 0.082265 0.257634
Si Si2 0.786394 0.503385 0.568167
Si Si3 0.054841 0.949924 0.312725
Si Si4 0.192404 0.297850 0.731523
Si Si5 0.216878 0.713238 0.132026
Si Si6 0.462891 0.126267 0.212428
Si Si7 0.371169 0.520260 0.525664
Si Si8 0.139255 0.331696 0.153534
O O1 0.834944 0.297944 0.383610
O O2 0.012431 0.206331 0.238158
O O3 0.810363 0.941250 0.339756
O O4 0.830567 0.879537 0.059978
O O5 0.672398 0.419517 0.524824
O O6 0.761251 0.518362 0.734663
O O7 0.882471 0.786049 0.639549
O O8 0.147481 0.840151 0.195925
O O9 0.943078 0.747974 0.203948
O O10 0.000000 0.000000 0.500000
O O11 0.260383 0.329585 0.575379
O O12 0.257692 0.559113 0.912958
O O13 0.135356 0.527414 0.181223
O O14 0.334168 0.922510 0.229453
O O15 0.454136 0.385660 0.343375
O O16 0.554729 0.210773 0.299949
O O17 0.500000 0.000000 0.000000
#
# Coordination Sequence:
#
# PCOD8022695 Si02
#       8
#     2   2   2   2   2   2   2   2
#     4  10  23  38  60  92 134 176 203 241 309 396
#     4  12  23  37  62  91 131 168 195 260 311 373
#     4  12  22  35  59 101 132 161 208 257 319 381
#     4  11  22  40  63  99 131 163 208 256 315 386
#     4  11  23  41  66  91 126 173 209 266 313 369
#     4  11  23  45  69  91 119 163 217 273 316 358
#     4  11  25  41  67  99 119 160 221 265 314 370
#     4  10  23  39  58  92 134 174 207 241 312 386
#
# _framework density 20.883723
#
# number of rings (size 3 to 8) (size 9 to 14) (size 15 to 20)
#    0.000    1.000    5.000    1.500    3.500    2.000 
#    0.000    0.625    0.000    2.250    0.000    0.000 
#    0.000    0.000    0.000    0.000    0.000    0.000 
#
# Total GULP energy -198347.465707 kJ/mol
# GULP energy per Si atom -12396.716607 kJ/mol
# Density = 2.083619 g / cm^3
# Si number density = 20.883723 Si / 1000 Ang^3
#
#
#
# Elastic Constant Matrix: (Units=GPa)
#
#
# Indices 1 2 3 4 5 6 
#
# 1 139.5078 32.0430 53.7155 12.5316 19.5032 -3.0630
# 2 32.0430 58.4209 28.9424 21.3780 -7.8768 -4.9104
# 3 53.7155 28.9424 113.7002 13.5970 6.9936 -12.9862
# 4 12.5316 21.3780 13.5970 28.0199 2.1818 3.2643
# 5 19.5032 -7.8768 6.9936 2.1818 31.5152 7.6213
# 6 -3.0630 -4.9104 -12.9862 3.2643 7.6213 38.6073
#
#
#
# Elastic Compliance Matrix: (Units=1/GPa)
#
#
# Indices 1 2 3 4 5 6 
#
# 1 0.010682 -0.005924 -0.003258 0.001875 -0.007579 0.000336
# 2 -0.005924 0.031727 -0.003398 -0.021135 0.013437 0.001557
# 3 -0.003258 -0.003398 0.012048 -0.002081 -0.002329 0.003998
# 4 0.001875 -0.021135 -0.002081 0.053337 -0.008191 -0.006132
# 5 -0.007579 0.013437 -0.002329 -0.008191 0.042654 -0.007403
# 6 0.000336 0.001557 0.003998 -0.006132 -0.007403 0.029451
#
#
# Mechanical properties :
#
#
# Convention : Reuss Voigt Hill
#
# Bulk Modulus (GPa) = 34.13582 60.11454 47.12518
# Shear Modulus (GPa) = 23.27470 32.75700 28.01585
#
# Velocity S-wave (km/s) = 3.34202 3.96478 3.66664
# Velocity P-wave (km/s) = 5.59225 7.05742 6.36712
#
# Compressibility (1/GPa) = 0.02929474
#
# Stress axis : x y z
#
# Youngs Moduli (GPa) = 93.61708 31.51920 83.00121
#
# Poissons Ratio (x) = 0.18674 0.27042
# Poissons Ratio (y) = 0.55463 0.28207
# Poissons Ratio (z) = 0.30501 0.10711
#
# Static dielectric constant tensor:
#      x y z
#    x 4.978880 0.907640 -0.152430 
#    y 0.907640 4.121710 -0.016010 
#    z -0.152430 -0.016010 3.935200 
# 
# 
# High freq. dielectric constant tensor:
#      x y z
#    x 1.813170 -0.000910 0.019780 
#    y -0.000910 1.804690 0.015670 
#    z 0.019780 0.015670 1.825830 
# 
# From -- ./inp_files/255921.got.cif
#   From: 2010.06.25/outbox.cif.g09.slc.cpg/sg2_128_cif.got.tgz:255921.got - 2010.06.27 13:26:56.
