data_PCOD8022659
_publ_section_title
;
Structure prediction by ZEFSAII (Michael W. Deem and Ramdas Pophale) SiO2 
 PCOD8022659
Probable space group: P -1
;
_chemical_formula_sum "Si O2"
_cell_formula_units_Z 16
_cell_length_a 16.673390
_cell_length_b 13.693160
_cell_length_c 11.117798
_cell_angle_alpha 47.907228
_cell_angle_beta 133.439386
_cell_angle_gamma 156.749257
_cell_volume 720.943085
_symmetry_space_group_name_H-M "P -1"
_symmetry_group_IT_number 2
_symmetry_cell_setting 'triclinic'
loop_
_space_group_symop_operation_xyz
x,y,z
-x,-y,-z
loop_
_atom_site_type_symbol
_atom_site_label
_atom_site_fract_x
_atom_site_fract_y
_atom_site_fract_z
Si Si1 0.168329 0.863608 0.820670
Si Si2 0.372883 0.031183 0.448905
Si Si3 0.920510 0.149951 0.522319
Si Si4 0.401455 0.257465 0.083946
Si Si5 0.797049 0.331372 0.607491
Si Si6 0.407190 0.638642 0.036855
Si Si7 0.030479 0.068447 0.113623
Si Si8 0.109777 0.525522 0.951699
O O1 0.089877 0.860926 0.623618
O O2 0.219618 0.761316 0.934902
O O3 0.377830 0.152515 0.838441
O O4 0.977836 0.671780 0.880486
O O5 0.294677 0.008597 0.514273
O O6 0.202591 0.768534 0.421615
O O7 0.418194 0.205781 0.272180
O O8 0.569535 0.136062 0.586837
O O9 0.099676 0.428215 0.525940
O O10 0.982669 0.070288 0.699249
O O11 0.500000 0.500000 0.000000
O O12 0.531280 0.297170 0.093130
O O13 0.162145 0.027663 0.977203
O O14 0.911710 0.377706 0.796969
O O15 0.255596 0.360531 0.132378
O O16 0.279971 0.639597 0.941317
O O17 0.000000 0.000000 0.000000
#
# Coordination Sequence:
#
# PCOD8022659 Si02
#       8
#     2   2   2   2   2   2   2   2
#     4  10  24  44  68  97 130 176 224 269 322 394
#     4  11  22  38  60  98 133 166 218 268 334 396
#     4  11  24  42  64  92 133 173 214 272 330 384
#     4  12  24  42  67  98 133 175 220 270 332 393
#     4  10  23  37  62  94 132 169 214 276 330 387
#     4  12  24  42  71  95 131 181 220 269 329 389
#     4  12  24  43  67  97 131 171 219 271 326 396
#     4  10  23  45  68  98 132 173 225 270 325 392
#
# _framework density 22.193152000000001
#
# number of rings (size 3 to 8) (size 9 to 14) (size 15 to 20)
#    0.000    1.000    2.500    3.750    0.000    9.500 
#    0.000    2.500    0.000    0.000    0.000    0.000 
#    0.000    0.000    0.000    0.000    0.000    0.000 
#
# Total GULP energy -198393.834601 kJ/mol
# GULP energy per Si atom -12399.614663 kJ/mol
# Density = 2.214264 g / cm^3
# Si number density = 22.193152 Si / 1000 Ang^3
#
#
#
# Elastic Constant Matrix: (Units=GPa)
#
#
# Indices 1 2 3 4 5 6 
#
# 1 98.5690 22.8547 11.6691 3.0580 -7.6861 19.7052
# 2 22.8547 114.6945 32.0842 -7.1530 -11.0811 -11.3934
# 3 11.6691 32.0842 101.2181 -6.2847 -8.5281 -0.6712
# 4 3.0580 -7.1530 -6.2847 28.6449 -0.3425 2.9455
# 5 -7.6861 -11.0811 -8.5281 -0.3425 22.3128 -4.9594
# 6 19.7052 -11.3934 -0.6712 2.9455 -4.9594 36.1174
#
#
#
# Elastic Compliance Matrix: (Units=1/GPa)
#
#
# Indices 1 2 3 4 5 6 
#
# 1 0.012565 -0.003119 -0.000527 -0.001443 0.000864 -0.007613
# 2 -0.003119 0.011232 -0.002633 0.002032 0.004793 0.005688
# 3 -0.000527 -0.002633 0.011124 0.001884 0.002767 -0.000110
# 4 -0.001443 0.002032 0.001884 0.036134 0.001503 -0.001277
# 5 0.000864 0.004793 0.002767 0.001503 0.050327 0.007880
# 6 -0.007613 0.005688 -0.000110 -0.001277 0.007880 0.034819
#
#
# Mechanical properties :
#
#
# Convention : Reuss Voigt Hill
#
# Bulk Modulus (GPa) = 44.71756 49.74419 47.23088
# Shear Modulus (GPa) = 28.37454 33.93992 31.15723
#
# Velocity S-wave (km/s) = 3.57953 3.91487 3.75095
# Velocity P-wave (km/s) = 6.10549 6.54964 6.33146
#
# Compressibility (1/GPa) = 0.02236258
#
# Stress axis : x y z
#
# Youngs Moduli (GPa) = 79.58778 89.03371 89.89236
#
# Poissons Ratio (x) = 0.27770 0.04739
# Poissons Ratio (y) = 0.24824 0.23668
# Poissons Ratio (z) = 0.04196 0.23442
#
# Static dielectric constant tensor:
#      x y z
#    x 4.200380 0.012270 -0.062010 
#    y 0.012270 4.362960 -0.053360 
#    z -0.062010 -0.053360 3.722360 
# 
# 
# High freq. dielectric constant tensor:
#      x y z
#    x 1.877780 0.000280 -0.003140 
#    y 0.000280 1.885840 -0.009060 
#    z -0.003140 -0.009060 1.858400 
# 
# From -- ./inp_files/465820.got.cif
#   From: 2010.06.25/outbox.cif.g09.slc.cpg/sg2_233_cif.got.tgz:465820.got - 2010.06.27 13:26:56.
