data_PCOD8022537
_publ_section_title
;
Structure prediction by ZEFSAII (Michael W. Deem and Ramdas Pophale) SiO2 
 PCOD8022537
Probable space group: P -1
;
_chemical_formula_sum "Si O2"
_cell_formula_units_Z 16
_cell_length_a 7.606678
_cell_length_b 25.488461
_cell_length_c 5.224348
_cell_angle_alpha 117.043421
_cell_angle_beta 121.757041
_cell_angle_gamma 47.774141
_cell_volume 629.516940
_symmetry_space_group_name_H-M "P -1"
_symmetry_group_IT_number 2
_symmetry_cell_setting 'triclinic'
loop_
_space_group_symop_operation_xyz
x,y,z
-x,-y,-z
loop_
_atom_site_type_symbol
_atom_site_label
_atom_site_fract_x
_atom_site_fract_y
_atom_site_fract_z
Si Si1 0.476560 0.434572 0.352675
Si Si2 0.231346 0.016417 0.294965
Si Si3 0.389958 0.388171 0.675822
Si Si4 0.133672 0.186248 0.174414
Si Si5 0.106384 0.699323 0.380844
Si Si6 0.288224 0.278765 0.241085
Si Si7 0.687276 0.066082 0.335447
Si Si8 0.165231 0.837360 0.516546
O O1 0.500000 0.500000 0.500000
O O2 0.312985 0.441960 0.493348
O O3 0.758456 0.360980 0.425610
O O4 0.334826 0.432445 0.990836
O O5 0.167000 0.992125 0.456944
O O6 0.500000 0.000000 0.500000
O O7 0.224670 0.972024 0.959043
O O8 0.030074 0.102110 0.293320
O O9 0.232544 0.352920 0.476558
O O10 0.690057 0.324216 0.742796
O O11 0.209804 0.241589 0.298662
O O12 0.383471 0.105592 0.223374
O O13 0.975272 0.221708 0.397386
O O14 0.968775 0.189966 0.821387
O O15 0.413212 0.773682 0.711988
O O16 0.862446 0.704443 0.102084
O O17 0.745973 0.125510 0.528282
#
# Coordination Sequence:
#
# PCOD8022537 Si02
#       8
#     2   2   2   2   2   2   2   2
#     4  10  22  46  75 106 142 188 229 277 339 405
#     4  12  25  50  70  98 136 180 228 298 353 421
#     4  10  24  44  75 101 144 184 228 285 339 404
#     4  11  25  45  68 101 137 184 230 295 343 418
#     4  10  24  41  73  98 148 175 233 282 342 399
#     4  11  24  44  66 107 138 184 235 285 348 407
#     4  11  27  47  71  98 135 178 235 285 359 421
#     4  11  25  45  72  96 141 180 238 285 360 416
#
# _framework density 25.416312000000001
#
# number of rings (size 3 to 8) (size 9 to 14) (size 15 to 20)
#    0.750    0.500    1.250    3.750    5.250    2.000 
#    4.500    1.250    0.000    0.000    0.000    0.000 
#    0.000    0.000    0.000    0.000    0.000    0.000 
#
# Total GULP energy -198397.208905 kJ/mol
# GULP energy per Si atom -12399.825557 kJ/mol
# Density = 2.535846 g / cm^3
# Si number density = 25.416312 Si / 1000 Ang^3
#
#
#
# Elastic Constant Matrix: (Units=GPa)
#
#
# Indices 1 2 3 4 5 6 
#
# 1 41.8595 -14.4519 28.7399 4.6219 1.0215 4.2880
# 2 -14.4519 66.9101 27.1957 14.5873 0.3622 19.2515
# 3 28.7399 27.1957 170.9442 20.1912 -5.4419 16.3833
# 4 4.6219 14.5873 20.1912 40.9638 3.2898 6.5704
# 5 1.0215 0.3622 -5.4419 3.2898 50.0118 5.7465
# 6 4.2880 19.2515 16.3833 6.5704 5.7465 34.2892
#
#
#
# Elastic Compliance Matrix: (Units=1/GPa)
#
#
# Indices 1 2 3 4 5 6 
#
# 1 0.034255 0.013192 -0.006659 -0.004019 -0.000374 -0.007676
# 2 0.013192 0.024377 -0.004151 -0.006222 0.000927 -0.012316
# 3 -0.006659 -0.004151 0.007915 -0.001688 0.001195 -0.000495
# 4 -0.004019 -0.006222 -0.001688 0.028107 -0.001875 -0.000269
# 5 -0.000374 0.000927 0.001195 -0.001875 0.020727 -0.004159
# 6 -0.007676 -0.012316 -0.000495 -0.000269 -0.004159 0.038023
#
#
# Mechanical properties :
#
#
# Convention : Reuss Voigt Hill
#
# Bulk Modulus (GPa) = 14.02319 40.29792 27.16055
# Shear Modulus (GPa) = 29.00031 40.93498 34.96764
#
# Velocity S-wave (km/s) = 3.38155 4.01756 3.71320
# Velocity P-wave (km/s) = 4.55806 6.11642 5.39381
#
# Compressibility (1/GPa) = 0.07131045
#
# Stress axis : x y z
#
# Youngs Moduli (GPa) = 29.19241 41.02205 126.34547
#
# Poissons Ratio (x) = -0.54118 0.84139
# Poissons Ratio (y) = -0.38512 0.52451
# Poissons Ratio (z) = 0.19441 0.17030
#
# Static dielectric constant tensor:
#      x y z
#    x 4.697320 0.015800 0.229530 
#    y 0.015800 4.554020 -0.012060 
#    z 0.229530 -0.012060 4.531280 
# 
# 
# High freq. dielectric constant tensor:
#      x y z
#    x 2.021420 0.005120 0.014840 
#    y 0.005120 2.014620 0.000070 
#    z 0.014840 0.000070 2.015380 
# 
# From -- ./inp_files/56571.got.cif
#   From: 2010.06.25/outbox.cif.g09.slc.cpg/sg2_29_cif.got.tgz:56571.got - 2010.06.27 13:26:56.
