data_PCOD8022743
_publ_section_title
;
Structure prediction by ZEFSAII (Michael W. Deem and Ramdas Pophale) SiO2 
 PCOD8022743
Probable space group: P -1
;
_chemical_formula_sum "Si O2"
_cell_formula_units_Z 16
_cell_length_a 14.095468
_cell_length_b 5.136169
_cell_length_c 14.809248
_cell_angle_alpha 62.878708
_cell_angle_beta 45.766742
_cell_angle_gamma 72.149796
_cell_volume 683.616205
_symmetry_space_group_name_H-M "P -1"
_symmetry_group_IT_number 2
_symmetry_cell_setting 'triclinic'
loop_
_space_group_symop_operation_xyz
x,y,z
-x,-y,-z
loop_
_atom_site_type_symbol
_atom_site_label
_atom_site_fract_x
_atom_site_fract_y
_atom_site_fract_z
Si Si1 0.147016 0.963807 0.669531
Si Si2 0.285541 0.280030 0.375798
Si Si3 0.652190 0.044276 0.785295
Si Si4 0.428482 0.737401 0.766390
Si Si5 0.356835 0.166980 0.979011
Si Si6 0.417687 0.706455 0.584672
Si Si7 0.803722 0.944596 0.068194
Si Si8 0.041869 0.356564 0.838952
O O1 0.276073 0.769528 0.627582
O O2 0.035839 0.706610 0.769576
O O3 0.163915 0.162154 0.536913
O O4 0.116431 0.175182 0.739878
O O5 0.293397 0.629103 0.319685
O O6 0.420534 0.144374 0.348195
O O7 0.271058 0.167443 0.300703
O O8 0.692344 0.948412 0.873914
O O9 0.492845 0.007280 0.882857
O O10 0.401317 0.561499 0.718169
O O11 0.330671 0.009474 0.792963
O O12 0.396352 0.511404 0.905128
O O13 0.234505 0.124526 0.998609
O O14 0.500000 0.500000 0.500000
O O15 0.500000 0.000000 0.500000
O O16 0.885303 0.693113 0.104607
O O17 0.890898 0.244851 0.963120
#
# Coordination Sequence:
#
# PCOD8022743 Si02
#       8
#     2   2   2   2   2   2   2   2
#     4  12  24  43  62  92 131 176 211 263 307 391
#     4  11  23  39  65  92 133 158 212 258 334 378
#     4  10  23  40  62 100 123 166 199 273 332 387
#     4  11  23  38  64  98 128 169 209 263 327 387
#     4  10  23  38  66  90 136 156 213 263 333 375
#     4  12  25  37  60  94 135 169 207 253 321 391
#     4  11  24  43  64  95 128 175 213 272 302 386
#     4  11  27  42  66  91 133 175 223 250 314 367
#
# _framework density 23.404945999999999
#
# number of rings (size 3 to 8) (size 9 to 14) (size 15 to 20)
#    0.000    1.000    3.750    2.250    8.750    2.500 
#    0.000    0.000    0.000    4.500    0.000    0.000 
#    0.000    0.000    0.000    0.000    0.000    0.000 
#
# Total GULP energy -198408.035470 kJ/mol
# GULP energy per Si atom -12400.502217 kJ/mol
# Density = 2.335168 g / cm^3
# Si number density = 23.404946 Si / 1000 Ang^3
#
#
#
# Elastic Constant Matrix: (Units=GPa)
#
#
# Indices 1 2 3 4 5 6 
#
# 1 71.0918 20.0451 32.5350 -0.9612 15.2569 17.2857
# 2 20.0451 81.5445 16.7732 -0.8707 4.8017 23.8734
# 3 32.5350 16.7732 115.7532 -18.3688 20.7330 12.7610
# 4 -0.9612 -0.8707 -18.3688 43.3736 7.8950 -2.4846
# 5 15.2569 4.8017 20.7330 7.8950 30.4513 3.9245
# 6 17.2857 23.8734 12.7610 -2.4846 3.9245 27.4742
#
#
#
# Elastic Compliance Matrix: (Units=1/GPa)
#
#
# Indices 1 2 3 4 5 6 
#
# 1 0.019320 -0.001144 -0.003274 -0.000388 -0.006034 -0.008814
# 2 -0.001144 0.016628 -0.000832 -0.000907 0.000492 -0.013494
# 3 -0.003274 -0.000832 0.012307 0.006539 -0.008152 -0.001178
# 4 -0.000388 -0.000907 0.006539 0.028048 -0.011670 0.002198
# 5 -0.006034 0.000492 -0.008152 -0.011670 0.044392 -0.000241
# 6 -0.008814 -0.013494 -0.001178 0.002198 -0.000241 0.054449
#
#
# Mechanical properties :
#
#
# Convention : Reuss Voigt Hill
#
# Bulk Modulus (GPa) = 26.48656 45.23289 35.85972
# Shear Modulus (GPa) = 25.22329 33.52889 29.37609
#
# Velocity S-wave (km/s) = 3.28638 3.78902 3.54662
# Velocity P-wave (km/s) = 5.07362 6.20567 5.66798
#
# Compressibility (1/GPa) = 0.03775500
#
# Stress axis : x y z
#
# Youngs Moduli (GPa) = 51.76025 60.14058 81.25149
#
# Poissons Ratio (x) = 0.06882 0.26598
# Poissons Ratio (y) = 0.05923 0.06761
# Poissons Ratio (z) = 0.16944 0.05005
#
# Static dielectric constant tensor:
#      x y z
#    x 4.040290 0.134500 0.031430 
#    y 0.134500 3.925640 -0.105020 
#    z 0.031430 -0.105020 4.538720 
# 
# 
# High freq. dielectric constant tensor:
#      x y z
#    x 1.898440 0.016640 0.005390 
#    y 0.016640 1.922840 -0.007100 
#    z 0.005390 -0.007100 1.941190 
# 
# From -- ./inp_files/525552.got.cif
#   From: 2010.06.25/outbox.cif.g09.slc.cpg/sg2_263_cif.got.tgz:525552.got - 2010.06.27 13:26:56.
