data_PCOD8022996
_publ_section_title
;
Structure prediction by ZEFSAII (Michael W. Deem and Ramdas Pophale) SiO2 
 PCOD8022996
Probable space group: P -1
;
_chemical_formula_sum "Si O2"
_cell_formula_units_Z 16
_cell_length_a 9.089007
_cell_length_b 21.068024
_cell_length_c 6.788715
_cell_angle_alpha 131.967182
_cell_angle_beta 121.996063
_cell_angle_gamma 57.748457
_cell_volume 785.875160
_symmetry_space_group_name_H-M "P -1"
_symmetry_group_IT_number 2
_symmetry_cell_setting 'triclinic'
loop_
_space_group_symop_operation_xyz
x,y,z
-x,-y,-z
loop_
_atom_site_type_symbol
_atom_site_label
_atom_site_fract_x
_atom_site_fract_y
_atom_site_fract_z
Si Si1 0.013147 0.911591 0.201504
Si Si2 0.418799 0.577064 0.946358
Si Si3 0.092282 0.521049 0.413964
Si Si4 0.225464 0.385014 0.894455
Si Si5 0.273065 0.774623 0.358953
Si Si6 0.552912 0.804206 0.325180
Si Si7 0.723472 0.128857 0.047683
Si Si8 0.646770 0.965392 0.870215
O O1 0.100989 0.822002 0.200338
O O2 0.113643 0.914877 0.074112
O O3 0.000000 0.000000 0.500000
O O4 0.816191 0.909117 0.998562
O O5 0.269884 0.554008 0.650286
O O6 0.500000 0.500000 0.000000
O O7 0.590634 0.589610 0.976178
O O8 0.311810 0.668162 0.169686
O O9 0.000000 0.500000 0.500000
O O10 0.934057 0.592434 0.333117
O O11 0.153926 0.431228 0.145061
O O12 0.270247 0.279301 0.736539
O O13 0.445654 0.799971 0.443473
O O14 0.226630 0.811188 0.621959
O O15 0.435120 0.802801 0.044760
O O16 0.599452 0.897260 0.543247
O O17 0.669957 0.047143 0.933500
O O18 0.500000 0.000000 0.000000
#
# Coordination Sequence:
#
# PCOD8022996 Si02
#       8
#     2   2   2   2   2   2   2   2
#     4  11  23  42  64  90 128 169 211 263 314 380
#     4  11  23  43  71  95 129 177 214 265 335 385
#     4  11  23  44  66  97 130 167 219 267 325 391
#     4  10  24  44  66  94 136 168 214 273 324 384
#     4  10  23  43  63  95 128 166 216 260 318 390
#     4  10  23  40  64  95 123 166 213 264 315 378
#     4  11  22  43  64  89 129 169 209 259 319 384
#     4  12  22  41  65  91 127 166 210 257 320 375
#
# _framework density 20.359468
#
# number of rings (size 3 to 8) (size 9 to 14) (size 15 to 20)
#    0.000    1.250    3.750    1.875    3.500    0.000 
#    4.500    0.000    0.000    0.000    0.000    0.000 
#    0.000    0.000    0.000    0.000    0.000    0.000 
#
# Total GULP energy -198380.218634 kJ/mol
# GULP energy per Si atom -12398.763665 kJ/mol
# Density = 2.031313 g / cm^3
# Si number density = 20.359468 Si / 1000 Ang^3
#
#
#
# Elastic Constant Matrix: (Units=GPa)
#
#
# Indices 1 2 3 4 5 6 
#
# 1 95.4876 54.9929 52.3701 -10.8746 -13.1382 -16.8185
# 2 54.9929 143.9628 53.8217 7.5498 -12.2565 -16.6893
# 3 52.3701 53.8217 113.9453 -6.6951 -15.7355 -1.4650
# 4 -10.8746 7.5498 -6.6951 35.1375 -5.6519 3.4792
# 5 -13.1382 -12.2565 -15.7355 -5.6519 41.7736 -3.2706
# 6 -16.8185 -16.6893 -1.4650 3.4792 -3.2706 31.1566
#
#
#
# Elastic Compliance Matrix: (Units=1/GPa)
#
#
# Indices 1 2 3 4 5 6 
#
# 1 0.018225 -0.004005 -0.005561 0.005329 0.003749 0.007230
# 2 -0.004005 0.010376 -0.003235 -0.004416 0.000263 0.003765
# 3 -0.005561 -0.003235 0.013255 0.002275 0.002280 -0.004126
# 4 0.005329 -0.004416 0.002275 0.032612 0.005458 -0.002451
# 5 0.003749 0.000263 0.002280 0.005458 0.027145 0.004512
# 6 0.007230 0.003765 -0.004126 -0.002451 0.004512 0.038568
#
#
# Mechanical properties :
#
#
# Convention : Reuss Voigt Hill
#
# Bulk Modulus (GPa) = 61.52027 75.08503 68.30265
# Shear Modulus (GPa) = 29.20529 34.42762 31.81646
#
# Velocity S-wave (km/s) = 3.79156 4.11662 3.95743
# Velocity P-wave (km/s) = 7.03211 7.71720 7.38261
#
# Compressibility (1/GPa) = 0.01625480
#
# Stress axis : x y z
#
# Youngs Moduli (GPa) = 54.86962 96.37616 75.44089
#
# Poissons Ratio (x) = 0.38599 0.41951
# Poissons Ratio (y) = 0.21976 0.24405
# Poissons Ratio (z) = 0.30512 0.31178
#
# Static dielectric constant tensor:
#      x y z
#    x 3.800890 -0.244050 -0.008260 
#    y -0.244050 3.874450 -0.060920 
#    z -0.008260 -0.060920 3.872310 
# 
# 
# High freq. dielectric constant tensor:
#      x y z
#    x 1.792080 -0.015600 -0.007390 
#    y -0.015600 1.810250 -0.004120 
#    z -0.007390 -0.004120 1.801980 
# 
# From -- ./inp_files/51142.got.cif
#   From: 2010.06.25/outbox.cif.g09.slc.cpg/sg2_26_cif.got.tgz:51142.got - 2010.06.27 13:26:56.
