data_PCOD8022212
_publ_section_title
;
Structure prediction by ZEFSAII (Michael W. Deem and Ramdas Pophale) SiO2 
 PCOD8022212
Probable space group: P -1
;
_chemical_formula_sum "Si O2"
_cell_formula_units_Z 16
_cell_length_a 8.467499
_cell_length_b 14.633350
_cell_length_c 12.520882
_cell_angle_alpha 121.878803
_cell_angle_beta 49.399377
_cell_angle_gamma 84.017046
_cell_volume 719.462127
_symmetry_space_group_name_H-M "P -1"
_symmetry_group_IT_number 2
_symmetry_cell_setting 'triclinic'
loop_
_space_group_symop_operation_xyz
x,y,z
-x,-y,-z
loop_
_atom_site_type_symbol
_atom_site_label
_atom_site_fract_x
_atom_site_fract_y
_atom_site_fract_z
Si Si1 0.164028 0.596023 0.201232
Si Si2 0.437515 0.374276 0.280738
Si Si3 0.009984 0.997410 0.668866
Si Si4 0.051633 0.731717 0.116467
Si Si5 0.142072 0.390360 0.212152
Si Si6 0.795784 0.059189 0.025492
Si Si7 0.318179 0.077717 0.322816
Si Si8 0.569170 0.856375 0.238815
O O1 0.107013 0.498933 0.210310
O O2 0.060032 0.643191 0.153936
O O3 0.969636 0.746618 0.450806
O O4 0.500000 0.500000 0.000000
O O5 0.343341 0.345635 0.196467
O O6 0.594597 0.235603 0.206432
O O7 0.172750 0.526386 0.551171
O O8 0.662127 0.387517 0.156542
O O9 0.322279 0.862487 0.393769
O O10 0.760120 0.014576 0.737748
O O11 0.932609 0.150297 0.777076
O O12 0.014396 0.966131 0.772744
O O13 0.767917 0.813043 0.223591
O O14 0.259971 0.248843 0.004394
O O15 0.582385 0.033402 0.112434
O O16 0.000000 0.000000 0.000000
O O17 0.424514 0.021365 0.364154
#
# Coordination Sequence:
#
# PCOD8022212 Si02
#       8
#     2   2   2   2   2   2   2   2
#     4  12  24  42  69  99 134 179 228 277 341 398
#     4  10  22  45  68  93 135 183 219 277 339 409
#     4  11  24  41  68 101 136 172 228 277 335 401
#     4  11  24  42  69  98 139 176 228 280 346 395
#     4  11  24  44  69  95 137 177 229 275 340 408
#     4  11  24  43  69 103 137 177 222 281 341 398
#     4  12  24  43  71 102 132 179 232 277 331 406
#     4  12  25  43  70 103 134 180 222 287 344 398
#
# _framework density 22.238837
#
# number of rings (size 3 to 8) (size 9 to 14) (size 15 to 20)
#    0.000    0.750    3.750    4.875    1.750    1.000 
#    0.000    1.250    0.000    0.000    0.000    0.000 
#    0.000    0.000    0.000    0.000    0.000    0.000 
#
# Total GULP energy -198369.099119 kJ/mol
# GULP energy per Si atom -12398.068695 kJ/mol
# Density = 2.218822 g / cm^3
# Si number density = 22.238837 Si / 1000 Ang^3
#
#
#
# Elastic Constant Matrix: (Units=GPa)
#
#
# Indices 1 2 3 4 5 6 
#
# 1 66.3718 26.8835 33.4348 5.2342 -12.2198 -11.3758
# 2 26.8835 110.6177 26.9466 -4.3894 -11.2962 -18.8557
# 3 33.4348 26.9466 132.2542 -16.2823 -9.9732 -1.1424
# 4 5.2342 -4.3894 -16.2823 39.6759 0.3716 -7.8140
# 5 -12.2198 -11.2962 -9.9732 0.3716 26.2174 -0.6022
# 6 -11.3758 -18.8557 -1.1424 -7.8140 -0.6022 39.8454
#
#
#
# Elastic Compliance Matrix: (Units=1/GPa)
#
#
# Indices 1 2 3 4 5 6 
#
# 1 0.020778 -0.002738 -0.004671 -0.004284 0.006875 0.003767
# 2 -0.002738 0.011222 -0.001046 0.002121 0.003245 0.004964
# 3 -0.004671 -0.001046 0.009545 0.004270 0.000926 -0.000703
# 4 -0.004284 0.002121 0.004270 0.028850 0.000261 0.005565
# 5 0.006875 0.003245 0.000926 0.000261 0.043191 0.004229
# 6 0.003767 0.004964 -0.000703 0.005565 0.004229 0.029656
#
#
# Mechanical properties :
#
#
# Convention : Reuss Voigt Hill
#
# Bulk Modulus (GPa) = 40.59230 53.75260 47.17245
# Shear Modulus (GPa) = 29.69774 35.94633 32.82204
#
# Velocity S-wave (km/s) = 3.65828 4.02478 3.84590
# Velocity P-wave (km/s) = 6.01136 6.76916 6.40149
#
# Compressibility (1/GPa) = 0.02463522
#
# Stress axis : x y z
#
# Youngs Moduli (GPa) = 48.12816 89.11171 104.76989
#
# Poissons Ratio (x) = 0.24395 0.48942
# Poissons Ratio (y) = 0.13175 0.10955
# Poissons Ratio (z) = 0.22483 0.09318
#
# Static dielectric constant tensor:
#      x y z
#    x 3.695420 -0.107890 -0.219120 
#    y -0.107890 4.262910 -0.309250 
#    z -0.219120 -0.309250 4.516240 
# 
# 
# High freq. dielectric constant tensor:
#      x y z
#    x 1.849650 -0.017320 -0.019450 
#    y -0.017320 1.882480 -0.015660 
#    z -0.019450 -0.015660 1.897500 
# 
# From -- ./inp_files/399256.got.cif
#   From: 2010.06.25/outbox.cif.g09.slc.cpg/sg2_200_cif.got.tgz:399256.got - 2010.06.27 13:26:56.
