data_PCOD8022076
_publ_section_title
;
Structure prediction by ZEFSAII (Michael W. Deem and Ramdas Pophale) SiO2 
 PCOD8022076
Probable space group: P -1
;
_chemical_formula_sum "Si O2"
_cell_formula_units_Z 14
_cell_length_a 11.290495
_cell_length_b 8.608762
_cell_length_c 9.111616
_cell_angle_alpha 102.972136
_cell_angle_beta 73.210052
_cell_angle_gamma 137.945454
_cell_volume 567.866033
_symmetry_space_group_name_H-M "P -1"
_symmetry_group_IT_number 2
_symmetry_cell_setting 'triclinic'
loop_
_space_group_symop_operation_xyz
x,y,z
-x,-y,-z
loop_
_atom_site_type_symbol
_atom_site_label
_atom_site_fract_x
_atom_site_fract_y
_atom_site_fract_z
Si Si1 0.174106 0.886720 0.772013
Si Si2 0.844848 0.374292 0.822021
Si Si3 0.946655 0.956859 0.344361
Si Si4 0.431761 0.810998 0.370335
Si Si5 0.435029 0.764460 0.915718
Si Si6 0.382139 0.545441 0.590810
Si Si7 0.791098 0.985078 0.906859
O O1 0.051213 0.612268 0.758532
O O2 0.133008 0.945823 0.651233
O O3 0.386215 0.056657 0.755752
O O4 0.124633 0.940251 0.945590
O O5 0.723001 0.269697 0.697464
O O6 0.847030 0.197755 0.844063
O O7 0.766123 0.428670 0.983359
O O8 0.798543 0.682502 0.313397
O O9 0.126225 0.091544 0.216683
O O10 0.000000 0.000000 0.500000
O O11 0.350443 0.592258 0.451974
O O12 0.500000 0.000000 0.500000
O O13 0.450532 0.741967 0.728941
O O14 0.573113 0.765621 0.937622
O O15 0.500000 0.000000 0.000000
O O16 0.500000 0.500000 0.500000
#
# Coordination Sequence:
#
# PCOD8022076 Si02
#       7
#     2   2   2   2   2   2   2
#     4  12  26  47  71 106 143 190 248 299 368 436
#     4  11  25  46  73 106 140 190 246 304 369 432
#     4  12  27  47  70 104 149 193 247 301 369 446
#     4  12  27  45  74 108 149 189 248 307 366 444
#     4  10  22  44  74 104 143 188 243 299 365 435
#     4  12  25  47  72 106 150 197 240 302 377 435
#     4  11  24  45  74 100 143 188 242 306 362 436
#
# _framework density 24.653701999999999
#
# number of rings (size 3 to 8) (size 9 to 14) (size 15 to 20)
#    0.000    0.571    2.857    5.143    6.000    0.571 
#    0.000    2.143    0.000    0.000    0.000    0.000 
#    0.000    0.000    0.000    0.000    0.000    0.000 
#
# Total GULP energy -173434.052411 kJ/mol
# GULP energy per Si atom -12388.146601 kJ/mol
# Density = 2.459759 g / cm^3
# Si number density = 24.653702 Si / 1000 Ang^3
#
#
#
# Elastic Constant Matrix: (Units=GPa)
#
#
# Indices 1 2 3 4 5 6 
#
# 1 52.9390 -9.7529 14.2158 0.3523 6.5487 3.7287
# 2 -9.7529 53.3194 -1.6709 -12.6500 1.7558 0.1614
# 3 14.2158 -1.6709 135.6192 18.7921 13.1181 -7.5710
# 4 0.3523 -12.6500 18.7921 37.2627 -3.7867 2.3128
# 5 6.5487 1.7558 13.1181 -3.7867 50.9652 -2.0786
# 6 3.7287 0.1614 -7.5710 2.3128 -2.0786 29.6271
#
#
#
# Elastic Compliance Matrix: (Units=1/GPa)
#
#
# Indices 1 2 3 4 5 6 
#
# 1 0.020879 0.004432 -0.002484 0.002567 -0.002154 -0.003638
# 2 0.004432 0.021436 -0.001358 0.007980 -0.000434 -0.001675
# 3 -0.002484 -0.001358 0.008705 -0.005219 -0.002148 0.002801
# 4 0.002567 0.007980 -0.005219 0.032710 0.003004 -0.004043
# 5 -0.002154 -0.000434 -0.002148 0.003004 0.020728 0.000944
# 6 -0.003638 -0.001675 0.002801 -0.004043 0.000944 0.035318
#
#
# Mechanical properties :
#
#
# Convention : Reuss Voigt Hill
#
# Bulk Modulus (GPa) = 19.15736 27.49573 23.32655
# Shear Modulus (GPa) = 32.05257 39.51003 35.78130
#
# Velocity S-wave (km/s) = 3.60962 4.00759 3.81380
# Velocity P-wave (km/s) = 5.01597 5.70889 5.37361
#
# Compressibility (1/GPa) = 0.05219925
#
# Stress axis : x y z
#
# Youngs Moduli (GPa) = 47.89513 46.65137 114.88072
#
# Poissons Ratio (x) = -0.20677 0.28542
# Poissons Ratio (y) = -0.21228 0.15598
# Poissons Ratio (z) = 0.11899 0.06334
#
# Static dielectric constant tensor:
#      x y z
#    x 4.626970 0.289330 0.173280 
#    y 0.289330 3.377700 0.011730 
#    z 0.173280 0.011730 4.573660 
# 
# 
# High freq. dielectric constant tensor:
#      x y z
#    x 1.982250 0.015840 0.003740 
#    y 0.015840 1.968510 -0.006360 
#    z 0.003740 -0.006360 1.997290 
# 
# From -- ./inp_files/244546.got.cif
#   From: 2010.06.25/outbox.cif.g09.slc.cpg/sg2_123_cif.got.tgz:244546.got - 2010.06.27 13:26:56.
