data_PCOD8022170
_publ_section_title
;
Structure prediction by ZEFSAII (Michael W. Deem and Ramdas Pophale) SiO2 
 PCOD8022170
Probable space group: P -1
;
_chemical_formula_sum "Si O2"
_cell_formula_units_Z 16
_cell_length_a 12.831967
_cell_length_b 8.621336
_cell_length_c 14.558426
_cell_angle_alpha 88.528158
_cell_angle_beta 151.356300
_cell_angle_gamma 84.579803
_cell_volume 748.436899
_symmetry_space_group_name_H-M "P -1"
_symmetry_group_IT_number 2
_symmetry_cell_setting 'triclinic'
loop_
_space_group_symop_operation_xyz
x,y,z
-x,-y,-z
loop_
_atom_site_type_symbol
_atom_site_label
_atom_site_fract_x
_atom_site_fract_y
_atom_site_fract_z
Si Si1 0.945042 0.804456 0.309908
Si Si2 0.056824 0.170497 0.036321
Si Si3 0.193527 0.064260 0.511500
Si Si4 0.640930 0.831885 0.901652
Si Si5 0.584348 0.438566 0.301673
Si Si6 0.322284 0.133085 0.415551
Si Si7 0.415912 0.611464 0.348602
Si Si8 0.808673 0.653772 0.372374
O O1 0.769094 0.761705 0.247777
O O2 0.167926 0.660565 0.474608
O O3 0.825615 0.840913 0.119484
O O4 0.012523 0.963013 0.396735
O O5 0.255902 0.167691 0.119499
O O6 0.131214 0.216305 0.194139
O O7 0.843478 0.305498 0.837743
O O8 0.000000 0.000000 0.000000
O O9 0.211331 0.058646 0.414542
O O10 0.113370 0.243454 0.487091
O O11 0.433617 0.986595 0.745188
O O12 0.551035 0.673562 0.852184
O O13 0.442971 0.506110 0.280353
O O14 0.596136 0.587476 0.241397
O O15 0.439525 0.258816 0.551145
O O16 0.500000 0.000000 0.500000
O O17 0.500000 0.500000 0.500000
O O18 0.000000 0.500000 0.500000
#
# Coordination Sequence:
#
# PCOD8022170 Si02
#       8
#     2   2   2   2   2   2   2   2
#     4  10  23  41  70  94 125 169 219 273 331 386
#     4  12  24  40  65  98 134 177 223 261 322 401
#     4  11  22  43  69  96 129 170 219 270 327 386
#     4  11  23  40  66  97 132 167 219 267 324 397
#     4  10  23  43  62  93 136 170 210 273 328 388
#     4  12  23  41  66  95 132 179 212 268 326 391
#     4  12  25  40  65  96 138 176 218 269 327 388
#     4  10  22  45  67  92 128 169 218 273 331 386
#
# _framework density 21.377887999999999
#
# number of rings (size 3 to 8) (size 9 to 14) (size 15 to 20)
#    0.000    1.000    3.750    2.625    1.750    4.000 
#    0.000    0.000    0.000    0.000    0.000    0.000 
#    0.000    0.000    0.000    0.000    0.000    0.000 
#
# Total GULP energy -198438.424938 kJ/mol
# GULP energy per Si atom -12402.401559 kJ/mol
# Density = 2.132923 g / cm^3
# Si number density = 21.377888 Si / 1000 Ang^3
#
#
#
# Elastic Constant Matrix: (Units=GPa)
#
#
# Indices 1 2 3 4 5 6 
#
# 1 104.0450 42.4425 16.6010 -5.7602 -0.5525 5.5606
# 2 42.4425 123.4011 31.3156 2.4160 7.9186 0.0534
# 3 16.6010 31.3156 107.9482 0.2004 -6.2705 -2.0053
# 4 -5.7602 2.4160 0.2004 28.4799 1.4096 1.7331
# 5 -0.5525 7.9186 -6.2705 1.4096 25.8127 1.7818
# 6 5.5606 0.0534 -2.0053 1.7331 1.7818 43.9032
#
#
#
# Elastic Compliance Matrix: (Units=1/GPa)
#
#
# Indices 1 2 3 4 5 6 
#
# 1 0.011568 -0.003964 -0.000590 0.002717 0.001286 -0.001647
# 2 -0.003964 0.010410 -0.002622 -0.001510 -0.003873 0.000586
# 3 -0.000590 -0.002622 0.010313 -0.000157 0.003276 0.000422
# 4 0.002717 -0.001510 -0.000157 0.035963 -0.001362 -0.001714
# 5 0.001286 -0.003873 0.003276 -0.001362 0.040938 -0.001616
# 6 -0.001647 0.000586 0.000422 -0.001714 -0.001616 0.023138
#
#
# Mechanical properties :
#
#
# Convention : Reuss Voigt Hill
#
# Bulk Modulus (GPa) = 55.74078 57.34580 56.54329
# Shear Modulus (GPa) = 32.75234 35.97485 34.36359
#
# Velocity S-wave (km/s) = 3.91841 4.10665 4.01363
# Velocity P-wave (km/s) = 6.82660 7.02632 6.92718
#
# Compressibility (1/GPa) = 0.01794019
#
# Stress axis : x y z
#
# Youngs Moduli (GPa) = 86.44903 96.06043 96.96087
#
# Poissons Ratio (x) = 0.38076 0.05721
# Poissons Ratio (y) = 0.34266 0.25420
# Poissons Ratio (z) = 0.05101 0.25184
#
# Static dielectric constant tensor:
#      x y z
#    x 4.255240 0.363320 0.055570 
#    y 0.363320 4.111640 0.031760 
#    z 0.055570 0.031760 3.753320 
# 
# 
# High freq. dielectric constant tensor:
#      x y z
#    x 1.850040 0.008870 0.001540 
#    y 0.008870 1.853540 0.003450 
#    z 0.001540 0.003450 1.817610 
# 
# From -- ./inp_files/313304.got.cif
#   From: 2010.06.25/outbox.cif.g09.slc.cpg/sg2_157_cif.got.tgz:313304.got - 2010.06.27 13:26:56.
