data_PCOD8022924
_publ_section_title
;
Structure prediction by ZEFSAII (Michael W. Deem and Ramdas Pophale) SiO2 
 PCOD8022924
Probable space group: P -1
;
_chemical_formula_sum "Si O2"
_cell_formula_units_Z 14
_cell_length_a 9.920004
_cell_length_b 11.359364
_cell_length_c 9.663974
_cell_angle_alpha 69.759879
_cell_angle_beta 43.063835
_cell_angle_gamma 67.555038
_cell_volume 683.358235
_symmetry_space_group_name_H-M "P -1"
_symmetry_group_IT_number 2
_symmetry_cell_setting 'triclinic'
loop_
_space_group_symop_operation_xyz
x,y,z
-x,-y,-z
loop_
_atom_site_type_symbol
_atom_site_label
_atom_site_fract_x
_atom_site_fract_y
_atom_site_fract_z
Si Si1 0.043028 0.810774 0.782084
Si Si2 0.648575 0.747268 0.702534
Si Si3 0.278452 0.532478 0.215793
Si Si4 0.048200 0.096468 0.677894
Si Si5 0.805861 0.256240 0.012244
Si Si6 0.401766 0.146890 0.996156
Si Si7 0.761020 0.260601 0.613081
O O1 0.112452 0.731203 0.900834
O O2 0.144450 0.724287 0.613696
O O3 0.802524 0.837926 0.943031
O O4 0.119893 0.944425 0.671850
O O5 0.789857 0.602878 0.652621
O O6 0.753518 0.841267 0.494738
O O7 0.430043 0.747722 0.802579
O O8 0.633549 0.789702 0.854139
O O9 0.271268 0.604494 0.338439
O O10 0.500000 0.500000 0.000000
O O11 0.147525 0.624850 0.162441
O O12 0.909507 0.148994 0.629982
O O13 0.925209 0.127396 0.900671
O O14 0.547810 0.218811 0.770795
O O15 0.500000 0.000000 0.000000
#
# Coordination Sequence:
#
# PCOD8022924 Si02
#       7
#     2   2   2   2   2   2   2
#     4  12  24  38  59  98 130 147 203 257 311 353
#     4  11  21  40  68  85 115 166 213 238 293 369
#     4   9  19  42  66  84 117 164 215 240 289 370
#     4  11  21  38  64  89 119 162 205 243 300 371
#     4  10  23  40  60  91 126 159 195 260 301 350
#     4  12  21  37  64  91 120 162 196 252 303 359
#     4  11  21  37  63  91 118 162 205 252 294 353
#
# _framework density 20.487058999999999
#
# number of rings (size 3 to 8) (size 9 to 14) (size 15 to 20)
#    0.000    1.143    7.143    1.714    0.000    4.000 
#    0.000    3.571    0.000    0.000    0.000    0.000 
#    0.000    0.000    0.000    0.000    0.000    0.000 
#
# Total GULP energy -173628.881060 kJ/mol
# GULP energy per Si atom -12402.062933 kJ/mol
# Density = 2.044043 g / cm^3
# Si number density = 20.487059 Si / 1000 Ang^3
#
#
#
# Elastic Constant Matrix: (Units=GPa)
#
#
# Indices 1 2 3 4 5 6 
#
# 1 130.9002 37.3444 55.1121 -0.7664 7.9940 -3.5514
# 2 37.3444 111.4182 30.2987 11.3552 4.8396 14.3481
# 3 55.1121 30.2987 95.7602 8.4005 2.5797 3.7923
# 4 -0.7664 11.3552 8.4005 29.0474 13.5738 0.8532
# 5 7.9940 4.8396 2.5797 13.5738 43.4382 1.6786
# 6 -3.5514 14.3481 3.7923 0.8532 1.6786 18.9267
#
#
#
# Elastic Compliance Matrix: (Units=1/GPa)
#
#
# Indices 1 2 3 4 5 6 
#
# 1 0.011555 -0.003305 -0.006165 0.004640 -0.003073 0.005972
# 2 -0.003305 0.012039 -0.001151 -0.004735 0.001178 -0.009407
# 3 -0.006165 -0.001151 0.014854 -0.004860 0.002024 -0.003221
# 4 0.004640 -0.004735 -0.004860 0.044228 -0.014040 0.004685
# 5 -0.003073 0.001178 0.002024 -0.014040 0.027866 -0.003714
# 6 0.005972 -0.009407 -0.003221 0.004685 -0.003714 0.061851
#
#
# Mechanical properties :
#
#
# Convention : Reuss Voigt Hill
#
# Bulk Modulus (GPa) = 58.11905 64.84321 61.48113
# Shear Modulus (GPa) = 25.07902 32.63737 28.85820
#
# Velocity S-wave (km/s) = 3.50257 3.99566 3.75721
# Velocity P-wave (km/s) = 6.69235 7.28056 6.99264
#
# Compressibility (1/GPa) = 0.01720606
#
# Stress axis : x y z
#
# Youngs Moduli (GPa) = 86.54438 83.06608 67.31995
#
# Poissons Ratio (x) = 0.27452 0.41504
# Poissons Ratio (y) = 0.28601 0.07748
# Poissons Ratio (z) = 0.53356 0.09560
#
# Static dielectric constant tensor:
#      x y z
#    x 3.674100 0.083380 -0.239880 
#    y 0.083380 4.059330 0.094510 
#    z -0.239880 0.094510 4.058020 
# 
# 
# High freq. dielectric constant tensor:
#      x y z
#    x 1.781930 0.010850 -0.012060 
#    y 0.010850 1.802180 0.015340 
#    z -0.012060 0.015340 1.805480 
# 
# From -- ./inp_files/175717.got.cif
#   From: 2010.06.25/outbox.cif.g09.slc.cpg/sg2_88_cif.got.tgz:175717.got - 2010.06.27 13:26:56.
