data_PCOD8022611
_publ_section_title
;
Structure prediction by ZEFSAII (Michael W. Deem and Ramdas Pophale) SiO2 
 PCOD8022611
Probable space group: P -1
;
_chemical_formula_sum "Si O2"
_cell_formula_units_Z 16
_cell_length_a 28.607395
_cell_length_b 7.780608
_cell_length_c 8.747012
_cell_angle_alpha 50.026928
_cell_angle_beta 148.233612
_cell_angle_gamma 136.587908
_cell_volume 702.747899
_symmetry_space_group_name_H-M "P -1"
_symmetry_group_IT_number 2
_symmetry_cell_setting 'triclinic'
loop_
_space_group_symop_operation_xyz
x,y,z
-x,-y,-z
loop_
_atom_site_type_symbol
_atom_site_label
_atom_site_fract_x
_atom_site_fract_y
_atom_site_fract_z
Si Si1 0.918713 0.546289 0.334392
Si Si2 0.387533 0.825113 0.249574
Si Si3 0.776949 0.984701 0.780800
Si Si4 0.098952 0.012411 0.595166
Si Si5 0.749107 0.578678 0.700742
Si Si6 0.105397 0.536378 0.337993
Si Si7 0.271062 0.143463 0.799220
Si Si8 0.385331 0.413998 0.259484
O O1 0.884783 0.408959 0.483002
O O2 0.000000 0.500000 0.500000
O O3 0.829853 0.471594 0.007349
O O4 0.980172 0.847987 0.360817
O O5 0.354903 0.645007 0.409321
O O6 0.371481 0.650865 0.154078
O O7 0.500000 0.000000 0.500000
O O8 0.325605 0.987129 0.968752
O O9 0.793314 0.809562 0.805511
O O10 0.664846 0.830616 0.627235
O O11 0.800284 0.241309 0.610594
O O12 0.859743 0.050220 0.101187
O O13 0.123421 0.299566 0.486385
O O14 0.158715 0.957942 0.650191
O O15 0.735894 0.662967 0.450152
O O16 0.000000 0.500000 0.000000
O O17 0.331028 0.327260 0.997589
O O18 0.500000 0.500000 0.500000
#
# Coordination Sequence:
#
# PCOD8022611 Si02
#       8
#     2   2   2   2   2   2   2   2
#     4  12  26  44  67 101 148 190 241 294 354 422
#     4  11  24  49  75 101 142 184 236 304 363 429
#     4  10  23  43  72 100 139 185 237 294 357 420
#     4  11  24  46  66 103 145 185 241 297 342 429
#     4  11  26  44  67 104 145 185 238 296 354 429
#     4  12  24  42  71  98 133 194 242 288 359 417
#     4  11  26  44  74 104 144 187 239 286 373 420
#     4  10  22  48  76 108 143 183 236 305 361 430
#
# _framework density 22.767765000000001
#
# number of rings (size 3 to 8) (size 9 to 14) (size 15 to 20)
#    0.000    1.000    3.750    1.875    5.250    3.000 
#    0.000    1.875    0.000    0.000    0.000    0.000 
#    0.000    0.000    0.000    0.000    0.000    0.000 
#
# Total GULP energy -198291.593526 kJ/mol
# GULP energy per Si atom -12393.224595 kJ/mol
# Density = 2.271594 g / cm^3
# Si number density = 22.767765 Si / 1000 Ang^3
#
#
#
# Elastic Constant Matrix: (Units=GPa)
#
#
# Indices 1 2 3 4 5 6 
#
# 1 139.8073 57.0155 70.0687 -10.2931 -7.1949 11.2604
# 2 57.0155 123.7513 44.2200 -5.2262 -9.4619 30.1495
# 3 70.0687 44.2200 112.3946 -13.3382 -14.6427 23.0829
# 4 -10.2931 -5.2262 -13.3382 39.3539 3.1660 4.0700
# 5 -7.1949 -9.4619 -14.6427 3.1660 32.8565 -3.4450
# 6 11.2604 30.1495 23.0829 4.0700 -3.4450 47.1800
#
#
#
# Elastic Compliance Matrix: (Units=1/GPa)
#
#
# Indices 1 2 3 4 5 6 
#
# 1 0.011687 -0.003814 -0.006474 0.000168 -0.001156 0.002716
# 2 -0.003814 0.011746 -0.000664 0.000860 0.001515 -0.006235
# 3 -0.006474 -0.000664 0.015319 0.003637 0.004289 -0.005527
# 4 0.000168 0.000860 0.003637 0.027400 -0.001240 -0.004824
# 5 -0.001156 0.001515 0.004289 -0.001240 0.032618 -0.000302
# 6 0.002716 -0.006235 -0.005527 -0.004824 -0.000302 0.027629
#
#
# Mechanical properties :
#
#
# Convention : Reuss Voigt Hill
#
# Bulk Modulus (GPa) = 59.34824 79.84016 69.59420
# Shear Modulus (GPa) = 32.48461 37.52137 35.00299
#
# Velocity S-wave (km/s) = 3.78137 4.06397 3.92521
# Velocity P-wave (km/s) = 6.72223 7.56071 7.15377
#
# Compressibility (1/GPa) = 0.01684970
#
# Stress axis : x y z
#
# Youngs Moduli (GPa) = 85.56695 85.13283 65.27662
#
# Poissons Ratio (x) = 0.32472 0.42257
# Poissons Ratio (y) = 0.32638 0.04332
# Poissons Ratio (z) = 0.55392 0.05649
#
# Static dielectric constant tensor:
#      x y z
#    x 4.345460 -0.399900 -0.529090 
#    y -0.399900 2.898010 -2.754760 
#    z -0.529090 -2.754760 0.241350 
# 
# 
# High freq. dielectric constant tensor:
#      x y z
#    x 1.912960 -0.000590 0.002910 
#    y -0.000590 1.923040 0.004250 
#    z 0.002910 0.004250 1.879280 
# 
# From -- ./inp_files/128224.got.cif
#   From: 2010.06.25/outbox.cif.g09.slc.cpg/sg2_65_cif.got.tgz:128224.got - 2010.06.27 13:26:56.
