data_PCOD8022661
_publ_section_title
;
Structure prediction by ZEFSAII (Michael W. Deem and Ramdas Pophale) SiO2 
 PCOD8022661
Probable space group: P -1
;
_chemical_formula_sum "Si O2"
_cell_formula_units_Z 16
_cell_length_a 16.192671
_cell_length_b 5.493767
_cell_length_c 12.424101
_cell_angle_alpha 93.478446
_cell_angle_beta 41.323621
_cell_angle_gamma 101.003216
_cell_volume 710.531506
_symmetry_space_group_name_H-M "P -1"
_symmetry_group_IT_number 2
_symmetry_cell_setting 'triclinic'
loop_
_space_group_symop_operation_xyz
x,y,z
-x,-y,-z
loop_
_atom_site_type_symbol
_atom_site_label
_atom_site_fract_x
_atom_site_fract_y
_atom_site_fract_z
Si Si1 0.341685 0.413012 0.029123
Si Si2 0.422767 0.778212 0.144135
Si Si3 0.225441 0.813292 0.515902
Si Si4 0.359348 0.745727 0.816833
Si Si5 0.172488 0.057035 0.051572
Si Si6 0.601892 0.939206 0.479142
Si Si7 0.796207 0.656896 0.180008
Si Si8 0.090063 0.275999 0.702650
O O1 0.471440 0.309241 0.888225
O O2 0.330766 0.600482 0.950398
O O3 0.342855 0.547996 0.146012
O O4 0.209058 0.204483 0.133475
O O5 0.316759 0.864523 0.323534
O O6 0.500000 0.000000 0.000000
O O7 0.137238 0.531340 0.594093
O O8 0.309572 0.821769 0.542395
O O9 0.153213 0.044936 0.597980
O O10 0.512144 0.780581 0.654518
O O11 0.277223 0.618835 0.790591
O O12 0.309398 0.999882 0.882790
O O13 0.061237 0.812722 0.175250
O O14 0.130450 0.209707 0.995212
O O15 0.685035 0.782605 0.332183
O O16 0.500000 0.000000 0.500000
O O17 0.894153 0.660184 0.183341
#
# Coordination Sequence:
#
# PCOD8022661 Si02
#       8
#     2   2   2   2   2   2   2   2
#     4  10  24  40  70 100 127 166 219 282 337 413
#     4  11  24  45  73  99 131 165 215 282 356 410
#     4  11  27  44  68  99 133 179 221 279 341 396
#     4  11  22  38  65  97 134 171 224 275 341 395
#     4  11  23  43  64  95 132 184 228 273 321 392
#     4  11  20  37  60  98 134 171 217 277 338 396
#     4  10  23  37  63  95 135 182 226 270 328 393
#     4  11  27  45  65  96 141 184 233 271 319 394
#
# _framework density 22.518352
#
# number of rings (size 3 to 8) (size 9 to 14) (size 15 to 20)
#    0.000    1.250    1.250    3.750   14.000    0.500 
#    0.000    1.250    0.000    0.000    0.000    0.000 
#    0.000    0.000    0.000    0.000    0.000    0.000 
#
# Total GULP energy -198238.367902 kJ/mol
# GULP energy per Si atom -12389.897994 kJ/mol
# Density = 2.246710 g / cm^3
# Si number density = 22.518352 Si / 1000 Ang^3
#
#
#
# Elastic Constant Matrix: (Units=GPa)
#
#
# Indices 1 2 3 4 5 6 
#
# 1 86.1406 23.7115 18.7462 -1.7489 2.5254 22.5342
# 2 23.7115 95.7828 29.2862 -9.6224 -0.0454 13.9857
# 3 18.7462 29.2862 78.3524 -3.4654 -0.6386 12.1303
# 4 -1.7489 -9.6224 -3.4654 33.7949 5.9758 -2.8828
# 5 2.5254 -0.0454 -0.6386 5.9758 21.8416 -5.7156
# 6 22.5342 13.9857 12.1303 -2.8828 -5.7156 29.7015
#
#
#
# Elastic Compliance Matrix: (Units=1/GPa)
#
#
# Indices 1 2 3 4 5 6 
#
# 1 0.015481 -0.001776 -0.001330 0.000045 -0.004798 -0.011285
# 2 -0.001776 0.012803 -0.003746 0.003179 -0.001570 -0.003145
# 3 -0.001330 -0.003746 0.015014 0.000176 -0.000356 -0.003410
# 4 0.000045 0.003179 0.000176 0.032058 -0.008814 -0.000187
# 5 -0.004798 -0.001570 -0.000356 -0.008814 0.052332 0.013740
# 6 -0.011285 -0.003145 -0.003410 -0.000187 0.013740 0.047729
#
#
# Mechanical properties :
#
#
# Convention : Reuss Voigt Hill
#
# Bulk Modulus (GPa) = 33.79023 44.86263 39.32643
# Shear Modulus (GPa) = 25.12742 29.63639 27.38190
#
# Velocity S-wave (km/s) = 3.34408 3.63174 3.49088
# Velocity P-wave (km/s) = 5.47254 6.12797 5.80951
#
# Compressibility (1/GPa) = 0.02959435
#
# Stress axis : x y z
#
# Youngs Moduli (GPa) = 64.59618 78.10633 66.60416
#
# Poissons Ratio (x) = 0.13869 0.08860
# Poissons Ratio (y) = 0.11470 0.24949
# Poissons Ratio (z) = 0.08593 0.29258
#
# Static dielectric constant tensor:
#      x y z
#    x 3.485790 0.266570 0.738750 
#    y 0.266570 4.518240 -0.012500 
#    z 0.738750 -0.012500 3.352880 
# 
# 
# High freq. dielectric constant tensor:
#      x y z
#    x 1.884500 0.014210 -0.001650 
#    y 0.014210 1.900740 -0.001320 
#    z -0.001650 -0.001320 1.870530 
# 
# From -- ./inp_files/81609.got.cif
#   From: 2010.06.25/outbox.cif.g09.slc.cpg/sg2_41_cif.got.tgz:81609.got - 2010.06.27 13:26:56.
