data_PCOD8022362
_publ_section_title
;
Structure prediction by ZEFSAII (Michael W. Deem and Ramdas Pophale) SiO2 
 PCOD8022362
Probable space group: P -1
;
_chemical_formula_sum "Si O2"
_cell_formula_units_Z 16
_cell_length_a 9.303796
_cell_length_b 8.851932
_cell_length_c 15.742287
_cell_angle_alpha 36.432653
_cell_angle_beta 66.291238
_cell_angle_gamma 77.773262
_cell_volume 689.927325
_symmetry_space_group_name_H-M "P -1"
_symmetry_group_IT_number 2
_symmetry_cell_setting 'triclinic'
loop_
_space_group_symop_operation_xyz
x,y,z
-x,-y,-z
loop_
_atom_site_type_symbol
_atom_site_label
_atom_site_fract_x
_atom_site_fract_y
_atom_site_fract_z
Si Si1 0.994086 0.084909 0.368159
Si Si2 0.660937 0.072919 0.375313
Si Si3 0.597068 0.574746 0.528771
Si Si4 0.586722 0.593525 0.175557
Si Si5 0.786362 0.164468 0.687352
Si Si6 0.527136 0.278708 0.029577
Si Si7 0.889953 0.022931 0.903125
Si Si8 0.114593 0.692100 0.058926
O O1 0.069592 0.384383 0.195490
O O2 0.808879 0.014874 0.419298
O O3 0.096541 0.907121 0.377470
O O4 0.000000 0.000000 0.500000
O O5 0.682236 0.378615 0.212537
O O6 0.500000 0.000000 0.500000
O O7 0.645167 0.889829 0.378077
O O8 0.500000 0.500000 0.500000
O O9 0.501654 0.479534 0.681426
O O10 0.755435 0.451294 0.545088
O O11 0.464303 0.630949 0.112453
O O12 0.716349 0.853095 0.045105
O O13 0.613880 0.970907 0.813410
O O14 0.878096 0.168200 0.752582
O O15 0.500000 0.500000 0.000000
O O16 0.696010 0.205863 0.045283
O O17 0.942918 0.239980 0.864464
O O18 0.021654 0.840301 0.946334
#
# Coordination Sequence:
#
# PCOD8022362 Si02
#       8
#     2   2   2   2   2   2   2   2
#     4  12  28  45  70  98 143 185 230 285 341 422
#     4  10  25  46  70  96 135 189 230 278 342 416
#     4  11  26  43  71 103 138 185 238 285 338 415
#     4  10  22  45  72  98 141 179 230 282 350 405
#     4  11  26  46  67 102 139 176 235 281 352 403
#     4  11  23  40  75 103 133 179 224 288 335 423
#     4  10  23  45  70 101 135 175 221 300 343 405
#     4  11  23  43  71 104 135 175 229 275 359 401
#
# _framework density 23.190850000000001
#
# number of rings (size 3 to 8) (size 9 to 14) (size 15 to 20)
#    0.000    1.250    2.500    1.500   10.500    4.000 
#    4.500    0.000    0.000    0.000    0.000    0.000 
#    0.000    0.000    0.000    0.000    0.000    0.000 
#
# Total GULP energy -198401.145608 kJ/mol
# GULP energy per Si atom -12400.071601 kJ/mol
# Density = 2.313807 g / cm^3
# Si number density = 23.190850 Si / 1000 Ang^3
#
#
#
# Elastic Constant Matrix: (Units=GPa)
#
#
# Indices 1 2 3 4 5 6 
#
# 1 157.6591 45.2669 22.5550 10.9955 12.6587 -12.3444
# 2 45.2669 136.9898 23.8711 -11.6288 11.7191 -9.5035
# 3 22.5550 23.8711 38.0240 8.7237 9.0557 -4.4434
# 4 10.9955 -11.6288 8.7237 35.2318 -3.6307 3.4505
# 5 12.6587 11.7191 9.0557 -3.6307 33.9884 -1.2400
# 6 -12.3444 -9.5035 -4.4434 3.4505 -1.2400 48.8239
#
#
#
# Elastic Compliance Matrix: (Units=1/GPa)
#
#
# Indices 1 2 3 4 5 6 
#
# 1 0.007728 -0.002218 -0.001873 -0.003023 -0.001882 0.001518
# 2 -0.002218 0.009528 -0.005719 0.005176 -0.000368 0.000398
# 3 -0.001873 -0.005719 0.035728 -0.011191 -0.007963 0.002253
# 4 -0.003023 0.005176 -0.011191 0.034718 0.005919 -0.003078
# 5 -0.001882 -0.000368 -0.007963 0.005919 0.032972 -0.000853
# 6 0.001518 0.000398 0.002253 -0.003078 -0.000853 0.021344
#
#
# Mechanical properties :
#
#
# Convention : Reuss Voigt Hill
#
# Bulk Modulus (GPa) = 29.97232 57.33988 43.65610
# Shear Modulus (GPa) = 28.94203 39.67415 34.30809
#
# Velocity S-wave (km/s) = 3.53653 4.14063 3.85044
# Velocity P-wave (km/s) = 5.44319 6.90208 6.21558
#
# Compressibility (1/GPa) = 0.03336411
#
# Stress axis : x y z
#
# Youngs Moduli (GPa) = 129.39562 104.95688 27.98930
#
# Poissons Ratio (x) = 0.23276 0.05242
# Poissons Ratio (y) = 0.28695 0.16008
# Poissons Ratio (z) = 0.24235 0.60028
#
# Static dielectric constant tensor:
#      x y z
#    x 4.403330 -0.116140 0.179750 
#    y -0.116140 4.806170 -0.443440 
#    z 0.179750 -0.443440 3.944580 
# 
# 
# High freq. dielectric constant tensor:
#      x y z
#    x 1.932530 -0.003070 0.007200 
#    y -0.003070 1.938070 -0.012540 
#    z 0.007200 -0.012540 1.896380 
# 
# From -- ./inp_files/494216.got.cif
#   From: 2010.06.25/outbox.cif.g09.slc.cpg/sg2_248_cif.got.tgz:494216.got - 2010.06.27 13:26:56.
