data_PCOD8022116
_publ_section_title
;
Structure prediction by ZEFSAII (Michael W. Deem and Ramdas Pophale) SiO2 
 PCOD8022116
Probable space group: P -1
;
_chemical_formula_sum "Si O2"
_cell_formula_units_Z 16
_cell_length_a 15.802497
_cell_length_b 11.374080
_cell_length_c 11.064135
_cell_angle_alpha 139.741549
_cell_angle_beta 146.394290
_cell_angle_gamma 50.856041
_cell_volume 711.241282
_symmetry_space_group_name_H-M "P -1"
_symmetry_group_IT_number 2
_symmetry_cell_setting 'triclinic'
loop_
_space_group_symop_operation_xyz
x,y,z
-x,-y,-z
loop_
_atom_site_type_symbol
_atom_site_label
_atom_site_fract_x
_atom_site_fract_y
_atom_site_fract_z
Si Si1 0.183745 0.416258 0.295675
Si Si2 0.924417 0.451300 0.498416
Si Si3 0.082042 0.725908 0.255398
Si Si4 0.795427 0.549942 0.010097
Si Si5 0.508943 0.958822 0.173857
Si Si6 0.731678 0.934629 0.214092
Si Si7 0.407806 0.686979 0.046253
Si Si8 0.470151 0.676047 0.377286
O O1 0.140379 0.386832 0.363752
O O2 0.113908 0.613914 0.328681
O O3 0.363992 0.415115 0.491879
O O4 0.097184 0.268359 0.991996
O O5 0.000000 0.500000 0.500000
O O6 0.069139 0.375681 0.683777
O O7 0.775648 0.322235 0.201116
O O8 0.122161 0.937037 0.485013
O O9 0.169360 0.618329 0.167832
O O10 0.763399 0.734178 0.040225
O O11 0.648797 0.486426 0.863641
O O12 0.655111 0.896758 0.223844
O O13 0.480647 0.826971 0.148663
O O14 0.539939 0.164402 0.413317
O O15 0.367670 0.950880 0.907621
O O16 0.434329 0.762080 0.271462
O O17 0.500000 0.500000 0.000000
#
# Coordination Sequence:
#
# PCOD8022116 Si02
#       8
#     2   2   2   2   2   2   2   2
#     4  10  23  39  68  96 133 180 222 277 342 393
#     4  11  23  42  65  99 131 176 229 273 331 407
#     4  10  22  45  64  98 140 175 221 280 334 405
#     4  11  24  42  71 102 134 181 224 275 343 397
#     4  11  26  41  64 106 134 173 232 279 335 402
#     4  11  24  42  69 100 140 177 222 282 336 407
#     4  12  24  44  70  95 133 181 227 277 335 401
#     4  12  23  43  69  96 140 177 227 280 334 401
#
# _framework density 22.495882999999999
#
# number of rings (size 3 to 8) (size 9 to 14) (size 15 to 20)
#    0.000    1.000    3.750    2.625    3.500    2.000 
#    0.000    6.875    0.000    4.500    0.000    0.000 
#    0.000    0.000    0.000    0.000    0.000    0.000 
#
# Total GULP energy -198230.245632 kJ/mol
# GULP energy per Si atom -12389.390352 kJ/mol
# Density = 2.244468 g / cm^3
# Si number density = 22.495883 Si / 1000 Ang^3
#
#
#
# Elastic Constant Matrix: (Units=GPa)
#
#
# Indices 1 2 3 4 5 6 
#
# 1 104.0174 27.6471 43.3806 -10.2230 -0.4224 12.3774
# 2 27.6471 64.1229 35.1819 6.6641 9.8448 11.2813
# 3 43.3806 35.1819 139.6565 -6.5441 21.5289 5.9848
# 4 -10.2230 6.6641 -6.5441 38.1819 -2.0539 4.9577
# 5 -0.4224 9.8448 21.5289 -2.0539 40.1453 -2.2481
# 6 12.3774 11.2813 5.9848 4.9577 -2.2481 36.8926
#
#
#
# Elastic Compliance Matrix: (Units=1/GPa)
#
#
# Indices 1 2 3 4 5 6 
#
# 1 0.012755 -0.004200 -0.003022 0.004158 0.002836 -0.002891
# 2 -0.004200 0.021156 -0.003498 -0.005099 -0.003844 -0.004042
# 3 -0.003022 -0.003498 0.009698 0.001221 -0.004308 0.000084
# 4 0.004158 -0.005099 0.001221 0.029001 0.001909 -0.003815
# 5 0.002836 -0.003844 -0.004308 0.001909 0.028424 0.002398
# 6 -0.002891 -0.004042 0.000084 -0.003815 0.002398 0.029957
#
#
# Mechanical properties :
#
#
# Convention : Reuss Voigt Hill
#
# Bulk Modulus (GPa) = 45.10992 57.80178 51.45585
# Shear Modulus (GPa) = 31.28499 36.48311 33.88405
#
# Velocity S-wave (km/s) = 3.73325 4.03149 3.88523
# Velocity P-wave (km/s) = 6.21924 6.88627 6.56124
#
# Compressibility (1/GPa) = 0.02216807
#
# Stress axis : x y z
#
# Youngs Moduli (GPa) = 78.40253 47.26719 103.11235
#
# Poissons Ratio (x) = 0.19852 0.31164
# Poissons Ratio (y) = 0.32929 0.36071
# Poissons Ratio (z) = 0.23696 0.16535
#
# Static dielectric constant tensor:
#      x y z
#    x 4.408650 0.050250 -0.039350 
#    y 0.050250 3.782000 -0.286150 
#    z -0.039350 -0.286150 4.371680 
# 
# 
# High freq. dielectric constant tensor:
#      x y z
#    x 1.914430 -0.001320 -0.000810 
#    y -0.001320 1.849980 -0.015910 
#    z -0.000810 -0.015910 1.903450 
# 
# From -- ./inp_files/464922.got.cif
#   From: 2010.06.25/outbox.cif.g09.slc.cpg/sg2_233_cif.got.tgz:464922.got - 2010.06.27 13:26:56.
