data_PCOD8022811
_publ_section_title
;
Structure prediction by ZEFSAII (Michael W. Deem and Ramdas Pophale) SiO2 
 PCOD8022811
Probable space group: P -1
;
_chemical_formula_sum "Si O2"
_cell_formula_units_Z 14
_cell_length_a 12.516464
_cell_length_b 8.707012
_cell_length_c 9.449666
_cell_angle_alpha 44.826258
_cell_angle_beta 79.371422
_cell_angle_gamma 64.596018
_cell_volume 644.077260
_symmetry_space_group_name_H-M "P -1"
_symmetry_group_IT_number 2
_symmetry_cell_setting 'triclinic'
loop_
_space_group_symop_operation_xyz
x,y,z
-x,-y,-z
loop_
_atom_site_type_symbol
_atom_site_label
_atom_site_fract_x
_atom_site_fract_y
_atom_site_fract_z
Si Si1 0.470536 0.713272 0.978312
Si Si2 0.615715 0.399229 0.634311
Si Si3 0.733455 0.552243 0.090467
Si Si4 0.282642 0.216219 0.586303
Si Si5 0.889026 0.540457 0.299479
Si Si6 0.811969 0.149020 0.540495
Si Si7 0.856764 0.654017 0.742882
O O1 0.405671 0.683424 0.153623
O O2 0.594036 0.730421 0.979296
O O3 0.500000 0.500000 0.000000
O O4 0.380326 0.949701 0.766739
O O5 0.500000 0.500000 0.500000
O O6 0.658663 0.607569 0.503161
O O7 0.717028 0.176805 0.669978
O O8 0.788667 0.670604 0.116583
O O9 0.744251 0.296311 0.317591
O O10 0.812518 0.507750 0.958089
O O11 0.159297 0.297031 0.654691
O O12 0.248118 0.231183 0.421324
O O13 0.902889 0.263348 0.496121
O O14 0.017329 0.534008 0.231882
O O15 0.880358 0.865831 0.675472
#
# Coordination Sequence:
#
# PCOD8022811 Si02
#       7
#     2   2   2   2   2   2   2
#     4  12  25  42  64  97 134 160 210 265 317 382
#     4  11  23  43  66  89 132 170 209 258 315 378
#     4  10  23  39  63  94 121 161 220 247 311 372
#     4  11  26  40  65  97 128 170 206 260 325 372
#     4   9  22  45  61  93 126 164 217 262 303 376
#     4   9  22  39  63  96 117 165 214 253 314 366
#     4  12  22  41  68  89 131 167 208 263 315 365
#
# _framework density 21.736522000000001
#
# number of rings (size 3 to 8) (size 9 to 14) (size 15 to 20)
#    0.857    0.571    1.429    3.000    4.000    2.286 
#    0.000    0.000    0.000    5.143    0.000    0.000 
#    0.000    0.000    0.000    0.000    0.000    0.000 
#
# Total GULP energy -173552.949515 kJ/mol
# GULP energy per Si atom -12396.639251 kJ/mol
# Density = 2.168705 g / cm^3
# Si number density = 21.736522 Si / 1000 Ang^3
#
#
#
# Elastic Constant Matrix: (Units=GPa)
#
#
# Indices 1 2 3 4 5 6 
#
# 1 66.0901 30.7384 32.3053 9.1991 -5.8530 -21.8178
# 2 30.7384 73.7412 23.7644 7.1434 -10.5008 -10.1037
# 3 32.3053 23.7644 92.6077 23.6794 0.0750 -9.2735
# 4 9.1991 7.1434 23.6794 37.8934 -6.7218 -6.0562
# 5 -5.8530 -10.5008 0.0750 -6.7218 26.2370 14.0948
# 6 -21.8178 -10.1037 -9.2735 -6.0562 14.0948 33.2403
#
#
#
# Elastic Compliance Matrix: (Units=1/GPa)
#
#
# Indices 1 2 3 4 5 6 
#
# 1 0.026112 -0.007759 -0.005575 0.000106 -0.005636 0.015634
# 2 -0.007759 0.018138 -0.002499 0.000831 0.007531 -0.003318
# 3 -0.005575 -0.002499 0.015659 -0.008741 -0.004721 0.000359
# 4 0.000106 0.000831 -0.008741 0.033263 0.008786 0.000219
# 5 -0.005636 0.007531 -0.004721 0.008786 0.055349 -0.024596
# 6 0.015634 -0.003318 0.000359 0.000219 -0.024596 0.049907
#
#
# Mechanical properties :
#
#
# Convention : Reuss Voigt Hill
#
# Bulk Modulus (GPa) = 35.40615 45.11725 40.26170
# Shear Modulus (GPa) = 20.87636 29.18284 25.02960
#
# Velocity S-wave (km/s) = 3.10244 3.66809 3.39706
# Velocity P-wave (km/s) = 5.39978 6.22425 5.82662
#
# Compressibility (1/GPa) = 0.02824368
#
# Stress axis : x y z
#
# Youngs Moduli (GPa) = 38.29689 55.13412 63.86109
#
# Poissons Ratio (x) = 0.42776 0.35602
# Poissons Ratio (y) = 0.29713 0.15958
# Poissons Ratio (z) = 0.21350 0.13777
#
# Static dielectric constant tensor:
#      x y z
#    x 3.884150 -0.130830 -0.087370 
#    y -0.130830 3.908910 0.319860 
#    z -0.087370 0.319860 3.912390 
# 
# 
# High freq. dielectric constant tensor:
#      x y z
#    x 1.850810 -0.012480 -0.000980 
#    y -0.012480 1.849880 0.022500 
#    z -0.000980 0.022500 1.849430 
# 
# From -- ./inp_files/241971.got.cif
#   From: 2010.06.25/outbox.cif.g09.slc.cpg/sg2_121_cif.got.tgz:241971.got - 2010.06.27 13:26:56.
