data_PCOD8022123
_publ_section_title
;
Structure prediction by ZEFSAII (Michael W. Deem and Ramdas Pophale) SiO2 
 PCOD8022123
Probable space group: P -1
;
_chemical_formula_sum "Si O2"
_cell_formula_units_Z 16
_cell_length_a 8.323659
_cell_length_b 18.901793
_cell_length_c 11.416818
_cell_angle_alpha 151.365656
_cell_angle_beta 123.567703
_cell_angle_gamma 62.251378
_cell_volume 716.362096
_symmetry_space_group_name_H-M "P -1"
_symmetry_group_IT_number 2
_symmetry_cell_setting 'triclinic'
loop_
_space_group_symop_operation_xyz
x,y,z
-x,-y,-z
loop_
_atom_site_type_symbol
_atom_site_label
_atom_site_fract_x
_atom_site_fract_y
_atom_site_fract_z
Si Si1 0.047758 0.435466 0.298165
Si Si2 0.005164 0.296575 0.501703
Si Si3 0.283105 0.799204 0.170277
Si Si4 0.725584 0.133440 0.002405
Si Si5 0.687981 0.311677 0.583730
Si Si6 0.383469 0.948422 0.650001
Si Si7 0.390314 0.401287 0.908725
Si Si8 0.408662 0.254548 0.186857
O O1 0.024551 0.551209 0.354808
O O2 0.265331 0.384762 0.302083
O O3 0.000000 0.500000 0.500000
O O4 0.905896 0.297477 0.012047
O O5 0.879300 0.279178 0.542880
O O6 0.227948 0.292560 0.623636
O O7 0.936046 0.162534 0.190460
O O8 0.257031 0.866044 0.128762
O O9 0.300839 0.936547 0.467088
O O10 0.469704 0.700566 0.110763
O O11 0.618205 0.980049 0.780664
O O12 0.587065 0.266469 0.182318
O O13 0.672955 0.207054 0.539125
O O14 0.493428 0.270400 0.374155
O O15 0.704138 0.484322 0.874736
O O16 0.299237 0.090495 0.889120
O O17 0.500000 0.500000 0.000000
#
# Coordination Sequence:
#
# PCOD8022123 Si02
#       8
#     2   2   2   2   2   2   2   2
#     4  12  23  40  65  99 130 162 217 274 326 382
#     4  11  24  41  66 100 127 168 220 268 324 387
#     4  12  23  42  69  93 138 171 213 275 318 388
#     4   9  23  43  67  94 132 171 220 264 319 390
#     4  11  22  42  69  92 136 169 219 268 319 390
#     4  10  22  45  65  92 135 175 219 259 326 380
#     4  12  24  41  65 100 131 173 210 270 337 372
#     4   9  24  39  68  94 129 173 214 264 327 379
#
# _framework density 22.335075
#
# number of rings (size 3 to 8) (size 9 to 14) (size 15 to 20)
#    0.750    0.500    3.750    1.875    1.750    1.500 
#    0.000    1.875    0.000    0.000    0.000    0.000 
#    0.000    0.000    0.000    0.000    0.000    0.000 
#
# Total GULP energy -198305.720251 kJ/mol
# GULP energy per Si atom -12394.107516 kJ/mol
# Density = 2.228424 g / cm^3
# Si number density = 22.335075 Si / 1000 Ang^3
#
#
#
# Elastic Constant Matrix: (Units=GPa)
#
#
# Indices 1 2 3 4 5 6 
#
# 1 63.3769 20.9526 30.1939 -13.0010 14.2597 13.7924
# 2 20.9526 40.2339 12.2427 -6.7095 -5.6406 10.4223
# 3 30.1939 12.2427 114.4608 -26.7073 1.6393 5.6647
# 4 -13.0010 -6.7095 -26.7073 37.9781 2.2222 0.8375
# 5 14.2597 -5.6406 1.6393 2.2222 40.1120 1.4635
# 6 13.7924 10.4223 5.6647 0.8375 1.4635 35.5215
#
#
#
# Elastic Compliance Matrix: (Units=1/GPa)
#
#
# Indices 1 2 3 4 5 6 
#
# 1 0.026291 -0.011658 -0.004125 0.004804 -0.010872 -0.005795
# 2 -0.011658 0.033984 -0.000028 0.001593 0.009050 -0.005851
# 3 -0.004125 -0.000028 0.011365 0.006545 0.000649 -0.000384
# 4 0.004804 0.001593 0.006545 0.033150 -0.003441 -0.004016
# 5 -0.010872 0.009050 0.000649 -0.003441 0.030221 0.000299
# 6 -0.005795 -0.005851 -0.000384 -0.004016 0.000299 0.032262
#
#
# Mechanical properties :
#
#
# Convention : Reuss Voigt Hill
#
# Bulk Modulus (GPa) = 24.98918 38.31669 31.65293
# Shear Modulus (GPa) = 23.55888 33.03446 28.29667
#
# Velocity S-wave (km/s) = 3.25128 3.85000 3.56324
# Velocity P-wave (km/s) = 5.03061 6.07914 5.57956
#
# Compressibility (1/GPa) = 0.04001732
#
# Stress axis : x y z
#
# Youngs Moduli (GPa) = 38.03614 29.42532 87.99187
#
# Poissons Ratio (x) = 0.34305 0.36297
# Poissons Ratio (y) = 0.44343 0.00247
# Poissons Ratio (z) = 0.15690 0.00082
#
# Static dielectric constant tensor:
#      x y z
#    x 3.968530 0.037430 0.077270 
#    y 0.037430 3.649500 -0.176160 
#    z 0.077270 -0.176160 4.474620 
# 
# 
# High freq. dielectric constant tensor:
#      x y z
#    x 1.870650 0.010940 0.003500 
#    y 0.010940 1.855220 -0.012150 
#    z 0.003500 -0.012150 1.903770 
# 
# From -- ./inp_files/387748.got.cif
#   From: 2010.06.25/outbox.cif.g09.slc.cpg/sg2_194_cif.got.tgz:387748.got - 2010.06.27 13:26:56.
