data_PCOD8022872
_publ_section_title
;
Structure prediction by ZEFSAII (Michael W. Deem and Ramdas Pophale) SiO2 
 PCOD8022872
Probable space group: P -1
;
_chemical_formula_sum "Si O2"
_cell_formula_units_Z 16
_cell_length_a 13.818079
_cell_length_b 12.186690
_cell_length_c 11.446530
_cell_angle_alpha 120.252917
_cell_angle_beta 30.977098
_cell_angle_gamma 130.408115
_cell_volume 748.767264
_symmetry_space_group_name_H-M "P -1"
_symmetry_group_IT_number 2
_symmetry_cell_setting 'triclinic'
loop_
_space_group_symop_operation_xyz
x,y,z
-x,-y,-z
loop_
_atom_site_type_symbol
_atom_site_label
_atom_site_fract_x
_atom_site_fract_y
_atom_site_fract_z
Si Si1 0.796950 0.353468 0.168407
Si Si2 0.532386 0.063712 0.176579
Si Si3 0.990552 0.261601 0.120379
Si Si4 0.659799 0.970108 0.389832
Si Si5 0.256618 0.079635 0.261418
Si Si6 0.391926 0.388129 0.197940
Si Si7 0.838392 0.556055 0.727666
Si Si8 0.560888 0.654310 0.337338
O O1 0.728396 0.229935 0.074578
O O2 0.597127 0.384673 0.409219
O O3 0.827971 0.293072 0.228788
O O4 0.000000 0.500000 0.000000
O O5 0.388093 0.013455 0.415772
O O6 0.364300 0.049423 0.244790
O O7 0.656063 0.972003 0.969096
O O8 0.056724 0.345786 0.217332
O O9 0.207415 0.323838 0.850367
O O10 0.893990 0.093652 0.168606
O O11 0.622388 0.812793 0.307741
O O12 0.500000 0.000000 0.500000
O O13 0.330267 0.249565 0.267924
O O14 0.000000 0.000000 0.500000
O O15 0.193060 0.354725 0.298840
O O16 0.443055 0.530024 0.296580
O O17 0.604176 0.419297 0.922477
O O18 0.000000 0.500000 0.500000
#
# Coordination Sequence:
#
# PCOD8022872 Si02
#       8
#     2   2   2   2   2   2   2   2
#     4  11  25  44  69  96 134 177 220 274 338 399
#     4  10  26  46  67 100 132 178 229 279 333 405
#     4  11  23  41  67 100 129 176 215 275 341 397
#     4  11  22  44  69  98 136 171 220 279 341 400
#     4  11  27  47  68  96 134 182 231 276 336 396
#     4  10  24  43  64  98 130 168 222 273 323 404
#     4  10  23  39  67  96 130 171 211 268 337 387
#     4  10  23  43  64  98 131 168 221 274 330 400
#
# _framework density 21.368455000000001
#
# number of rings (size 3 to 8) (size 9 to 14) (size 15 to 20)
#    0.000    1.500    2.500    1.125    8.750    5.500 
#    0.000    0.000    0.000    0.000    0.000    0.000 
#    0.000    0.000    0.000    0.000    0.000    0.000 
#
# Total GULP energy -198286.109628 kJ/mol
# GULP energy per Si atom -12392.881852 kJ/mol
# Density = 2.131982 g / cm^3
# Si number density = 21.368455 Si / 1000 Ang^3
#
#
#
# Elastic Constant Matrix: (Units=GPa)
#
#
# Indices 1 2 3 4 5 6 
#
# 1 83.9455 29.8566 26.9957 10.9061 -7.6526 8.4346
# 2 29.8566 130.5129 64.8417 -3.5984 1.2210 7.7866
# 3 26.9957 64.8417 122.0780 2.1221 -10.2274 3.9590
# 4 10.9061 -3.5984 2.1221 40.3216 -2.4794 0.9751
# 5 -7.6526 1.2210 -10.2274 -2.4794 31.9397 -2.7320
# 6 8.4346 7.7866 3.9590 0.9751 -2.7320 31.3113
#
#
#
# Elastic Compliance Matrix: (Units=1/GPa)
#
#
# Indices 1 2 3 4 5 6 
#
# 1 0.014266 -0.002505 -0.001459 -0.003785 0.002522 -0.002697
# 2 -0.002505 0.011201 -0.005609 0.001840 -0.002827 -0.001705
# 3 -0.001459 -0.005609 0.011788 -0.000517 0.003653 0.000632
# 4 -0.003785 0.001840 -0.000517 0.026072 0.000872 -0.000108
# 5 0.002522 -0.002827 0.003653 0.000872 0.033469 0.002455
# 6 -0.002697 -0.001705 0.000632 -0.000108 0.002455 0.033226
#
#
# Mechanical properties :
#
#
# Convention : Reuss Voigt Hill
#
# Bulk Modulus (GPa) = 55.22707 64.43605 59.83156
# Shear Modulus (GPa) = 32.21582 35.03735 33.62658
#
# Velocity S-wave (km/s) = 3.88704 4.05368 3.97124
# Velocity P-wave (km/s) = 6.78577 7.22011 7.00631
#
# Compressibility (1/GPa) = 0.01810706
#
# Stress axis : x y z
#
# Youngs Moduli (GPa) = 70.09891 89.28002 84.83325
#
# Poissons Ratio (x) = 0.22369 0.12380
# Poissons Ratio (y) = 0.17563 0.47581
# Poissons Ratio (z) = 0.10230 0.50075
#
# Static dielectric constant tensor:
#      x y z
#    x 3.863300 -0.021440 -0.237090 
#    y -0.021440 3.755950 -0.300060 
#    z -0.237090 -0.300060 4.093380 
# 
# 
# High freq. dielectric constant tensor:
#      x y z
#    x 1.836030 0.007290 -0.014010 
#    y 0.007290 1.843320 -0.001070 
#    z -0.014010 -0.001070 1.851190 
# 
# From -- ./inp_files/451591.got.cif
#   From: 2010.06.25/outbox.cif.g09.slc.cpg/sg2_226_cif.got.tgz:451591.got - 2010.06.27 13:26:56.
