data_PCOD8022015
_publ_section_title
;
Structure prediction by ZEFSAII (Michael W. Deem and Ramdas Pophale) SiO2 
 PCOD8022015
Probable space group: P -1
;
_chemical_formula_sum "Si O2"
_cell_formula_units_Z 14
_cell_length_a 11.941777
_cell_length_b 5.408234
_cell_length_c 22.669410
_cell_angle_alpha 85.411444
_cell_angle_beta 146.456864
_cell_angle_gamma 115.262133
_cell_volume 610.213785
_symmetry_space_group_name_H-M "P -1"
_symmetry_group_IT_number 2
_symmetry_cell_setting 'triclinic'
loop_
_space_group_symop_operation_xyz
x,y,z
-x,-y,-z
loop_
_atom_site_type_symbol
_atom_site_label
_atom_site_fract_x
_atom_site_fract_y
_atom_site_fract_z
Si Si1 0.398575 0.515601 0.223842
Si Si2 0.728646 0.283956 0.349752
Si Si3 0.338373 0.624941 0.418663
Si Si4 0.796521 0.226430 0.249408
Si Si5 0.727723 0.524599 0.959057
Si Si6 0.064935 0.423843 0.179845
Si Si7 0.438054 0.253215 0.025421
O O1 0.564776 0.394740 0.295756
O O2 0.215201 0.394865 0.086800
O O3 0.207175 0.341670 0.199909
O O4 0.579099 0.905562 0.304242
O O5 0.803953 0.368635 0.312721
O O6 0.000000 0.500000 0.500000
O O7 0.500000 0.500000 0.500000
O O8 0.260464 0.624200 0.316836
O O9 0.089737 0.368200 0.357960
O O10 0.500000 0.000000 0.500000
O O11 0.563305 0.835042 0.153967
O O12 0.721909 0.360395 0.162803
O O13 0.696306 0.762055 0.972443
O O14 0.982138 0.594274 0.100006
O O15 0.785986 0.108428 0.092359
O O16 0.500000 0.500000 0.000000
#
# Coordination Sequence:
#
# PCOD8022015 Si02
#       7
#     2   2   2   2   2   2   2
#     4  11  25  44  71 109 142 176 237 292 359 413
#     4  11  25  44  72  99 139 196 233 281 341 425
#     4  12  31  47  70 101 144 191 234 290 347 414
#     4  10  24  46  68 102 137 182 243 286 347 414
#     4  10  22  44  72 105 136 184 228 300 353 418
#     4  11  27  44  70 108 142 184 234 293 361 416
#     4  11  22  41  76  98 140 183 238 290 349 417
#
# _framework density 22.942779999999999
#
# number of rings (size 3 to 8) (size 9 to 14) (size 15 to 20)
#    0.000    1.143    1.429    2.571   12.000    2.857 
#    0.000    0.000    0.000    0.000    0.000    0.000 
#    0.000    0.000    0.000    0.000    0.000    0.000 
#
# Total GULP energy -173521.519444 kJ/mol
# GULP energy per Si atom -12394.394246 kJ/mol
# Density = 2.289056 g / cm^3
# Si number density = 22.942780 Si / 1000 Ang^3
#
#
#
# Elastic Constant Matrix: (Units=GPa)
#
#
# Indices 1 2 3 4 5 6 
#
# 1 111.2254 20.2084 56.1873 -2.4083 7.8709 -4.5383
# 2 20.2084 95.1915 52.6542 -11.3451 -0.1304 -15.8747
# 3 56.1873 52.6542 160.5105 -17.2276 -7.9381 -6.3389
# 4 -2.4083 -11.3451 -17.2276 27.9674 -5.4976 6.0056
# 5 7.8709 -0.1304 -7.9381 -5.4976 47.3226 -6.3454
# 6 -4.5383 -15.8747 -6.3389 6.0056 -6.3454 41.7098
#
#
#
# Elastic Compliance Matrix: (Units=1/GPa)
#
#
# Indices 1 2 3 4 5 6 
#
# 1 0.011362 -0.000274 -0.004270 -0.002406 -0.002833 0.000398
# 2 -0.000274 0.013759 -0.003996 0.002218 0.000250 0.004318
# 3 -0.004270 -0.003996 0.009641 0.004657 0.002754 -0.000772
# 4 -0.002406 0.002218 0.004657 0.041210 0.005464 -0.003812
# 5 -0.002833 0.000250 0.002754 0.005464 0.023093 0.002932
# 6 0.000398 0.004318 -0.000772 -0.003812 0.002932 0.026540
#
#
# Mechanical properties :
#
#
# Convention : Reuss Voigt Hill
#
# Bulk Modulus (GPa) = 56.55850 69.44746 63.00298
# Shear Modulus (GPa) = 33.65183 39.25848 36.45515
#
# Velocity S-wave (km/s) = 3.83400 4.14109 3.99050
# Velocity P-wave (km/s) = 6.65619 7.29386 6.98231
#
# Compressibility (1/GPa) = 0.01768081
#
# Stress axis : x y z
#
# Youngs Moduli (GPa) = 88.01050 72.68094 103.71907
#
# Poissons Ratio (x) = 0.01994 0.44288
# Poissons Ratio (y) = 0.02415 0.41451
# Poissons Ratio (z) = 0.37580 0.29047
#
# Static dielectric constant tensor:
#      x y z
#    x 5.190930 -1.040900 -0.679050 
#    y -1.040900 5.248120 0.582870 
#    z -0.679050 0.582870 4.813880 
# 
# 
# High freq. dielectric constant tensor:
#      x y z
#    x 1.926100 -0.004190 -0.004540 
#    y -0.004190 1.902680 -0.002890 
#    z -0.004540 -0.002890 1.915500 
# 
# From -- ./inp_files/27908.got.cif
#   From: 2010.06.25/outbox.cif.g09.slc.cpg/sg2_14_cif.got.tgz:27908.got - 2010.06.27 13:26:56.
