data_PCOD8022476
_publ_section_title
;
Structure prediction by ZEFSAII (Michael W. Deem and Ramdas Pophale) SiO2 
 PCOD8022476
Probable space group: P -1
;
_chemical_formula_sum "Si O2"
_cell_formula_units_Z 14
_cell_length_a 23.137996
_cell_length_b 8.799708
_cell_length_c 8.345252
_cell_angle_alpha 48.672687
_cell_angle_beta 34.209463
_cell_angle_gamma 33.529327
_cell_volume 525.364066
_symmetry_space_group_name_H-M "P -1"
_symmetry_group_IT_number 2
_symmetry_cell_setting 'triclinic'
loop_
_space_group_symop_operation_xyz
x,y,z
-x,-y,-z
loop_
_atom_site_type_symbol
_atom_site_label
_atom_site_fract_x
_atom_site_fract_y
_atom_site_fract_z
Si Si1 0.370278 0.631226 0.818919
Si Si2 0.888801 0.061734 0.008083
Si Si3 0.886663 0.585574 0.377403
Si Si4 0.251436 0.183576 0.138684
Si Si5 0.544324 0.653037 0.864256
Si Si6 0.193573 0.229862 0.897550
Si Si7 0.178124 0.807428 0.583181
O O1 0.500000 0.500000 0.500000
O O2 0.233987 0.713896 0.990514
O O3 0.324028 0.900590 0.825647
O O4 0.429305 0.393562 0.974712
O O5 0.850775 0.222180 0.149156
O O6 0.888709 0.824578 0.203576
O O7 0.043272 0.934499 0.691284
O O8 0.818883 0.610015 0.688261
O O9 0.803235 0.637030 0.367264
O O10 0.047244 0.295132 0.192719
O O11 0.213020 0.997287 0.354094
O O12 0.198797 0.346064 0.974535
O O13 0.420685 0.983977 0.896001
O O14 0.691826 0.513335 0.541217
O O15 0.500000 0.500000 0.000000
#
# Coordination Sequence:
#
# PCOD8022476 Si02
#       7
#     2   2   2   2   2   2   2
#     4  11  19  30  49  77  98 124 164 205 252 290
#     4   9  19  31  49  71 100 131 159 204 244 294
#     4   9  19  32  47  75  99 127 170 197 242 300
#     4  10  18  32  52  76  98 128 163 208 249 288
#     4  10  17  29  46  72  98 121 159 204 246 288
#     4  10  18  31  50  73  99 130 159 208 247 284
#     4   9  17  32  47  72 102 126 161 201 252 293
#
# _framework density 26.648188999999999
#
# number of rings (size 3 to 8) (size 9 to 14) (size 15 to 20)
#    0.000    2.286    2.857    3.857    0.000    0.571 
#    0.000    0.000    0.000    0.857    3.714    6.000 
#    0.000    0.000    0.000    0.000    0.000    0.000 
#
# Total GULP energy -173438.031872 kJ/mol
# GULP energy per Si atom -12388.430848 kJ/mol
# Density = 2.658754 g / cm^3
# Si number density = 26.648189 Si / 1000 Ang^3
#
#
#
# Elastic Constant Matrix: (Units=GPa)
#
#
# Indices 1 2 3 4 5 6 
#
# 1 119.2434 35.0661 60.8369 -2.5246 20.2376 -51.9655
# 2 35.0661 30.9696 24.2023 20.6008 9.6266 -24.0837
# 3 60.8369 24.2023 155.6133 37.5648 30.4085 -27.6332
# 4 -2.5246 20.6008 37.5648 44.9184 -11.0781 -0.2759
# 5 20.2376 9.6266 30.4085 -11.0781 56.3777 -6.6912
# 6 -51.9655 -24.0837 -27.6332 -0.2759 -6.6912 59.3223
#
#
#
# Elastic Compliance Matrix: (Units=1/GPa)
#
#
# Indices 1 2 3 4 5 6 
#
# 1 0.042398 -0.094235 -0.027997 0.076281 0.029721 -0.010452
# 2 -0.094235 0.345341 0.081715 -0.258718 -0.110312 0.082072
# 3 -0.027997 0.081715 0.032873 -0.074802 -0.033984 0.019782
# 4 0.076281 -0.258718 -0.074802 0.230873 0.095238 -0.061242
# 5 0.029721 -0.110312 -0.033984 0.095238 0.059697 -0.027404
# 6 -0.010452 0.082072 0.019782 -0.061242 -0.027404 0.046860
#
#
# Mechanical properties :
#
#
# Convention : Reuss Voigt Hill
#
# Bulk Modulus (GPa) = 2.94482 60.67077 31.80780
# Shear Modulus (GPa) = 5.25062 44.50506 24.87784
#
# Velocity S-wave (km/s) = 1.40521 4.09112 3.05875
# Velocity P-wave (km/s) = 1.93399 6.71811 4.94335
#
# Compressibility (1/GPa) = 0.33957886
#
# Stress axis : x y z
#
# Youngs Moduli (GPa) = 23.58615 2.89569 30.41983
#
# Poissons Ratio (x) = 0.27287 0.85166
# Poissons Ratio (y) = 2.22263 -2.48575
# Poissons Ratio (z) = 0.66034 -0.23662
#
# Static dielectric constant tensor:
#      x y z
#    x 5.194220 -0.427430 0.329890 
#    y -0.427430 4.629120 0.453410 
#    z 0.329890 0.453410 5.269510 
# 
# 
# High freq. dielectric constant tensor:
#      x y z
#    x 2.076690 -0.019230 0.019310 
#    y -0.019230 2.048710 0.023820 
#    z 0.019310 0.023820 2.068540 
# 
# From -- ./inp_files/182666.got.cif
#   From: 2010.06.25/outbox.cif.g09.slc.cpg/sg2_92_cif.got.tgz:182666.got - 2010.06.27 13:26:56.
