data_PCOD8022448
_publ_section_title
;
Structure prediction by ZEFSAII (Michael W. Deem and Ramdas Pophale) SiO2 
 PCOD8022448
Probable space group: P -1
;
_chemical_formula_sum "Si O2"
_cell_formula_units_Z 14
_cell_length_a 20.834548
_cell_length_b 15.049151
_cell_length_c 5.239440
_cell_angle_alpha 105.948287
_cell_angle_beta 91.085136
_cell_angle_gamma 25.549906
_cell_volume 568.008917
_symmetry_space_group_name_H-M "P -1"
_symmetry_group_IT_number 2
_symmetry_cell_setting 'triclinic'
loop_
_space_group_symop_operation_xyz
x,y,z
-x,-y,-z
loop_
_atom_site_type_symbol
_atom_site_label
_atom_site_fract_x
_atom_site_fract_y
_atom_site_fract_z
Si Si1 0.549184 0.138525 0.519851
Si Si2 0.156118 0.663342 0.839917
Si Si3 0.679995 0.806903 0.963801
Si Si4 0.282244 0.052867 0.119269
Si Si5 0.014773 0.263442 0.396150
Si Si6 0.304845 0.727267 0.099003
Si Si7 0.189780 0.783317 0.615141
O O1 0.343948 0.399821 0.785604
O O2 0.630499 0.088688 0.714833
O O3 0.634389 0.920931 0.316648
O O4 0.587975 0.146463 0.269416
O O5 0.192418 0.670299 0.582180
O O6 0.076779 0.669546 0.786135
O O7 0.017583 0.908536 0.189161
O O8 0.747860 0.795909 0.763966
O O9 0.851691 0.509035 0.771442
O O10 0.500000 0.000000 0.000000
O O11 0.101760 0.235724 0.242599
O O12 0.162851 0.001683 0.343101
O O13 0.278710 0.682496 0.271315
O O14 0.500000 0.500000 0.000000
O O15 0.285338 0.710534 0.800741
#
# Coordination Sequence:
#
# PCOD8022448 Si02
#       7
#     2   2   2   2   2   2   2
#     4  10  24  43  70  98 136 184 223 275 343 404
#     4  10  23  44  72 102 137 185 228 286 337 413
#     4  10  22  46  68 102 135 181 227 280 337 410
#     4  10  25  43  66 101 137 182 219 288 332 410
#     4  11  23  45  69 105 135 181 229 280 347 401
#     4  11  26  45  69 103 138 181 225 289 340 410
#     4  10  25  44  70  98 139 177 235 281 342 400
#
# _framework density 24.647497000000001
#
# number of rings (size 3 to 8) (size 9 to 14) (size 15 to 20)
#    0.857    0.857    1.429    0.857    4.000   12.000 
#    5.143    0.000    0.000    0.000    0.000    0.000 
#    0.000    0.000    0.000    0.000    0.000    0.000 
#
# Total GULP energy -173448.626325 kJ/mol
# GULP energy per Si atom -12389.187595 kJ/mol
# Density = 2.459140 g / cm^3
# Si number density = 24.647497 Si / 1000 Ang^3
#
#
#
# Elastic Constant Matrix: (Units=GPa)
#
#
# Indices 1 2 3 4 5 6 
#
# 1 142.1525 33.6551 22.0278 13.5143 -18.9957 -10.6945
# 2 33.6551 88.2800 47.2951 14.7013 3.2454 -28.9672
# 3 22.0278 47.2951 67.8216 3.6055 -6.6732 -16.2194
# 4 13.5143 14.7013 3.6055 51.4967 -0.8664 -8.1607
# 5 -18.9957 3.2454 -6.6732 -0.8664 32.6148 7.3882
# 6 -10.6945 -28.9672 -16.2194 -8.1607 7.3882 31.0496
#
#
#
# Elastic Compliance Matrix: (Units=1/GPa)
#
#
# Indices 1 2 3 4 5 6 
#
# 1 0.008788 -0.004369 0.000211 -0.001411 0.006189 -0.002782
# 2 -0.004369 0.028220 -0.014725 -0.003022 -0.012839 0.019391
# 3 0.000211 -0.014725 0.025136 0.002248 0.007164 -0.001649
# 4 -0.001411 -0.003022 0.002248 0.021039 -0.000287 0.003467
# 5 0.006189 -0.012839 0.007164 -0.000287 0.040589 -0.015837
# 6 -0.002782 0.019391 -0.001649 0.003467 -0.015837 0.053157
#
#
# Mechanical properties :
#
#
# Convention : Reuss Voigt Hill
#
# Bulk Modulus (GPa) = 41.02149 56.02335 48.52242
# Shear Modulus (GPa) = 22.43943 36.05063 29.24503
#
# Velocity S-wave (km/s) = 3.02058 3.82861 3.44834
# Velocity P-wave (km/s) = 5.37072 6.50565 5.96524
#
# Compressibility (1/GPa) = 0.02437747
#
# Stress axis : x y z
#
# Youngs Moduli (GPa) = 113.78894 35.43562 39.78376
#
# Poissons Ratio (x) = 0.15481 -0.00839
# Poissons Ratio (y) = 0.49713 0.58583
# Poissons Ratio (z) = -0.02400 0.52180
#
# Static dielectric constant tensor:
#      x y z
#    x 4.571430 0.008870 -0.105450 
#    y 0.008870 4.225140 0.292270 
#    z -0.105450 0.292270 4.231150 
# 
# 
# High freq. dielectric constant tensor:
#      x y z
#    x 1.991540 -0.009660 -0.005440 
#    y -0.009660 1.964620 0.018070 
#    z -0.005440 0.018070 1.969750 
# 
# From -- ./inp_files/119317.got.cif
#   From: 2010.06.25/outbox.cif.g09.slc.cpg/sg2_60_cif.got.tgz:119317.got - 2010.06.27 13:26:56.
