data_PCOD8022075
_publ_section_title
;
Structure prediction by ZEFSAII (Michael W. Deem and Ramdas Pophale) SiO2 
 PCOD8022075
Probable space group: P -1
;
_chemical_formula_sum "Si O2"
_cell_formula_units_Z 16
_cell_length_a 20.737211
_cell_length_b 8.464737
_cell_length_c 9.297447
_cell_angle_alpha 148.298092
_cell_angle_beta 56.181495
_cell_angle_gamma 119.986869
_cell_volume 711.231459
_symmetry_space_group_name_H-M "P -1"
_symmetry_group_IT_number 2
_symmetry_cell_setting 'triclinic'
loop_
_space_group_symop_operation_xyz
x,y,z
-x,-y,-z
loop_
_atom_site_type_symbol
_atom_site_label
_atom_site_fract_x
_atom_site_fract_y
_atom_site_fract_z
Si Si1 0.142211 0.827143 0.964708
Si Si2 0.290796 0.824638 0.970165
Si Si3 0.827094 0.938868 0.192184
Si Si4 0.962159 0.729313 0.422081
Si Si5 0.076458 0.597361 0.395696
Si Si6 0.403160 0.153963 0.859673
Si Si7 0.687931 0.844790 0.506331
Si Si8 0.419950 0.814430 0.286726
O O1 0.205941 0.776592 0.968092
O O2 0.082449 0.533899 0.817800
O O3 0.181945 0.853501 0.777578
O O4 0.097680 0.133312 0.282995
O O5 0.328115 0.504703 0.701846
O O6 0.344286 0.040444 0.969043
O O7 0.279804 0.980226 0.257909
O O8 0.746295 0.887115 0.333373
O O9 0.891672 0.085220 0.332756
O O10 0.853283 0.619687 0.857834
O O11 0.042329 0.610464 0.289593
O O12 0.000000 0.000000 0.500000
O O13 0.000000 0.500000 0.500000
O O14 0.487802 0.184108 0.851002
O O15 0.399208 0.924369 0.555827
O O16 0.381473 0.474120 0.067584
O O17 0.610023 0.985940 0.652910
#
# Coordination Sequence:
#
# PCOD8022075 Si02
#       8
#     2   2   2   2   2   2   2   2
#     4  12  25  46  64  93 129 175 220 266 339 401
#     4  12  27  43  66 100 144 176 220 279 344 394
#     4  12  25  43  69  91 128 173 221 276 327 399
#     4  12  27  42  67  95 125 169 213 282 339 400
#     4  12  23  44  68  94 121 164 227 276 330 397
#     4  10  22  44  74 103 136 184 222 277 323 403
#     4  12  27  43  66 103 137 180 221 282 334 395
#     4  10  22  44  74 103 136 180 235 263 327 400
#
# _framework density 22.496193999999999
#
# number of rings (size 3 to 8) (size 9 to 14) (size 15 to 20)
#    0.000    0.500    2.500    5.250    5.250    3.000 
#    0.000    0.000    0.000    0.000    0.000    0.000 
#    0.000    0.000    0.000    0.000    0.000    0.000 
#
# Total GULP energy -198392.942720 kJ/mol
# GULP energy per Si atom -12399.558920 kJ/mol
# Density = 2.244499 g / cm^3
# Si number density = 22.496194 Si / 1000 Ang^3
#
#
#
# Elastic Constant Matrix: (Units=GPa)
#
#
# Indices 1 2 3 4 5 6 
#
# 1 101.1104 28.3884 18.6794 2.1104 0.5662 -16.8371
# 2 28.3884 81.9374 10.6966 6.9771 0.8702 -6.3603
# 3 18.6794 10.6966 98.3462 10.1856 -0.4850 -2.3581
# 4 2.1104 6.9771 10.1856 37.5551 -4.8815 -2.5371
# 5 0.5662 0.8702 -0.4850 -4.8815 31.9473 4.9857
# 6 -16.8371 -6.3603 -2.3581 -2.5371 4.9857 29.0061
#
#
#
# Elastic Compliance Matrix: (Units=1/GPa)
#
#
# Indices 1 2 3 4 5 6 
#
# 1 0.012305 -0.003572 -0.001880 0.000783 -0.001037 0.006453
# 2 -0.003572 0.013782 -0.000571 -0.002251 -0.000796 0.000842
# 3 -0.001880 -0.000571 0.010862 -0.002788 -0.000126 -0.000556
# 4 0.000783 -0.002251 -0.002788 0.028394 0.004108 0.001512
# 5 -0.001037 -0.000796 -0.000126 0.004108 0.032917 -0.006085
# 6 0.006453 0.000842 -0.000556 0.001512 -0.006085 0.039539
#
#
# Mechanical properties :
#
#
# Convention : Reuss Voigt Hill
#
# Bulk Modulus (GPa) = 40.15759 44.10255 42.13007
# Shear Modulus (GPa) = 31.61626 34.61034 33.11330
#
# Velocity S-wave (km/s) = 3.75294 3.92662 3.84076
# Velocity P-wave (km/s) = 6.05549 6.34073 6.19975
#
# Compressibility (1/GPa) = 0.02490189
#
# Stress axis : x y z
#
# Youngs Moduli (GPa) = 81.27091 72.55714 92.06259
#
# Poissons Ratio (x) = 0.25921 0.17308
# Poissons Ratio (y) = 0.29034 0.05257
# Poissons Ratio (z) = 0.15279 0.04143
#
# Static dielectric constant tensor:
#      x y z
#    x 3.839480 0.029160 0.362130 
#    y 0.029160 4.013720 -0.180970 
#    z 0.362130 -0.180970 3.626800 
# 
# 
# High freq. dielectric constant tensor:
#      x y z
#    x 1.889800 -0.007060 0.003210 
#    y -0.007060 1.892680 0.004690 
#    z 0.003210 0.004690 1.898980 
# 
# From -- ./inp_files/343965.got.cif
#   From: 2010.06.25/outbox.cif.g09.slc.cpg/sg2_172_cif.got.tgz:343965.got - 2010.06.27 13:26:56.
