data_PCOD8022424
_publ_section_title
;
Structure prediction by ZEFSAII (Michael W. Deem and Ramdas Pophale) SiO2 
 PCOD8022424
Probable space group: P -1
;
_chemical_formula_sum "Si O2"
_cell_formula_units_Z 14
_cell_length_a 9.036892
_cell_length_b 6.010043
_cell_length_c 18.109142
_cell_angle_alpha 98.262513
_cell_angle_beta 125.064186
_cell_angle_gamma 52.056421
_cell_volume 600.487078
_symmetry_space_group_name_H-M "P -1"
_symmetry_group_IT_number 2
_symmetry_cell_setting 'triclinic'
loop_
_space_group_symop_operation_xyz
x,y,z
-x,-y,-z
loop_
_atom_site_type_symbol
_atom_site_label
_atom_site_fract_x
_atom_site_fract_y
_atom_site_fract_z
Si Si1 0.687828 0.774931 0.602763
Si Si2 0.678707 0.241951 0.445482
Si Si3 0.643810 0.237768 0.968030
Si Si4 0.836242 0.330753 0.884934
Si Si5 0.932226 0.820192 0.373685
Si Si6 0.489253 0.999277 0.809854
Si Si7 0.437178 0.772456 0.298632
O O1 0.581547 0.626574 0.596857
O O2 0.941041 0.521540 0.623886
O O3 0.500000 0.000000 0.500000
O O4 0.723953 0.932042 0.683016
O O5 0.646294 0.483770 0.393365
O O6 0.857323 0.160965 0.560967
O O7 0.800009 0.936432 0.420653
O O8 0.734368 0.326183 0.933377
O O9 0.472773 0.178883 0.884189
O O10 0.500000 0.500000 0.000000
O O11 0.876924 0.920323 0.052295
O O12 0.746901 0.662316 0.867732
O O13 0.738282 0.272978 0.784992
O O14 0.729365 0.007025 0.258530
O O15 0.449721 0.179202 0.733493
#
# Coordination Sequence:
#
# PCOD8022424 Si02
#       7
#     2   2   2   2   2   2   2
#     4  12  25  41  63  95 131 178 224 268 318 374
#     4  11  24  46  60  94 138 174 220 267 318 378
#     4  10  24  44  71  97 126 168 211 268 330 393
#     4  10  22  46  66  94 134 165 210 272 325 387
#     4  11  24  41  67  93 132 177 216 269 316 382
#     4  11  23  45  67  99 129 173 217 263 332 382
#     4  11  22  43  66  91 136 173 217 264 324 378
#
# _framework density 23.314409000000001
#
# number of rings (size 3 to 8) (size 9 to 14) (size 15 to 20)
#    0.000    1.143    4.286    0.857    2.000    4.000 
#    5.143    0.000    0.000    0.000    0.000    0.000 
#    0.000    0.000    0.000    0.000    0.000    0.000 
#
# Total GULP energy -173464.331486 kJ/mol
# GULP energy per Si atom -12390.309392 kJ/mol
# Density = 2.326134 g / cm^3
# Si number density = 23.314409 Si / 1000 Ang^3
#
#
#
# Elastic Constant Matrix: (Units=GPa)
#
#
# Indices 1 2 3 4 5 6 
#
# 1 48.1843 43.4846 32.2492 -1.5919 -1.0122 -3.2809
# 2 43.4846 179.4934 82.4984 17.9123 7.1996 -28.8749
# 3 32.2492 82.4984 140.0511 21.2317 19.8309 -7.7383
# 4 -1.5919 17.9123 21.2317 57.8839 8.0896 -2.8930
# 5 -1.0122 7.1996 19.8309 8.0896 23.5549 -1.0070
# 6 -3.2809 -28.8749 -7.7383 -2.8930 -1.0070 39.0339
#
#
#
# Elastic Compliance Matrix: (Units=1/GPa)
#
#
# Indices 1 2 3 4 5 6 
#
# 1 0.029316 -0.005879 -0.004762 0.003443 0.005780 -0.002425
# 2 -0.005879 0.009944 -0.004067 -0.001579 0.000929 0.005963
# 3 -0.004762 -0.004067 0.012083 -0.002195 -0.008440 -0.001393
# 4 0.003443 -0.001579 -0.002195 0.019242 -0.004130 0.000006
# 5 0.005780 0.000929 -0.008440 -0.004130 0.050964 0.000508
# 6 -0.002425 0.005963 -0.001393 0.000006 0.000508 0.029563
#
#
# Mechanical properties :
#
#
# Convention : Reuss Voigt Hill
#
# Bulk Modulus (GPa) = 45.60258 76.02145 60.81202
# Shear Modulus (GPa) = 26.61876 38.06097 32.33987
#
# Velocity S-wave (km/s) = 3.38262 4.04481 3.72845
# Velocity P-wave (km/s) = 5.90410 7.38186 6.68395
#
# Compressibility (1/GPa) = 0.02192858
#
# Stress axis : x y z
#
# Youngs Moduli (GPa) = 34.11049 100.56171 82.76077
#
# Poissons Ratio (x) = 0.59122 0.39409
# Poissons Ratio (y) = 0.20054 0.33655
# Poissons Ratio (z) = 0.16243 0.40894
#
# Static dielectric constant tensor:
#      x y z
#    x -0.201240 -0.453800 -0.970520 
#    y -0.453800 4.523520 0.110140 
#    z -0.970520 0.110140 4.226550 
# 
# 
# High freq. dielectric constant tensor:
#      x y z
#    x 1.878960 -0.004860 0.014260 
#    y -0.004860 1.940630 0.015330 
#    z 0.014260 0.015330 1.935400 
# 
# From -- ./inp_files/553294.got.cif
#   From: 2010.06.25/outbox.cif.g09.slc.cpg/sg2_277_cif.got.tgz:553294.got - 2010.06.27 13:26:56.
