data_PCOD8022220
_publ_section_title
;
Structure prediction by ZEFSAII (Michael W. Deem and Ramdas Pophale) SiO2 
 PCOD8022220
Probable space group: P -1
;
_chemical_formula_sum "Si O2"
_cell_formula_units_Z 16
_cell_length_a 8.826987
_cell_length_b 11.420887
_cell_length_c 14.280421
_cell_angle_alpha 102.712002
_cell_angle_beta 147.495927
_cell_angle_gamma 74.730037
_cell_volume 746.285815
_symmetry_space_group_name_H-M "P -1"
_symmetry_group_IT_number 2
_symmetry_cell_setting 'triclinic'
loop_
_space_group_symop_operation_xyz
x,y,z
-x,-y,-z
loop_
_atom_site_type_symbol
_atom_site_label
_atom_site_fract_x
_atom_site_fract_y
_atom_site_fract_z
Si Si1 0.158493 0.471292 0.982469
Si Si2 0.081182 0.219106 0.806081
Si Si3 0.195741 0.591146 0.657122
Si Si4 0.226050 0.972244 0.299550
Si Si5 0.454217 0.014172 0.715941
Si Si6 0.752248 0.386289 0.106417
Si Si7 0.651476 0.124279 0.017162
Si Si8 0.095137 0.807525 0.500235
O O1 0.485791 0.476764 0.177750
O O2 0.107140 0.343929 0.891438
O O3 0.046599 0.576548 0.865942
O O4 0.000000 0.500000 0.000000
O O5 0.847817 0.157949 0.730237
O O6 0.992612 0.240385 0.654897
O O7 0.390766 0.131473 0.957407
O O8 0.088166 0.635010 0.713482
O O9 0.199677 0.699615 0.605972
O O10 0.000000 0.500000 0.500000
O O11 0.301306 0.971125 0.229295
O O12 0.500000 0.000000 0.500000
O O13 0.963558 0.075182 0.212076
O O14 0.172880 0.113090 0.574736
O O15 0.358550 0.881855 0.636227
O O16 0.602661 0.029985 0.894460
O O17 0.638267 0.262135 0.996293
O O18 0.500000 0.500000 0.000000
#
# Coordination Sequence:
#
# PCOD8022220 Si02
#       8
#     2   2   2   2   2   2   2   2
#     4  11  26  45  67 101 134 178 224 287 341 399
#     4  11  23  46  70  94 142 181 226 277 339 419
#     4  11  24  41  73  95 126 176 232 277 331 404
#     4  12  26  42  65 106 141 172 228 285 342 390
#     4  10  24  42  65 102 142 176 222 281 335 411
#     4  10  22  45  68  96 130 174 234 269 329 410
#     4  11  24  42  74  93 135 189 223 275 339 417
#     4  10  23  43  69  99 138 179 226 277 342 401
#
# _framework density 21.439506999999999
#
# number of rings (size 3 to 8) (size 9 to 14) (size 15 to 20)
#    0.000    1.250    3.750    1.500   10.500    1.000 
#    0.000    1.250    0.000    0.000    0.000    0.000 
#    0.000    0.000    0.000    0.000    0.000    0.000 
#
# Total GULP energy -198361.090285 kJ/mol
# GULP energy per Si atom -12397.568143 kJ/mol
# Density = 2.139071 g / cm^3
# Si number density = 21.439507 Si / 1000 Ang^3
#
#
#
# Elastic Constant Matrix: (Units=GPa)
#
#
# Indices 1 2 3 4 5 6 
#
# 1 169.7384 39.3751 56.9518 11.2146 -5.4236 10.8111
# 2 39.3751 59.4790 54.4879 18.7953 -4.9823 0.0664
# 3 56.9518 54.4879 127.4584 21.0205 1.0462 2.8568
# 4 11.2146 18.7953 21.0205 39.4629 2.8261 -4.8552
# 5 -5.4236 -4.9823 1.0462 2.8261 34.3426 4.9846
# 6 10.8111 0.0664 2.8568 -4.8552 4.9846 33.9161
#
#
#
# Elastic Compliance Matrix: (Units=1/GPa)
#
#
# Indices 1 2 3 4 5 6 
#
# 1 0.007446 -0.002997 -0.002003 0.000005 0.001145 -0.002366
# 2 -0.002997 0.032114 -0.010938 -0.009028 0.005299 -0.000257
# 3 -0.002003 -0.010938 0.013673 -0.001397 -0.002150 -0.000376
# 4 0.000005 -0.009028 -0.001397 0.031366 -0.004617 0.005302
# 5 0.001145 0.005299 -0.002150 -0.004617 0.031305 -0.005456
# 6 -0.002366 -0.000257 -0.000376 0.005302 -0.005456 0.031832
#
#
# Mechanical properties :
#
#
# Convention : Reuss Voigt Hill
#
# Bulk Modulus (GPa) = 46.82468 73.14503 59.98486
# Shear Modulus (GPa) = 26.77640 35.26840 31.02240
#
# Velocity S-wave (km/s) = 3.53785 4.06028 3.80804
# Velocity P-wave (km/s) = 6.21098 7.49481 6.88290
#
# Compressibility (1/GPa) = 0.02135626
#
# Stress axis : x y z
#
# Youngs Moduli (GPa) = 134.30576 31.13865 73.13674
#
# Poissons Ratio (x) = 0.09334 0.14648
# Poissons Ratio (y) = 0.40258 0.79998
# Poissons Ratio (z) = 0.26898 0.34060
#
# Static dielectric constant tensor:
#      x y z
#    x 5.246590 0.106890 -0.097400 
#    y 0.106890 3.750180 0.178660 
#    z -0.097400 0.178660 3.877470 
# 
# 
# High freq. dielectric constant tensor:
#      x y z
#    x 1.850720 0.014360 -0.006760 
#    y 0.014360 1.837680 0.016000 
#    z -0.006760 0.016000 1.842480 
# 
# From -- ./inp_files/500635.got.cif
#   From: 2010.06.25/outbox.cif.g09.slc.cpg/sg2_251_cif.got.tgz:500635.got - 2010.06.27 13:26:56.
