data_PCOD8022688
_publ_section_title
;
Structure prediction by ZEFSAII (Michael W. Deem and Ramdas Pophale) SiO2 
 PCOD8022688
Probable space group: P -1
;
_chemical_formula_sum "Si O2"
_cell_formula_units_Z 12
_cell_length_a 7.728734
_cell_length_b 10.842413
_cell_length_c 9.453561
_cell_angle_alpha 125.767211
_cell_angle_beta 59.045043
_cell_angle_gamma 134.471720
_cell_volume 451.097565
_symmetry_space_group_name_H-M "P -1"
_symmetry_group_IT_number 2
_symmetry_cell_setting 'triclinic'
loop_
_space_group_symop_operation_xyz
x,y,z
-x,-y,-z
loop_
_atom_site_type_symbol
_atom_site_label
_atom_site_fract_x
_atom_site_fract_y
_atom_site_fract_z
Si Si1 0.751501 0.488620 0.430052
Si Si2 0.006118 0.360025 0.073160
Si Si3 0.381021 0.619107 0.886314
Si Si4 0.025618 0.100966 0.334393
Si Si5 0.626411 0.911039 0.613109
Si Si6 0.242165 0.000399 0.904661
O O1 0.981798 0.475100 0.286871
O O2 0.852293 0.680311 0.593274
O O3 0.558540 0.310417 0.488351
O O4 0.615969 0.475248 0.326734
O O5 0.278098 0.474045 0.963446
O O6 0.942406 0.166253 0.024429
O O7 0.803931 0.316716 0.008934
O O8 0.653238 0.803137 0.926678
O O9 0.215024 0.058953 0.292034
O O10 0.796571 0.017403 0.480190
O O11 0.916799 0.003997 0.163008
O O12 0.469068 0.994465 0.759256
#
# Coordination Sequence:
#
# PCOD8022688 Si02
#       6
#     2   2   2   2   2   2
#     4   9  19  36  59  80 114 152 184 228 287 330
#     4   8  18  32  59  84 110 148 188 225 285 334
#     4   9  18  35  59  87 111 149 188 230 285 336
#     4  11  23  38  57  87 114 148 193 232 272 340
#     4  10  23  38  58  82 119 152 182 232 289 326
#     4  11  21  36  63  85 111 148 192 231 279 335
#
# _framework density 26.601780999999999
#
# number of rings (size 3 to 8) (size 9 to 14) (size 15 to 20)
#    1.000    1.333    0.000    2.500    0.000    4.000 
#    0.000    0.833    0.000    5.000    0.000    0.000 
#    0.000    0.000    0.000    0.000    0.000    0.000 
#
# Total GULP energy -148762.228533 kJ/mol
# GULP energy per Si atom -12396.852378 kJ/mol
# Density = 2.654123 g / cm^3
# Si number density = 26.601781 Si / 1000 Ang^3
#
#
#
# Elastic Constant Matrix: (Units=GPa)
#
#
# Indices 1 2 3 4 5 6 
#
# 1 107.2739 46.2305 34.4753 4.3724 2.3346 5.7458
# 2 46.2305 120.7078 50.4057 4.5688 9.4974 -3.6704
# 3 34.4753 50.4057 125.0849 27.2428 16.2357 -7.6693
# 4 4.3724 4.5688 27.2428 41.9703 -1.1523 2.2346
# 5 2.3346 9.4974 16.2357 -1.1523 35.7827 -4.0195
# 6 5.7458 -3.6704 -7.6693 2.2346 -4.0195 11.6669
#
#
#
# Elastic Compliance Matrix: (Units=1/GPa)
#
#
# Indices 1 2 3 4 5 6 
#
# 1 0.012333 -0.003949 -0.002751 0.001436 0.000502 -0.009227
# 2 -0.003949 0.011354 -0.003492 0.001276 -0.000828 0.002691
# 3 -0.002751 -0.003492 0.013079 -0.008417 -0.004081 0.009060
# 4 0.001436 0.001276 -0.008417 0.029643 0.003170 -0.010424
# 5 0.000502 -0.000828 -0.004081 0.003170 0.030855 0.006833
# 6 -0.009227 0.002691 0.009060 -0.010424 0.006833 0.101410
#
#
# Mechanical properties :
#
#
# Convention : Reuss Voigt Hill
#
# Bulk Modulus (GPa) = 61.05075 68.36551 64.70813
# Shear Modulus (GPa) = 22.26990 32.68099 27.47545
#
# Velocity S-wave (km/s) = 2.89651 3.50884 3.21727
# Velocity P-wave (km/s) = 5.84688 6.49394 6.17889
#
# Compressibility (1/GPa) = 0.01637981
#
# Stress axis : x y z
#
# Youngs Moduli (GPa) = 81.08524 88.07552 76.46060
#
# Poissons Ratio (x) = 0.34779 0.21038
# Poissons Ratio (y) = 0.32019 0.26704
# Poissons Ratio (z) = 0.22310 0.30760
#
# Static dielectric constant tensor:
#      x y z
#    x 4.710050 0.198410 -0.083280 
#    y 0.198410 4.924010 -0.292320 
#    z -0.083280 -0.292320 4.625550 
# 
# 
# High freq. dielectric constant tensor:
#      x y z
#    x 2.068460 0.010410 -0.027950 
#    y 0.010410 2.081060 -0.012660 
#    z -0.027950 -0.012660 2.059580 
# 
# From -- ./inp_files/181514.got.cif
#   From: 2010.06.25/outbox.cif.g09.slc.cpg/sg2_91_cif.got.tgz:181514.got - 2010.06.27 13:26:56.
