data_PCOD8022535
_publ_section_title
;
Structure prediction by ZEFSAII (Michael W. Deem and Ramdas Pophale) SiO2 
 PCOD8022535
Probable space group: P -1
;
_chemical_formula_sum "Si O2"
_cell_formula_units_Z 16
_cell_length_a 8.667518
_cell_length_b 11.201231
_cell_length_c 16.221934
_cell_angle_alpha 28.482549
_cell_angle_beta 105.065774
_cell_angle_gamma 113.297729
_cell_volume 675.859947
_symmetry_space_group_name_H-M "P -1"
_symmetry_group_IT_number 2
_symmetry_cell_setting 'triclinic'
loop_
_space_group_symop_operation_xyz
x,y,z
-x,-y,-z
loop_
_atom_site_type_symbol
_atom_site_label
_atom_site_fract_x
_atom_site_fract_y
_atom_site_fract_z
Si Si1 0.420653 0.424705 0.623320
Si Si2 0.794723 0.937475 0.668948
Si Si3 0.823493 0.285383 0.306507
Si Si4 0.055659 0.043054 0.766137
Si Si5 0.506388 0.940803 0.916793
Si Si6 0.155032 0.152737 0.987594
Si Si7 0.517685 0.009833 0.313590
Si Si8 0.161767 0.551564 0.097782
O O1 0.500000 0.500000 0.500000
O O2 0.473483 0.694317 0.521379
O O3 0.213635 0.298204 0.665210
O O4 0.495837 0.204725 0.801354
O O5 0.815049 0.648205 0.846541
O O6 0.968526 0.129473 0.622737
O O7 0.785843 0.042301 0.512597
O O8 0.623013 0.895914 0.720465
O O9 0.788905 0.525888 0.203169
O O10 0.021482 0.387968 0.244540
O O11 0.702161 0.183405 0.272036
O O12 0.114929 0.793739 0.903768
O O13 0.901043 0.950888 0.865810
O O14 0.481548 0.947881 0.809837
O O15 0.684997 0.917073 0.979356
O O16 0.348452 0.687874 0.083935
O O17 0.000000 0.000000 0.000000
#
# Coordination Sequence:
#
# PCOD8022535 Si02
#       8
#     2   2   2   2   2   2   2   2
#     4   9  22  42  65 101 135 174 224 282 333 403
#     4  12  24  42  69 100 139 181 224 288 344 399
#     4  11  27  44  65 105 142 177 224 288 343 399
#     4  10  23  44  70  98 132 182 235 276 334 413
#     4  10  22  46  74  98 132 188 228 277 342 408
#     4  11  25  47  71 102 136 173 230 285 339 408
#     4  11  24  42  70 102 141 177 230 283 339 407
#     4  10  24  44  69 102 135 180 230 278 338 406
#
# _framework density 23.673546000000002
#
# number of rings (size 3 to 8) (size 9 to 14) (size 15 to 20)
#    0.000    1.500    1.250    1.875   10.500    3.500 
#    4.500    3.125    0.000    0.000    0.000    0.000 
#    0.000    0.000    0.000    0.000    0.000    0.000 
#
# Total GULP energy -198378.816497 kJ/mol
# GULP energy per Si atom -12398.676031 kJ/mol
# Density = 2.361966 g / cm^3
# Si number density = 23.673546 Si / 1000 Ang^3
#
#
#
# Elastic Constant Matrix: (Units=GPa)
#
#
# Indices 1 2 3 4 5 6 
#
# 1 151.8585 36.7406 26.6207 -13.2549 -1.6101 22.7726
# 2 36.7406 113.0035 36.1171 -15.4766 13.2503 21.2790
# 3 26.6207 36.1171 58.2339 -24.7869 -3.8484 9.7695
# 4 -13.2549 -15.4766 -24.7869 39.4533 -2.2563 0.4447
# 5 -1.6101 13.2503 -3.8484 -2.2563 31.4301 -4.2918
# 6 22.7726 21.2790 9.7695 0.4447 -4.2918 43.1047
#
#
#
# Elastic Compliance Matrix: (Units=1/GPa)
#
#
# Indices 1 2 3 4 5 6 
#
# 1 0.007757 -0.001287 -0.001767 0.001047 0.000384 -0.003034
# 2 -0.001287 0.013428 -0.007489 -0.000234 -0.007341 -0.004980
# 3 -0.001767 -0.007489 0.030157 0.015872 0.007679 -0.001604
# 4 0.001047 -0.000234 0.015872 0.035859 0.004124 -0.003994
# 5 0.000384 -0.007341 0.007679 0.004124 0.036892 0.005311
# 6 -0.003034 -0.004980 -0.001604 -0.003994 0.005311 0.028194
#
#
# Mechanical properties :
#
#
# Convention : Reuss Voigt Hill
#
# Bulk Modulus (GPa) = 33.05255 58.00586 45.52921
# Shear Modulus (GPa) = 27.25400 37.70548 32.47974
#
# Velocity S-wave (km/s) = 3.39668 3.99523 3.70805
# Velocity P-wave (km/s) = 5.41990 6.77038 6.13243
#
# Compressibility (1/GPa) = 0.03025486
#
# Stress axis : x y z
#
# Youngs Moduli (GPa) = 128.91794 74.47287 33.15975
#
# Poissons Ratio (x) = 0.09588 0.05861
# Poissons Ratio (y) = 0.16597 0.24832
# Poissons Ratio (z) = 0.22785 0.55769
#
# Static dielectric constant tensor:
#      x y z
#    x 4.580130 -0.030230 0.037150 
#    y -0.030230 4.120130 -0.310770 
#    z 0.037150 -0.310770 4.405060 
# 
# 
# High freq. dielectric constant tensor:
#      x y z
#    x 1.957750 0.003460 0.000220 
#    y 0.003460 1.932560 -0.014770 
#    z 0.000220 -0.014770 1.930030 
# 
# From -- ./inp_files/446105.got.cif
#   From: 2010.06.25/outbox.cif.g09.slc.cpg/sg2_224_cif.got.tgz:446105.got - 2010.06.27 13:26:56.
