data_PCOD8022500
_publ_section_title
;
Structure prediction by ZEFSAII (Michael W. Deem and Ramdas Pophale) SiO2 
 PCOD8022500
Probable space group: P -1
;
_chemical_formula_sum "Si O2"
_cell_formula_units_Z 14
_cell_length_a 9.487438
_cell_length_b 9.070553
_cell_length_c 15.487974
_cell_angle_alpha 118.706024
_cell_angle_beta 45.873208
_cell_angle_gamma 135.965655
_cell_volume 664.453433
_symmetry_space_group_name_H-M "P -1"
_symmetry_group_IT_number 2
_symmetry_cell_setting 'triclinic'
loop_
_space_group_symop_operation_xyz
x,y,z
-x,-y,-z
loop_
_atom_site_type_symbol
_atom_site_label
_atom_site_fract_x
_atom_site_fract_y
_atom_site_fract_z
Si Si1 0.789889 0.702733 0.833730
Si Si2 0.447509 0.225864 0.896971
Si Si3 0.138642 0.719670 0.452371
Si Si4 0.413567 0.589634 0.632949
Si Si5 0.660348 0.070121 0.290228
Si Si6 0.788579 0.816227 0.680264
Si Si7 0.883474 0.245862 0.728636
O O1 0.595662 0.448546 0.844934
O O2 0.727419 0.777830 0.796746
O O3 0.075790 0.787205 0.733444
O O4 0.752502 0.801764 0.960435
O O5 0.652767 0.226069 0.863230
O O6 0.304932 0.024722 0.837211
O O7 0.085745 0.673225 0.360064
O O8 0.000000 0.500000 0.500000
O O9 0.036907 0.842608 0.564259
O O10 0.436645 0.869426 0.385319
O O11 0.500000 0.500000 0.500000
O O12 0.442930 0.798018 0.649619
O O13 0.560999 0.625209 0.667521
O O14 0.125255 0.412406 0.728105
O O15 0.835767 0.025689 0.686202
#
# Coordination Sequence:
#
# PCOD8022500 Si02
#       7
#     2   2   2   2   2   2   2
#     4  11  25  43  72  99 128 175 225 273 325 387
#     4  10  22  46  71  94 134 173 221 276 324 386
#     4  11  23  40  66  95 134 168 216 274 322 393
#     4  12  23  40  67  93 134 177 212 261 337 393
#     4  11  23  44  68  96 131 178 217 268 332 392
#     4  12  24  41  64 100 133 169 221 271 328 390
#     4  11  22  42  64  94 132 176 215 270 332 384
#
# _framework density 21.069946999999999
#
# number of rings (size 3 to 8) (size 9 to 14) (size 15 to 20)
#    0.000    0.857    5.714    3.429    0.000    3.429 
#    0.000    0.714    0.000    0.000    0.000    0.000 
#    0.000    0.000    0.000    0.000    0.000    0.000 
#
# Total GULP energy -173572.761762 kJ/mol
# GULP energy per Si atom -12398.054412 kJ/mol
# Density = 2.102199 g / cm^3
# Si number density = 21.069947 Si / 1000 Ang^3
#
#
#
# Elastic Constant Matrix: (Units=GPa)
#
#
# Indices 1 2 3 4 5 6 
#
# 1 112.1049 43.8375 43.9964 -12.4095 4.4718 2.0070
# 2 43.8375 90.7954 45.7822 8.5889 3.0707 -0.1472
# 3 43.9964 45.7822 81.0918 -4.9343 -6.5397 -11.2965
# 4 -12.4095 8.5889 -4.9343 35.5338 1.6453 -12.9199
# 5 4.4718 3.0707 -6.5397 1.6453 33.0421 4.1023
# 6 2.0070 -0.1472 -11.2965 -12.9199 4.1023 37.0362
#
#
#
# Elastic Compliance Matrix: (Units=1/GPa)
#
#
# Indices 1 2 3 4 5 6 
#
# 1 0.013091 -0.004467 -0.004472 0.005138 -0.002495 -0.000023
# 2 -0.004467 0.019149 -0.009944 -0.009607 -0.001938 -0.005852
# 3 -0.004472 -0.009944 0.022414 0.007013 0.004500 0.008987
# 4 0.005138 -0.009607 0.007013 0.039048 -0.002308 0.015700
# 5 -0.002495 -0.001938 0.004500 -0.002308 0.032144 -0.002865
# 6 -0.000023 -0.005852 0.008987 0.015700 -0.002865 0.035514
#
#
# Mechanical properties :
#
#
# Convention : Reuss Voigt Hill
#
# Bulk Modulus (GPa) = 59.21332 61.24715 60.23023
# Shear Modulus (GPa) = 24.41952 31.14748 27.78350
#
# Velocity S-wave (km/s) = 3.40806 3.84902 3.63524
# Velocity P-wave (km/s) = 6.60687 6.99177 6.80205
#
# Compressibility (1/GPa) = 0.01688809
#
# Stress axis : x y z
#
# Youngs Moduli (GPa) = 76.38955 52.22100 44.61575
#
# Poissons Ratio (x) = 0.23328 0.19953
# Poissons Ratio (y) = 0.34124 0.44364
# Poissons Ratio (z) = 0.34162 0.51927
#
# Static dielectric constant tensor:
#      x y z
#    x 5.326660 0.426200 -0.587700 
#    y 0.426200 4.018980 0.007120 
#    z -0.587700 0.007120 3.925100 
# 
# 
# High freq. dielectric constant tensor:
#      x y z
#    x 1.821530 0.004090 -0.022190 
#    y 0.004090 1.838650 0.011740 
#    z -0.022190 0.011740 1.817640 
# 
# From -- ./inp_files/200660.got.cif
#   From: 2010.06.25/outbox.cif.g09.slc.cpg/sg2_101_cif.got.tgz:200660.got - 2010.06.27 13:26:56.
