data_PCOD8022368
_publ_section_title
;
Structure prediction by ZEFSAII (Michael W. Deem and Ramdas Pophale) SiO2 
 PCOD8022368
Probable space group: P -1
;
_chemical_formula_sum "Si O2"
_cell_formula_units_Z 16
_cell_length_a 8.427842
_cell_length_b 18.927501
_cell_length_c 13.684737
_cell_angle_alpha 23.055650
_cell_angle_beta 68.707315
_cell_angle_gamma 58.532605
_cell_volume 682.833612
_symmetry_space_group_name_H-M "P -1"
_symmetry_group_IT_number 2
_symmetry_cell_setting 'triclinic'
loop_
_space_group_symop_operation_xyz
x,y,z
-x,-y,-z
loop_
_atom_site_type_symbol
_atom_site_label
_atom_site_fract_x
_atom_site_fract_y
_atom_site_fract_z
Si Si1 0.936134 0.907016 0.547477
Si Si2 0.286010 0.401217 0.345951
Si Si3 0.489742 0.949647 0.955077
Si Si4 0.290427 0.707807 0.266326
Si Si5 0.854718 0.546675 0.283736
Si Si6 0.667137 0.746825 0.877128
Si Si7 0.711414 0.231839 0.028115
Si Si8 0.683596 0.518231 0.973770
O O1 0.739981 0.907714 0.628828
O O2 0.000000 0.000000 0.500000
O O3 0.125835 0.683516 0.765027
O O4 0.892812 0.048205 0.281485
O O5 0.376137 0.544837 0.178553
O O6 0.244759 0.412541 0.225139
O O7 0.073371 0.498614 0.323119
O O8 0.440745 0.158057 0.642159
O O9 0.308249 0.905201 0.045336
O O10 0.694590 0.753282 0.117170
O O11 0.500000 0.000000 0.000000
O O12 0.500000 0.500000 0.500000
O O13 0.141538 0.667634 0.415041
O O14 0.217539 0.741726 0.127398
O O15 0.822540 0.575986 0.136362
O O16 0.621862 0.681146 0.866900
O O17 0.454081 0.836264 0.864268
O O18 0.500000 0.500000 0.000000
#
# Coordination Sequence:
#
# PCOD8022368 Si02
#       8
#     2   2   2   2   2   2   2   2
#     4  12  25  46  70 108 146 189 253 297 368 443
#     4  12  26  47  71 108 149 190 249 300 370 440
#     4  11  26  44  75 107 142 190 247 308 371 438
#     4  10  22  45  73 103 144 191 245 298 368 439
#     4  11  25  49  76 102 151 194 243 307 369 435
#     4  12  24  45  74 104 146 195 235 309 368 434
#     4  12  24  44  74 104 145 196 237 299 372 439
#     4  12  26  45  69 105 150 194 245 307 365 442
#
# _framework density 23.431768000000002
#
# number of rings (size 3 to 8) (size 9 to 14) (size 15 to 20)
#    0.000    0.500    6.250    2.250    1.750    5.500 
#    0.000    0.000    0.000    0.000    0.000    0.000 
#    0.000    0.000    0.000    0.000    0.000    0.000 
#
# Total GULP energy -198309.249280 kJ/mol
# GULP energy per Si atom -12394.328080 kJ/mol
# Density = 2.337844 g / cm^3
# Si number density = 23.431768 Si / 1000 Ang^3
#
#
#
# Elastic Constant Matrix: (Units=GPa)
#
#
# Indices 1 2 3 4 5 6 
#
# 1 113.4458 29.9541 35.3883 6.4219 -13.5109 5.6247
# 2 29.9541 87.2626 31.5832 20.4186 -4.7010 16.3933
# 3 35.3883 31.5832 142.8898 25.0558 0.4771 6.1444
# 4 6.4219 20.4186 25.0558 38.1882 3.4622 10.5705
# 5 -13.5109 -4.7010 0.4771 3.4622 40.4562 1.6653
# 6 5.6247 16.3933 6.1444 10.5705 1.6653 46.9344
#
#
#
# Elastic Compliance Matrix: (Units=1/GPa)
#
#
# Indices 1 2 3 4 5 6 
#
# 1 0.010576 -0.002844 -0.002155 0.000959 0.003158 -0.000320
# 2 -0.002844 0.015049 -0.001464 -0.005777 0.001453 -0.003474
# 3 -0.002155 -0.001464 0.008646 -0.004668 -0.000622 0.000711
# 4 0.000959 -0.005777 -0.004668 0.033831 -0.002986 -0.004999
# 5 0.003158 0.001453 -0.000622 -0.002986 0.026248 -0.001064
# 6 -0.000320 -0.003474 0.000711 -0.004999 -0.001064 0.023629
#
#
# Mechanical properties :
#
#
# Convention : Reuss Voigt Hill
#
# Bulk Modulus (GPa) = 46.85486 59.71659 53.28573
# Shear Modulus (GPa) = 36.22647 41.56060 38.89354
#
# Velocity S-wave (km/s) = 3.93624 4.21608 4.07856
# Velocity P-wave (km/s) = 6.37952 7.01720 6.70595
#
# Compressibility (1/GPa) = 0.02134250
#
# Stress axis : x y z
#
# Youngs Moduli (GPa) = 94.55502 66.45060 115.66227
#
# Poissons Ratio (x) = 0.18901 0.24931
# Poissons Ratio (y) = 0.26894 0.16935
# Poissons Ratio (z) = 0.20381 0.09730
#
# Static dielectric constant tensor:
#      x y z
#    x 4.423680 0.104190 -0.361500 
#    y 0.104190 4.028090 0.415770 
#    z -0.361500 0.415770 4.363620 
# 
# 
# High freq. dielectric constant tensor:
#      x y z
#    x 1.939840 0.007380 -0.002980 
#    y 0.007380 1.917020 0.023620 
#    z -0.002980 0.023620 1.932450 
# 
# From -- ./inp_files/508061.got.cif
#   From: 2010.06.25/outbox.cif.g09.slc.cpg/sg2_255_cif.got.tgz:508061.got - 2010.06.27 13:26:56.
