data_PCOD8022137
_publ_section_title
;
Structure prediction by ZEFSAII (Michael W. Deem and Ramdas Pophale) SiO2 
 PCOD8022137
Probable space group: P -1
;
_chemical_formula_sum "Si O2"
_cell_formula_units_Z 16
_cell_length_a 9.385491
_cell_length_b 6.481381
_cell_length_c 11.591360
_cell_angle_alpha 78.006601
_cell_angle_beta 103.260344
_cell_angle_gamma 87.808570
_cell_volume 668.594276
_symmetry_space_group_name_H-M "P -1"
_symmetry_group_IT_number 2
_symmetry_cell_setting 'triclinic'
loop_
_space_group_symop_operation_xyz
x,y,z
-x,-y,-z
loop_
_atom_site_type_symbol
_atom_site_label
_atom_site_fract_x
_atom_site_fract_y
_atom_site_fract_z
Si Si1 0.138395 0.947460 0.451734
Si Si2 0.477607 0.674351 0.323510
Si Si3 0.137681 0.406669 0.962184
Si Si4 0.745462 0.177575 0.121231
Si Si5 0.643857 0.720881 0.574784
Si Si6 0.389423 0.743837 0.677460
Si Si7 0.718372 0.016064 0.895639
Si Si8 0.984145 0.136790 0.796373
O O1 0.253896 0.793048 0.560270
O O2 0.097683 0.815940 0.345910
O O3 0.203911 0.169511 0.400321
O O4 0.000000 0.000000 0.500000
O O5 0.579240 0.762618 0.430264
O O6 0.348740 0.534947 0.368871
O O7 0.580076 0.513915 0.278780
O O8 0.410199 0.884209 0.221791
O O9 0.242323 0.236934 0.077348
O O10 0.248156 0.576554 0.930789
O O11 0.000000 0.500000 0.000000
O O12 0.083594 0.315953 0.840323
O O13 0.642530 0.150621 0.216203
O O14 0.671493 0.071266 0.011646
O O15 0.911361 0.076913 0.183933
O O16 0.467962 0.163384 0.364778
O O17 0.870475 0.114023 0.882031
#
# Coordination Sequence:
#
# PCOD8022137 Si02
#       8
#     2   2   2   2   2   2   2   2
#     4  12  24  42  72 111 141 186 239 294 363 426
#     4   9  22  45  70 101 140 194 245 283 354 439
#     4  11  21  42  67 103 142 191 229 303 370 404
#     4  11  22  42  65 104 149 182 230 307 353 420
#     4   9  22  46  72  95 151 189 232 296 358 419
#     4  10  22  45  66 100 152 186 230 295 354 430
#     4  11  22  41  71 101 144 182 252 287 349 443
#     4  11  23  40  68 105 147 177 243 297 351 439
#
# _framework density 23.930806
#
# number of rings (size 3 to 8) (size 9 to 14) (size 15 to 20)
#    0.750    0.750    3.750    1.875    0.000    3.500 
#    2.250    1.875    0.000    0.000    0.000    0.000 
#    0.000    0.000    0.000    0.000    0.000    0.000 
#
# Total GULP energy -198296.564524 kJ/mol
# GULP energy per Si atom -12393.535283 kJ/mol
# Density = 2.387634 g / cm^3
# Si number density = 23.930806 Si / 1000 Ang^3
#
#
#
# Elastic Constant Matrix: (Units=GPa)
#
#
# Indices 1 2 3 4 5 6 
#
# 1 96.2419 26.9376 41.9595 -2.4229 -13.3658 -9.3104
# 2 26.9376 91.8826 40.5241 -3.7599 11.2166 -16.8705
# 3 41.9595 40.5241 143.9388 5.3753 -2.7682 -22.0497
# 4 -2.4229 -3.7599 5.3753 34.9059 -16.6727 2.6118
# 5 -13.3658 11.2166 -2.7682 -16.6727 37.4076 3.2876
# 6 -9.3104 -16.8705 -22.0497 2.6118 3.2876 31.4405
#
#
#
# Elastic Compliance Matrix: (Units=1/GPa)
#
#
# Indices 1 2 3 4 5 6 
#
# 1 0.014010 -0.003726 -0.003291 0.005153 0.008304 -0.001455
# 2 -0.003726 0.014947 -0.002202 -0.002424 -0.007617 0.006371
# 3 -0.003291 -0.002202 0.009347 -0.003028 -0.001597 0.004818
# 4 0.005153 -0.002424 -0.003028 0.039625 0.020651 -0.007350
# 5 0.008304 -0.007617 -0.001597 0.020651 0.041847 -0.008839
# 6 -0.001455 0.006371 0.004818 -0.007350 -0.008839 0.039707
#
#
# Mechanical properties :
#
#
# Convention : Reuss Voigt Hill
#
# Bulk Modulus (GPa) = 50.33491 61.21174 55.77332
# Shear Modulus (GPa) = 27.09380 35.59360 31.34370
#
# Velocity S-wave (km/s) = 3.36843 3.86081 3.62299
# Velocity P-wave (km/s) = 6.01727 6.74601 6.39203
#
# Compressibility (1/GPa) = 0.01986693
#
# Stress axis : x y z
#
# Youngs Moduli (GPa) = 71.37563 66.90129 106.98598
#
# Poissons Ratio (x) = 0.24928 0.35206
# Poissons Ratio (y) = 0.26596 0.23559
# Poissons Ratio (z) = 0.23488 0.14732
#
# Static dielectric constant tensor:
#      x y z
#    x 4.144380 -0.270930 -0.093440 
#    y -0.270930 4.206200 -0.016580 
#    z -0.093440 -0.016580 4.301670 
# 
# 
# High freq. dielectric constant tensor:
#      x y z
#    x 1.932310 -0.015780 -0.000010 
#    y -0.015780 1.949520 0.007200 
#    z -0.000010 0.007200 1.950390 
# 
# From -- ./inp_files/410293.got.cif
#   From: 2010.06.25/outbox.cif.g09.slc.cpg/sg2_206_cif.got.tgz:410293.got - 2010.06.27 13:26:56.
