data_PCOD8022555
_publ_section_title
;
Structure prediction by ZEFSAII (Michael W. Deem and Ramdas Pophale) SiO2 
 PCOD8022555
Probable space group: P -1
;
_chemical_formula_sum "Si O2"
_cell_formula_units_Z 16
_cell_length_a 21.527562
_cell_length_b 9.366644
_cell_length_c 20.456972
_cell_angle_alpha 145.674553
_cell_angle_beta 18.885280
_cell_angle_gamma 143.665546
_cell_volume 746.242287
_symmetry_space_group_name_H-M "P -1"
_symmetry_group_IT_number 2
_symmetry_cell_setting 'triclinic'
loop_
_space_group_symop_operation_xyz
x,y,z
-x,-y,-z
loop_
_atom_site_type_symbol
_atom_site_label
_atom_site_fract_x
_atom_site_fract_y
_atom_site_fract_z
Si Si1 0.795150 0.728404 0.250974
Si Si2 0.015391 0.775669 0.691102
Si Si3 0.863560 0.505168 0.231333
Si Si4 0.915712 0.021952 0.439260
Si Si5 0.455260 0.932966 0.593501
Si Si6 0.714494 0.096025 0.799535
Si Si7 0.376121 0.396062 0.935899
Si Si8 0.778384 0.693914 0.678910
O O1 0.747097 0.606623 0.324323
O O2 0.604853 0.761400 0.411720
O O3 0.922909 0.003130 0.234452
O O4 0.917705 0.535341 0.019006
O O5 0.120418 0.844506 0.543345
O O6 0.085174 0.520005 0.552043
O O7 0.779610 0.745684 0.911213
O O8 0.751967 0.238730 0.266383
O O9 0.886778 0.716238 0.345107
O O10 0.760790 0.087551 0.672483
O O11 0.138627 0.140511 0.278307
O O12 0.500000 0.000000 0.500000
O O13 0.453554 0.194918 0.734231
O O14 0.835575 0.900513 0.642059
O O15 0.737764 0.396994 0.910954
O O16 0.500000 0.000000 0.000000
O O17 0.556271 0.562798 0.857468
#
# Coordination Sequence:
#
# PCOD8022555 Si02
#       8
#     2   2   2   2   2   2   2   2
#     4  10  22  47  68  96 132 185 214 277 345 381
#     4  11  22  43  70  95 135 169 227 279 323 395
#     4  10  24  44  70  95 138 172 228 274 329 401
#     4  11  24  42  66 102 132 173 223 271 325 397
#     4  12  26  43  69 101 134 173 228 278 327 405
#     4  10  24  43  64  93 135 177 212 267 329 399
#     4  11  24  43  68  97 133 174 221 272 338 385
#     4  11  23  43  68  90 138 179 213 271 336 389
#
# _framework density 21.440757000000001
#
# number of rings (size 3 to 8) (size 9 to 14) (size 15 to 20)
#    0.000    1.250    3.750    1.125    3.500    2.000 
#    4.500    0.000    0.000    0.000    0.000    0.000 
#    0.000    0.000    0.000    0.000    0.000    0.000 
#
# Total GULP energy -198216.092351 kJ/mol
# GULP energy per Si atom -12388.505772 kJ/mol
# Density = 2.139196 g / cm^3
# Si number density = 21.440757 Si / 1000 Ang^3
#
#
#
# Elastic Constant Matrix: (Units=GPa)
#
#
# Indices 1 2 3 4 5 6 
#
# 1 54.7727 29.5259 38.3550 10.6813 0.1310 -5.8023
# 2 29.5259 107.8085 37.5971 10.2831 -0.3418 9.6455
# 3 38.3550 37.5971 100.6026 2.0261 7.8464 -8.2472
# 4 10.6813 10.2831 2.0261 47.0799 1.6723 -7.8016
# 5 0.1310 -0.3418 7.8464 1.6723 19.9771 -0.7477
# 6 -5.8023 9.6455 -8.2472 -7.8016 -0.7477 37.8530
#
#
#
# Elastic Compliance Matrix: (Units=1/GPa)
#
#
# Indices 1 2 3 4 5 6 
#
# 1 0.028144 -0.004282 -0.009126 -0.004777 0.003820 0.002508
# 2 -0.004282 0.012351 -0.003473 -0.002469 0.001622 -0.005037
# 3 -0.009126 -0.003473 0.015412 0.002936 -0.006174 0.003327
# 4 -0.004777 -0.002469 0.002936 0.023732 -0.002950 0.005370
# 5 0.003820 0.001622 -0.006174 -0.002950 0.052704 -0.000740
# 6 0.002508 -0.005037 0.003327 0.005370 -0.000740 0.029903
#
#
# Mechanical properties :
#
#
# Convention : Reuss Voigt Hill
#
# Bulk Modulus (GPa) = 45.15512 52.68218 48.91865
# Shear Modulus (GPa) = 24.58329 31.49574 28.03951
#
# Velocity S-wave (km/s) = 3.38977 3.83687 3.62023
# Velocity P-wave (km/s) = 6.03547 6.65230 6.35138
#
# Compressibility (1/GPa) = 0.02214588
#
# Stress axis : x y z
#
# Youngs Moduli (GPa) = 35.53136 80.96605 64.88243
#
# Poissons Ratio (x) = 0.34669 0.59211
# Poissons Ratio (y) = 0.15214 0.22533
# Poissons Ratio (z) = 0.32426 0.28119
#
# Static dielectric constant tensor:
#      x y z
#    x 3.893230 -0.247170 -0.210330 
#    y -0.247170 4.470190 0.120360 
#    z -0.210330 0.120360 3.876200 
# 
# 
# High freq. dielectric constant tensor:
#      x y z
#    x 1.809960 -0.003550 -0.006720 
#    y -0.003550 1.871660 0.000860 
#    z -0.006720 0.000860 1.844540 
# 
# From -- ./inp_files/474358.got.cif
#   From: 2010.06.25/outbox.cif.g09.slc.cpg/sg2_238_cif.got.tgz:474358.got - 2010.06.27 13:26:56.
