data_PCOD8022949
_publ_section_title
;
Structure prediction by ZEFSAII (Michael W. Deem and Ramdas Pophale) SiO2 
 PCOD8022949
Probable space group: P -1
;
_chemical_formula_sum "Si O2"
_cell_formula_units_Z 12
_cell_length_a 11.405260
_cell_length_b 14.294760
_cell_length_c 18.489623
_cell_angle_alpha 158.177098
_cell_angle_beta 143.691452
_cell_angle_gamma 30.329418
_cell_volume 565.700298
_symmetry_space_group_name_H-M "P -1"
_symmetry_group_IT_number 2
_symmetry_cell_setting 'triclinic'
loop_
_space_group_symop_operation_xyz
x,y,z
-x,-y,-z
loop_
_atom_site_type_symbol
_atom_site_label
_atom_site_fract_x
_atom_site_fract_y
_atom_site_fract_z
Si Si1 0.694613 0.203259 0.276576
Si Si2 0.260654 0.197314 0.115129
Si Si3 0.265801 0.901037 0.051077
Si Si4 0.424274 0.231766 0.465170
Si Si5 0.309933 0.336667 0.638056
Si Si6 0.068052 0.231236 0.562348
O O1 0.485845 0.211348 0.220215
O O2 0.602006 0.528737 0.433234
O O3 0.896811 0.117802 0.374213
O O4 0.798823 0.953847 0.087567
O O5 0.041250 0.526961 0.254562
O O6 0.317838 0.005079 0.077123
O O7 0.404000 0.543197 0.861977
O O8 0.356229 0.006430 0.237871
O O9 0.000000 0.000000 0.000000
O O10 0.255036 0.395310 0.567225
O O11 0.691604 0.045454 0.490060
O O12 0.088863 0.394347 0.617369
O O13 0.500000 0.000000 0.500000
#
# Coordination Sequence:
#
# PCOD8022949 Si02
#       6
#     2   2   2   2   2   2
#     4  11  24  45  65  91 133 169 214 265 313 378
#     4  11  24  43  66  95 127 170 216 263 316 378
#     4  12  23  41  68  95 126 171 211 261 322 378
#     4  11  25  41  68  96 130 169 211 262 320 380
#     4  10  23  40  62  96 129 162 209 262 314 375
#     4  11  24  42  67  95 127 171 212 266 313 379
#
# _framework density 21.212644999999998
#
# number of rings (size 3 to 8) (size 9 to 14) (size 15 to 20)
#    0.000    1.000    5.000    0.500    2.333    7.333 
#    0.000    1.667    0.000    0.000    0.000    0.000 
#    0.000    0.000    0.000    0.000    0.000    0.000 
#
# Total GULP energy -148804.369968 kJ/mol
# GULP energy per Si atom -12400.364164 kJ/mol
# Density = 2.116436 g / cm^3
# Si number density = 21.212645 Si / 1000 Ang^3
#
#
#
# Elastic Constant Matrix: (Units=GPa)
#
#
# Indices 1 2 3 4 5 6 
#
# 1 113.3792 27.0626 51.5082 4.0919 -5.8804 -6.0249
# 2 27.0626 88.5104 54.6938 -10.1549 2.9355 -8.4621
# 3 51.5082 54.6938 187.7596 3.2960 -4.2347 -9.3873
# 4 4.0919 -10.1549 3.2960 24.6468 -3.8671 -1.3872
# 5 -5.8804 2.9355 -4.2347 -3.8671 34.0955 9.4835
# 6 -6.0249 -8.4621 -9.3873 -1.3872 9.4835 22.9066
#
#
#
# Elastic Compliance Matrix: (Units=1/GPa)
#
#
# Indices 1 2 3 4 5 6 
#
# 1 0.010477 -0.002107 -0.002173 -0.002079 0.001374 0.000392
# 2 -0.002107 0.015820 -0.003958 0.007245 -0.002868 0.005294
# 3 -0.002173 -0.003958 0.007152 -0.002123 0.000452 0.000582
# 4 -0.002079 0.007245 -0.002123 0.044824 0.003088 0.002696
# 5 0.001374 -0.002868 0.000452 0.003088 0.034255 -0.014508
# 6 0.000392 0.005294 0.000582 0.002696 -0.014508 0.052123
#
#
# Mechanical properties :
#
#
# Convention : Reuss Voigt Hill
#
# Bulk Modulus (GPa) = 58.91641 72.90869 65.91255
# Shear Modulus (GPa) = 26.76884 33.42210 30.09547
#
# Velocity S-wave (km/s) = 3.55622 3.97366 3.77072
# Velocity P-wave (km/s) = 6.68556 7.44972 7.07796
#
# Compressibility (1/GPa) = 0.01697320
#
# Stress axis : x y z
#
# Youngs Moduli (GPa) = 95.44346 63.20927 139.83020
#
# Poissons Ratio (x) = 0.13319 0.30390
# Poissons Ratio (y) = 0.20112 0.55339
# Poissons Ratio (z) = 0.20743 0.25015
#
# Static dielectric constant tensor:
#      x y z
#    x 4.425740 -0.017460 -0.216020 
#    y -0.017460 3.513060 0.154910 
#    z -0.216020 0.154910 4.387770 
# 
# 
# High freq. dielectric constant tensor:
#      x y z
#    x 1.847590 -0.004920 -0.005140 
#    y -0.004920 1.808790 0.011440 
#    z -0.005140 0.011440 1.854670 
# 
# From -- ./inp_files/232981.got.cif
#   From: 2010.06.25/outbox.cif.g09.slc.cpg/sg2_117_cif.got.tgz:232981.got - 2010.06.27 13:26:56.
