data_PCOD8022069
_publ_section_title
;
Structure prediction by ZEFSAII (Michael W. Deem and Ramdas Pophale) SiO2 
 PCOD8022069
Probable space group: P -1
;
_chemical_formula_sum "Si O2"
_cell_formula_units_Z 14
_cell_length_a 20.011776
_cell_length_b 17.842271
_cell_length_c 10.871267
_cell_angle_alpha 141.132446
_cell_angle_beta 148.542916
_cell_angle_gamma 17.873372
_cell_volume 608.153760
_symmetry_space_group_name_H-M "P -1"
_symmetry_group_IT_number 2
_symmetry_cell_setting 'triclinic'
loop_
_space_group_symop_operation_xyz
x,y,z
-x,-y,-z
loop_
_atom_site_type_symbol
_atom_site_label
_atom_site_fract_x
_atom_site_fract_y
_atom_site_fract_z
Si Si1 0.164067 0.041409 0.118239
Si Si2 0.280322 0.427363 0.504403
Si Si3 0.463205 0.388451 0.496492
Si Si4 0.733778 0.192354 0.253422
Si Si5 0.939995 0.875082 0.676341
Si Si6 0.298792 0.427035 0.028704
Si Si7 0.744042 0.790524 0.208420
O O1 0.465663 0.836218 0.362751
O O2 0.030563 0.093595 0.100097
O O3 0.175431 0.928635 0.891080
O O4 0.984299 0.300197 0.123922
O O5 0.325409 0.418443 0.421031
O O6 0.214110 0.609522 0.702133
O O7 0.027843 0.544055 0.265685
O O8 0.439373 0.545970 0.695137
O O9 0.778501 0.096639 0.615583
O O10 0.331936 0.470437 0.263925
O O11 0.547873 0.247943 0.101062
O O12 0.000000 0.000000 0.500000
O O13 0.759362 0.901650 0.450138
O O14 0.294849 0.288414 0.862582
O O15 0.500000 0.000000 0.000000
#
# Coordination Sequence:
#
# PCOD8022069 Si02
#       7
#     2   2   2   2   2   2   2
#     4  11  24  46  66 103 140 180 221 278 350 395
#     4   9  23  45  68 105 137 171 228 271 342 413
#     4  11  23  43  73  99 131 180 228 281 332 396
#     4  12  28  44  68 102 135 181 237 277 332 410
#     4   9  22  45  68 101 138 169 222 282 337 395
#     4  12  25  44  69 102 139 178 224 285 339 393
#     4  10  22  44  74 100 138 175 226 280 330 413
#
# _framework density 23.020492999999998
#
# number of rings (size 3 to 8) (size 9 to 14) (size 15 to 20)
#    0.857    0.571    2.857    1.286    4.000    4.000 
#    5.143    4.286    0.000    0.000    0.000    0.000 
#    0.000    0.000    0.000    0.000    0.000    0.000 
#
# Total GULP energy -173519.729784 kJ/mol
# GULP energy per Si atom -12394.266413 kJ/mol
# Density = 2.296810 g / cm^3
# Si number density = 23.020493 Si / 1000 Ang^3
#
#
#
# Elastic Constant Matrix: (Units=GPa)
#
#
# Indices 1 2 3 4 5 6 
#
# 1 81.8235 17.7152 15.4095 -19.4314 -7.4784 -1.8777
# 2 17.7152 128.7703 14.0326 -33.1866 -4.3037 14.1678
# 3 15.4095 14.0326 56.7389 -24.2301 -5.6802 -1.1243
# 4 -19.4314 -33.1866 -24.2301 47.6549 2.6058 -7.3221
# 5 -7.4784 -4.3037 -5.6802 2.6058 46.3221 6.4577
# 6 -1.8777 14.1678 -1.1243 -7.3221 6.4577 44.8921
#
#
#
# Elastic Compliance Matrix: (Units=1/GPa)
#
#
# Indices 1 2 3 4 5 6 
#
# 1 0.013900 -0.000662 -0.001480 0.004564 0.001567 0.001272
# 2 -0.000662 0.009709 0.000547 0.006395 0.000802 -0.002150
# 3 -0.001480 0.000547 0.023119 0.011749 0.001705 0.002015
# 4 0.004564 0.006395 0.011749 0.033861 0.000317 0.003944
# 5 0.001567 0.000802 0.001705 0.000317 0.022572 -0.003340
# 6 0.001272 -0.002150 0.002015 0.003944 -0.003340 0.024182
#
#
# Mechanical properties :
#
#
# Convention : Reuss Voigt Hill
#
# Bulk Modulus (GPa) = 22.96874 40.18301 31.57588
# Shear Modulus (GPa) = 34.47186 42.45219 38.46202
#
# Velocity S-wave (km/s) = 3.87388 4.29896 4.09194
# Velocity P-wave (km/s) = 5.47799 6.49112 6.00596
#
# Compressibility (1/GPa) = 0.04353743
#
# Stress axis : x y z
#
# Youngs Moduli (GPa) = 71.94365 102.99937 43.25400
#
# Poissons Ratio (x) = 0.06823 0.06403
# Poissons Ratio (y) = 0.04766 -0.02368
# Poissons Ratio (z) = 0.10649 -0.05639
#
# Static dielectric constant tensor:
#      x y z
#    x 4.063370 -0.077060 -0.143650 
#    y -0.077060 4.409170 -0.094010 
#    z -0.143650 -0.094010 3.971760 
# 
# 
# High freq. dielectric constant tensor:
#      x y z
#    x 1.903530 -0.005170 -0.014250 
#    y -0.005170 1.927860 -0.011340 
#    z -0.014250 -0.011340 1.898380 
# 
# From -- ./inp_files/472428.got.cif
#   From: 2010.06.25/outbox.cif.g09.slc.cpg/sg2_237_cif.got.tgz:472428.got - 2010.06.27 13:26:56.
