data_PCOD8022799
_publ_section_title
;
Structure prediction by ZEFSAII (Michael W. Deem and Ramdas Pophale) SiO2 
 PCOD8022799
Probable space group: P -1
;
_chemical_formula_sum "Si O2"
_cell_formula_units_Z 12
_cell_length_a 15.914073
_cell_length_b 11.400911
_cell_length_c 4.923144
_cell_angle_alpha 89.503341
_cell_angle_beta 96.151583
_cell_angle_gamma 32.298046
_cell_volume 466.171282
_symmetry_space_group_name_H-M "P -1"
_symmetry_group_IT_number 2
_symmetry_cell_setting 'triclinic'
loop_
_space_group_symop_operation_xyz
x,y,z
-x,-y,-z
loop_
_atom_site_type_symbol
_atom_site_label
_atom_site_fract_x
_atom_site_fract_y
_atom_site_fract_z
Si Si1 0.679439 0.822199 0.987525
Si Si2 0.810233 0.283850 0.472691
Si Si3 0.748042 0.892662 0.506860
Si Si4 0.542308 0.333292 0.671303
Si Si5 0.834765 0.096901 0.999138
Si Si6 0.053144 0.669715 0.767555
O O1 0.736715 0.861446 0.196247
O O2 0.790250 0.577036 0.050964
O O3 0.692756 0.852449 0.684492
O O4 0.500000 0.000000 0.000000
O O5 0.819248 0.225578 0.784012
O O6 0.626668 0.521464 0.292300
O O7 0.885709 0.092018 0.307452
O O8 0.896639 0.306710 0.467832
O O9 0.932379 0.712715 0.618537
O O10 0.631233 0.141137 0.499139
O O11 0.500000 0.500000 0.500000
O O12 0.665985 0.224043 0.958746
O O13 0.973769 0.842573 0.970874
#
# Coordination Sequence:
#
# PCOD8022799 Si02
#       6
#     2   2   2   2   2   2
#     4  12  27  47  70  96 128 173 223 271 322 386
#     4  11  22  39  63  98 131 169 216 265 319 386
#     4  11  26  46  67  99 133 169 218 270 325 388
#     4   9  21  40  66  95 131 171 212 265 324 381
#     4  10  23  39  62  96 133 170 215 266 321 381
#     4  11  25  43  69  96 134 176 215 269 329 386
#
# _framework density 25.741612
#
# number of rings (size 3 to 8) (size 9 to 14) (size 15 to 20)
#    0.000    1.333    0.000    4.000    0.000   17.333 
#    0.000    0.000    0.000    0.000    0.000    0.000 
#    0.000    0.000    0.000    0.000    0.000    0.000 
#
# Total GULP energy -148844.578704 kJ/mol
# GULP energy per Si atom -12403.714892 kJ/mol
# Density = 2.568302 g / cm^3
# Si number density = 25.741612 Si / 1000 Ang^3
#
#
#
# Elastic Constant Matrix: (Units=GPa)
#
#
# Indices 1 2 3 4 5 6 
#
# 1 113.1233 44.9190 20.5823 -13.9400 -4.1113 -19.2502
# 2 44.9190 125.6888 12.3053 -34.4651 -11.2374 -2.7978
# 3 20.5823 12.3053 78.3782 4.9902 2.7962 10.3410
# 4 -13.9400 -34.4651 4.9902 35.5348 5.8831 -1.9904
# 5 -4.1113 -11.2374 2.7962 5.8831 37.0940 -1.3236
# 6 -19.2502 -2.7978 10.3410 -1.9904 -1.3236 56.1303
#
#
#
# Elastic Compliance Matrix: (Units=1/GPa)
#
#
# Indices 1 2 3 4 5 6 
#
# 1 0.011763 -0.003118 -0.003363 0.002250 0.000420 0.004588
# 2 -0.003118 0.012385 -0.001921 0.010770 0.001855 0.000327
# 3 -0.003363 -0.001921 0.014885 -0.005278 -0.001390 -0.004211
# 4 0.002250 0.010770 -0.005278 0.040820 -0.002433 0.003671
# 5 0.000420 0.001855 -0.001390 -0.002433 0.028096 0.001069
# 6 0.004588 0.000327 -0.004211 0.003671 0.001069 0.020337
#
#
# Mechanical properties :
#
#
# Convention : Reuss Voigt Hill
#
# Bulk Modulus (GPa) = 44.98613 52.53371 48.75992
# Shear Modulus (GPa) = 32.78729 41.71071 37.24900
#
# Velocity S-wave (km/s) = 3.57278 4.02974 3.80812
# Velocity P-wave (km/s) = 5.87653 6.48877 6.19022
#
# Compressibility (1/GPa) = 0.02222907
#
# Stress axis : x y z
#
# Youngs Moduli (GPa) = 85.01071 80.74380 67.18340
#
# Poissons Ratio (x) = 0.25176 0.22595
# Poissons Ratio (y) = 0.26506 0.12904
# Poissons Ratio (z) = 0.28590 0.15508
#
# Static dielectric constant tensor:
#      x y z
#    x 5.243880 -0.772990 0.411040 
#    y -0.772990 5.712020 -0.536600 
#    z 0.411040 -0.536600 4.491090 
# 
# 
# High freq. dielectric constant tensor:
#      x y z
#    x 2.043570 -0.012310 0.008540 
#    y -0.012310 2.049030 -0.014480 
#    z 0.008540 -0.014480 2.017440 
# 
# From -- ./inp_files/94781.got.cif
#   From: 2010.06.25/outbox.cif.g09.slc.cpg/sg2_48_cif.got.tgz:94781.got - 2010.06.27 13:26:56.
