data_PCOD8022810
_publ_section_title
;
Structure prediction by ZEFSAII (Michael W. Deem and Ramdas Pophale) SiO2 
 PCOD8022810
Probable space group: P -1
;
_chemical_formula_sum "Si O2"
_cell_formula_units_Z 16
_cell_length_a 7.515092
_cell_length_b 21.208003
_cell_length_c 8.861970
_cell_angle_alpha 36.825321
_cell_angle_beta 128.053599
_cell_angle_gamma 122.121213
_cell_volume 664.422025
_symmetry_space_group_name_H-M "P -1"
_symmetry_group_IT_number 2
_symmetry_cell_setting 'triclinic'
loop_
_space_group_symop_operation_xyz
x,y,z
-x,-y,-z
loop_
_atom_site_type_symbol
_atom_site_label
_atom_site_fract_x
_atom_site_fract_y
_atom_site_fract_z
Si Si1 0.209788 0.013282 0.404603
Si Si2 0.907450 0.835357 0.724707
Si Si3 0.457151 0.598124 0.496424
Si Si4 0.213217 0.222074 0.538158
Si Si5 0.462440 0.367963 0.864360
Si Si6 0.925475 0.319073 0.688273
Si Si7 0.652882 0.978904 0.850612
Si Si8 0.248516 0.783519 0.516084
O O1 0.239577 0.128585 0.278354
O O2 0.159052 0.025619 0.175361
O O3 0.426941 0.952528 0.681667
O O4 0.989855 0.942987 0.477761
O O5 0.770914 0.765277 0.660129
O O6 0.102081 0.772111 0.023469
O O7 0.653812 0.674777 0.525116
O O8 0.540731 0.480663 0.764494
O O9 0.424488 0.636490 0.233478
O O10 0.229285 0.594454 0.487155
O O11 0.954892 0.217036 0.468913
O O12 0.329201 0.114682 0.843313
O O13 0.188165 0.360091 0.727623
O O14 0.548669 0.275571 0.189413
O O15 0.828088 0.275884 0.562220
O O16 0.664341 0.094874 0.711150
#
# Coordination Sequence:
#
# PCOD8022810 Si02
#       8
#     2   2   2   2   2   2   2   2
#     4  10  23  39  63  93 145 197 232 293 346 421
#     4  11  24  41  63 103 144 190 240 291 351 431
#     4  11  27  50  78 106 143 190 242 304 358 433
#     4  12  25  44  70 108 149 192 240 296 362 428
#     4  11  27  54  75 106 144 189 244 300 367 423
#     4  12  26  48  75 109 145 187 243 301 363 426
#     4  11  24  41  67 102 142 194 237 287 360 428
#     4  12  26  45  75 107 145 193 236 297 363 428
#
# _framework density 24.081078999999999
#
# number of rings (size 3 to 8) (size 9 to 14) (size 15 to 20)
#    0.000    0.750    2.500    3.750   10.500    1.500 
#    2.250    0.000    0.000    0.000    0.000    0.000 
#    0.000    0.000    0.000    0.000    0.000    0.000 
#
# Total GULP energy -198336.721936 kJ/mol
# GULP energy per Si atom -12396.045121 kJ/mol
# Density = 2.402627 g / cm^3
# Si number density = 24.081079 Si / 1000 Ang^3
#
#
#
# Elastic Constant Matrix: (Units=GPa)
#
#
# Indices 1 2 3 4 5 6 
#
# 1 71.2686 34.7687 15.6553 -1.9970 2.6564 -14.9220
# 2 34.7687 161.9409 49.1379 -3.7333 -3.0963 -20.0507
# 3 15.6553 49.1379 80.4367 8.4283 -1.4157 -13.2980
# 4 -1.9970 -3.7333 8.4283 31.5701 -2.4689 -6.2295
# 5 2.6564 -3.0963 -1.4157 -2.4689 28.4010 4.9843
# 6 -14.9220 -20.0507 -13.2980 -6.2295 4.9843 50.8392
#
#
#
# Elastic Compliance Matrix: (Units=1/GPa)
#
#
# Indices 1 2 3 4 5 6 
#
# 1 0.016574 -0.002745 -0.001111 0.001604 -0.002455 0.003929
# 2 -0.002745 0.008420 -0.004596 0.002419 0.000889 0.001522
# 3 -0.001111 -0.004596 0.016195 -0.004652 -0.000267 0.001554
# 4 0.001604 0.002419 -0.004652 0.034300 0.002126 0.004202
# 5 -0.002455 0.000889 -0.000267 0.002126 0.036365 -0.003745
# 6 0.003929 0.001522 0.001554 0.004202 -0.003745 0.022712
#
#
# Mechanical properties :
#
#
# Convention : Reuss Voigt Hill
#
# Bulk Modulus (GPa) = 41.17484 56.97445 49.07465
# Shear Modulus (GPa) = 31.33535 36.43436 33.88486
#
# Velocity S-wave (km/s) = 3.61119 3.89393 3.75522
# Velocity P-wave (km/s) = 5.87564 6.62780 6.26302
#
# Compressibility (1/GPa) = 0.02428667
#
# Stress axis : x y z
#
# Youngs Moduli (GPa) = 60.33726 118.76299 61.74622
#
# Poissons Ratio (x) = 0.32599 0.06858
# Poissons Ratio (y) = 0.16562 0.28376
# Poissons Ratio (z) = 0.06701 0.54579
#
# Static dielectric constant tensor:
#      x y z
#    x 4.600330 -0.273290 -0.037290 
#    y -0.273290 4.502240 0.050590 
#    z -0.037290 0.050590 4.152590 
# 
# 
# High freq. dielectric constant tensor:
#      x y z
#    x 1.962360 -0.010360 -0.000790 
#    y -0.010360 1.971470 0.006460 
#    z -0.000790 0.006460 1.942100 
# 
# From -- ./inp_files/223078.got.cif
#   From: 2010.06.25/outbox.cif.g09.slc.cpg/sg2_112_cif.got.tgz:223078.got - 2010.06.27 13:26:56.
