data_PCOD8022027
_publ_section_title
;
Structure prediction by ZEFSAII (Michael W. Deem and Ramdas Pophale) SiO2 
 PCOD8022027
Probable space group: P -1
;
_chemical_formula_sum "Si O2"
_cell_formula_units_Z 12
_cell_length_a 16.666509
_cell_length_b 13.085661
_cell_length_c 11.072569
_cell_angle_alpha 37.349011
_cell_angle_beta 21.631351
_cell_angle_gamma 35.859385
_cell_volume 511.716690
_symmetry_space_group_name_H-M "P -1"
_symmetry_group_IT_number 2
_symmetry_cell_setting 'triclinic'
loop_
_space_group_symop_operation_xyz
x,y,z
-x,-y,-z
loop_
_atom_site_type_symbol
_atom_site_label
_atom_site_fract_x
_atom_site_fract_y
_atom_site_fract_z
Si Si1 0.300020 0.511550 0.864825
Si Si2 0.692730 0.904095 0.065243
Si Si3 0.010597 0.604204 0.767661
Si Si4 0.551116 0.302448 0.933539
Si Si5 0.235321 0.850044 0.784244
Si Si6 0.559225 0.795055 0.578586
O O1 0.500000 0.500000 0.500000
O O2 0.397444 0.372788 0.966245
O O3 0.194448 0.708062 0.882357
O O4 0.089675 0.465684 0.142122
O O5 0.423866 0.930818 0.385685
O O6 0.759517 0.770954 0.218086
O O7 0.857556 0.809998 0.813558
O O8 0.711862 0.098808 0.877982
O O9 0.275814 0.585020 0.388127
O O10 0.000000 0.500000 0.000000
O O11 0.387142 0.318164 0.266396
O O12 0.339498 0.760517 0.851565
O O13 0.000000 0.000000 0.000000
O O14 0.500000 0.000000 0.500000
#
# Coordination Sequence:
#
# PCOD8022027 Si02
#       6
#     2   2   2   2   2   2
#     4  12  24  46  66 101 143 180 226 289 338 405
#     4   9  21  44  71  97 136 178 227 281 342 400
#     4  12  24  44  70 100 138 186 223 283 346 407
#     4  11  23  43  71 103 135 177 231 283 343 408
#     4  10  22  44  72  97 138 181 228 280 346 401
#     4   8  19  42  67  91 134 173 217 278 338 388
#
# _framework density 23.450476999999999
#
# number of rings (size 3 to 8) (size 9 to 14) (size 15 to 20)
#    1.000    0.667    3.333    0.500    0.000    5.333 
#    3.000    1.667    0.000    0.000    0.000    0.000 
#    0.000    0.000    0.000    0.000    0.000    0.000 
#
# Total GULP energy -148666.644762 kJ/mol
# GULP energy per Si atom -12388.887064 kJ/mol
# Density = 2.339710 g / cm^3
# Si number density = 23.450477 Si / 1000 Ang^3
#
#
#
# Elastic Constant Matrix: (Units=GPa)
#
#
# Indices 1 2 3 4 5 6 
#
# 1 175.5554 50.4760 46.3722 -10.9707 -5.7820 1.8207
# 2 50.4760 76.9222 32.8045 9.4632 12.3963 8.8414
# 3 46.3722 32.8045 85.4162 -9.0405 -3.7339 -5.0643
# 4 -10.9707 9.4632 -9.0405 38.9016 3.5985 6.1602
# 5 -5.7820 12.3963 -3.7339 3.5985 42.0753 -4.0602
# 6 1.8207 8.8414 -5.0643 6.1602 -4.0602 47.6169
#
#
#
# Elastic Compliance Matrix: (Units=1/GPa)
#
#
# Indices 1 2 3 4 5 6 
#
# 1 0.007916 -0.005098 -0.001934 0.002777 0.002206 0.000267
# 2 -0.005098 0.021906 -0.006976 -0.006995 -0.007596 -0.004357
# 3 -0.001934 -0.006976 0.016183 0.004176 0.003141 0.002818
# 4 0.002777 -0.006995 0.004176 0.029498 0.000081 -0.002172
# 5 0.002206 -0.007596 0.003141 0.000081 0.026961 0.003948
# 6 0.000267 -0.004357 0.002818 -0.002172 0.003948 0.022717
#
#
# Mechanical properties :
#
#
# Convention : Reuss Voigt Hill
#
# Bulk Modulus (GPa) = 55.58819 66.35545 60.97182
# Shear Modulus (GPa) = 31.40865 39.60152 35.50508
#
# Velocity S-wave (km/s) = 3.66370 4.11387 3.89529
# Velocity P-wave (km/s) = 6.45390 7.13601 6.80351
#
# Compressibility (1/GPa) = 0.01798943
#
# Stress axis : x y z
#
# Youngs Moduli (GPa) = 126.32459 45.64999 61.79436
#
# Poissons Ratio (x) = 0.23271 0.11949
# Poissons Ratio (y) = 0.64397 0.43109
# Poissons Ratio (z) = 0.24426 0.31846
#
# Static dielectric constant tensor:
#      x y z
#    x 4.708360 0.490920 0.277580 
#    y 0.490920 4.273410 0.110070 
#    z 0.277580 0.110070 4.328940 
# 
# 
# High freq. dielectric constant tensor:
#      x y z
#    x 1.932030 0.028410 0.000850 
#    y 0.028410 1.930780 -0.004580 
#    z 0.000850 -0.004580 1.913310 
# 
# From -- ./inp_files/466003.got.cif
#   From: 2010.06.25/outbox.cif.g09.slc.cpg/sg2_234_cif.got.tgz:466003.got - 2010.06.27 13:26:56.
