data_PCOD8022266
_publ_section_title
;
Structure prediction by ZEFSAII (Michael W. Deem and Ramdas Pophale) SiO2 
 PCOD8022266
Probable space group: P -1
;
_chemical_formula_sum "Si O2"
_cell_formula_units_Z 16
_cell_length_a 7.476863
_cell_length_b 11.484978
_cell_length_c 9.808476
_cell_angle_alpha 77.306004
_cell_angle_beta 88.291753
_cell_angle_gamma 55.407492
_cell_volume 671.673788
_symmetry_space_group_name_H-M "P -1"
_symmetry_group_IT_number 2
_symmetry_cell_setting 'triclinic'
loop_
_space_group_symop_operation_xyz
x,y,z
-x,-y,-z
loop_
_atom_site_type_symbol
_atom_site_label
_atom_site_fract_x
_atom_site_fract_y
_atom_site_fract_z
Si Si1 0.436615 0.980677 0.358876
Si Si2 0.075541 0.804568 0.312617
Si Si3 0.679846 0.102179 0.227141
Si Si4 0.444106 0.313520 0.651897
Si Si5 0.837215 0.495903 0.610310
Si Si6 0.365732 0.421761 0.132810
Si Si7 0.719892 0.469655 0.175566
Si Si8 0.952263 0.164167 0.375686
O O1 0.592045 0.811441 0.352590
O O2 0.500000 0.000000 0.500000
O O3 0.491331 0.075519 0.244634
O O4 0.184660 0.037297 0.337559
O O5 0.311393 0.763198 0.281825
O O6 0.064629 0.669672 0.310248
O O7 0.020895 0.834851 0.465244
O O8 0.893448 0.953514 0.195361
O O9 0.556612 0.258146 0.113162
O O10 0.771678 0.130685 0.357232
O O11 0.391478 0.416290 0.493020
O O12 0.285929 0.413406 0.753925
O O13 0.780879 0.577608 0.739262
O O14 0.000000 0.500000 0.500000
O O15 0.481929 0.496574 0.169318
O O16 0.215127 0.512207 0.982997
O O17 0.898559 0.311283 0.271178
#
# Coordination Sequence:
#
# PCOD8022266 Si02
#       8
#     2   2   2   2   2   2   2   2
#     4  12  23  38  64  99 137 173 223 277 342 403
#     4  12  21  38  62  97 132 168 223 276 335 384
#     4  11  23  40  62  96 135 176 219 278 336 402
#     4  12  23  41  65 100 131 176 228 278 335 400
#     4  12  25  39  63 103 137 170 220 285 340 396
#     4  10  23  44  70  96 134 185 227 274 336 410
#     4  10  22  45  69  96 134 183 231 272 335 407
#     4  11  22  40  64  98 134 177 221 278 344 398
#
# _framework density 23.821088
#
# number of rings (size 3 to 8) (size 9 to 14) (size 15 to 20)
#    0.000    0.750    5.000    4.500    1.750    0.000 
#    0.000    5.000    0.000    0.000    0.000    0.000 
#    0.000    0.000    0.000    0.000    0.000    0.000 
#
# Total GULP energy -198216.884623 kJ/mol
# GULP energy per Si atom -12388.555289 kJ/mol
# Density = 2.376687 g / cm^3
# Si number density = 23.821088 Si / 1000 Ang^3
#
#
#
# Elastic Constant Matrix: (Units=GPa)
#
#
# Indices 1 2 3 4 5 6 
#
# 1 49.0865 21.8828 10.0959 -0.9542 -16.0594 2.9578
# 2 21.8828 168.4855 37.9796 -3.0177 3.8410 15.3328
# 3 10.0959 37.9796 102.7970 1.5352 -7.4250 -0.6190
# 4 -0.9542 -3.0177 1.5352 25.8188 0.8787 2.7003
# 5 -16.0594 3.8410 -7.4250 0.8787 18.7198 6.5621
# 6 2.9578 15.3328 -0.6190 2.7003 6.5621 40.2738
#
#
#
# Elastic Compliance Matrix: (Units=1/GPa)
#
#
# Indices 1 2 3 4 5 6 
#
# 1 0.032957 -0.004630 0.000714 0.000168 0.031530 -0.005796
# 2 -0.004630 0.007472 -0.002774 0.001246 -0.006089 -0.001639
# 3 0.000714 -0.002774 0.011101 -0.001183 0.005516 0.000355
# 4 0.000168 0.001246 -0.001183 0.039306 -0.001406 -0.002911
# 5 0.031530 -0.006089 0.005516 -0.001406 0.088991 -0.014318
# 6 -0.005796 -0.001639 0.000355 -0.002911 -0.014318 0.028413
#
#
# Mechanical properties :
#
#
# Convention : Reuss Voigt Hill
#
# Bulk Modulus (GPa) = 26.21233 51.14285 38.67759
# Shear Modulus (GPa) = 21.33670 33.65654 27.49662
#
# Velocity S-wave (km/s) = 2.99608 3.76292 3.40118
# Velocity P-wave (km/s) = 4.79546 6.35575 5.62992
#
# Compressibility (1/GPa) = 0.03814999
#
# Stress axis : x y z
#
# Youngs Moduli (GPa) = 30.34216 133.82975 90.08184
#
# Poissons Ratio (x) = 0.61960 -0.06430
# Poissons Ratio (y) = 0.14048 0.24991
# Poissons Ratio (z) = -0.02166 0.37128
#
# Static dielectric constant tensor:
#      x y z
#    x 6.869910 -0.195690 -1.034470 
#    y -0.195690 4.910030 -0.148410 
#    z -1.034470 -0.148410 4.340960 
# 
# 
# High freq. dielectric constant tensor:
#      x y z
#    x 1.937900 -0.000520 0.003940 
#    y -0.000520 1.973890 -0.008110 
#    z 0.003940 -0.008110 1.889620 
# 
# From -- ./inp_files/186634.got.cif
#   From: 2010.06.25/outbox.cif.g09.slc.cpg/sg2_94_cif.got.tgz:186634.got - 2010.06.27 13:26:56.
