data_PCOD8022047
_publ_section_title
;
Structure prediction by ZEFSAII (Michael W. Deem and Ramdas Pophale) SiO2 
 PCOD8022047
Probable space group: P -1
;
_chemical_formula_sum "Si O2"
_cell_formula_units_Z 16
_cell_length_a 20.824522
_cell_length_b 10.173202
_cell_length_c 11.724021
_cell_angle_alpha 42.270197
_cell_angle_beta 138.963149
_cell_angle_gamma 155.257554
_cell_volume 668.732405
_symmetry_space_group_name_H-M "P -1"
_symmetry_group_IT_number 2
_symmetry_cell_setting 'triclinic'
loop_
_space_group_symop_operation_xyz
x,y,z
-x,-y,-z
loop_
_atom_site_type_symbol
_atom_site_label
_atom_site_fract_x
_atom_site_fract_y
_atom_site_fract_z
Si Si1 0.133696 0.310862 0.557179
Si Si2 0.544902 0.391771 0.206023
Si Si3 0.554704 0.588893 0.335862
Si Si4 0.234627 0.697231 0.888054
Si Si5 0.776160 0.291134 0.774178
Si Si6 0.942300 0.776831 0.238815
Si Si7 0.702606 0.621776 0.728096
Si Si8 0.981433 0.265165 0.001540
O O1 0.275910 0.386325 0.730930
O O2 0.216089 0.613282 0.403517
O O3 0.058627 0.280641 0.591710
O O4 0.000000 0.000000 0.500000
O O5 0.530701 0.419750 0.301888
O O6 0.410162 0.012433 0.242746
O O7 0.500000 0.500000 0.000000
O O8 0.636148 0.571495 0.546556
O O9 0.384980 0.390762 0.284437
O O10 0.652159 0.937877 0.207833
O O11 0.186764 0.557614 0.785757
O O12 0.077602 0.519114 0.863168
O O13 0.314665 0.638315 0.099723
O O14 0.849006 0.188630 0.932284
O O15 0.882900 0.583419 0.819286
O O16 0.113998 0.017519 0.255697
O O17 0.895443 0.930457 0.061572
#
# Coordination Sequence:
#
# PCOD8022047 Si02
#       8
#     2   2   2   2   2   2   2   2
#     4  12  26  47  74 106 148 185 238 302 360 431
#     4  12  28  46  73 107 145 189 241 301 354 436
#     4  11  26  46  71 103 145 183 239 291 363 419
#     4  11  25  43  74 102 140 189 233 292 360 431
#     4  11  25  44  75 103 142 189 241 295 364 425
#     4  11  24  45  72 101 140 183 236 288 357 432
#     4  10  24  46  69 100 141 187 229 296 350 427
#     4  10  22  44  73 102 140 188 235 297 363 425
#
# _framework density 23.925861999999999
#
# number of rings (size 3 to 8) (size 9 to 14) (size 15 to 20)
#    0.000    1.000    1.250    4.500   12.250    2.500 
#    6.750    0.000    0.000    0.000    0.000    0.000 
#    0.000    0.000    0.000    0.000    0.000    0.000 
#
# Total GULP energy -198396.058931 kJ/mol
# GULP energy per Si atom -12399.753683 kJ/mol
# Density = 2.387141 g / cm^3
# Si number density = 23.925862 Si / 1000 Ang^3
#
#
#
# Elastic Constant Matrix: (Units=GPa)
#
#
# Indices 1 2 3 4 5 6 
#
# 1 59.8264 5.4717 1.9980 8.5684 -18.8817 2.7482
# 2 5.4717 86.8704 30.7328 -0.6937 5.3528 7.3641
# 3 1.9980 30.7328 111.2133 -2.0042 -14.6346 2.7636
# 4 8.5684 -0.6937 -2.0042 37.3101 7.9493 -3.1072
# 5 -18.8817 5.3528 -14.6346 7.9493 40.1426 1.5890
# 6 2.7482 7.3641 2.7636 -3.1072 1.5890 32.4280
#
#
#
# Elastic Compliance Matrix: (Units=1/GPa)
#
#
# Indices 1 2 3 4 5 6 
#
# 1 0.022441 -0.002788 0.002057 -0.008193 0.013414 -0.002886
# 2 -0.002788 0.013706 -0.004306 0.001538 -0.004929 -0.002120
# 3 0.002057 -0.004306 0.010896 -0.001243 0.005781 -0.000527
# 4 -0.008193 0.001538 -0.001243 0.031293 -0.010866 0.003982
# 5 0.013414 -0.004929 0.005781 -0.010866 0.036269 -0.003328
# 6 -0.002886 -0.002120 -0.000527 0.003982 -0.003328 0.032153
#
#
# Mechanical properties :
#
#
# Convention : Reuss Voigt Hill
#
# Bulk Modulus (GPa) = 27.05042 37.14611 32.09827
# Shear Modulus (GPa) = 29.55861 36.62332 33.09097
#
# Velocity S-wave (km/s) = 3.51867 3.91666 3.72299
# Velocity P-wave (km/s) = 5.27623 6.00107 5.65028
#
# Compressibility (1/GPa) = 0.03696801
#
# Stress axis : x y z
#
# Youngs Moduli (GPa) = 44.56150 72.96042 91.77647
#
# Poissons Ratio (x) = 0.20344 -0.18874
# Poissons Ratio (y) = 0.12425 0.39516
# Poissons Ratio (z) = -0.09164 0.31415
#
# Static dielectric constant tensor:
#      x y z
#    x 4.370110 0.261310 -0.159960 
#    y 0.261310 4.528820 0.124840 
#    z -0.159960 0.124840 4.542440 
# 
# 
# High freq. dielectric constant tensor:
#      x y z
#    x 1.951910 0.010870 -0.013460 
#    y 0.010870 1.944920 -0.001910 
#    z -0.013460 -0.001910 1.958510 
# 
# From -- ./inp_files/474851.got.cif
#   From: 2010.06.25/outbox.cif.g09.slc.cpg/sg2_238_cif.got.tgz:474851.got - 2010.06.27 13:26:56.
