data_PCOD8022435
_publ_section_title
;
Structure prediction by ZEFSAII (Michael W. Deem and Ramdas Pophale) SiO2 
 PCOD8022435
Probable space group: P -1
;
_chemical_formula_sum "Si O2"
_cell_formula_units_Z 16
_cell_length_a 9.275619
_cell_length_b 8.726560
_cell_length_c 11.629272
_cell_angle_alpha 97.471473
_cell_angle_beta 90.291214
_cell_angle_gamma 128.176546
_cell_volume 729.277595
_symmetry_space_group_name_H-M "P -1"
_symmetry_group_IT_number 2
_symmetry_cell_setting 'triclinic'
loop_
_space_group_symop_operation_xyz
x,y,z
-x,-y,-z
loop_
_atom_site_type_symbol
_atom_site_label
_atom_site_fract_x
_atom_site_fract_y
_atom_site_fract_z
Si Si1 0.759183 0.700612 0.185505
Si Si2 0.095220 0.923564 0.057485
Si Si3 0.172653 0.373810 0.336400
Si Si4 0.587297 0.143447 0.343533
Si Si5 0.766595 0.245253 0.589116
Si Si6 0.196366 0.926717 0.822848
Si Si7 0.431920 0.308308 0.219704
Si Si8 0.920482 0.786055 0.437069
O O1 0.584304 0.469158 0.142774
O O2 0.783189 0.723474 0.325473
O O3 0.942308 0.753011 0.128403
O O4 0.711508 0.840803 0.153747
O O5 0.279563 0.097379 0.140734
O O6 0.150280 0.843180 0.946277
O O7 0.000000 0.000000 0.000000
O O8 0.176202 0.558581 0.327883
O O9 0.344611 0.403875 0.282294
O O10 0.187907 0.361668 0.471988
O O11 0.986551 0.176898 0.265128
O O12 0.744022 0.259922 0.453551
O O13 0.666868 0.109097 0.229674
O O14 0.528172 0.274706 0.318186
O O15 0.420989 0.933900 0.371966
O O16 0.918622 0.217641 0.608115
O O17 0.000000 0.000000 0.500000
#
# Coordination Sequence:
#
# PCOD8022435 Si02
#       8
#     2   2   2   2   2   2   2   2
#     4  11  23  41  69 101 129 176 220 274 330 390
#     4  10  22  46  67  93 131 177 221 279 327 388
#     4  12  23  40  65 100 129 180 216 264 334 399
#     4  11  24  43  62  99 135 169 219 281 322 398
#     4  11  24  39  66  95 140 177 214 263 339 399
#     4  11  23  44  67  92 136 172 223 272 330 389
#     4  12  25  43  69 100 131 171 230 276 327 391
#     4  12  21  39  68  98 139 176 213 271 333 395
#
# _framework density 21.939520000000002
#
# number of rings (size 3 to 8) (size 9 to 14) (size 15 to 20)
#    0.000    0.750    5.000    3.375    1.750    6.500 
#    2.250    0.625    0.000    0.000    0.000    0.000 
#    0.000    0.000    0.000    0.000    0.000    0.000 
#
# Total GULP energy -198422.994231 kJ/mol
# GULP energy per Si atom -12401.437139 kJ/mol
# Density = 2.188959 g / cm^3
# Si number density = 21.939520 Si / 1000 Ang^3
#
#
#
# Elastic Constant Matrix: (Units=GPa)
#
#
# Indices 1 2 3 4 5 6 
#
# 1 106.0017 28.3053 25.6554 1.2084 -21.9568 -5.1720
# 2 28.3053 100.9915 14.4340 -12.0822 -15.4143 10.1122
# 3 25.6554 14.4340 87.8070 -15.6771 -26.3254 10.4477
# 4 1.2084 -12.0822 -15.6771 19.5558 0.4476 -5.0662
# 5 -21.9568 -15.4143 -26.3254 0.4476 39.0869 -3.2046
# 6 -5.1720 10.1122 10.4477 -5.0662 -3.2046 40.1738
#
#
#
# Elastic Compliance Matrix: (Units=1/GPa)
#
#
# Indices 1 2 3 4 5 6 
#
# 1 0.011970 -0.003173 -0.002984 -0.004439 0.003747 0.002855
# 2 -0.003173 0.012445 0.001994 0.008707 0.004153 -0.002630
# 3 -0.002984 0.001994 0.018261 0.015063 0.011002 -0.002858
# 4 -0.004439 0.008707 0.015063 0.069377 0.010529 0.002909
# 5 0.003747 0.004153 0.011002 0.010529 0.036684 0.000830
# 6 0.002855 -0.002630 -0.002858 0.002909 0.000830 0.027098
#
#
# Mechanical properties :
#
#
# Convention : Reuss Voigt Hill
#
# Bulk Modulus (GPa) = 29.11343 47.95438 38.53391
# Shear Modulus (GPa) = 25.56093 34.85699 30.20896
#
# Velocity S-wave (km/s) = 3.41701 3.99027 3.71471
# Velocity P-wave (km/s) = 5.37276 6.56770 6.00005
#
# Compressibility (1/GPa) = 0.03434841
#
# Stress axis : x y z
#
# Youngs Moduli (GPa) = 83.54556 80.35284 54.76257
#
# Poissons Ratio (x) = 0.25497 0.16343
# Poissons Ratio (y) = 0.26510 -0.10920
# Poissons Ratio (z) = 0.24932 -0.16022
#
# Static dielectric constant tensor:
#      x y z
#    x 3.943860 0.137930 -0.202900 
#    y 0.137930 4.116930 -0.139990 
#    z -0.202900 -0.139990 4.612190 
# 
# 
# High freq. dielectric constant tensor:
#      x y z
#    x 1.858030 0.009560 -0.007420 
#    y 0.009560 1.862770 -0.005940 
#    z -0.007420 -0.005940 1.861630 
# 
# From -- ./inp_files/188013.got.cif
#   From: 2010.06.25/outbox.cif.g09.slc.cpg/sg2_95_cif.got.tgz:188013.got - 2010.06.27 13:26:56.
