data_PCOD8022869
_publ_section_title
;
Structure prediction by ZEFSAII (Michael W. Deem and Ramdas Pophale) SiO2 
 PCOD8022869
Probable space group: P -1
;
_chemical_formula_sum "Si O2"
_cell_formula_units_Z 16
_cell_length_a 12.828613
_cell_length_b 4.979116
_cell_length_c 11.410845
_cell_angle_alpha 98.949072
_cell_angle_beta 103.368496
_cell_angle_gamma 105.026477
_cell_volume 666.616520
_symmetry_space_group_name_H-M "P -1"
_symmetry_group_IT_number 2
_symmetry_cell_setting 'triclinic'
loop_
_space_group_symop_operation_xyz
x,y,z
-x,-y,-z
loop_
_atom_site_type_symbol
_atom_site_label
_atom_site_fract_x
_atom_site_fract_y
_atom_site_fract_z
Si Si1 0.929666 0.157125 0.842457
Si Si2 0.071543 0.761589 0.884082
Si Si3 0.754435 0.594228 0.697387
Si Si4 0.628704 0.293809 0.848180
Si Si5 0.659526 0.175157 0.477649
Si Si6 0.304811 0.730710 0.873196
Si Si7 0.381778 0.239752 0.764597
Si Si8 0.559430 0.792116 0.643710
O O1 0.963940 0.473488 0.814106
O O2 0.828631 0.926062 0.732741
O O3 0.894019 0.195740 0.968213
O O4 0.036627 0.036442 0.853991
O O5 0.175167 0.727077 0.836001
O O6 0.745208 0.463665 0.818154
O O7 0.774556 0.405675 0.578283
O O8 0.621560 0.554229 0.634700
O O9 0.516947 0.388306 0.790067
O O10 0.599398 0.960725 0.787788
O O11 0.655048 0.334376 0.993846
O O12 0.576633 0.333540 0.402222
O O13 0.683678 0.960313 0.373538
O O14 0.597804 0.011591 0.563144
O O15 0.319151 0.478094 0.778306
O O16 0.374665 0.042310 0.865057
#
# Coordination Sequence:
#
# PCOD8022869 Si02
#       8
#     2   2   2   2   2   2   2   2
#     4  10  23  39  67  95 121 157 200 272 327 367
#     4  10  23  42  63  92 125 157 210 260 321 375
#     4  11  22  35  69  92 130 159 202 275 318 365
#     4  10  24  37  59  99 129 162 213 250 316 376
#     4   9  21  38  57  92 124 167 218 245 309 367
#     4  12  25  42  65  87 131 174 211 255 302 376
#     4  11  26  41  62  90 131 181 208 244 297 382
#     4   9  19  36  61  89 127 164 202 270 308 365
#
# _framework density 24.001806999999999
#
# number of rings (size 3 to 8) (size 9 to 14) (size 15 to 20)
#    0.000    1.750    0.000    3.375   17.500    0.000 
#    0.000    0.000    0.000    4.500    0.000    0.000 
#    0.000    0.000    0.000    0.000    0.000    0.000 
#
# Total GULP energy -198231.774068 kJ/mol
# GULP energy per Si atom -12389.485879 kJ/mol
# Density = 2.394718 g / cm^3
# Si number density = 24.001807 Si / 1000 Ang^3
#
#
#
# Elastic Constant Matrix: (Units=GPa)
#
#
# Indices 1 2 3 4 5 6 
#
# 1 65.8013 -4.2409 16.2916 9.1309 -18.8102 -0.8282
# 2 -4.2409 62.6003 10.5420 24.7211 0.7455 3.6834
# 3 16.2916 10.5420 101.9208 31.2026 -3.2758 13.4361
# 4 9.1309 24.7211 31.2026 27.0478 -3.9008 4.6043
# 5 -18.8102 0.7455 -3.2758 -3.9008 19.3076 8.3323
# 6 -0.8282 3.6834 13.4361 4.6043 8.3323 35.3921
#
#
#
# Elastic Compliance Matrix: (Units=1/GPa)
#
#
# Indices 1 2 3 4 5 6 
#
# 1 0.023002 0.004446 -0.000719 -0.007084 0.022413 -0.004006
# 2 0.004446 0.030320 0.007972 -0.038828 -0.003215 -0.000270
# 3 -0.000719 0.007972 0.017888 -0.027341 -0.001933 -0.003626
# 4 -0.007084 -0.038828 -0.027341 0.108816 0.013247 -0.003020
# 5 0.022413 -0.003215 -0.001933 0.013247 0.084770 -0.020088
# 6 -0.004006 -0.000270 -0.003626 -0.003020 -0.020088 0.034688
#
#
# Mechanical properties :
#
#
# Convention : Reuss Voigt Hill
#
# Bulk Modulus (GPa) = 10.56996 30.61198 20.59097
# Shear Modulus (GPa) = 16.25369 30.19813 23.22591
#
# Velocity S-wave (km/s) = 2.60510 3.55090 3.11412
# Velocity P-wave (km/s) = 3.66908 5.44000 4.63981
#
# Compressibility (1/GPa) = 0.09460777
#
# Stress axis : x y z
#
# Youngs Moduli (GPa) = 43.47529 32.98119 55.90311
#
# Poissons Ratio (x) = -0.14663 0.04021
# Poissons Ratio (y) = -0.19328 -0.44568
# Poissons Ratio (z) = 0.03127 -0.26294
#
# Static dielectric constant tensor:
#      x y z
#    x 4.191160 -0.127750 -0.054890 
#    y -0.127750 4.304030 0.113430 
#    z -0.054890 0.113430 4.441870 
# 
# 
# High freq. dielectric constant tensor:
#      x y z
#    x 1.928400 -0.022760 0.000000 
#    y -0.022760 1.956770 0.015960 
#    z 0.000000 0.015960 1.946990 
# 
# From -- ./inp_files/411080.got.cif
#   From: 2010.06.25/outbox.cif.g09.slc.cpg/sg2_206_cif.got.tgz:411080.got - 2010.06.27 13:26:56.
