data_PCOD8022466
_publ_section_title
;
Structure prediction by ZEFSAII (Michael W. Deem and Ramdas Pophale) SiO2 
 PCOD8022466
Probable space group: P -1
;
_chemical_formula_sum "Si O2"
_cell_formula_units_Z 14
_cell_length_a 20.771131
_cell_length_b 8.530229
_cell_length_c 5.409598
_cell_angle_alpha 55.908821
_cell_angle_beta 57.522911
_cell_angle_gamma 48.975720
_cell_volume 576.504124
_symmetry_space_group_name_H-M "P -1"
_symmetry_group_IT_number 2
_symmetry_cell_setting 'triclinic'
loop_
_space_group_symop_operation_xyz
x,y,z
-x,-y,-z
loop_
_atom_site_type_symbol
_atom_site_label
_atom_site_fract_x
_atom_site_fract_y
_atom_site_fract_z
Si Si1 0.865543 0.177675 0.503818
Si Si2 0.119189 0.522386 0.149353
Si Si3 0.396566 0.638776 0.632144
Si Si4 0.025732 0.307999 0.309236
Si Si5 0.273553 0.469429 0.175818
Si Si6 0.713532 0.930615 0.287393
Si Si7 0.758047 0.026329 0.604605
O O1 0.793623 0.301088 0.755657
O O2 0.818351 0.137372 0.401021
O O3 0.937449 0.933467 0.671065
O O4 0.906463 0.322745 0.182819
O O5 0.100342 0.319918 0.319614
O O6 0.221734 0.435240 0.082793
O O7 0.057521 0.659380 0.386381
O O8 0.500000 0.500000 0.500000
O O9 0.345485 0.776013 0.370853
O O10 0.372327 0.822137 0.737496
O O11 0.360150 0.475064 0.911565
O O12 0.000000 0.500000 0.000000
O O13 0.310077 0.261493 0.469933
O O14 0.780451 0.892663 0.415501
O O15 0.766176 0.888671 0.959109
#
# Coordination Sequence:
#
# PCOD8022466 Si02
#       7
#     2   2   2   2   2   2   2
#     4  12  24  42  70  98 139 184 240 288 353 430
#     4  11  25  44  67  97 138 183 233 290 355 425
#     4  10  24  46  71 106 147 183 236 298 356 422
#     4  11  27  45  66  99 140 181 230 302 353 413
#     4  12  25  42  74 103 135 190 238 291 357 430
#     4  10  24  43  68 104 141 183 239 291 356 421
#     4  10  22  46  69 103 142 187 232 296 353 420
#
# _framework density 24.284305
#
# number of rings (size 3 to 8) (size 9 to 14) (size 15 to 20)
#    0.857    0.286    2.857    2.143    6.000    5.714 
#    0.000    0.714    0.000    0.000    0.000    0.000 
#    0.000    0.000    0.000    0.000    0.000    0.000 
#
# Total GULP energy -173496.208139 kJ/mol
# GULP energy per Si atom -12392.586296 kJ/mol
# Density = 2.422903 g / cm^3
# Si number density = 24.284305 Si / 1000 Ang^3
#
#
#
# Elastic Constant Matrix: (Units=GPa)
#
#
# Indices 1 2 3 4 5 6 
#
# 1 65.7746 15.0430 41.1813 -3.7841 -17.7547 -2.6931
# 2 15.0430 85.4601 24.5690 -11.4019 -19.2585 0.0812
# 3 41.1813 24.5690 149.3673 -9.6510 -10.3389 -4.4003
# 4 -3.7841 -11.4019 -9.6510 45.2370 4.7018 -3.3937
# 5 -17.7547 -19.2585 -10.3389 4.7018 48.8851 5.0333
# 6 -2.6931 0.0812 -4.4003 -3.3937 5.0333 32.7693
#
#
#
# Elastic Compliance Matrix: (Units=1/GPa)
#
#
# Indices 1 2 3 4 5 6 
#
# 1 0.020122 -0.000785 -0.005018 -0.000200 0.005952 0.000047
# 2 -0.000785 0.013664 -0.001573 0.002508 0.004602 -0.000757
# 3 -0.005018 -0.001573 0.008378 0.001135 -0.000879 0.000969
# 4 -0.000200 0.002508 0.001135 0.023312 -0.001371 0.002755
# 5 0.005952 0.004602 -0.000879 -0.001371 0.024746 -0.003583
# 6 0.000047 -0.000757 0.000969 0.002755 -0.003583 0.031488
#
#
# Mechanical properties :
#
#
# Convention : Reuss Voigt Hill
#
# Bulk Modulus (GPa) = 36.47975 51.35430 43.91703
# Shear Modulus (GPa) = 34.34085 40.03219 37.18652
#
# Velocity S-wave (km/s) = 3.76455 4.06455 3.91743
# Velocity P-wave (km/s) = 5.82670 6.57423 6.21172
#
# Compressibility (1/GPa) = 0.02741247
#
# Stress axis : x y z
#
# Youngs Moduli (GPa) = 49.69726 73.18469 119.35712
#
# Poissons Ratio (x) = 0.05743 0.59896
# Poissons Ratio (y) = 0.03900 0.18774
# Poissons Ratio (z) = 0.24939 0.11511
#
# Static dielectric constant tensor:
#      x y z
#    x 4.396390 0.261970 -0.076930 
#    y 0.261970 4.326750 -0.370290 
#    z -0.076930 -0.370290 4.268490 
# 
# 
# High freq. dielectric constant tensor:
#      x y z
#    x 1.951760 0.020690 0.003000 
#    y 0.020690 1.968120 -0.025390 
#    z 0.003000 -0.025390 1.967160 
# 
# From -- ./inp_files/116502.got.cif
#   From: 2010.06.25/outbox.cif.g09.slc.cpg/sg2_59_cif.got.tgz:116502.got - 2010.06.27 13:26:56.
