data_PCOD8022533
_publ_section_title
;
Structure prediction by ZEFSAII (Michael W. Deem and Ramdas Pophale) SiO2 
 PCOD8022533
Probable space group: P -1
;
_chemical_formula_sum "Si O2"
_cell_formula_units_Z 14
_cell_length_a 16.389600
_cell_length_b 8.930848
_cell_length_c 7.788679
_cell_angle_alpha 75.824229
_cell_angle_beta 122.554943
_cell_angle_gamma 58.415614
_cell_volume 556.300071
_symmetry_space_group_name_H-M "P -1"
_symmetry_group_IT_number 2
_symmetry_cell_setting 'triclinic'
loop_
_space_group_symop_operation_xyz
x,y,z
-x,-y,-z
loop_
_atom_site_type_symbol
_atom_site_label
_atom_site_fract_x
_atom_site_fract_y
_atom_site_fract_z
Si Si1 0.277015 0.965643 0.015621
Si Si2 0.374769 0.795072 0.797542
Si Si3 0.857741 0.193544 0.140458
Si Si4 0.643312 0.852466 0.328802
Si Si5 0.001554 0.543593 0.254871
Si Si6 0.567158 0.754112 0.577520
Si Si7 0.041901 0.197651 0.179750
O O1 0.415802 0.832323 0.347408
O O2 0.362750 0.871247 0.956957
O O3 0.207316 0.883624 0.982992
O O4 0.114771 0.285056 0.755908
O O5 0.399600 0.926438 0.685972
O O6 0.211877 0.919700 0.522104
O O7 0.500000 0.500000 0.000000
O O8 0.930618 0.188622 0.059476
O O9 0.695244 0.502251 0.919833
O O10 0.000000 0.000000 0.500000
O O11 0.807275 0.665058 0.454113
O O12 0.663503 0.686861 0.532483
O O13 0.500000 0.000000 0.000000
O O14 0.969379 0.417672 0.170092
O O15 0.931426 0.765206 0.986478
O O16 0.500000 0.000000 0.500000
#
# Coordination Sequence:
#
# PCOD8022533 Si02
#       7
#     2   2   2   2   2   2   2
#     4  12  27  47  74 116 151 196 254 319 379 450
#     4  11  26  45  72 110 154 194 246 312 384 455
#     4  12  26  48  72 111 155 202 252 317 384 447
#     4  11  24  48  76 107 146 200 251 310 379 453
#     4  10  24  46  75 105 146 193 261 310 371 457
#     4  12  28  49  78 112 153 202 258 314 380 458
#     4  10  22  46  74 103 144 201 247 307 384 445
#
# _framework density 25.166274999999999
#
# number of rings (size 3 to 8) (size 9 to 14) (size 15 to 20)
#    0.000    0.857    4.286    1.286    6.000    6.286 
#    0.000    0.000    0.000    0.000    0.000    0.000 
#    0.000    0.000    0.000    0.000    0.000    0.000 
#
# Total GULP energy -173437.739984 kJ/mol
# GULP energy per Si atom -12388.409999 kJ/mol
# Density = 2.510900 g / cm^3
# Si number density = 25.166275 Si / 1000 Ang^3
#
#
#
# Elastic Constant Matrix: (Units=GPa)
#
#
# Indices 1 2 3 4 5 6 
#
# 1 102.2289 41.4506 31.3502 -2.6783 26.6693 35.5662
# 2 41.4506 125.1147 74.3329 -29.7996 8.8824 9.5158
# 3 31.3502 74.3329 185.0255 -26.1470 6.9965 21.3940
# 4 -2.6783 -29.7996 -26.1470 48.4061 13.4002 7.1333
# 5 26.6693 8.8824 6.9965 13.4002 30.9117 4.0217
# 6 35.5662 9.5158 21.3940 7.1333 4.0217 44.2368
#
#
#
# Elastic Compliance Matrix: (Units=1/GPa)
#
#
# Indices 1 2 3 4 5 6 
#
# 1 0.022035 -0.003721 0.001560 0.007664 -0.019387 -0.017143
# 2 -0.003721 0.013065 -0.003764 0.006345 -0.002600 0.001215
# 3 0.001560 -0.003764 0.007768 0.003437 -0.002929 -0.004489
# 4 0.007664 0.006345 0.003437 0.035020 -0.022733 -0.012769
# 5 -0.019387 -0.002600 -0.002929 -0.022733 0.058268 0.015931
# 6 -0.017143 0.001215 -0.004489 -0.012769 0.015931 0.038909
#
#
# Mechanical properties :
#
#
# Convention : Reuss Voigt Hill
#
# Bulk Modulus (GPa) = 32.23980 78.51517 55.37749
# Shear Modulus (GPa) = 25.34768 42.39326 33.87047
#
# Velocity S-wave (km/s) = 3.17710 4.10875 3.67259
# Velocity P-wave (km/s) = 5.12807 7.33317 6.32742
#
# Compressibility (1/GPa) = 0.03101756
#
# Stress axis : x y z
#
# Youngs Moduli (GPa) = 45.38195 76.53951 128.73209
#
# Poissons Ratio (x) = 0.28484 -0.20080
# Poissons Ratio (y) = 0.16889 0.48453
# Poissons Ratio (z) = -0.07079 0.28808
#
# Static dielectric constant tensor:
#      x y z
#    x 5.589730 0.295510 -0.128950 
#    y 0.295510 4.305360 -0.261620 
#    z -0.128950 -0.261620 4.786630 
# 
# 
# High freq. dielectric constant tensor:
#      x y z
#    x 2.023030 0.016320 0.006250 
#    y 0.016320 1.977820 -0.018140 
#    z 0.006250 -0.018140 2.022610 
# 
# From -- ./inp_files/328931.got.cif
#   From: 2010.06.25/outbox.cif.g09.slc.cpg/sg2_165_cif.got.tgz:328931.got - 2010.06.27 13:26:56.
