data_PCOD8022981
_publ_section_title
;
Structure prediction by ZEFSAII (Michael W. Deem and Ramdas Pophale) SiO2 
 PCOD8022981
Probable space group: P -1
;
_chemical_formula_sum "Si O2"
_cell_formula_units_Z 16
_cell_length_a 20.889689
_cell_length_b 11.791574
_cell_length_c 12.468609
_cell_angle_alpha 39.333523
_cell_angle_beta 150.336771
_cell_angle_gamma 151.222904
_cell_volume 730.823775
_symmetry_space_group_name_H-M "P -1"
_symmetry_group_IT_number 2
_symmetry_cell_setting 'triclinic'
loop_
_space_group_symop_operation_xyz
x,y,z
-x,-y,-z
loop_
_atom_site_type_symbol
_atom_site_label
_atom_site_fract_x
_atom_site_fract_y
_atom_site_fract_z
Si Si1 0.245236 0.324414 0.936755
Si Si2 0.855063 0.663680 0.448022
Si Si3 0.248183 0.585920 0.218158
Si Si4 0.956293 0.175820 0.949680
Si Si5 0.699048 0.197632 0.641326
Si Si6 0.764030 0.117667 0.179678
Si Si7 0.621509 0.610390 0.325256
Si Si8 0.126919 0.529027 0.745864
O O1 0.170723 0.258283 0.757243
O O2 0.256205 0.520949 0.873391
O O3 0.436713 0.418958 0.142035
O O4 0.096291 0.077021 0.961753
O O5 0.744936 0.384065 0.481238
O O6 0.779093 0.713128 0.398687
O O7 0.051416 0.783781 0.665697
O O8 0.213302 0.656169 0.227633
O O9 0.376086 0.533062 0.468260
O O10 0.312881 0.800365 0.073993
O O11 0.085674 0.336961 0.116107
O O12 0.774320 0.080454 0.797496
O O13 0.020110 0.318761 0.829200
O O14 0.500000 0.000000 0.500000
O O15 0.772481 0.220476 0.232532
O O16 0.642413 0.836509 0.225083
O O17 0.000000 0.500000 0.500000
#
# Coordination Sequence:
#
# PCOD8022981 Si02
#       8
#     2   2   2   2   2   2   2   2
#     4  12  25  43  67  99 136 172 226 281 330 393
#     4  11  22  42  65 101 132 175 224 265 338 405
#     4  10  23  40  64 100 136 173 220 264 334 407
#     4  11  22  41  67  95 128 177 224 271 326 394
#     4  11  22  37  64 101 137 171 212 275 342 389
#     4  11  23  44  71  97 131 181 223 275 331 398
#     4  11  26  41  66 104 140 171 216 281 346 391
#     4  11  23  46  69  94 125 178 235 267 325 402
#
# _framework density 21.893101000000001
#
# number of rings (size 3 to 8) (size 9 to 14) (size 15 to 20)
#    0.000    1.000    3.750    3.750    5.250    0.500 
#    2.250    2.500    0.000    0.000    0.000    0.000 
#    0.000    0.000    0.000    0.000    0.000    0.000 
#
# Total GULP energy -198249.613976 kJ/mol
# GULP energy per Si atom -12390.600874 kJ/mol
# Density = 2.184327 g / cm^3
# Si number density = 21.893101 Si / 1000 Ang^3
#
#
#
# Elastic Constant Matrix: (Units=GPa)
#
#
# Indices 1 2 3 4 5 6 
#
# 1 67.8491 3.5014 30.6663 3.2754 -8.6721 -17.8951
# 2 3.5014 89.8617 40.9618 -11.3580 -10.7115 -8.1553
# 3 30.6663 40.9618 127.1417 -17.5355 -14.3932 1.9186
# 4 3.2754 -11.3580 -17.5355 29.9578 3.6640 6.5887
# 5 -8.6721 -10.7115 -14.3932 3.6640 30.8591 -2.8010
# 6 -17.8951 -8.1553 1.9186 6.5887 -2.8010 30.3197
#
#
#
# Elastic Compliance Matrix: (Units=1/GPa)
#
#
# Indices 1 2 3 4 5 6 
#
# 1 0.024956 0.004076 -0.008315 -0.011278 0.007660 0.019510
# 2 0.004076 0.014531 -0.005293 -0.000128 0.004378 0.007081
# 3 -0.008315 -0.005293 0.012873 0.008409 0.000017 -0.008972
# 4 -0.011278 -0.000128 0.008409 0.044050 -0.006098 -0.017359
# 5 0.007660 0.004378 0.000017 -0.006098 0.037764 0.010511
# 6 0.019510 0.007081 -0.008972 -0.017359 0.010511 0.051713
#
#
# Mechanical properties :
#
#
# Convention : Reuss Voigt Hill
#
# Bulk Modulus (GPa) = 30.03490 48.34574 39.19032
# Shear Modulus (GPa) = 23.14280 32.20888 27.67584
#
# Velocity S-wave (km/s) = 3.25481 3.83977 3.55932
# Velocity P-wave (km/s) = 5.27955 6.46444 5.90181
#
# Compressibility (1/GPa) = 0.03329460
#
# Stress axis : x y z
#
# Youngs Moduli (GPa) = 40.07085 68.82000 77.67980
#
# Poissons Ratio (x) = -0.28052 0.64593
# Poissons Ratio (y) = -0.16333 0.41119
# Poissons Ratio (z) = 0.33320 0.36429
#
# Static dielectric constant tensor:
#      x y z
#    x 2.915420 -0.339920 0.067660 
#    y -0.339920 4.002710 -0.319970 
#    z 0.067660 -0.319970 4.171880 
# 
# 
# High freq. dielectric constant tensor:
#      x y z
#    x 1.844010 -0.015800 -0.001270 
#    y -0.015800 1.867560 -0.014520 
#    z -0.001270 -0.014520 1.869670 
# 
# From -- ./inp_files/189321.got.cif
#   From: 2010.06.25/outbox.cif.g09.slc.cpg/sg2_95_cif.got.tgz:189321.got - 2010.06.27 13:26:56.
