data_PCOD8022946
_publ_section_title
;
Structure prediction by ZEFSAII (Michael W. Deem and Ramdas Pophale) SiO2 
 PCOD8022946
Probable space group: P -1
;
_chemical_formula_sum "Si O2"
_cell_formula_units_Z 16
_cell_length_a 9.562208
_cell_length_b 14.841842
_cell_length_c 11.115868
_cell_angle_alpha 101.463947
_cell_angle_beta 70.289885
_cell_angle_gamma 151.333850
_cell_volume 695.743451
_symmetry_space_group_name_H-M "P -1"
_symmetry_group_IT_number 2
_symmetry_cell_setting 'triclinic'
loop_
_space_group_symop_operation_xyz
x,y,z
-x,-y,-z
loop_
_atom_site_type_symbol
_atom_site_label
_atom_site_fract_x
_atom_site_fract_y
_atom_site_fract_z
Si Si1 0.791933 0.845820 0.124343
Si Si2 0.755347 0.246711 0.438319
Si Si3 0.210203 0.338028 0.393058
Si Si4 0.803931 0.369296 0.701487
Si Si5 0.135109 0.499500 0.870841
Si Si6 0.175599 0.107933 0.304899
Si Si7 0.842488 0.084397 0.630798
Si Si8 0.852368 0.696758 0.175217
O O1 0.447466 0.699875 0.182416
O O2 0.804730 0.740632 0.087904
O O3 0.917489 0.936926 0.241840
O O4 0.000000 0.000000 0.000000
O O5 0.674064 0.232776 0.596333
O O6 0.992608 0.291014 0.373561
O O7 0.905109 0.415250 0.374466
O O8 0.456220 0.049625 0.398098
O O9 0.100546 0.173193 0.363457
O O10 0.558756 0.547613 0.310467
O O11 0.137719 0.302529 0.547827
O O12 0.936012 0.379702 0.774784
O O13 0.481717 0.719638 0.801460
O O14 0.129549 0.396018 0.908464
O O15 0.000000 0.500000 0.000000
O O16 0.135226 0.015901 0.405881
O O17 0.842371 0.113919 0.780431
#
# Coordination Sequence:
#
# PCOD8022946 Si02
#       8
#     2   2   2   2   2   2   2   2
#     4  11  23  46  67  93 128 176 225 279 318 383
#     4  11  23  40  64  99 139 170 208 270 331 399
#     4  11  21  39  62  96 131 173 209 264 327 402
#     4  11  23  42  66  97 134 174 213 267 340 384
#     4  11  23  46  67  93 130 176 222 274 323 385
#     4  10  23  40  62  94 129 169 224 259 325 390
#     4  11  21  39  64  97 134 170 210 265 326 398
#     4  10  24  42  66  97 130 170 226 265 332 391
#
# _framework density 22.996981999999999
#
# number of rings (size 3 to 8) (size 9 to 14) (size 15 to 20)
#    0.000    1.250    2.500    3.375    0.000    3.000 
#    2.250    8.750    0.000    0.000    0.000    0.000 
#    0.000    0.000    0.000    0.000    0.000    0.000 
#
# Total GULP energy -198258.283658 kJ/mol
# GULP energy per Si atom -12391.142729 kJ/mol
# Density = 2.294464 g / cm^3
# Si number density = 22.996982 Si / 1000 Ang^3
#
#
#
# Elastic Constant Matrix: (Units=GPa)
#
#
# Indices 1 2 3 4 5 6 
#
# 1 139.1166 25.6881 31.9172 -3.6929 -4.7266 -16.1250
# 2 25.6881 62.4910 12.5700 -7.9014 0.6336 -8.4195
# 3 31.9172 12.5700 58.3500 -10.3497 -4.2273 -1.2368
# 4 -3.6929 -7.9014 -10.3497 21.9956 -6.4660 4.7402
# 5 -4.7266 0.6336 -4.2273 -6.4660 31.8047 -11.3851
# 6 -16.1250 -8.4195 -1.2368 4.7402 -11.3851 27.5284
#
#
#
# Elastic Compliance Matrix: (Units=1/GPa)
#
#
# Indices 1 2 3 4 5 6 
#
# 1 0.009436 -0.002411 -0.004689 -0.002027 0.002558 0.005986
# 2 -0.002411 0.018463 -0.001564 0.005090 0.001500 0.003908
# 3 -0.004689 -0.001564 0.022129 0.010658 0.003506 -0.002616
# 4 -0.002027 0.005090 0.010658 0.056093 0.010874 -0.004313
# 5 0.002558 0.001500 0.003506 0.010874 0.040560 0.017017
# 6 0.005986 0.003908 -0.002616 -0.004313 0.017017 0.048691
#
#
# Mechanical properties :
#
#
# Convention : Reuss Voigt Hill
#
# Bulk Modulus (GPa) = 30.58233 44.47869 37.53051
# Shear Modulus (GPa) = 22.36125 28.91790 25.63957
#
# Velocity S-wave (km/s) = 3.12164 3.54992 3.34265
# Velocity P-wave (km/s) = 5.13032 6.01545 5.59043
#
# Compressibility (1/GPa) = 0.03269862
#
# Stress axis : x y z
#
# Youngs Moduli (GPa) = 105.97349 54.16216 45.18981
#
# Poissons Ratio (x) = 0.13061 0.21191
# Poissons Ratio (y) = 0.25554 0.07068
# Poissons Ratio (z) = 0.49695 0.08471
#
# Static dielectric constant tensor:
#      x y z
#    x 4.782510 -0.132620 0.190760 
#    y -0.132620 4.066400 -0.130180 
#    z 0.190760 -0.130180 3.915250 
# 
# 
# High freq. dielectric constant tensor:
#      x y z
#    x 1.935270 -0.005540 0.007490 
#    y -0.005540 1.908160 -0.006870 
#    z 0.007490 -0.006870 1.880510 
# 
# From -- ./inp_files/307910.got.cif
#   From: 2010.06.25/outbox.cif.g09.slc.cpg/sg2_154_cif.got.tgz:307910.got - 2010.06.27 13:26:56.
