data_PCOD8022085
_publ_section_title
;
Structure prediction by ZEFSAII (Michael W. Deem and Ramdas Pophale) SiO2 
 PCOD8022085
Probable space group: P -1
;
_chemical_formula_sum "Si O2"
_cell_formula_units_Z 14
_cell_length_a 16.040335
_cell_length_b 8.741031
_cell_length_c 11.681950
_cell_angle_alpha 138.515714
_cell_angle_beta 36.824085
_cell_angle_gamma 137.019809
_cell_volume 613.345850
_symmetry_space_group_name_H-M "P -1"
_symmetry_group_IT_number 2
_symmetry_cell_setting 'triclinic'
loop_
_space_group_symop_operation_xyz
x,y,z
-x,-y,-z
loop_
_atom_site_type_symbol
_atom_site_label
_atom_site_fract_x
_atom_site_fract_y
_atom_site_fract_z
Si Si1 0.330643 0.964859 0.961185
Si Si2 0.478361 0.163099 0.510888
Si Si3 0.667414 0.614938 0.675774
Si Si4 0.811816 0.036352 0.413533
Si Si5 0.797541 0.114299 0.715292
Si Si6 0.034803 0.759111 0.046750
Si Si7 0.917732 0.430612 0.348923
O O1 0.433958 0.867623 0.715457
O O2 0.178498 0.943442 0.052417
O O3 0.295975 0.814768 0.038488
O O4 0.402164 0.255925 0.076679
O O5 0.537128 0.446640 0.643601
O O6 0.308624 0.096932 0.624501
O O7 0.500000 0.000000 0.500000
O O8 0.753552 0.446222 0.539658
O O9 0.787296 0.832545 0.594220
O O10 0.735258 0.111773 0.652735
O O11 0.928780 0.280467 0.366734
O O12 0.899173 0.860516 0.263767
O O13 0.963682 0.299603 0.634838
O O14 0.067093 0.736258 0.865963
O O15 0.000000 0.500000 0.000000
#
# Coordination Sequence:
#
# PCOD8022085 Si02
#       7
#     2   2   2   2   2   2   2
#     4  10  24  44  75 102 137 196 246 286 362 422
#     4  12  25  50  70 104 155 189 235 298 365 436
#     4  10  22  44  75 100 142 199 238 289 359 424
#     4  12  27  41  70 110 147 190 239 298 367 425
#     4  10  24  42  68 106 139 187 247 293 350 420
#     4  12  22  44  74 103 143 187 246 301 356 425
#     4  12  21  44  71 106 146 185 243 307 353 418
#
# _framework density 22.825621000000002
#
# number of rings (size 3 to 8) (size 9 to 14) (size 15 to 20)
#    0.857    0.000    4.286    3.000    0.000    1.714 
#    2.571    0.000    0.000    0.000    0.000    0.000 
#    0.000    0.000    0.000    0.000    0.000    0.000 
#
# Total GULP energy -173470.652173 kJ/mol
# GULP energy per Si atom -12390.760869 kJ/mol
# Density = 2.277367 g / cm^3
# Si number density = 22.825621 Si / 1000 Ang^3
#
#
#
# Elastic Constant Matrix: (Units=GPa)
#
#
# Indices 1 2 3 4 5 6 
#
# 1 91.9560 46.7875 30.9575 8.3409 19.1325 1.7773
# 2 46.7875 119.5589 38.0419 8.1986 12.9334 0.4871
# 3 30.9575 38.0419 78.3832 8.3295 24.8521 1.1037
# 4 8.3409 8.1986 8.3295 27.3027 2.7892 17.5195
# 5 19.1325 12.9334 24.8521 2.7892 42.4273 -2.2094
# 6 1.7773 0.4871 1.1037 17.5195 -2.2094 48.0078
#
#
#
# Elastic Compliance Matrix: (Units=1/GPa)
#
#
# Indices 1 2 3 4 5 6 
#
# 1 0.014959 -0.004574 -0.002218 -0.002238 -0.003896 0.000181
# 2 -0.004574 0.011377 -0.003897 -0.001377 0.001004 0.000692
# 3 -0.002218 -0.003897 0.018538 -0.003267 -0.008430 0.000500
# 4 -0.002238 -0.001377 -0.003267 0.050577 -0.000937 -0.018328
# 5 -0.003896 0.001004 -0.008430 -0.000937 0.030127 0.002056
# 6 0.000181 0.000692 0.000500 -0.018328 0.002056 0.027588
#
#
# Mechanical properties :
#
#
# Convention : Reuss Voigt Hill
#
# Bulk Modulus (GPa) = 42.55902 57.94133 50.25017
# Shear Modulus (GPa) = 27.41615 35.15497 31.28556
#
# Velocity S-wave (km/s) = 3.46947 3.92874 3.70622
# Velocity P-wave (km/s) = 5.89367 6.78376 6.35432
#
# Compressibility (1/GPa) = 0.02349678
#
# Stress axis : x y z
#
# Youngs Moduli (GPa) = 66.85080 87.89677 53.94367
#
# Poissons Ratio (x) = 0.40205 0.11962
# Poissons Ratio (y) = 0.30578 0.21020
# Poissons Ratio (z) = 0.14824 0.34251
#
# Static dielectric constant tensor:
#      x y z
#    x 4.157510 0.111080 0.502040 
#    y 0.111080 4.125800 0.030330 
#    z 0.502040 0.030330 4.009250 
# 
# 
# High freq. dielectric constant tensor:
#      x y z
#    x 1.896910 0.005570 0.033790 
#    y 0.005570 1.902150 0.002460 
#    z 0.033790 0.002460 1.890980 
# 
# From -- ./inp_files/462547.got.cif
#   From: 2010.06.25/outbox.cif.g09.slc.cpg/sg2_232_cif.got.tgz:462547.got - 2010.06.27 13:26:56.
