data_PCOD8022415
_publ_section_title
;
Structure prediction by ZEFSAII (Michael W. Deem and Ramdas Pophale) SiO2 
 PCOD8022415
Probable space group: P -1
;
_chemical_formula_sum "Si O2"
_cell_formula_units_Z 16
_cell_length_a 15.958396
_cell_length_b 12.062231
_cell_length_c 8.911215
_cell_angle_alpha 148.361730
_cell_angle_beta 57.370110
_cell_angle_gamma 129.248263
_cell_volume 696.812830
_symmetry_space_group_name_H-M "P -1"
_symmetry_group_IT_number 2
_symmetry_cell_setting 'triclinic'
loop_
_space_group_symop_operation_xyz
x,y,z
-x,-y,-z
loop_
_atom_site_type_symbol
_atom_site_label
_atom_site_fract_x
_atom_site_fract_y
_atom_site_fract_z
Si Si1 0.249832 0.640461 0.008707
Si Si2 0.927797 0.542691 0.245303
Si Si3 0.880463 0.164498 0.437192
Si Si4 0.740867 0.669565 0.919022
Si Si5 0.408553 0.094967 0.235410
Si Si6 0.582583 0.485266 0.116471
Si Si7 0.170795 0.694654 0.648832
Si Si8 0.359148 0.153479 0.026296
O O1 0.177610 0.457233 0.740850
O O2 0.330552 0.536786 0.877443
O O3 0.176879 0.677791 0.254155
O O4 0.306882 0.886978 0.159654
O O5 0.889101 0.336828 0.169162
O O6 0.002675 0.779437 0.531446
O O7 0.000000 0.500000 0.000000
O O8 0.899512 0.236191 0.326023
O O9 0.805368 0.897211 0.216835
O O10 0.821148 0.542565 0.677384
O O11 0.710402 0.718403 0.836472
O O12 0.630525 0.527331 0.951309
O O13 0.450069 0.305306 0.556338
O O14 0.374352 0.199730 0.242030
O O15 0.500000 0.000000 0.000000
O O16 0.477317 0.246327 0.940802
O O17 0.294768 0.881818 0.748833
#
# Coordination Sequence:
#
# PCOD8022415 Si02
#       8
#     2   2   2   2   2   2   2   2
#     4  11  22  43  67  94 132 175 220 273 327 385
#     4  10  23  42  71  96 127 171 224 276 334 387
#     4  10  22  46  65  96 130 176 221 272 333 383
#     4  11  25  42  66  99 135 174 220 271 323 393
#     4  12  25  42  66  95 136 176 218 271 326 387
#     4  12  25  43  67  97 137 177 221 266 325 392
#     4  11  23  43  69  93 137 172 218 275 327 391
#     4  11  26  40  66  99 133 176 218 264 323 397
#
# _framework density 22.961689
#
# number of rings (size 3 to 8) (size 9 to 14) (size 15 to 20)
#    0.000    1.000    5.000    1.125    3.500    1.000 
#    0.000    1.875    0.000    0.000    0.000    0.000 
#    0.000    0.000    0.000    0.000    0.000    0.000 
#
# Total GULP energy -198353.188802 kJ/mol
# GULP energy per Si atom -12397.074300 kJ/mol
# Density = 2.290943 g / cm^3
# Si number density = 22.961689 Si / 1000 Ang^3
#
#
#
# Elastic Constant Matrix: (Units=GPa)
#
#
# Indices 1 2 3 4 5 6 
#
# 1 86.7908 29.6526 30.2951 9.4625 22.8139 3.5391
# 2 29.6526 146.5646 33.7563 -2.7714 8.5875 -3.3798
# 3 30.2951 33.7563 76.3055 -2.5008 4.0030 6.1415
# 4 9.4625 -2.7714 -2.5008 25.5200 -0.6349 8.0248
# 5 22.8139 8.5875 4.0030 -0.6349 31.0882 2.6487
# 6 3.5391 -3.3798 6.1415 8.0248 2.6487 34.7074
#
#
#
# Elastic Compliance Matrix: (Units=1/GPa)
#
#
# Indices 1 2 3 4 5 6 
#
# 1 0.018499 -0.001643 -0.006401 -0.008623 -0.012648 0.002045
# 2 -0.001643 0.007907 -0.002891 0.000749 -0.000704 0.001330
# 3 -0.006401 -0.002891 0.017233 0.005147 0.003736 -0.004153
# 4 -0.008623 0.000749 0.005147 0.046712 0.007377 -0.011322
# 5 -0.012648 -0.000704 0.003736 0.007377 0.041681 -0.004327
# 6 0.002045 0.001330 -0.004153 -0.011322 -0.004327 0.032416
#
#
# Mechanical properties :
#
#
# Convention : Reuss Voigt Hill
#
# Bulk Modulus (GPa) = 45.93988 55.22988 50.58488
# Shear Modulus (GPa) = 25.82976 32.66024 29.24500
#
# Velocity S-wave (km/s) = 3.35760 3.77554 3.57269
# Velocity P-wave (km/s) = 5.92300 6.56594 6.25274
#
# Compressibility (1/GPa) = 0.02176758
#
# Stress axis : x y z
#
# Youngs Moduli (GPa) = 54.05665 126.46444 58.02909
#
# Poissons Ratio (x) = 0.20780 0.37147
# Poissons Ratio (y) = 0.08882 0.16778
# Poissons Ratio (z) = 0.34604 0.36564
#
# Static dielectric constant tensor:
#      x y z
#    x 4.302890 -0.033910 0.459720 
#    y -0.033910 4.491420 0.036100 
#    z 0.459720 0.036100 3.866630 
# 
# 
# High freq. dielectric constant tensor:
#      x y z
#    x 1.907210 -0.001360 0.024470 
#    y -0.001360 1.927640 -0.000470 
#    z 0.024470 -0.000470 1.880750 
# 
# From -- ./inp_files/85032.got.cif
#   From: 2010.06.25/outbox.cif.g09.slc.cpg/sg2_43_cif.got.tgz:85032.got - 2010.06.27 13:26:56.
