data_PCOD8022865
_publ_section_title
;
Structure prediction by ZEFSAII (Michael W. Deem and Ramdas Pophale) SiO2 
 PCOD8022865
Probable space group: P -1
;
_chemical_formula_sum "Si O2"
_cell_formula_units_Z 12
_cell_length_a 5.068027
_cell_length_b 9.409472
_cell_length_c 15.994380
_cell_angle_alpha 57.371636
_cell_angle_beta 62.999674
_cell_angle_gamma 100.791742
_cell_volume 467.969981
_symmetry_space_group_name_H-M "P -1"
_symmetry_group_IT_number 2
_symmetry_cell_setting 'triclinic'
loop_
_space_group_symop_operation_xyz
x,y,z
-x,-y,-z
loop_
_atom_site_type_symbol
_atom_site_label
_atom_site_fract_x
_atom_site_fract_y
_atom_site_fract_z
Si Si1 0.107041 0.355654 0.561334
Si Si2 0.707184 0.258546 0.100074
Si Si3 0.751482 0.858749 0.961418
Si Si4 0.565962 0.267471 0.437722
Si Si5 0.156104 0.739409 0.203497
Si Si6 0.334654 0.023788 0.397173
O O1 0.500000 0.500000 0.500000
O O2 0.149504 0.214884 0.530664
O O3 0.000000 0.500000 0.500000
O O4 0.797282 0.204499 0.721468
O O5 0.452038 0.233168 0.068542
O O6 0.454598 0.135972 0.254991
O O7 0.919500 0.161367 0.071430
O O8 0.000000 0.500000 0.000000
O O9 0.899969 0.096518 0.882368
O O10 0.478188 0.737353 0.116653
O O11 0.640515 0.184730 0.369796
O O12 0.799741 0.511173 0.319017
O O13 0.658079 0.180874 0.533411
O O14 0.000000 0.000000 0.500000
#
# Coordination Sequence:
#
# PCOD8022865 Si02
#       6
#     2   2   2   2   2   2
#     4  10  23  39  67 101 134 179 223 284 354 413
#     4  12  28  49  75 101 147 187 237 291 353 419
#     4  11  27  46  72 107 138 190 241 284 351 435
#     4  10  24  45  68 105 145 182 237 298 361 413
#     4  10  24  45  73 101 145 185 234 294 356 418
#     4  11  27  43  74 105 139 190 244 294 351 428
#
# _framework density 25.642672000000001
#
# number of rings (size 3 to 8) (size 9 to 14) (size 15 to 20)
#    0.000    1.333    0.000    2.500   14.000    8.000 
#    0.000    0.000    0.000    0.000    0.000    0.000 
#    0.000    0.000    0.000    0.000    0.000    0.000 
#
# Total GULP energy -148694.034161 kJ/mol
# GULP energy per Si atom -12391.169513 kJ/mol
# Density = 2.558431 g / cm^3
# Si number density = 25.642672 Si / 1000 Ang^3
#
#
#
# Elastic Constant Matrix: (Units=GPa)
#
#
# Indices 1 2 3 4 5 6 
#
# 1 82.4399 24.9185 22.6957 6.3612 2.5531 -27.1967
# 2 24.9185 151.0187 58.7346 19.9238 -2.7961 -11.2928
# 3 22.6957 58.7346 179.1851 32.3922 -6.5677 -7.9591
# 4 6.3612 19.9238 32.3922 60.5733 3.4330 -2.1417
# 5 2.5531 -2.7961 -6.5677 3.4330 28.5522 5.7201
# 6 -27.1967 -11.2928 -7.9591 -2.1417 5.7201 52.2082
#
#
#
# Elastic Compliance Matrix: (Units=1/GPa)
#
#
# Indices 1 2 3 4 5 6 
#
# 1 0.015703 -0.001572 -0.001246 0.000014 -0.003455 0.008029
# 2 -0.001572 0.007924 -0.002121 -0.001319 0.000494 0.000464
# 3 -0.001246 -0.002121 0.007043 -0.003063 0.001967 -0.000376
# 4 0.000014 -0.001319 -0.003063 0.018771 -0.003166 0.000372
# 5 -0.003455 0.000494 0.001967 -0.003166 0.037339 -0.005614
# 6 0.008029 0.000464 -0.000376 0.000372 -0.005614 0.024010
#
#
# Mechanical properties :
#
#
# Convention : Reuss Voigt Hill
#
# Bulk Modulus (GPa) = 48.09686 69.48239 58.78963
# Shear Modulus (GPa) = 39.18527 48.68640 43.93584
#
# Velocity S-wave (km/s) = 3.91337 4.36207 4.14380
# Velocity P-wave (km/s) = 6.26231 7.24745 6.77281
#
# Compressibility (1/GPa) = 0.02079138
#
# Stress axis : x y z
#
# Youngs Moduli (GPa) = 63.68220 126.20242 141.98450
#
# Poissons Ratio (x) = 0.19836 0.17695
# Poissons Ratio (y) = 0.10009 0.30117
# Poissons Ratio (z) = 0.07937 0.26770
#
# Static dielectric constant tensor:
#      x y z
#    x 4.905400 0.886900 0.079660 
#    y 0.886900 6.313400 0.923760 
#    z 0.079660 0.923760 5.336180 
# 
# 
# High freq. dielectric constant tensor:
#      x y z
#    x 2.027370 0.012820 -0.005380 
#    y 0.012820 2.064920 0.006460 
#    z -0.005380 0.006460 2.036090 
# 
# From -- ./inp_files/134665.got.cif
#   From: 2010.06.25/outbox.cif.g09.slc.cpg/sg2_68_cif.got.tgz:134665.got - 2010.06.27 13:26:56.
