data_PCOD8022292
_publ_section_title
;
Structure prediction by ZEFSAII (Michael W. Deem and Ramdas Pophale) SiO2 
 PCOD8022292
Probable space group: P -1
;
_chemical_formula_sum "Si O2"
_cell_formula_units_Z 14
_cell_length_a 11.584578
_cell_length_b 8.508948
_cell_length_c 9.086229
_cell_angle_alpha 78.251985
_cell_angle_beta 139.904734
_cell_angle_gamma 104.484256
_cell_volume 558.411861
_symmetry_space_group_name_H-M "P -1"
_symmetry_group_IT_number 2
_symmetry_cell_setting 'triclinic'
loop_
_space_group_symop_operation_xyz
x,y,z
-x,-y,-z
loop_
_atom_site_type_symbol
_atom_site_label
_atom_site_fract_x
_atom_site_fract_y
_atom_site_fract_z
Si Si1 0.469448 0.778787 0.588064
Si Si2 0.854496 0.123467 0.580374
Si Si3 0.550892 0.468701 0.890573
Si Si4 0.630774 0.780380 0.453322
Si Si5 0.203117 0.979169 0.017999
Si Si6 0.034477 0.327678 0.120369
Si Si7 0.848800 0.256546 0.231155
O O1 0.265936 0.777711 0.450962
O O2 0.549334 0.625716 0.759694
O O3 0.458728 0.779570 0.397269
O O4 0.612669 0.937988 0.741604
O O5 0.894302 0.218918 0.448643
O O6 0.730329 0.952731 0.463035
O O7 0.053080 0.102712 0.839443
O O8 0.415294 0.319599 0.719840
O O9 0.500000 0.500000 0.000000
O O10 0.745829 0.411851 0.092860
O O11 0.760973 0.697563 0.708634
O O12 0.253637 0.908615 0.919710
O O13 0.109971 0.823077 0.055538
O O14 0.027538 0.315525 0.296367
O O15 0.000000 0.500000 0.000000
#
# Coordination Sequence:
#
# PCOD8022292 Si02
#       7
#     2   2   2   2   2   2   2
#     4  12  25  47  69 111 147 186 240 298 353 435
#     4  11  23  45  74 109 143 185 242 296 357 428
#     4  12  26  45  69 103 142 191 240 291 361 419
#     4  11  26  45  69 101 146 191 235 293 364 422
#     4   9  24  43  77 104 139 191 241 285 366 421
#     4   9  21  44  71 101 140 188 231 295 357 420
#     4  10  22  45  70 104 140 188 236 296 358 418
#
# _framework density 25.071099
#
# number of rings (size 3 to 8) (size 9 to 14) (size 15 to 20)
#    0.857    0.571    1.429    3.000    2.000    3.429 
#   10.286    1.429    0.000    0.000    0.000    0.000 
#    0.000    0.000    0.000    0.000    0.000    0.000 
#
# Total GULP energy -173452.048156 kJ/mol
# GULP energy per Si atom -12389.432011 kJ/mol
# Density = 2.501404 g / cm^3
# Si number density = 25.071099 Si / 1000 Ang^3
#
#
#
# Elastic Constant Matrix: (Units=GPa)
#
#
# Indices 1 2 3 4 5 6 
#
# 1 118.6638 18.8464 26.1683 -0.8203 -16.8280 -10.2425
# 2 18.8464 84.0048 25.5409 -37.3492 -4.1960 -3.1450
# 3 26.1683 25.5409 66.6363 -7.4498 -12.8766 -5.4591
# 4 -0.8203 -37.3492 -7.4498 45.8766 -5.5351 -2.7615
# 5 -16.8280 -4.1960 -12.8766 -5.5351 39.4525 -11.4135
# 6 -10.2425 -3.1450 -5.4591 -2.7615 -11.4135 39.1342
#
#
#
# Elastic Compliance Matrix: (Units=1/GPa)
#
#
# Indices 1 2 3 4 5 6 
#
# 1 0.010077 -0.001534 -0.002357 -0.000738 0.004237 0.003369
# 2 -0.001534 0.021796 -0.004913 0.017496 0.003346 0.002875
# 3 -0.002357 -0.004913 0.019182 -0.000041 0.005687 0.003320
# 4 -0.000738 0.017496 -0.000041 0.037446 0.008628 0.006366
# 5 0.004237 0.003346 0.005687 0.008628 0.034273 0.012776
# 6 0.003369 0.002875 0.003320 0.006366 0.012776 0.031304
#
#
# Mechanical properties :
#
#
# Convention : Reuss Voigt Hill
#
# Bulk Modulus (GPa) = 29.89916 45.60176 37.75046
# Shear Modulus (GPa) = 27.34690 38.14262 32.74476
#
# Velocity S-wave (km/s) = 3.30627 3.90472 3.61789
# Velocity P-wave (km/s) = 5.15042 6.20947 5.70458
#
# Compressibility (1/GPa) = 0.03344575
#
# Stress axis : x y z
#
# Youngs Moduli (GPa) = 99.23395 45.88019 52.13213
#
# Poissons Ratio (x) = 0.07040 0.12287
# Poissons Ratio (y) = 0.15227 0.25614
# Poissons Ratio (z) = 0.23389 0.22542
#
# Static dielectric constant tensor:
#      x y z
#    x 5.034900 -0.585240 0.275590 
#    y -0.585240 4.692720 -0.377900 
#    z 0.275590 -0.377900 4.393430 
# 
# 
# High freq. dielectric constant tensor:
#      x y z
#    x 2.007360 -0.021110 0.008070 
#    y -0.021110 1.999760 -0.025230 
#    z 0.008070 -0.025230 1.995800 
# 
# From -- ./inp_files/243762.got.cif
#   From: 2010.06.25/outbox.cif.g09.slc.cpg/sg2_122_cif.got.tgz:243762.got - 2010.06.27 13:26:56.
