data_PCOD8022217
_publ_section_title
;
Structure prediction by ZEFSAII (Michael W. Deem and Ramdas Pophale) SiO2 
 PCOD8022217
Probable space group: P -1
;
_chemical_formula_sum "Si O2"
_cell_formula_units_Z 16
_cell_length_a 11.045342
_cell_length_b 11.687512
_cell_length_c 6.288971
_cell_angle_alpha 64.792254
_cell_angle_beta 105.105584
_cell_angle_gamma 103.691542
_cell_volume 701.783309
_symmetry_space_group_name_H-M "P -1"
_symmetry_group_IT_number 2
_symmetry_cell_setting 'triclinic'
loop_
_space_group_symop_operation_xyz
x,y,z
-x,-y,-z
loop_
_atom_site_type_symbol
_atom_site_label
_atom_site_fract_x
_atom_site_fract_y
_atom_site_fract_z
Si Si1 0.641060 0.255676 0.354773
Si Si2 0.976619 0.859959 0.001701
Si Si3 0.694198 0.481918 0.500821
Si Si4 0.096838 0.293691 0.519772
Si Si5 0.505792 0.350146 0.842778
Si Si6 0.524692 0.892175 0.267640
Si Si7 0.202433 0.093527 0.464904
Si Si8 0.867619 0.183444 0.262638
O O1 0.716606 0.365561 0.449422
O O2 0.585606 0.138329 0.578953
O O3 0.729965 0.214052 0.240430
O O4 0.528712 0.306409 0.129445
O O5 0.845977 0.840907 0.819059
O O6 0.106014 0.832185 0.963471
O O7 0.957473 0.743436 0.245697
O O8 0.000000 0.000000 0.000000
O O9 0.827438 0.564109 0.557348
O O10 0.630454 0.433626 0.733361
O O11 0.607536 0.566536 0.262201
O O12 0.181666 0.184857 0.580224
O O13 0.976409 0.292255 0.311880
O O14 0.461560 0.233447 0.758273
O O15 0.652123 0.931681 0.433118
O O16 0.500000 0.000000 0.000000
O O17 0.114202 0.955874 0.528690
#
# Coordination Sequence:
#
# PCOD8022217 Si02
#       8
#     2   2   2   2   2   2   2   2
#     4  11  26  44  67 100 139 184 221 277 345 402
#     4  11  21  40  68  96 130 182 225 279 334 400
#     4  10  23  43  69  97 130 183 234 278 330 397
#     4  11  22  41  68  97 131 175 228 283 333 392
#     4  10  22  45  68  95 138 179 231 282 324 402
#     4  11  25  42  68 105 140 176 220 279 347 409
#     4  11  22  39  65  99 133 170 228 273 338 410
#     4  11  24  41  62  99 138 172 226 274 343 406
#
# _framework density 22.799060000000001
#
# number of rings (size 3 to 8) (size 9 to 14) (size 15 to 20)
#    0.000    1.250    3.750    1.875    1.750    8.500 
#    0.000    1.250    0.000    0.000    0.000    0.000 
#    0.000    0.000    0.000    0.000    0.000    0.000 
#
# Total GULP energy -198310.226164 kJ/mol
# GULP energy per Si atom -12394.389135 kJ/mol
# Density = 2.274717 g / cm^3
# Si number density = 22.799060 Si / 1000 Ang^3
#
#
#
# Elastic Constant Matrix: (Units=GPa)
#
#
# Indices 1 2 3 4 5 6 
#
# 1 101.8370 40.2902 33.6331 4.8633 -11.6065 -1.8228
# 2 40.2902 96.2390 24.6444 3.2272 -15.8989 13.2242
# 3 33.6331 24.6444 104.5388 -2.3624 -13.2870 0.0835
# 4 4.8633 3.2272 -2.3624 31.6758 0.7835 -2.4092
# 5 -11.6065 -15.8989 -13.2870 0.7835 30.3018 1.4834
# 6 -1.8228 13.2242 0.0835 -2.4092 1.4834 41.1815
#
#
#
# Elastic Compliance Matrix: (Units=1/GPa)
#
#
# Indices 1 2 3 4 5 6 
#
# 1 0.012875 -0.004662 -0.002936 -0.001602 0.001145 0.001938
# 2 -0.004662 0.014296 -0.001201 -0.001351 0.005472 -0.005071
# 3 -0.002936 -0.001201 0.011220 0.001348 0.003121 0.000200
# 4 -0.001602 -0.001351 0.001348 0.032271 -0.001679 0.002309
# 5 0.001145 0.005472 0.003121 -0.001679 0.037878 -0.003175
# 6 0.001938 -0.005071 0.000200 0.002309 -0.003175 0.026246
#
#
# Mechanical properties :
#
#
# Convention : Reuss Voigt Hill
#
# Bulk Modulus (GPa) = 48.09045 55.52783 51.80914
# Shear Modulus (GPa) = 31.38420 34.23495 32.80958
#
# Velocity S-wave (km/s) = 3.71422 3.87925 3.79763
# Velocity P-wave (km/s) = 6.28752 6.66880 6.48097
#
# Compressibility (1/GPa) = 0.02079415
#
# Stress axis : x y z
#
# Youngs Moduli (GPa) = 77.66889 69.94875 89.12314
#
# Poissons Ratio (x) = 0.32609 0.26162
# Poissons Ratio (y) = 0.36208 0.10707
# Poissons Ratio (z) = 0.22800 0.08404
#
# Static dielectric constant tensor:
#      x y z
#    x 3.965630 0.098860 -0.242860 
#    y 0.098860 4.183690 -0.011240 
#    z -0.242860 -0.011240 4.086740 
# 
# 
# High freq. dielectric constant tensor:
#      x y z
#    x 1.889630 0.005300 -0.006560 
#    y 0.005300 1.905780 0.007920 
#    z -0.006560 0.007920 1.892380 
# 
# From -- ./inp_files/68666.got.cif
#   From: 2010.06.25/outbox.cif.g09.slc.cpg/sg2_35_cif.got.tgz:68666.got - 2010.06.27 13:26:56.
