data_PCOD8022374
_publ_section_title
;
Structure prediction by ZEFSAII (Michael W. Deem and Ramdas Pophale) SiO2 
 PCOD8022374
Probable space group: P -1
;
_chemical_formula_sum "Si O2"
_cell_formula_units_Z 12
_cell_length_a 16.745744
_cell_length_b 5.903745
_cell_length_c 8.873974
_cell_angle_alpha 54.218028
_cell_angle_beta 51.202995
_cell_angle_gamma 72.570613
_cell_volume 551.580163
_symmetry_space_group_name_H-M "P -1"
_symmetry_group_IT_number 2
_symmetry_cell_setting 'triclinic'
loop_
_space_group_symop_operation_xyz
x,y,z
-x,-y,-z
loop_
_atom_site_type_symbol
_atom_site_label
_atom_site_fract_x
_atom_site_fract_y
_atom_site_fract_z
Si Si1 0.083460 0.732560 0.873317
Si Si2 0.384809 0.075893 0.125424
Si Si3 0.969939 0.661199 0.325579
Si Si4 0.626256 0.848158 0.546408
Si Si5 0.224147 0.567917 0.538875
Si Si6 0.560942 0.412926 0.317001
O O1 0.194312 0.657254 0.709997
O O2 0.066916 0.038030 0.706651
O O3 0.000000 0.500000 0.000000
O O4 0.070814 0.722039 0.073927
O O5 0.366235 0.187914 0.270150
O O6 0.306004 0.807817 0.279203
O O7 0.365554 0.321198 0.935172
O O8 0.500000 0.000000 0.000000
O O9 0.877609 0.466403 0.429977
O O10 0.000000 0.500000 0.500000
O O11 0.723420 0.722070 0.403279
O O12 0.518897 0.688414 0.680506
O O13 0.633132 0.174442 0.366574
O O14 0.500000 0.500000 0.500000
#
# Coordination Sequence:
#
# PCOD8022374 Si02
#       6
#     2   2   2   2   2   2
#     4   9  21  44  69  94 133 166 214 278 338 395
#     4  12  23  42  66  91 137 181 223 278 322 386
#     4  10  22  45  73  97 130 171 216 276 343 398
#     4  11  23  41  65  91 134 178 229 272 328 387
#     4  11  23  41  66  99 134 175 222 270 337 398
#     4  11  23  41  64  92 128 184 224 273 329 378
#
# _framework density 21.755678
#
# number of rings (size 3 to 8) (size 9 to 14) (size 15 to 20)
#    0.000    1.333    3.333    1.500    0.000    2.667 
#    0.000   31.667    0.000    0.000    0.000    0.000 
#    0.000    0.000    0.000    0.000    0.000    0.000 
#
# Total GULP energy -148804.113762 kJ/mol
# GULP energy per Si atom -12400.342814 kJ/mol
# Density = 2.170616 g / cm^3
# Si number density = 21.755678 Si / 1000 Ang^3
#
#
#
# Elastic Constant Matrix: (Units=GPa)
#
#
# Indices 1 2 3 4 5 6 
#
# 1 78.8326 39.9023 59.0088 -3.0598 6.5591 -3.8591
# 2 39.9023 178.3508 88.9702 8.1615 13.3613 -25.9465
# 3 59.0088 88.9702 155.7138 -12.5379 11.2076 -22.6054
# 4 -3.0598 8.1615 -12.5379 42.3971 -0.8860 -7.8619
# 5 6.5591 13.3613 11.2076 -0.8860 43.5505 -5.7414
# 6 -3.8591 -25.9465 -22.6054 -7.8619 -5.7414 36.8902
#
#
#
# Elastic Compliance Matrix: (Units=1/GPa)
#
#
# Indices 1 2 3 4 5 6 
#
# 1 0.018188 -0.001030 -0.006812 -0.001162 -0.001145 -0.003422
# 2 -0.001030 0.008517 -0.004224 -0.002505 -0.001080 0.002593
# 3 -0.006812 -0.004224 0.012560 0.004969 -0.000144 0.005050
# 4 -0.001162 -0.002505 0.004969 0.026785 0.001139 0.007047
# 5 -0.001145 -0.001080 -0.000144 0.001139 0.023921 0.002998
# 6 -0.003422 0.002593 0.005050 0.007047 0.002998 0.033636
#
#
# Mechanical properties :
#
#
# Convention : Reuss Voigt Hill
#
# Bulk Modulus (GPa) = 66.07444 87.62885 76.85164
# Shear Modulus (GPa) = 32.72612 39.56864 36.14738
#
# Velocity S-wave (km/s) = 3.88268 4.26933 4.08059
# Velocity P-wave (km/s) = 7.10896 8.04170 7.58968
#
# Compressibility (1/GPa) = 0.01513445
#
# Stress axis : x y z
#
# Youngs Moduli (GPa) = 54.98131 117.41208 79.61588
#
# Poissons Ratio (x) = 0.12092 0.54233
# Poissons Ratio (y) = 0.05663 0.33627
# Poissons Ratio (z) = 0.37453 0.49591
#
# Static dielectric constant tensor:
#      x y z
#    x 3.711400 0.060130 -0.109750 
#    y 0.060130 4.467010 0.113030 
#    z -0.109750 0.113030 4.430510 
# 
# 
# High freq. dielectric constant tensor:
#      x y z
#    x 1.831030 0.010110 -0.008960 
#    y 0.010110 1.879960 -0.002140 
#    z -0.008960 -0.002140 1.857670 
# 
# From -- ./inp_files/43476.got.cif
#   From: 2010.06.25/outbox.cif.g09.slc.cpg/sg2_22_cif.got.tgz:43476.got - 2010.06.27 13:26:56.
