data_PCOD8022088
_publ_section_title
;
Structure prediction by ZEFSAII (Michael W. Deem and Ramdas Pophale) SiO2 
 PCOD8022088
Probable space group: P -1
;
_chemical_formula_sum "Si O2"
_cell_formula_units_Z 16
_cell_length_a 15.133178
_cell_length_b 9.315564
_cell_length_c 17.100709
_cell_angle_alpha 42.416260
_cell_angle_beta 26.745805
_cell_angle_gamma 40.368738
_cell_volume 688.712032
_symmetry_space_group_name_H-M "P -1"
_symmetry_group_IT_number 2
_symmetry_cell_setting 'triclinic'
loop_
_space_group_symop_operation_xyz
x,y,z
-x,-y,-z
loop_
_atom_site_type_symbol
_atom_site_label
_atom_site_fract_x
_atom_site_fract_y
_atom_site_fract_z
Si Si1 0.399081 0.705002 0.740112
Si Si2 0.001092 0.109897 0.323617
Si Si3 0.345649 0.367833 0.184802
Si Si4 0.012279 0.430345 0.309017
Si Si5 0.317947 0.196496 0.656850
Si Si6 0.817674 0.586342 0.047708
Si Si7 0.471393 0.854873 0.326621
Si Si8 0.227513 0.581321 0.349217
O O1 0.531952 0.739285 0.548001
O O2 0.209549 0.624146 0.893796
O O3 0.531208 0.518727 0.773533
O O4 0.308229 0.946137 0.757787
O O5 0.001447 0.193834 0.379171
O O6 0.759665 0.157535 0.472632
O O7 0.139494 0.851235 0.307637
O O8 0.117626 0.245042 0.126846
O O9 0.193841 0.479576 0.332906
O O10 0.246010 0.392335 0.166985
O O11 0.461686 0.108261 0.217028
O O12 0.500000 0.500000 0.000000
O O13 0.917707 0.629346 0.240249
O O14 0.893894 0.504563 0.454661
O O15 0.392933 0.239486 0.665654
O O16 0.592102 0.707191 0.217717
O O17 0.000000 0.500000 0.000000
#
# Coordination Sequence:
#
# PCOD8022088 Si02
#       8
#     2   2   2   2   2   2   2   2
#     4  10  23  42  72 107 140 189 245 296 358 429
#     4  12  27  45  77 108 146 194 239 301 364 432
#     4  12  27  44  69 108 144 189 241 303 359 426
#     4  11  25  44  72 106 140 188 244 295 363 429
#     4  10  22  44  75 101 143 191 240 297 359 426
#     4  12  28  47  71 109 149 191 243 301 365 431
#     4  12  25  49  74 106 147 191 244 295 361 439
#     4  11  23  46  72 104 143 191 240 299 363 428
#
# _framework density 23.231770999999998
#
# number of rings (size 3 to 8) (size 9 to 14) (size 15 to 20)
#    0.000    0.750    2.500    4.500    3.500    4.000 
#    0.000    1.875    0.000    0.000    0.000    0.000 
#    0.000    0.000    0.000    0.000    0.000    0.000 
#
# Total GULP energy -198351.035613 kJ/mol
# GULP energy per Si atom -12396.939726 kJ/mol
# Density = 2.317889 g / cm^3
# Si number density = 23.231771 Si / 1000 Ang^3
#
#
#
# Elastic Constant Matrix: (Units=GPa)
#
#
# Indices 1 2 3 4 5 6 
#
# 1 146.3229 40.4478 18.9309 -12.0528 -15.0900 -10.2209
# 2 40.4478 124.8669 24.1269 -8.0527 -3.4260 -3.0687
# 3 18.9309 24.1269 77.4413 -21.5759 3.6552 -6.1398
# 4 -12.0528 -8.0527 -21.5759 20.6365 10.9642 4.1950
# 5 -15.0900 -3.4260 3.6552 10.9642 27.5427 3.7368
# 6 -10.2209 -3.0687 -6.1398 4.1950 3.7368 41.8824
#
#
#
# Elastic Compliance Matrix: (Units=1/GPa)
#
#
# Indices 1 2 3 4 5 6 
#
# 1 0.008151 -0.002223 -0.001438 -0.000128 0.004262 0.001248
# 2 -0.002223 0.009188 -0.002525 -0.000585 0.000523 -0.000228
# 3 -0.001438 -0.002525 0.023887 0.032022 -0.017194 0.001293
# 4 -0.000128 -0.000585 0.032022 0.106809 -0.046651 -0.001916
# 5 0.004262 0.000523 -0.017194 -0.046651 0.059846 -0.002109
# 6 0.001248 -0.000228 0.001293 -0.001916 -0.002109 0.024734
#
#
# Mechanical properties :
#
#
# Convention : Reuss Voigt Hill
#
# Bulk Modulus (GPa) = 34.65727 57.29360 45.97543
# Shear Modulus (GPa) = 19.63842 35.68736 27.66289
#
# Velocity S-wave (km/s) = 2.91060 3.92362 3.45445
# Velocity P-wave (km/s) = 5.12308 6.72619 5.97861
#
# Compressibility (1/GPa) = 0.02885398
#
# Stress axis : x y z
#
# Youngs Moduli (GPa) = 122.68619 108.84314 41.86450
#
# Poissons Ratio (x) = 0.24197 0.06019
# Poissons Ratio (y) = 0.27275 0.10569
# Poissons Ratio (z) = 0.17640 0.27478
#
# Static dielectric constant tensor:
#      x y z
#    x 4.939190 -0.051620 0.075420 
#    y -0.051620 4.314830 0.042770 
#    z 0.075420 0.042770 4.017680 
# 
# 
# High freq. dielectric constant tensor:
#      x y z
#    x 1.938640 0.002980 0.001330 
#    y 0.002980 1.926450 -0.001620 
#    z 0.001330 -0.001620 1.914380 
# 
# From -- ./inp_files/572810.got.cif
#   From: 2010.06.25/outbox.cif.g09.slc.cpg/sg2_287_cif.got.tgz:572810.got - 2010.06.27 13:26:56.
