data_PCOD8022235
_publ_section_title
;
Structure prediction by ZEFSAII (Michael W. Deem and Ramdas Pophale) SiO2 
 PCOD8022235
Probable space group: P -1
;
_chemical_formula_sum "Si O2"
_cell_formula_units_Z 16
_cell_length_a 8.990343
_cell_length_b 8.735300
_cell_length_c 20.700941
_cell_angle_alpha 56.893880
_cell_angle_beta 131.706218
_cell_angle_gamma 86.838099
_cell_volume 755.399546
_symmetry_space_group_name_H-M "P -1"
_symmetry_group_IT_number 2
_symmetry_cell_setting 'triclinic'
loop_
_space_group_symop_operation_xyz
x,y,z
-x,-y,-z
loop_
_atom_site_type_symbol
_atom_site_label
_atom_site_fract_x
_atom_site_fract_y
_atom_site_fract_z
Si Si1 0.002703 0.025316 0.857448
Si Si2 0.483192 0.500548 0.658087
Si Si3 0.887180 0.673649 0.241901
Si Si4 0.952003 0.716343 0.399410
Si Si5 0.512320 0.389347 0.835715
Si Si6 0.558125 0.748065 0.822880
Si Si7 0.036593 0.319103 0.140901
Si Si8 0.719944 0.726494 0.649763
O O1 0.162945 0.104095 0.860113
O O2 0.700159 0.250486 0.738973
O O3 0.992673 0.879269 0.832623
O O4 0.170021 0.841055 0.008942
O O5 0.436702 0.432152 0.728949
O O6 0.585105 0.641098 0.668049
O O7 0.207741 0.685738 0.496070
O O8 0.948482 0.679609 0.331704
O O9 0.643486 0.682717 0.159504
O O10 0.144075 0.420565 0.343035
O O11 0.000000 0.500000 0.500000
O O12 0.680129 0.979615 0.282978
O O13 0.435347 0.630630 0.790202
O O14 0.705818 0.760313 0.804124
O O15 0.767996 0.589535 0.978639
O O16 0.070189 0.319575 0.227521
O O17 0.500000 0.000000 0.500000
#
# Coordination Sequence:
#
# PCOD8022235 Si02
#       8
#     2   2   2   2   2   2   2   2
#     4  10  24  42  69  97 137 173 219 277 338 400
#     4  11  24  42  66  97 133 178 225 271 329 407
#     4  11  27  43  64 100 136 176 220 276 340 396
#     4  12  26  43  66 100 134 177 219 279 336 392
#     4  11  22  44  68 101 130 175 224 279 330 393
#     4  10  24  42  72  98 132 171 228 282 322 392
#     4  10  22  45  69 100 129 177 226 271 333 393
#     4  11  27  43  69  97 138 181 217 275 334 407
#
# _framework density 21.180845000000001
#
# number of rings (size 3 to 8) (size 9 to 14) (size 15 to 20)
#    0.000    1.250    2.500    1.500    7.000    4.500 
#    0.000    2.500    0.000    0.000    0.000    0.000 
#    0.000    0.000    0.000    0.000    0.000    0.000 
#
# Total GULP energy -198431.586266 kJ/mol
# GULP energy per Si atom -12401.974142 kJ/mol
# Density = 2.113264 g / cm^3
# Si number density = 21.180845 Si / 1000 Ang^3
#
#
#
# Elastic Constant Matrix: (Units=GPa)
#
#
# Indices 1 2 3 4 5 6 
#
# 1 84.4778 51.8073 36.0763 -11.4568 8.1342 0.1430
# 2 51.8073 136.2866 72.0024 -9.1821 2.4451 -1.9130
# 3 36.0763 72.0024 138.0435 -14.2396 4.5648 -14.3678
# 4 -11.4568 -9.1821 -14.2396 39.4945 3.1003 -2.1006
# 5 8.1342 2.4451 4.5648 3.1003 30.7165 6.5690
# 6 0.1430 -1.9130 -14.3678 -2.1006 6.5690 39.8972
#
#
#
# Elastic Compliance Matrix: (Units=1/GPa)
#
#
# Indices 1 2 3 4 5 6 
#
# 1 0.016456 -0.005446 -0.000937 0.003510 -0.004186 0.000216
# 2 -0.005446 0.012021 -0.005156 -0.000860 0.001676 -0.001582
# 3 -0.000937 -0.005156 0.010987 0.002886 -0.002168 0.004222
# 4 0.003510 -0.000860 0.002886 0.027726 -0.004779 0.003232
# 5 -0.004186 0.001676 -0.002168 -0.004779 0.035796 -0.006831
# 6 0.000216 -0.001582 0.004222 0.003232 -0.006831 0.027803
#
#
# Mechanical properties :
#
#
# Convention : Reuss Voigt Hill
#
# Bulk Modulus (GPa) = 61.02474 75.39778 68.21126
# Shear Modulus (GPa) = 31.38163 35.28310 33.33236
#
# Velocity S-wave (km/s) = 3.85334 4.08585 3.97130
# Velocity P-wave (km/s) = 6.97649 7.61140 7.30085
#
# Compressibility (1/GPa) = 0.01638680
#
# Stress axis : x y z
#
# Youngs Moduli (GPa) = 60.76815 83.18579 91.01685
#
# Poissons Ratio (x) = 0.45301 0.08530
# Poissons Ratio (y) = 0.33093 0.46926
# Poissons Ratio (z) = 0.05695 0.42889
#
# Static dielectric constant tensor:
#      x y z
#    x 3.501290 0.179890 0.496060 
#    y 0.179890 3.953480 0.123370 
#    z 0.496060 0.123370 3.239370 
# 
# 
# High freq. dielectric constant tensor:
#      x y z
#    x 1.829800 0.013460 -0.003220 
#    y 0.013460 1.843280 0.002150 
#    z -0.003220 0.002150 1.834320 
# 
# From -- ./inp_files/185044.got.cif
#   From: 2010.06.25/outbox.cif.g09.slc.cpg/sg2_93_cif.got.tgz:185044.got - 2010.06.27 13:26:56.
