data_PCOD8022666
_publ_section_title
;
Structure prediction by ZEFSAII (Michael W. Deem and Ramdas Pophale) SiO2 
 PCOD8022666
Probable space group: P -1
;
_chemical_formula_sum "Si O2"
_cell_formula_units_Z 10
_cell_length_a 10.256230
_cell_length_b 8.780507
_cell_length_c 10.450702
_cell_angle_alpha 113.950394
_cell_angle_beta 39.481278
_cell_angle_gamma 91.073082
_cell_volume 471.384521
_symmetry_space_group_name_H-M "P -1"
_symmetry_group_IT_number 2
_symmetry_cell_setting 'triclinic'
loop_
_space_group_symop_operation_xyz
x,y,z
-x,-y,-z
loop_
_atom_site_type_symbol
_atom_site_label
_atom_site_fract_x
_atom_site_fract_y
_atom_site_fract_z
Si Si1 0.765906 0.448604 0.801952
Si Si2 0.508643 0.184379 0.218372
Si Si3 0.814621 0.767912 0.758465
Si Si4 0.683880 0.795298 0.354684
Si Si5 0.790750 0.392408 0.051067
O O1 0.804560 0.632518 0.830640
O O2 0.922893 0.303344 0.519629
O O3 0.500000 0.500000 0.000000
O O4 0.850577 0.348997 0.841097
O O5 0.341819 0.241569 0.241446
O O6 0.363857 0.188660 0.452934
O O7 0.606146 0.329183 0.214975
O O8 0.731781 0.972163 0.953925
O O9 0.656961 0.622497 0.256330
O O10 0.500000 0.000000 0.500000
O O11 0.960560 0.733342 0.103568
#
# Coordination Sequence:
#
# PCOD8022666 Si02
#       5
#     2   2   2   2   2
#     4  11  21  41  64  95 127 166 206 261 320 373
#     4  11  22  42  62  94 128 164 211 261 315 375
#     4  10  23  37  64  96 130 161 205 262 317 381
#     4  11  25  45  64  90 130 171 215 262 308 376
#     4  11  24  42  67  94 126 169 215 258 315 380
#
# _framework density 21.214103000000001
#
# number of rings (size 3 to 8) (size 9 to 14) (size 15 to 20)
#    0.000    1.200    4.000    1.800    0.000    4.800 
#    0.000    0.000    0.000    0.000    0.000    0.000 
#    0.000    0.000    0.000    0.000    0.000    0.000 
#
# Total GULP energy -124013.355264 kJ/mol
# GULP energy per Si atom -12401.335526 kJ/mol
# Density = 2.116582 g / cm^3
# Si number density = 21.214103 Si / 1000 Ang^3
#
#
#
# Elastic Constant Matrix: (Units=GPa)
#
#
# Indices 1 2 3 4 5 6 
#
# 1 55.4693 10.2008 19.7910 5.8222 -7.5854 15.5080
# 2 10.2008 70.0078 29.1471 13.8106 -5.8363 5.6987
# 3 19.7910 29.1471 111.5076 12.4817 -15.4622 16.6149
# 4 5.8222 13.8106 12.4817 38.3974 -2.7201 2.6938
# 5 -7.5854 -5.8363 -15.4622 -2.7201 31.5694 -0.5002
# 6 15.5080 5.6987 16.6149 2.6938 -0.5002 35.3824
#
#
#
# Elastic Compliance Matrix: (Units=1/GPa)
#
#
# Indices 1 2 3 4 5 6 
#
# 1 0.021891 -0.001213 -0.001583 -0.001490 0.003998 -0.008486
# 2 -0.001213 0.016942 -0.003570 -0.004690 0.000686 -0.000154
# 3 -0.001583 -0.003570 0.011572 -0.001645 0.004423 -0.003978
# 4 -0.001490 -0.004690 -0.001645 0.028520 0.000427 0.000016
# 5 0.003998 0.000686 0.004423 0.000427 0.034911 -0.003478
# 6 -0.008486 -0.000154 -0.003978 0.000016 -0.003478 0.033824
#
#
# Mechanical properties :
#
#
# Convention : Reuss Voigt Hill
#
# Bulk Modulus (GPa) = 26.54344 39.47362 33.00853
# Shear Modulus (GPa) = 28.90981 32.92622 30.91801
#
# Velocity S-wave (km/s) = 3.69557 3.94393 3.82177
# Velocity P-wave (km/s) = 5.54517 6.27592 5.92183
#
# Compressibility (1/GPa) = 0.03767410
#
# Stress axis : x y z
#
# Youngs Moduli (GPa) = 45.67994 59.02441 86.41334
#
# Poissons Ratio (x) = 0.07158 0.13677
# Poissons Ratio (y) = 0.05540 0.30852
# Poissons Ratio (z) = 0.07230 0.21074
#
# Static dielectric constant tensor:
#      x y z
#    x 3.734190 -0.072110 0.033580 
#    y -0.072110 3.872790 0.055010 
#    z 0.033580 0.055010 4.016780 
# 
# 
# High freq. dielectric constant tensor:
#      x y z
#    x 1.822660 -0.003430 -0.003850 
#    y -0.003430 1.832510 -0.001760 
#    z -0.003850 -0.001760 1.846760 
# 
# From -- ./inp_files/18064.got.cif
#   From: 2010.06.25/outbox.cif.g09.slc.cpg/sg2_10_cif.got.tgz:18064.got - 2010.06.27 13:26:56.
