data_PCOD8022988
_publ_section_title
;
Structure prediction by ZEFSAII (Michael W. Deem and Ramdas Pophale) SiO2 
 PCOD8022988
Probable space group: P -1
;
_chemical_formula_sum "Si O2"
_cell_formula_units_Z 12
_cell_length_a 11.040656
_cell_length_b 11.826944
_cell_length_c 9.136884
_cell_angle_alpha 109.660048
_cell_angle_beta 141.266724
_cell_angle_gamma 92.488934
_cell_volume 600.842951
_symmetry_space_group_name_H-M "P -1"
_symmetry_group_IT_number 2
_symmetry_cell_setting 'triclinic'
loop_
_space_group_symop_operation_xyz
x,y,z
-x,-y,-z
loop_
_atom_site_type_symbol
_atom_site_label
_atom_site_fract_x
_atom_site_fract_y
_atom_site_fract_z
Si Si1 0.689073 0.460924 0.161670
Si Si2 0.721413 0.324369 0.863076
Si Si3 0.175830 0.905852 0.235560
Si Si4 0.420259 0.904552 0.741291
Si Si5 0.300975 0.146296 0.225834
Si Si6 0.096301 0.603347 0.421704
O O1 0.714428 0.419762 0.332664
O O2 0.927219 0.596542 0.388988
O O3 0.500000 0.500000 0.000000
O O4 0.626852 0.329251 0.937820
O O5 0.785267 0.204887 0.863111
O O6 0.526289 0.293741 0.547564
O O7 0.946796 0.477021 0.110272
O O8 0.323257 0.959734 0.546773
O O9 0.257489 0.040646 0.271259
O O10 0.909974 0.834366 0.991664
O O11 0.641744 0.905240 0.892554
O O12 0.212356 0.749215 0.511511
O O13 0.500000 0.000000 0.000000
#
# Coordination Sequence:
#
# PCOD8022988 Si02
#       6
#     2   2   2   2   2   2
#     4   9  20  36  59  90 121 156 197 239 300 357
#     4   9  19  37  62  83 118 153 197 248 287 350
#     4  10  23  41  62  89 119 161 205 240 297 357
#     4  11  24  41  61  87 127 156 195 254 302 352
#     4  10  23  40  64  89 116 165 203 240 298 359
#     4   9  22  36  57  92 118 155 196 247 299 346
#
# _framework density 19.971943
#
# number of rings (size 3 to 8) (size 9 to 14) (size 15 to 20)
#    1.000    1.333    0.000    2.000    7.000    4.667 
#    3.000    1.667    0.000    0.000    0.000    0.000 
#    0.000    0.000    0.000    0.000    0.000    0.000 
#
# Total GULP energy -148704.661491 kJ/mol
# GULP energy per Si atom -12392.055124 kJ/mol
# Density = 1.992649 g / cm^3
# Si number density = 19.971943 Si / 1000 Ang^3
#
#
#
# Elastic Constant Matrix: (Units=GPa)
#
#
# Indices 1 2 3 4 5 6 
#
# 1 104.5723 35.6846 56.1712 -15.6822 -2.9099 -24.8626
# 2 35.6846 60.2183 36.0262 -5.4619 3.0062 -12.3628
# 3 56.1712 36.0262 133.9615 1.3999 -12.0085 -26.3554
# 4 -15.6822 -5.4619 1.3999 25.0437 -6.2198 8.7200
# 5 -2.9099 3.0062 -12.0085 -6.2198 34.9245 -3.9436
# 6 -24.8626 -12.3628 -26.3554 8.7200 -3.9436 37.6263
#
#
#
# Elastic Compliance Matrix: (Units=1/GPa)
#
#
# Indices 1 2 3 4 5 6 
#
# 1 0.016007 -0.005419 -0.004336 0.008215 0.002234 0.004090
# 2 -0.005419 0.022571 -0.004036 0.000696 -0.003605 0.000469
# 3 -0.004336 -0.004036 0.011899 -0.005333 0.003780 0.005776
# 4 0.008215 0.000696 -0.005333 0.050345 0.006736 -0.009040
# 5 0.002234 -0.003605 0.003780 0.006736 0.032165 0.004750
# 6 0.004090 0.000469 0.005776 -0.009040 0.004750 0.036073
#
#
# Mechanical properties :
#
#
# Convention : Reuss Voigt Hill
#
# Bulk Modulus (GPa) = 43.67364 61.61291 52.64328
# Shear Modulus (GPa) = 24.47691 30.91024 27.69357
#
# Velocity S-wave (km/s) = 3.50460 3.93833 3.72778
# Velocity P-wave (km/s) = 6.18800 7.18312 6.70405
#
# Compressibility (1/GPa) = 0.02289710
#
# Stress axis : x y z
#
# Youngs Moduli (GPa) = 62.47128 44.30380 84.03960
#
# Poissons Ratio (x) = 0.24006 0.36437
# Poissons Ratio (y) = 0.33851 0.33920
# Poissons Ratio (z) = 0.27085 0.17882
#
# Static dielectric constant tensor:
#      x y z
#    x 3.736890 -0.052430 0.120760 
#    y -0.052430 3.303340 -0.106900 
#    z 0.120760 -0.106900 3.834030 
# 
# 
# High freq. dielectric constant tensor:
#      x y z
#    x 1.777900 -0.001720 0.005270 
#    y -0.001720 1.753690 -0.005640 
#    z 0.005270 -0.005640 1.786510 
# 
# From -- ./inp_files/245268.got.cif
#   From: 2010.06.25/outbox.cif.g09.slc.cpg/sg2_123_cif.got.tgz:245268.got - 2010.06.27 13:26:56.
