data_PCOD8022539
_publ_section_title
;
Structure prediction by ZEFSAII (Michael W. Deem and Ramdas Pophale) SiO2 
 PCOD8022539
Probable space group: P -1
;
_chemical_formula_sum "Si O2"
_cell_formula_units_Z 16
_cell_length_a 17.390932
_cell_length_b 5.954922
_cell_length_c 8.831687
_cell_angle_alpha 84.054506
_cell_angle_beta 130.103042
_cell_angle_gamma 98.856584
_cell_volume 691.231190
_symmetry_space_group_name_H-M "P -1"
_symmetry_group_IT_number 2
_symmetry_cell_setting 'triclinic'
loop_
_space_group_symop_operation_xyz
x,y,z
-x,-y,-z
loop_
_atom_site_type_symbol
_atom_site_label
_atom_site_fract_x
_atom_site_fract_y
_atom_site_fract_z
Si Si1 0.615653 0.671187 0.488121
Si Si2 0.602128 0.307449 0.740830
Si Si3 0.756999 0.988390 0.856721
Si Si4 0.930315 0.988947 0.635383
Si Si5 0.230105 0.387573 0.536917
Si Si6 0.065003 0.699165 0.657230
Si Si7 0.765263 0.583476 0.100393
Si Si8 0.911013 0.314374 0.839787
O O1 0.593702 0.430590 0.561298
O O2 0.510835 0.785260 0.337258
O O3 0.654725 0.608775 0.375425
O O4 0.706244 0.833295 0.668958
O O5 0.667656 0.100842 0.818963
O O6 0.651950 0.492121 0.912466
O O7 0.850387 0.165762 0.905303
O O8 0.801240 0.828802 0.052821
O O9 0.905486 0.102969 0.438600
O O10 0.969144 0.158136 0.809239
O O11 0.825441 0.855590 0.567225
O O12 0.006383 0.797731 0.716744
O O13 0.226483 0.411191 0.710079
O O14 0.174884 0.583497 0.374010
O O15 0.162602 0.599445 0.857688
O O16 0.000000 0.500000 0.500000
O O17 0.000000 0.500000 0.000000
#
# Coordination Sequence:
#
# PCOD8022539 Si02
#       8
#     2   2   2   2   2   2   2   2
#     4  10  22  46  76 102 139 187 242 292 364 423
#     4  10  23  44  74 108 138 184 238 300 355 437
#     4  11  24  47  74 102 146 189 231 301 362 432
#     4  11  24  45  71  98 135 198 236 290 354 419
#     4  12  24  48  70 102 146 189 235 299 355 424
#     4  11  23  44  69 102 141 190 237 290 355 427
#     4  11  26  43  71 110 143 182 241 295 363 426
#     4  12  27  48  71 106 145 194 247 292 350 429
#
# _framework density 23.147106000000001
#
# number of rings (size 3 to 8) (size 9 to 14) (size 15 to 20)
#    0.000    1.000    5.000    0.375    1.750    4.000 
#    2.250    1.250    0.000    0.000    0.000    0.000 
#    0.000    0.000    0.000    0.000    0.000    0.000 
#
# Total GULP energy -198389.974527 kJ/mol
# GULP energy per Si atom -12399.373408 kJ/mol
# Density = 2.309442 g / cm^3
# Si number density = 23.147106 Si / 1000 Ang^3
#
#
#
# Elastic Constant Matrix: (Units=GPa)
#
#
# Indices 1 2 3 4 5 6 
#
# 1 186.7950 71.7776 61.8707 -9.3992 6.2852 -12.1452
# 2 71.7776 106.0765 37.4403 -13.3916 0.0409 -8.9666
# 3 61.8707 37.4403 94.7391 -11.9724 1.7251 2.1552
# 4 -9.3992 -13.3916 -11.9724 43.2129 -3.3033 -2.3700
# 5 6.2852 0.0409 1.7251 -3.3033 27.6512 0.5079
# 6 -12.1452 -8.9666 2.1552 -2.3700 0.5079 44.6122
#
#
#
# Elastic Compliance Matrix: (Units=1/GPa)
#
#
# Indices 1 2 3 4 5 6 
#
# 1 0.008413 -0.004259 -0.003893 -0.000615 -0.001766 0.001610
# 2 -0.004259 0.013643 -0.002314 0.002868 0.001401 0.001831
# 3 -0.003893 -0.002314 0.014348 0.002320 0.000309 -0.002098
# 4 -0.000615 0.002868 0.002320 0.024850 0.002931 0.001583
# 5 -0.001766 0.001401 0.000309 0.002931 0.036904 -0.000479
# 6 0.001610 0.001831 -0.002098 0.001583 -0.000479 0.023413
#
#
# Mechanical properties :
#
#
# Convention : Reuss Voigt Hill
#
# Bulk Modulus (GPa) = 64.64568 81.08753 72.86661
# Shear Modulus (GPa) = 33.86182 37.53006 35.69594
#
# Velocity S-wave (km/s) = 3.82893 4.03099 3.93126
# Velocity P-wave (km/s) = 6.89467 7.53476 7.22181
#
# Compressibility (1/GPa) = 0.01546894
#
# Stress axis : x y z
#
# Youngs Moduli (GPa) = 118.86700 73.30035 69.69811
#
# Poissons Ratio (x) = 0.31222 0.27133
# Poissons Ratio (y) = 0.50631 0.16132
# Poissons Ratio (z) = 0.46275 0.16965
#
# Static dielectric constant tensor:
#      x y z
#    x 4.306250 -0.029120 0.116390 
#    y -0.029120 4.432610 -0.177780 
#    z 0.116390 -0.177780 4.357950 
# 
# 
# High freq. dielectric constant tensor:
#      x y z
#    x 1.918680 -0.004840 -0.003330 
#    y -0.004840 1.926180 -0.000440 
#    z -0.003330 -0.000440 1.908880 
# 
# From -- ./inp_files/323610.got.cif
#   From: 2010.06.25/outbox.cif.g09.slc.cpg/sg2_162_cif.got.tgz:323610.got - 2010.06.27 13:26:56.
