data_PCOD8022467
_publ_section_title
;
Structure prediction by ZEFSAII (Michael W. Deem and Ramdas Pophale) SiO2 
 PCOD8022467
Probable space group: P -1
;
_chemical_formula_sum "Si O2"
_cell_formula_units_Z 16
_cell_length_a 9.109509
_cell_length_b 11.701211
_cell_length_c 14.352702
_cell_angle_alpha 75.796905
_cell_angle_beta 29.931002
_cell_angle_gamma 87.739890
_cell_volume 690.947385
_symmetry_space_group_name_H-M "P -1"
_symmetry_group_IT_number 2
_symmetry_cell_setting 'triclinic'
loop_
_space_group_symop_operation_xyz
x,y,z
-x,-y,-z
loop_
_atom_site_type_symbol
_atom_site_label
_atom_site_fract_x
_atom_site_fract_y
_atom_site_fract_z
Si Si1 0.854162 0.340259 0.860934
Si Si2 0.104197 0.397166 0.909898
Si Si3 0.337689 0.086500 0.619913
Si Si4 0.658094 0.041906 0.004095
Si Si5 0.835311 0.466021 0.500296
Si Si6 0.522822 0.788135 0.660906
Si Si7 0.317441 0.941968 0.396967
Si Si8 0.784945 0.704061 0.702383
O O1 0.769163 0.190774 0.932762
O O2 0.077914 0.404530 0.811715
O O3 0.046708 0.407863 0.651522
O O4 0.521093 0.361417 0.051729
O O5 0.460646 0.411174 0.733374
O O6 0.000000 0.500000 0.000000
O O7 0.856344 0.261681 0.107330
O O8 0.398435 0.209480 0.493771
O O9 0.479981 0.121445 0.638453
O O10 0.969165 0.006649 0.844926
O O11 0.500000 0.000000 0.500000
O O12 0.500000 0.000000 0.000000
O O13 0.433124 0.958790 0.223910
O O14 0.000000 0.500000 0.500000
O O15 0.960030 0.361773 0.408676
O O16 0.669515 0.700579 0.657809
O O17 0.675611 0.928554 0.588455
O O18 0.953839 0.848887 0.614022
#
# Coordination Sequence:
#
# PCOD8022467 Si02
#       8
#     2   2   2   2   2   2   2   2
#     4  11  27  49  71 105 142 192 238 288 357 423
#     4  11  25  48  77  98 139 191 235 294 353 419
#     4  10  25  40  68 100 144 178 233 284 347 418
#     4  12  26  43  74 102 147 189 233 284 359 429
#     4  12  28  46  71 109 139 184 247 295 350 419
#     4  10  22  46  69 103 143 184 230 284 363 423
#     4  11  23  43  73 106 144 177 236 288 359 417
#     4  11  24  43  76  98 146 185 232 294 350 421
#
# _framework density 23.156611000000002
#
# number of rings (size 3 to 8) (size 9 to 14) (size 15 to 20)
#    0.000    1.000    2.500    3.750   10.500    4.000 
#    0.000    0.000    0.000    0.000    0.000    0.000 
#    0.000    0.000    0.000    0.000    0.000    0.000 
#
# Total GULP energy -198353.053163 kJ/mol
# GULP energy per Si atom -12397.065823 kJ/mol
# Density = 2.310391 g / cm^3
# Si number density = 23.156611 Si / 1000 Ang^3
#
#
#
# Elastic Constant Matrix: (Units=GPa)
#
#
# Indices 1 2 3 4 5 6 
#
# 1 158.9603 12.0575 44.3936 -6.4404 0.1734 13.3878
# 2 12.0575 74.3862 12.5112 3.4603 -14.6157 8.3085
# 3 44.3936 12.5112 103.3434 -6.0385 -25.1860 -2.3831
# 4 -6.4404 3.4603 -6.0385 38.4784 -6.6977 -3.7471
# 5 0.1734 -14.6157 -25.1860 -6.6977 55.0722 0.7974
# 6 13.3878 8.3085 -2.3831 -3.7471 0.7974 33.0954
#
#
#
# Elastic Compliance Matrix: (Units=1/GPa)
#
#
# Indices 1 2 3 4 5 6 
#
# 1 0.007650 -0.000629 -0.003722 0.000128 -0.001832 -0.003146
# 2 -0.000629 0.014849 -0.000854 -0.001342 0.003444 -0.003770
# 3 -0.003722 -0.000854 0.013091 0.002842 0.006077 0.002838
# 4 0.000128 -0.001342 0.002842 0.027660 0.004256 0.003519
# 5 -0.001832 0.003444 0.006077 0.004256 0.022371 0.000257
# 6 -0.003146 -0.003770 0.002838 0.003519 0.000257 0.033031
#
#
# Mechanical properties :
#
#
# Convention : Reuss Voigt Hill
#
# Bulk Modulus (GPa) = 39.71081 52.73496 46.22288
# Shear Modulus (GPa) = 36.37570 43.17772 39.77671
#
# Velocity S-wave (km/s) = 3.96770 4.32278 4.14904
# Velocity P-wave (km/s) = 6.17869 6.90926 6.55416
#
# Compressibility (1/GPa) = 0.02518206
#
# Stress axis : x y z
#
# Youngs Moduli (GPa) = 130.71753 67.34467 76.38812
#
# Poissons Ratio (x) = 0.04233 0.28429
# Poissons Ratio (y) = 0.08216 0.06522
# Poissons Ratio (z) = 0.48649 0.05750
#
# Static dielectric constant tensor:
#      x y z
#    x 5.151240 -0.423920 0.166560 
#    y -0.423920 4.270170 -0.075180 
#    z 0.166560 -0.075180 4.577410 
# 
# 
# High freq. dielectric constant tensor:
#      x y z
#    x 1.928340 0.002190 -0.003970 
#    y 0.002190 1.898080 -0.000880 
#    z -0.003970 -0.000880 1.930630 
# 
# From -- ./inp_files/500346.got.cif
#   From: 2010.06.25/outbox.cif.g09.slc.cpg/sg2_251_cif.got.tgz:500346.got - 2010.06.27 13:26:56.
