data_PCOD8022056
_publ_section_title
;
Structure prediction by ZEFSAII (Michael W. Deem and Ramdas Pophale) SiO2 
 PCOD8022056
Probable space group: P -1
;
_chemical_formula_sum "Si O2"
_cell_formula_units_Z 16
_cell_length_a 12.756509
_cell_length_b 15.319175
_cell_length_c 4.986203
_cell_angle_alpha 64.040665
_cell_angle_beta 120.436177
_cell_angle_gamma 121.078014
_cell_volume 698.742895
_symmetry_space_group_name_H-M "P -1"
_symmetry_group_IT_number 2
_symmetry_cell_setting 'triclinic'
loop_
_space_group_symop_operation_xyz
x,y,z
-x,-y,-z
loop_
_atom_site_type_symbol
_atom_site_label
_atom_site_fract_x
_atom_site_fract_y
_atom_site_fract_z
Si Si1 0.701655 0.387288 0.970335
Si Si2 0.270466 0.287935 0.070843
Si Si3 0.452895 0.716415 0.590081
Si Si4 0.012005 0.117013 0.793194
Si Si5 0.217746 0.383082 0.397621
Si Si6 0.051548 0.625004 0.853451
Si Si7 0.876956 0.168434 0.041783
Si Si8 0.428471 0.934296 0.244376
O O1 0.656911 0.358339 0.647685
O O2 0.739143 0.511149 0.860587
O O3 0.829030 0.354977 0.231912
O O4 0.585001 0.330084 0.099004
O O5 0.309816 0.382158 0.770037
O O6 0.167226 0.187752 0.916880
O O7 0.404699 0.275069 0.329009
O O8 0.208824 0.301392 0.257904
O O9 0.456093 0.830564 0.428713
O O10 0.953968 0.124983 0.415522
O O11 0.933127 0.162517 0.831081
O O12 0.000000 0.000000 0.000000
O O13 0.078580 0.353607 0.420323
O O14 0.110565 0.710414 0.056309
O O15 0.000000 0.500000 0.000000
O O16 0.725564 0.089849 0.943765
O O17 0.500000 0.000000 0.500000
O O18 0.500000 0.000000 0.000000
#
# Coordination Sequence:
#
# PCOD8022056 Si02
#       8
#     2   2   2   2   2   2   2   2
#     4  11  25  44  70 101 140 180 233 282 355 419
#     4  12  25  44  68  98 143 179 236 284 348 418
#     4  12  27  45  68 100 138 185 230 289 343 423
#     4  12  27  47  71 105 138 185 236 297 352 416
#     4  11  24  44  69 103 136 185 226 290 350 421
#     4  10  22  44  73 106 142 178 229 293 352 416
#     4  12  25  48  78 102 140 185 238 295 358 420
#     4  12  28  48  71 102 137 182 233 289 349 412
#
# _framework density 22.898266
#
# number of rings (size 3 to 8) (size 9 to 14) (size 15 to 20)
#    0.000    0.500    3.750    3.375    5.250    4.000 
#    0.000    4.375    0.000    0.000    0.000    0.000 
#    0.000    0.000    0.000    0.000    0.000    0.000 
#
# Total GULP energy -198252.268966 kJ/mol
# GULP energy per Si atom -12390.766810 kJ/mol
# Density = 2.284615 g / cm^3
# Si number density = 22.898266 Si / 1000 Ang^3
#
#
#
# Elastic Constant Matrix: (Units=GPa)
#
#
# Indices 1 2 3 4 5 6 
#
# 1 115.7233 39.3834 34.8584 -3.8102 7.7040 10.9733
# 2 39.3834 98.8456 19.5988 8.2494 11.1120 9.2838
# 3 34.8584 19.5988 93.9147 6.9363 -0.4519 3.7561
# 4 -3.8102 8.2494 6.9363 31.4902 0.8049 -2.1471
# 5 7.7040 11.1120 -0.4519 0.8049 40.9469 2.9591
# 6 10.9733 9.2838 3.7561 -2.1471 2.9591 34.1201
#
#
#
# Elastic Compliance Matrix: (Units=1/GPa)
#
#
# Indices 1 2 3 4 5 6 
#
# 1 0.011358 -0.003766 -0.003582 0.003044 -0.001074 -0.001949
# 2 -0.003766 0.012576 -0.000885 -0.003636 -0.002489 -0.002126
# 3 -0.003582 -0.000885 0.012398 -0.002979 0.001128 -0.000257
# 4 0.003044 -0.003636 -0.002979 0.033916 -0.000467 0.002513
# 5 -0.001074 -0.002489 0.001128 -0.000467 0.025417 -0.001335
# 6 -0.001949 -0.002126 -0.000257 0.002513 -0.001335 0.030816
#
#
# Mechanical properties :
#
#
# Convention : Reuss Voigt Hill
#
# Bulk Modulus (GPa) = 50.33625 55.12944 52.73284
# Shear Modulus (GPa) = 33.42930 35.62098 34.52514
#
# Velocity S-wave (km/s) = 3.82502 3.94841 3.88720
# Velocity P-wave (km/s) = 6.44499 6.70184 6.57467
#
# Compressibility (1/GPa) = 0.01986640
#
# Stress axis : x y z
#
# Youngs Moduli (GPa) = 88.04058 79.51912 80.65838
#
# Poissons Ratio (x) = 0.29944 0.28893
# Poissons Ratio (y) = 0.33153 0.07139
# Poissons Ratio (z) = 0.31537 0.07038
#
# Static dielectric constant tensor:
#      x y z
#    x 4.242930 0.045640 0.227190 
#    y 0.045640 3.963590 -0.008970 
#    z 0.227190 -0.008970 4.040950 
# 
# 
# High freq. dielectric constant tensor:
#      x y z
#    x 1.917390 0.001330 0.006640 
#    y 0.001330 1.916620 0.000440 
#    z 0.006640 0.000440 1.902050 
# 
# From -- ./inp_files/77255.got.cif
#   From: 2010.06.25/outbox.cif.g09.slc.cpg/sg2_39_cif.got.tgz:77255.got - 2010.06.27 13:26:56.
