data_PCOD8022705
_publ_section_title
;
Structure prediction by ZEFSAII (Michael W. Deem and Ramdas Pophale) SiO2 
 PCOD8022705
Probable space group: P -1
;
_chemical_formula_sum "Si O2"
_cell_formula_units_Z 16
_cell_length_a 17.067789
_cell_length_b 7.871446
_cell_length_c 11.813076
_cell_angle_alpha 78.168758
_cell_angle_beta 131.452101
_cell_angle_gamma 64.822901
_cell_volume 749.902175
_symmetry_space_group_name_H-M "P -1"
_symmetry_group_IT_number 2
_symmetry_cell_setting 'triclinic'
loop_
_space_group_symop_operation_xyz
x,y,z
-x,-y,-z
loop_
_atom_site_type_symbol
_atom_site_label
_atom_site_fract_x
_atom_site_fract_y
_atom_site_fract_z
Si Si1 0.769941 0.850158 0.435004
Si Si2 0.090316 0.204696 0.637181
Si Si3 0.688439 0.342488 0.526208
Si Si4 0.152674 0.753175 0.103705
Si Si5 0.316035 0.751184 0.065400
Si Si6 0.563651 0.584128 0.982003
Si Si7 0.217272 0.545206 0.604979
Si Si8 0.943217 0.727573 0.836608
O O1 0.818333 0.934836 0.375924
O O2 0.764780 0.662752 0.408684
O O3 0.902800 0.694981 0.681724
O O4 0.588743 0.127402 0.263616
O O5 0.000000 0.500000 0.500000
O O6 0.960642 0.217188 0.539396
O O7 0.224496 0.038030 0.889398
O O8 0.707184 0.446626 0.639136
O O9 0.498144 0.559829 0.301353
O O10 0.766948 0.323171 0.490710
O O11 0.783860 0.039323 0.683004
O O12 0.211269 0.821369 0.061386
O O13 0.103982 0.645219 0.000312
O O14 0.000000 0.000000 0.000000
O O15 0.314893 0.617915 0.976763
O O16 0.500000 0.500000 0.000000
O O17 0.648930 0.605978 0.148512
O O18 0.000000 0.500000 0.000000
#
# Coordination Sequence:
#
# PCOD8022705 Si02
#       8
#     2   2   2   2   2   2   2   2
#     4  11  22  42  63  94 137 174 216 270 326 389
#     4  10  23  38  61  99 132 172 217 264 321 387
#     4  11  22  44  68  95 128 173 220 270 331 386
#     4  10  24  43  69  96 125 174 223 270 328 387
#     4  12  23  41  70  97 133 172 221 270 326 397
#     4  12  22  40  66  99 135 173 213 267 333 389
#     4  11  23  40  67  96 133 175 217 266 328 395
#     4  11  23  42  67  93 127 170 218 271 327 389
#
# _framework density 21.336117000000002
#
# number of rings (size 3 to 8) (size 9 to 14) (size 15 to 20)
#    0.000    1.000    3.750    3.000    1.750    4.500 
#    0.000    0.625    5.500    0.000    0.000    0.000 
#    0.000    0.000    0.000    0.000    0.000    0.000 
#
# Total GULP energy -198268.318510 kJ/mol
# GULP energy per Si atom -12391.769907 kJ/mol
# Density = 2.128755 g / cm^3
# Si number density = 21.336117 Si / 1000 Ang^3
#
#
#
# Elastic Constant Matrix: (Units=GPa)
#
#
# Indices 1 2 3 4 5 6 
#
# 1 139.9023 34.5701 73.6763 -1.8556 -3.8610 -12.5749
# 2 34.5701 82.1517 59.6043 18.5330 5.2634 -1.9355
# 3 73.6763 59.6043 193.8701 19.5703 -11.3500 9.6404
# 4 -1.8556 18.5330 19.5703 51.2501 -1.1602 0.4476
# 5 -3.8610 5.2634 -11.3500 -1.1602 32.6337 5.0112
# 6 -12.5749 -1.9355 9.6404 0.4476 5.0112 31.1369
#
#
#
# Elastic Compliance Matrix: (Units=1/GPa)
#
#
# Indices 1 2 3 4 5 6 
#
# 1 0.010095 -0.001893 -0.003789 0.002440 -0.000527 0.005182
# 2 -0.001893 0.017925 -0.004750 -0.004883 -0.005363 0.002753
# 3 -0.003789 -0.004750 0.008716 -0.001611 0.004084 -0.005158
# 4 0.002440 -0.004883 -0.001611 0.022002 0.001195 0.000672
# 5 -0.000527 -0.005363 0.004084 0.001195 0.034030 -0.007305
# 6 0.005182 0.002753 -0.005158 0.000672 -0.007305 0.037143
#
#
# Mechanical properties :
#
#
# Convention : Reuss Voigt Hill
#
# Bulk Modulus (GPa) = 63.00191 83.51395 73.25793
# Shear Modulus (GPa) = 32.03748 39.54236 35.78992
#
# Velocity S-wave (km/s) = 3.87920 4.30967 4.10009
# Velocity P-wave (km/s) = 7.04675 7.99946 7.53817
#
# Compressibility (1/GPa) = 0.01587253
#
# Stress axis : x y z
#
# Youngs Moduli (GPa) = 99.06195 55.78701 114.72602
#
# Poissons Ratio (x) = 0.10563 0.43469
# Poissons Ratio (y) = 0.18757 0.54489
# Poissons Ratio (z) = 0.37534 0.26496
#
# Static dielectric constant tensor:
#      x y z
#    x 4.203920 -0.237200 0.149450 
#    y -0.237200 3.976670 0.264580 
#    z 0.149450 0.264580 4.548990 
# 
# 
# High freq. dielectric constant tensor:
#      x y z
#    x 1.830770 -0.007130 -0.001030 
#    y -0.007130 1.819790 0.010330 
#    z -0.001030 0.010330 1.863470 
# 
# From -- ./inp_files/462140.got.cif
#   From: 2010.06.25/outbox.cif.g09.slc.cpg/sg2_232_cif.got.tgz:462140.got - 2010.06.27 13:26:56.
