data_PCOD8022689
_publ_section_title
;
Structure prediction by ZEFSAII (Michael W. Deem and Ramdas Pophale) SiO2 
 PCOD8022689
Probable space group: P -1
;
_chemical_formula_sum "Si O2"
_cell_formula_units_Z 16
_cell_length_a 9.548349
_cell_length_b 14.681047
_cell_length_c 11.368507
_cell_angle_alpha 26.788203
_cell_angle_beta 76.176968
_cell_angle_gamma 86.149669
_cell_volume 657.410589
_symmetry_space_group_name_H-M "P -1"
_symmetry_group_IT_number 2
_symmetry_cell_setting 'triclinic'
loop_
_space_group_symop_operation_xyz
x,y,z
-x,-y,-z
loop_
_atom_site_type_symbol
_atom_site_label
_atom_site_fract_x
_atom_site_fract_y
_atom_site_fract_z
Si Si1 0.602316 0.533663 0.327273
Si Si2 0.908032 0.160123 0.337107
Si Si3 0.430606 0.088163 0.264134
Si Si4 0.050844 0.408473 0.789980
Si Si5 0.046979 0.300565 0.388954
Si Si6 0.378246 0.541899 0.060554
Si Si7 0.903993 0.049618 0.066455
Si Si8 0.426379 0.185137 0.603884
O O1 0.500000 0.500000 0.500000
O O2 0.778553 0.591486 0.258445
O O3 0.549310 0.298467 0.548235
O O4 0.586646 0.733327 0.027868
O O5 0.936506 0.271362 0.332254
O O6 0.729184 0.031970 0.502485
O O7 0.000000 0.000000 0.500000
O O8 0.972768 0.320869 0.032161
O O9 0.485491 0.905541 0.405461
O O10 0.557165 0.211096 0.194243
O O11 0.032997 0.642832 0.540544
O O12 0.961650 0.292867 0.824294
O O13 0.208473 0.487564 0.103289
O O14 0.081862 0.084338 0.664772
O O15 0.362502 0.375164 0.361251
O O16 0.500000 0.500000 0.000000
O O17 0.729382 0.002745 0.110068
O O18 0.000000 0.000000 0.000000
#
# Coordination Sequence:
#
# PCOD8022689 Si02
#       8
#     2   2   2   2   2   2   2   2
#     4  11  24  42  63  90 123 162 209 256 302 361
#     4  12  22  41  66  92 132 163 201 256 315 377
#     4  11  23  41  62  92 126 161 202 253 308 368
#     4  12  25  41  66  95 125 167 207 254 317 369
#     4  11  24  41  63  96 126 163 206 255 312 372
#     4  10  23  38  59  88 127 158 196 245 301 366
#     4  11  24  44  65  90 125 166 214 260 303 363
#     4  10  24  40  61  91 121 161 205 247 308 361
#
# _framework density 24.337911999999999
#
# number of rings (size 3 to 8) (size 9 to 14) (size 15 to 20)
#    0.000    1.000    2.500    3.375    5.250    2.500 
#    0.000    0.000    0.000    0.000    0.000    0.000 
#    0.000    0.000    0.000    0.000    0.000    0.000 
#
# Total GULP energy -198339.041336 kJ/mol
# GULP energy per Si atom -12396.190083 kJ/mol
# Density = 2.428252 g / cm^3
# Si number density = 24.337912 Si / 1000 Ang^3
#
#
#
# Elastic Constant Matrix: (Units=GPa)
#
#
# Indices 1 2 3 4 5 6 
#
# 1 101.3340 20.9238 27.3340 -6.4942 -38.6837 -6.4464
# 2 20.9238 151.7174 18.2478 -23.3276 -24.1656 -4.4980
# 3 27.3340 18.2478 58.1924 -7.2789 -26.2485 1.8449
# 4 -6.4942 -23.3276 -7.2789 44.9903 -7.0535 -11.9259
# 5 -38.6837 -24.1656 -26.2485 -7.0535 38.2218 -5.7810
# 6 -6.4464 -4.4980 1.8449 -11.9259 -5.7810 45.7715
#
#
#
# Elastic Compliance Matrix: (Units=1/GPa)
#
#
# Indices 1 2 3 4 5 6 
#
# 1 0.021270 0.003853 0.004024 0.013351 0.030791 0.010580
# 2 0.003853 0.009768 0.002833 0.009937 0.014738 0.005839
# 3 0.004024 0.002833 0.029025 0.013131 0.029247 0.006790
# 4 0.013351 0.009937 0.013131 0.042485 0.039433 0.018378
# 5 0.030791 0.014738 0.029247 0.039433 0.098132 0.027275
# 6 0.010580 0.005839 0.006790 0.018378 0.027275 0.031871
#
#
# Mechanical properties :
#
#
# Convention : Reuss Voigt Hill
#
# Bulk Modulus (GPa) = 12.27240 49.36168 30.81704
# Shear Modulus (GPa) = 20.98269 42.11259 31.54764
#
# Velocity S-wave (km/s) = 2.93941 4.16423 3.60423
# Velocity P-wave (km/s) = 4.07107 6.59143 5.47816
#
# Compressibility (1/GPa) = 0.08148367
#
# Stress axis : x y z
#
# Youngs Moduli (GPa) = 47.01392 102.37970 34.45268
#
# Poissons Ratio (x) = -0.39452 -0.13864
# Poissons Ratio (y) = -0.18117 -0.09759
# Poissons Ratio (z) = -0.18919 -0.29001
#
# Static dielectric constant tensor:
#      x y z
#    x 5.472900 0.255030 0.358650 
#    y 0.255030 4.505420 -0.421060 
#    z 0.358650 -0.421060 5.157410 
# 
# 
# High freq. dielectric constant tensor:
#      x y z
#    x 1.975160 -0.007630 -0.009530 
#    y -0.007630 1.974090 -0.019500 
#    z -0.009530 -0.019500 1.969860 
# 
# From -- ./inp_files/398108.got.cif
#   From: 2010.06.25/outbox.cif.g09.slc.cpg/sg2_200_cif.got.tgz:398108.got - 2010.06.27 13:26:56.
