data_PCOD8022619
_publ_section_title
;
Structure prediction by ZEFSAII (Michael W. Deem and Ramdas Pophale) SiO2 
 PCOD8022619
Probable space group: P -1
;
_chemical_formula_sum "Si O2"
_cell_formula_units_Z 16
_cell_length_a 26.929993
_cell_length_b 27.062425
_cell_length_c 10.984834
_cell_angle_alpha 150.280875
_cell_angle_beta 150.211811
_cell_angle_gamma 10.930121
_cell_volume 742.681826
_symmetry_space_group_name_H-M "P -1"
_symmetry_group_IT_number 2
_symmetry_cell_setting 'triclinic'
loop_
_space_group_symop_operation_xyz
x,y,z
-x,-y,-z
loop_
_atom_site_type_symbol
_atom_site_label
_atom_site_fract_x
_atom_site_fract_y
_atom_site_fract_z
Si Si1 0.998877 0.617590 0.229691
Si Si2 0.515713 0.630932 0.470210
Si Si3 0.981688 0.230061 0.889262
Si Si4 0.652545 0.368726 0.378107
Si Si5 0.563402 0.159187 0.552239
Si Si6 0.735007 0.209331 0.944079
Si Si7 0.479342 0.722399 0.017754
Si Si8 0.079616 0.192366 0.758592
O O1 0.285575 0.398082 0.403063
O O2 0.928391 0.701963 0.116910
O O3 0.762557 0.881174 0.374262
O O4 0.000000 0.500000 0.000000
O O5 0.446126 0.648445 0.495863
O O6 0.481265 0.580715 0.179972
O O7 0.827656 0.359795 0.546338
O O8 0.347583 0.885678 0.639585
O O9 0.901320 0.191365 0.594664
O O10 0.069214 0.220629 0.942586
O O11 0.734913 0.513393 0.034702
O O12 0.214822 0.009088 0.009423
O O13 0.724566 0.264481 0.173533
O O14 0.529772 0.391504 0.242454
O O15 0.727009 0.097226 0.705871
O O16 0.488917 0.255540 0.737791
O O17 0.000000 0.000000 0.000000
#
# Coordination Sequence:
#
# PCOD8022619 Si02
#       8
#     2   2   2   2   2   2   2   2
#     4  12  24  46  75 100 127 157 206 282 346 394
#     4  11  21  37  54  87 132 168 208 261 314 376
#     4  11  22  39  59  84 126 176 223 259 300 360
#     4  10  23  33  55  87 124 178 228 255 293 363
#     4  11  25  43  67  98 133 166 216 262 324 396
#     4  11  21  35  58  90 138 176 207 251 318 380
#     4  11  24  41  60  85 130 179 218 259 300 366
#     4  11  22  40  64  92 122 159 211 270 326 385
#
# _framework density 21.543545999999999
#
# number of rings (size 3 to 8) (size 9 to 14) (size 15 to 20)
#    0.000    1.000    2.500    5.250    0.000    6.000 
#    0.000    0.000    0.000    4.500    0.000    0.000 
#    0.000    0.000    0.000    0.000    0.000    0.000 
#
# Total GULP energy -198235.152094 kJ/mol
# GULP energy per Si atom -12389.697006 kJ/mol
# Density = 2.149451 g / cm^3
# Si number density = 21.543546 Si / 1000 Ang^3
#
#
#
# Elastic Constant Matrix: (Units=GPa)
#
#
# Indices 1 2 3 4 5 6 
#
# 1 112.5684 19.1535 33.6708 5.6278 4.6170 12.9350
# 2 19.1535 101.5656 22.7016 5.6816 -0.0839 10.7554
# 3 33.6708 22.7016 57.5063 5.7166 6.7912 6.1634
# 4 5.6278 5.6816 5.7166 23.8620 6.6410 -7.2259
# 5 4.6170 -0.0839 6.7912 6.6410 27.8148 5.5775
# 6 12.9350 10.7554 6.1634 -7.2259 5.5775 36.3976
#
#
#
# Elastic Compliance Matrix: (Units=1/GPa)
#
#
# Indices 1 2 3 4 5 6 
#
# 1 0.011195 -0.000275 -0.005928 -0.002466 0.000882 -0.003518
# 2 -0.000275 0.011360 -0.003881 -0.003564 0.002623 -0.003711
# 3 -0.005928 -0.003881 0.023146 -0.002246 -0.004044 -0.000492
# 4 -0.002466 -0.003564 -0.002246 0.052463 -0.014579 0.014959
# 5 0.000882 0.002623 -0.004044 -0.014579 0.042241 -0.009771
# 6 -0.003518 -0.003711 -0.000492 0.014959 -0.009771 0.034372
#
#
# Mechanical properties :
#
#
# Convention : Reuss Voigt Hill
#
# Bulk Modulus (GPa) = 39.16629 46.96579 43.06604
# Shear Modulus (GPa) = 24.57532 30.68916 27.63224
#
# Velocity S-wave (km/s) = 3.38113 3.77837 3.58526
# Velocity P-wave (km/s) = 5.78466 6.39394 6.09692
#
# Compressibility (1/GPa) = 0.02553216
#
# Stress axis : x y z
#
# Youngs Moduli (GPa) = 89.32711 88.03017 43.20342
#
# Poissons Ratio (x) = 0.02420 0.25612
# Poissons Ratio (y) = 0.02455 0.16768
# Poissons Ratio (z) = 0.52956 0.34166
#
# Static dielectric constant tensor:
#      x y z
#    x 4.824610 0.388540 -0.011330 
#    y 0.388540 3.941210 0.031960 
#    z -0.011330 0.031960 3.694290 
# 
# 
# High freq. dielectric constant tensor:
#      x y z
#    x 1.868370 0.012120 -0.026550 
#    y 0.012120 1.857650 0.001710 
#    z -0.026550 0.001710 1.806210 
# 
# From -- ./inp_files/477249.got.cif
#   From: 2010.06.25/outbox.cif.g09.slc.cpg/sg2_239_cif.got.tgz:477249.got - 2010.06.27 13:26:56.
