data_PCOD8022943
_publ_section_title
;
Structure prediction by ZEFSAII (Michael W. Deem and Ramdas Pophale) SiO2 
 PCOD8022943
Probable space group: P -1
;
_chemical_formula_sum "Si O2"
_cell_formula_units_Z 16
_cell_length_a 17.046983
_cell_length_b 19.913254
_cell_length_c 8.750510
_cell_angle_alpha 39.366318
_cell_angle_beta 151.583617
_cell_angle_gamma 146.778902
_cell_volume 766.469723
_symmetry_space_group_name_H-M "P -1"
_symmetry_group_IT_number 2
_symmetry_cell_setting 'triclinic'
loop_
_space_group_symop_operation_xyz
x,y,z
-x,-y,-z
loop_
_atom_site_type_symbol
_atom_site_label
_atom_site_fract_x
_atom_site_fract_y
_atom_site_fract_z
Si Si1 0.545777 0.312718 0.144339
Si Si2 0.813008 0.706948 0.315828
Si Si3 0.179426 0.413210 0.943025
Si Si4 0.774262 0.121185 0.375392
Si Si5 0.784346 0.302303 0.314540
Si Si6 0.379655 0.324512 0.266342
Si Si7 0.498046 0.842111 0.370345
Si Si8 0.235928 0.496192 0.230133
O O1 0.689189 0.460311 0.150591
O O2 0.591346 0.268688 0.137953
O O3 0.586200 0.247754 0.470120
O O4 0.319035 0.272096 0.824930
O O5 0.891271 0.620638 0.670220
O O6 0.005280 0.833023 0.372245
O O7 0.669749 0.642645 0.040855
O O8 0.954750 0.364931 0.620536
O O9 0.206581 0.301994 0.122653
O O10 0.243133 0.439869 0.179709
O O11 0.763527 0.183441 0.405242
O O12 0.668983 0.975729 0.483266
O O13 0.673781 0.149234 0.014645
O O14 0.831847 0.405453 0.081753
O O15 0.412257 0.209224 0.511150
O O16 0.560231 0.442047 0.445446
#
# Coordination Sequence:
#
# PCOD8022943 Si02
#       8
#     2   2   2   2   2   2   2   2
#     4  10  23  40  62  92 130 157 204 250 310 371
#     4  11  24  37  64  96 126 159 210 251 307 372
#     4  11  23  39  61  98 129 163 201 247 313 383
#     4  11  24  44  63  90 120 164 219 256 303 358
#     4  11  24  41  64  93 127 168 202 249 313 370
#     4  11  21  39  62  93 125 165 198 250 314 362
#     4  10  25  42  66  85 122 165 213 263 303 355
#     4  11  22  37  61  93 133 161 191 254 314 370
#
# _framework density 20.874928000000001
#
# number of rings (size 3 to 8) (size 9 to 14) (size 15 to 20)
#    0.000    1.250    3.750    2.250    7.000    3.000 
#    0.000    0.000    0.000    2.250    0.000    0.000 
#    0.000    0.000    0.000    0.000    0.000    0.000 
#
# Total GULP energy -198281.659713 kJ/mol
# GULP energy per Si atom -12392.603732 kJ/mol
# Density = 2.082742 g / cm^3
# Si number density = 20.874928 Si / 1000 Ang^3
#
#
#
# Elastic Constant Matrix: (Units=GPa)
#
#
# Indices 1 2 3 4 5 6 
#
# 1 93.5297 51.8989 31.0767 14.6004 17.1953 -10.0880
# 2 51.8989 82.3997 37.8040 11.9130 -6.3789 -11.4419
# 3 31.0767 37.8040 83.9223 8.8176 -8.8433 3.9335
# 4 14.6004 11.9130 8.8176 29.6993 2.9432 3.8924
# 5 17.1953 -6.3789 -8.8433 2.9432 33.6541 -1.0531
# 6 -10.0880 -11.4419 3.9335 3.8924 -1.0531 21.2239
#
#
#
# Elastic Compliance Matrix: (Units=1/GPa)
#
#
# Indices 1 2 3 4 5 6 
#
# 1 0.022745 -0.012169 -0.004261 -0.004265 -0.014515 0.005102
# 2 -0.012169 0.025422 -0.005842 -0.004860 0.010252 0.010403
# 3 -0.004261 -0.005842 0.017073 -0.000101 0.005313 -0.008057
# 4 -0.004265 -0.004860 -0.000101 0.039580 -0.002606 -0.012017
# 5 -0.014515 0.010252 0.005313 -0.002606 0.040702 0.000140
# 6 0.005102 0.010403 -0.008057 -0.012017 0.000140 0.058854
#
#
# Mechanical properties :
#
#
# Convention : Reuss Voigt Hill
#
# Bulk Modulus (GPa) = 48.32032 55.71230 52.01631
# Shear Modulus (GPa) = 19.54497 26.18695 22.86596
#
# Velocity S-wave (km/s) = 3.06320 3.54569 3.31324
# Velocity P-wave (km/s) = 5.97568 6.59614 6.29356
#
# Compressibility (1/GPa) = 0.02069523
#
# Stress axis : x y z
#
# Youngs Moduli (GPa) = 43.96565 39.33637 58.57032
#
# Poissons Ratio (x) = 0.47870 0.24958
# Poissons Ratio (y) = 0.53503 0.34217
# Poissons Ratio (z) = 0.18735 0.22980
#
# Static dielectric constant tensor:
#      x y z
#    x 3.804270 -0.114600 0.074030 
#    y -0.114600 3.588530 -0.035800 
#    z 0.074030 -0.035800 3.862330 
# 
# 
# High freq. dielectric constant tensor:
#      x y z
#    x 1.814330 -0.011280 0.002320 
#    y -0.011280 1.787630 0.000310 
#    z 0.002320 0.000310 1.830740 
# 
# From -- ./inp_files/328683.got.cif
#   From: 2010.06.25/outbox.cif.g09.slc.cpg/sg2_165_cif.got.tgz:328683.got - 2010.06.27 13:26:56.
