data_PCOD8022317
_publ_section_title
;
Structure prediction by ZEFSAII (Michael W. Deem and Ramdas Pophale) SiO2 
 PCOD8022317
Probable space group: P -1
;
_chemical_formula_sum "Si O2"
_cell_formula_units_Z 14
_cell_length_a 8.006338
_cell_length_b 6.675542
_cell_length_c 11.631628
_cell_angle_alpha 103.326785
_cell_angle_beta 104.133285
_cell_angle_gamma 98.983084
_cell_volume 571.561663
_symmetry_space_group_name_H-M "P -1"
_symmetry_group_IT_number 2
_symmetry_cell_setting 'triclinic'
loop_
_space_group_symop_operation_xyz
x,y,z
-x,-y,-z
loop_
_atom_site_type_symbol
_atom_site_label
_atom_site_fract_x
_atom_site_fract_y
_atom_site_fract_z
Si Si1 0.339518 0.402227 0.292125
Si Si2 0.741828 0.187233 0.084601
Si Si3 0.078555 0.069449 0.780695
Si Si4 0.042924 0.548702 0.142672
Si Si5 0.445683 0.006629 0.188511
Si Si6 0.344228 0.253113 0.676427
Si Si7 0.104653 0.323114 0.451181
O O1 0.224239 0.484088 0.188432
O O2 0.323465 0.152218 0.241342
O O3 0.540200 0.524482 0.319264
O O4 0.263200 0.442600 0.409893
O O5 0.589371 0.157284 0.150841
O O6 0.875406 0.410149 0.165445
O O7 0.852388 0.004192 0.096636
O O8 0.668877 0.173638 0.938845
O O9 0.243481 0.245249 0.779685
O O10 0.927400 0.199975 0.792948
O O11 0.026586 0.864718 0.663387
O O12 0.000000 0.500000 0.000000
O O13 0.529186 0.911984 0.301325
O O14 0.187733 0.200570 0.548445
O O15 0.000000 0.500000 0.500000
#
# Coordination Sequence:
#
# PCOD8022317 Si02
#       7
#     2   2   2   2   2   2   2
#     4  12  26  44  71 105 146 177 237 294 345 410
#     4  10  22  45  71 103 146 183 229 288 346 425
#     4  11  25  48  73 100 140 188 234 286 350 417
#     4  12  25  41  73 108 144 182 234 282 352 425
#     4  10  24  44  72 106 142 188 227 287 357 410
#     4  11  26  46  72 103 138 186 240 286 345 421
#     4  12  28  50  73  99 139 191 238 292 347 407
#
# _framework density 24.494295000000001
#
# number of rings (size 3 to 8) (size 9 to 14) (size 15 to 20)
#    0.000    0.857    1.429    4.286    8.000    1.714 
#    0.000    5.714    0.000    0.000    0.000    0.000 
#    0.000    0.000    0.000    0.000    0.000    0.000 
#
# Total GULP energy -173482.650343 kJ/mol
# GULP energy per Si atom -12391.617882 kJ/mol
# Density = 2.443855 g / cm^3
# Si number density = 24.494295 Si / 1000 Ang^3
#
#
#
# Elastic Constant Matrix: (Units=GPa)
#
#
# Indices 1 2 3 4 5 6 
#
# 1 63.9630 48.7968 36.1052 9.9724 16.4061 -25.0430
# 2 48.7968 113.1514 49.5901 1.5224 -6.5698 -27.5501
# 3 36.1052 49.5901 101.9606 -16.5581 6.9340 -30.9281
# 4 9.9724 1.5224 -16.5581 48.8264 -10.6509 7.4800
# 5 16.4061 -6.5698 6.9340 -10.6509 35.0687 -6.0265
# 6 -25.0430 -27.5501 -30.9281 7.4800 -6.0265 70.9585
#
#
#
# Elastic Compliance Matrix: (Units=1/GPa)
#
#
# Indices 1 2 3 4 5 6 
#
# 1 0.042650 -0.015182 -0.007014 -0.017081 -0.025614 0.005726
# 2 -0.015182 0.017606 -0.003146 0.004075 0.012386 0.000728
# 3 -0.007014 -0.003146 0.015566 0.006887 0.002143 0.002544
# 4 -0.017081 0.004075 0.006887 0.030167 0.015994 -0.003266
# 5 -0.025614 0.012386 0.002143 0.015994 0.047084 -0.000984
# 6 0.005726 0.000728 0.002544 -0.003266 -0.000984 0.017766
#
#
# Mechanical properties :
#
#
# Convention : Reuss Voigt Hill
#
# Bulk Modulus (GPa) = 39.78175 60.89546 50.33860
# Shear Modulus (GPa) = 21.74841 40.60959 31.17900
#
# Velocity S-wave (km/s) = 2.98299 4.07617 3.57166
# Velocity P-wave (km/s) = 5.30479 6.86066 6.13227
#
# Compressibility (1/GPa) = 0.02513715
#
# Stress axis : x y z
#
# Youngs Moduli (GPa) = 23.44643 56.79988 64.24331
#
# Poissons Ratio (x) = 0.86236 0.45059
# Poissons Ratio (y) = 0.35597 0.20212
# Poissons Ratio (z) = 0.16445 0.17870
#
# Static dielectric constant tensor:
#      x y z
#    x 5.068480 -0.321850 0.220660 
#    y -0.321850 7.854110 -0.553770 
#    z 0.220660 -0.553770 4.275260 
# 
# 
# High freq. dielectric constant tensor:
#      x y z
#    x 1.990580 0.007550 0.007650 
#    y 0.007550 1.983150 -0.023600 
#    z 0.007650 -0.023600 1.955200 
# 
# From -- ./inp_files/53491.got.cif
#   From: 2010.06.25/outbox.cif.g09.slc.cpg/sg2_27_cif.got.tgz:53491.got - 2010.06.27 13:26:56.
