data_PCOD8022098
_publ_section_title
;
Structure prediction by ZEFSAII (Michael W. Deem and Ramdas Pophale) SiO2 
 PCOD8022098
Probable space group: P -1
;
_chemical_formula_sum "Si O2"
_cell_formula_units_Z 14
_cell_length_a 10.509136
_cell_length_b 6.025819
_cell_length_c 11.856467
_cell_angle_alpha 112.375479
_cell_angle_beta 124.512852
_cell_angle_gamma 87.856491
_cell_volume 556.216936
_symmetry_space_group_name_H-M "P -1"
_symmetry_group_IT_number 2
_symmetry_cell_setting 'triclinic'
loop_
_space_group_symop_operation_xyz
x,y,z
-x,-y,-z
loop_
_atom_site_type_symbol
_atom_site_label
_atom_site_fract_x
_atom_site_fract_y
_atom_site_fract_z
Si Si1 0.871961 0.299264 0.465100
Si Si2 0.101607 0.838084 0.304567
Si Si3 0.124618 0.063151 0.974674
Si Si4 0.315013 0.563604 0.233169
Si Si5 0.321829 0.688711 0.010272
Si Si6 0.679472 0.790120 0.206063
Si Si7 0.331813 0.337221 0.563445
O O1 0.951401 0.216635 0.602026
O O2 0.727105 0.418465 0.451566
O O3 0.000000 0.500000 0.500000
O O4 0.802379 0.056856 0.307065
O O5 0.188526 0.628102 0.268058
O O6 0.949579 0.832913 0.150766
O O7 0.221576 0.103253 0.402164
O O8 0.272288 0.271981 0.133526
O O9 0.196807 0.835319 0.926202
O O10 0.000000 0.000000 0.000000
O O11 0.309917 0.709926 0.142969
O O12 0.490671 0.633723 0.388603
O O13 0.502045 0.808675 0.083649
O O14 0.265914 0.405876 0.885752
O O15 0.673733 0.690398 0.310484
#
# Coordination Sequence:
#
# PCOD8022098 Si02
#       7
#     2   2   2   2   2   2   2
#     4  11  26  47  70 103 146 188 241 293 357 422
#     4  11  26  45  71 107 145 187 239 294 355 428
#     4  12  26  44  70 110 145 187 231 293 369 421
#     4  11  24  45  71 106 144 184 243 292 352 435
#     4  10  22  44  76 103 146 185 236 298 356 427
#     4   9  22  46  72 107 137 190 243 291 354 426
#     4  10  24  45  73 103 140 192 239 292 356 422
#
# _framework density 25.170036
#
# number of rings (size 3 to 8) (size 9 to 14) (size 15 to 20)
#    0.000    1.429    1.429    1.714    2.000    7.429 
#    0.000    6.429    0.000    2.571    0.000    0.000 
#    0.000    0.000    0.000    0.000    0.000    0.000 
#
# Total GULP energy -173683.156916 kJ/mol
# GULP energy per Si atom -12405.939780 kJ/mol
# Density = 2.511275 g / cm^3
# Si number density = 25.170036 Si / 1000 Ang^3
#
#
#
# Elastic Constant Matrix: (Units=GPa)
#
#
# Indices 1 2 3 4 5 6 
#
# 1 101.7619 52.0456 36.8562 6.6504 1.4005 -12.4106
# 2 52.0456 123.5786 47.3797 13.5299 9.6996 -19.1886
# 3 36.8562 47.3797 115.4138 26.2459 6.3280 1.9133
# 4 6.6504 13.5299 26.2459 47.2203 2.4628 -0.6196
# 5 1.4005 9.6996 6.3280 2.4628 35.5457 6.7750
# 6 -12.4106 -19.1886 1.9133 -0.6196 6.7750 50.6455
#
#
#
# Elastic Compliance Matrix: (Units=1/GPa)
#
#
# Indices 1 2 3 4 5 6 
#
# 1 0.013186 -0.004457 -0.002649 0.000870 0.000814 0.001544
# 2 -0.004457 0.012215 -0.003293 -0.000817 -0.003294 0.004091
# 3 -0.002649 -0.003293 0.012161 -0.005457 -0.000331 -0.002379
# 4 0.000870 -0.000817 -0.005457 0.024360 -0.000622 0.000491
# 5 0.000814 -0.003294 -0.000331 -0.000622 0.030067 -0.005066
# 6 0.001544 0.004091 -0.002379 0.000491 -0.005066 0.022447
#
#
# Mechanical properties :
#
#
# Convention : Reuss Voigt Hill
#
# Bulk Modulus (GPa) = 59.65284 68.14635 63.89960
# Shear Modulus (GPa) = 35.50589 40.31382 37.90986
#
# Velocity S-wave (km/s) = 3.75993 4.00642 3.88513
# Velocity P-wave (km/s) = 6.52693 6.96671 6.75040
#
# Compressibility (1/GPa) = 0.01676366
#
# Stress axis : x y z
#
# Youngs Moduli (GPa) = 75.83699 81.86910 82.23297
#
# Poissons Ratio (x) = 0.36489 0.21786
# Poissons Ratio (y) = 0.33801 0.27076
# Poissons Ratio (z) = 0.20092 0.26956
#
# Static dielectric constant tensor:
#      x y z
#    x 4.473410 -0.160980 0.134540 
#    y -0.160980 4.530630 -0.018590 
#    z 0.134540 -0.018590 4.724920 
# 
# 
# High freq. dielectric constant tensor:
#      x y z
#    x 2.010020 -0.007710 0.007050 
#    y -0.007710 2.001870 0.002940 
#    z 0.007050 0.002940 2.013070 
# 
# From -- ./inp_files/510609.got.cif
#   From: 2010.06.25/outbox.cif.g09.slc.cpg/sg2_256_cif.got.tgz:510609.got - 2010.06.27 13:26:56.
