data_PCOD8022558
_publ_section_title
;
Structure prediction by ZEFSAII (Michael W. Deem and Ramdas Pophale) SiO2 
 PCOD8022558
Probable space group: P -1
;
_chemical_formula_sum "Si O2"
_cell_formula_units_Z 16
_cell_length_a 14.034022
_cell_length_b 8.822201
_cell_length_c 15.103848
_cell_angle_alpha 96.171435
_cell_angle_beta 148.341528
_cell_angle_gamma 105.786974
_cell_volume 699.966607
_symmetry_space_group_name_H-M "P -1"
_symmetry_group_IT_number 2
_symmetry_cell_setting 'triclinic'
loop_
_space_group_symop_operation_xyz
x,y,z
-x,-y,-z
loop_
_atom_site_type_symbol
_atom_site_label
_atom_site_fract_x
_atom_site_fract_y
_atom_site_fract_z
Si Si1 0.269482 0.469842 0.845612
Si Si2 0.577872 0.264902 0.328734
Si Si3 0.993481 0.972715 0.388993
Si Si4 0.520875 0.169605 0.079079
Si Si5 0.941414 0.521626 0.162920
Si Si6 0.065457 0.819067 0.930879
Si Si7 0.326638 0.330871 0.538035
Si Si8 0.868728 0.577644 0.929875
O O1 0.019132 0.218698 0.640635
O O2 0.251458 0.596644 0.768655
O O3 0.295438 0.564487 0.968413
O O4 0.500000 0.500000 0.000000
O O5 0.589045 0.191106 0.236997
O O6 0.596733 0.458654 0.350409
O O7 0.802664 0.331006 0.569574
O O8 0.314357 0.066691 0.153533
O O9 0.747482 0.904750 0.146613
O O10 0.000000 0.000000 0.500000
O O11 0.234230 0.178659 0.539968
O O12 0.500000 0.000000 0.000000
O O13 0.867567 0.313944 0.052679
O O14 0.972127 0.665033 0.117357
O O15 0.883985 0.785850 0.711913
O O16 0.936765 0.747081 0.922405
O O17 0.564923 0.386593 0.684973
O O18 0.000000 0.500000 0.000000
#
# Coordination Sequence:
#
# PCOD8022558 Si02
#       8
#     2   2   2   2   2   2   2   2
#     4  10  24  41  64  97 139 179 229 275 344 409
#     4  11  24  42  69 100 135 180 232 282 342 414
#     4  11  25  42  65 101 138 183 230 279 344 407
#     4  11  24  42  68  99 142 184 228 282 337 406
#     4  10  24  42  68 100 136 179 226 288 342 412
#     4  10  22  47  69 101 132 177 232 285 348 404
#     4  11  24  44  73  97 137 180 232 285 345 412
#     4  10  24  44  71  98 137 178 226 290 353 409
#
# _framework density 22.858232000000001
#
# number of rings (size 3 to 8) (size 9 to 14) (size 15 to 20)
#    0.000    1.500    1.250    1.875   10.500    3.500 
#    0.000    2.500    0.000    0.000    0.000    0.000 
#    0.000    0.000    0.000    0.000    0.000    0.000 
#
# Total GULP energy -198287.753697 kJ/mol
# GULP energy per Si atom -12392.984606 kJ/mol
# Density = 2.280621 g / cm^3
# Si number density = 22.858232 Si / 1000 Ang^3
#
#
#
# Elastic Constant Matrix: (Units=GPa)
#
#
# Indices 1 2 3 4 5 6 
#
# 1 131.6395 58.1587 38.6190 -3.5233 14.0662 38.0661
# 2 58.1587 144.3101 53.6461 22.0594 6.9688 35.8862
# 3 38.6190 53.6461 98.7074 0.9009 -2.1826 13.7395
# 4 -3.5233 22.0594 0.9009 37.3390 9.6681 0.8555
# 5 14.0662 6.9688 -2.1826 9.6681 34.2497 -6.3173
# 6 38.0661 35.8862 13.7395 0.8555 -6.3173 53.4222
#
#
#
# Elastic Compliance Matrix: (Units=1/GPa)
#
#
# Indices 1 2 3 4 5 6 
#
# 1 0.012682 -0.002613 -0.002703 0.004958 -0.007645 -0.007570
# 2 -0.002613 0.012121 -0.004819 -0.007010 -0.000645 -0.005005
# 3 -0.002703 -0.004819 0.013581 0.001465 0.002909 0.001991
# 4 0.004958 -0.007010 0.001465 0.034046 -0.010305 -0.000965
# 5 -0.007645 -0.000645 0.002909 -0.010305 0.037355 0.009715
# 6 -0.007570 -0.005005 0.001991 -0.000965 0.009715 0.028128
#
#
# Mechanical properties :
#
#
# Convention : Reuss Voigt Hill
#
# Bulk Modulus (GPa) = 55.19919 75.05604 65.12762
# Shear Modulus (GPa) = 30.44688 39.95107 35.19897
#
# Velocity S-wave (km/s) = 3.65360 4.18518 3.92839
# Velocity P-wave (km/s) = 6.48069 7.50073 7.00929
#
# Compressibility (1/GPa) = 0.01811621
#
# Stress axis : x y z
#
# Youngs Moduli (GPa) = 78.84973 82.49939 73.63067
#
# Poissons Ratio (x) = 0.21555 0.19899
# Poissons Ratio (y) = 0.20602 0.35483
# Poissons Ratio (z) = 0.21309 0.39757
#
# Static dielectric constant tensor:
#      x y z
#    x 4.491920 0.329920 -0.093830 
#    y 0.329920 4.694520 0.001600 
#    z -0.093830 0.001600 4.113150 
# 
# 
# High freq. dielectric constant tensor:
#      x y z
#    x 1.916410 0.013510 -0.000960 
#    y 0.013510 1.909310 -0.008260 
#    z -0.000960 -0.008260 1.893090 
# 
# From -- ./inp_files/529857.got.cif
#   From: 2010.06.25/outbox.cif.g09.slc.cpg/sg2_265_cif.got.tgz:529857.got - 2010.06.27 13:26:56.
