data_PCOD8022121
_publ_section_title
;
Structure prediction by ZEFSAII (Michael W. Deem and Ramdas Pophale) SiO2 
 PCOD8022121
Probable space group: P -1
;
_chemical_formula_sum "Si O2"
_cell_formula_units_Z 16
_cell_length_a 11.256755
_cell_length_b 13.723691
_cell_length_c 11.413476
_cell_angle_alpha 96.908017
_cell_angle_beta 31.465223
_cell_angle_gamma 116.204421
_cell_volume 691.057599
_symmetry_space_group_name_H-M "P -1"
_symmetry_group_IT_number 2
_symmetry_cell_setting 'triclinic'
loop_
_space_group_symop_operation_xyz
x,y,z
-x,-y,-z
loop_
_atom_site_type_symbol
_atom_site_label
_atom_site_fract_x
_atom_site_fract_y
_atom_site_fract_z
Si Si1 0.489613 0.360036 0.724783
Si Si2 0.669406 0.275540 0.210564
Si Si3 0.878696 0.524892 0.746492
Si Si4 0.265556 0.492084 0.872567
Si Si5 0.770222 0.127500 0.947078
Si Si6 0.891172 0.080807 0.599713
Si Si7 0.171008 0.124692 0.787658
Si Si8 0.270231 0.305542 0.142628
O O1 0.515147 0.476219 0.663995
O O2 0.395070 0.255880 0.692335
O O3 0.797439 0.428795 0.547970
O O4 0.237156 0.283567 0.027281
O O5 0.569132 0.360603 0.284178
O O6 0.412437 0.150979 0.491508
O O7 0.713272 0.224801 0.046795
O O8 0.004697 0.378050 0.992512
O O9 0.834900 0.614064 0.725340
O O10 0.892413 0.538873 0.875699
O O11 0.605670 0.377766 0.918389
O O12 0.971253 0.162284 0.665644
O O13 0.908160 0.109652 0.940347
O O14 0.450714 0.994275 0.158872
O O15 0.063282 0.169459 0.356939
O O16 0.000000 0.000000 0.500000
O O17 0.000000 0.000000 0.000000
#
# Coordination Sequence:
#
# PCOD8022121 Si02
#       8
#     2   2   2   2   2   2   2   2
#     4  11  23  44  71 106 144 186 239 295 369 427
#     4  11  24  47  68 104 147 183 240 297 360 434
#     4  10  22  45  65 103 139 185 232 300 359 424
#     4  10  23  43  70 103 144 185 238 298 355 430
#     4  11  27  48  73 107 139 196 237 299 369 421
#     4  11  27  50  73 105 142 185 250 300 355 437
#     4  12  28  43  71 110 145 193 241 296 366 436
#     4  10  25  44  70  99 139 187 239 294 360 427
#
# _framework density 23.152919000000001
#
# number of rings (size 3 to 8) (size 9 to 14) (size 15 to 20)
#    0.000    1.250    2.500    1.125    8.750    3.000 
#    4.500    0.000    0.000    0.000    0.000    0.000 
#    0.000    0.000    0.000    0.000    0.000    0.000 
#
# Total GULP energy -198258.111732 kJ/mol
# GULP energy per Si atom -12391.131983 kJ/mol
# Density = 2.310022 g / cm^3
# Si number density = 23.152919 Si / 1000 Ang^3
#
#
#
# Elastic Constant Matrix: (Units=GPa)
#
#
# Indices 1 2 3 4 5 6 
#
# 1 103.6630 33.6585 38.5579 -5.3991 -11.6056 -8.4036
# 2 33.6585 88.7221 38.6355 13.6819 9.0055 6.1128
# 3 38.5579 38.6355 88.6168 4.0744 -0.3752 -8.0831
# 4 -5.3991 13.6819 4.0744 34.5198 1.5954 4.6629
# 5 -11.6056 9.0055 -0.3752 1.5954 46.1014 0.2914
# 6 -8.4036 6.1128 -8.0831 4.6629 0.2914 38.4815
#
#
#
# Elastic Compliance Matrix: (Units=1/GPa)
#
#
# Indices 1 2 3 4 5 6 
#
# 1 0.013397 -0.004620 -0.003759 0.003860 0.004096 0.002371
# 2 -0.004620 0.017107 -0.005563 -0.006090 -0.004313 -0.004124
# 3 -0.003759 -0.005563 0.015693 -0.000713 0.000271 0.003444
# 4 0.003860 -0.006090 -0.000713 0.032328 0.001051 -0.002265
# 5 0.004096 -0.004313 0.000271 0.001051 0.023522 0.001331
# 6 0.002371 -0.004124 0.003444 -0.002265 0.001331 0.028147
#
#
# Mechanical properties :
#
#
# Convention : Reuss Voigt Hill
#
# Bulk Modulus (GPa) = 54.60159 55.85619 55.22889
# Shear Modulus (GPa) = 30.45403 35.16389 32.80896
#
# Velocity S-wave (km/s) = 3.63070 3.90136 3.76846
# Velocity P-wave (km/s) = 6.41952 6.66869 6.54529
#
# Compressibility (1/GPa) = 0.01831449
#
# Stress axis : x y z
#
# Youngs Moduli (GPa) = 74.64623 58.45453 63.72163
#
# Poissons Ratio (x) = 0.27005 0.23950
# Poissons Ratio (y) = 0.34486 0.35447
# Poissons Ratio (z) = 0.28057 0.32517
#
# Static dielectric constant tensor:
#      x y z
#    x 4.389350 0.060390 0.001980 
#    y 0.060390 4.210110 0.182650 
#    z 0.001980 0.182650 4.135740 
# 
# 
# High freq. dielectric constant tensor:
#      x y z
#    x 1.932470 0.016140 -0.004720 
#    y 0.016140 1.904910 0.010890 
#    z -0.004720 0.010890 1.916190 
# 
# From -- ./inp_files/428577.got.cif
#   From: 2010.06.25/outbox.cif.g09.slc.cpg/sg2_215_cif.got.tgz:428577.got - 2010.06.27 13:26:56.
