data_PCOD8022115
_publ_section_title
;
Structure prediction by ZEFSAII (Michael W. Deem and Ramdas Pophale) SiO2 
 PCOD8022115
Probable space group: P -1
;
_chemical_formula_sum "Si O2"
_cell_formula_units_Z 16
_cell_length_a 8.603334
_cell_length_b 17.491660
_cell_length_c 8.582392
_cell_angle_alpha 98.261928
_cell_angle_beta 109.102486
_cell_angle_gamma 133.779702
_cell_volume 740.208156
_symmetry_space_group_name_H-M "P -1"
_symmetry_group_IT_number 2
_symmetry_cell_setting 'triclinic'
loop_
_space_group_symop_operation_xyz
x,y,z
-x,-y,-z
loop_
_atom_site_type_symbol
_atom_site_label
_atom_site_fract_x
_atom_site_fract_y
_atom_site_fract_z
Si Si1 0.611890 0.230515 0.588668
Si Si2 0.514992 0.625777 0.141641
Si Si3 0.935829 0.296371 0.166454
Si Si4 0.245389 0.277065 0.404524
Si Si5 0.195678 0.546248 0.436643
Si Si6 0.441249 0.189207 0.863992
Si Si7 0.098457 0.338054 0.896429
Si Si8 0.922709 0.952437 0.787029
O O1 0.756194 0.365608 0.640501
O O2 0.465702 0.173273 0.689417
O O3 0.378739 0.125723 0.357088
O O4 0.846935 0.254447 0.671389
O O5 0.632386 0.678174 0.368789
O O6 0.446963 0.681826 0.054081
O O7 0.734871 0.669926 0.115681
O O8 0.251494 0.476098 0.003914
O O9 0.048589 0.278278 0.326218
O O10 0.072045 0.429735 0.268385
O O11 0.616631 0.197404 0.036770
O O12 0.001037 0.280121 0.019444
O O13 0.499913 0.370296 0.392626
O O14 0.068769 0.135458 0.275020
O O15 0.000000 0.500000 0.500000
O O16 0.131861 0.071894 0.776756
O O17 0.000000 0.000000 0.000000
#
# Coordination Sequence:
#
# PCOD8022115 Si02
#       8
#     2   2   2   2   2   2   2   2
#     4  10  22  45  64  97 131 174 225 270 328 396
#     4  11  22  41  70  98 135 175 216 266 337 403
#     4  11  24  40  65 101 138 169 216 273 336 396
#     4  11  25  44  64 100 138 172 221 276 330 390
#     4  11  23  37  68  98 138 175 212 264 335 400
#     4  11  23  44  70  91 129 181 224 273 326 389
#     4  10  23  39  67 102 136 167 214 274 335 406
#     4  11  26  44  70  92 130 176 234 278 327 386
#
# _framework density 21.615541
#
# number of rings (size 3 to 8) (size 9 to 14) (size 15 to 20)
#    0.000    1.250    3.750    1.500    7.000    3.500 
#    0.000    0.625    0.000    0.000    0.000    0.000 
#    0.000    0.000    0.000    0.000    0.000    0.000 
#
# Total GULP energy -198269.953091 kJ/mol
# GULP energy per Si atom -12391.872068 kJ/mol
# Density = 2.156634 g / cm^3
# Si number density = 21.615541 Si / 1000 Ang^3
#
#
#
# Elastic Constant Matrix: (Units=GPa)
#
#
# Indices 1 2 3 4 5 6 
#
# 1 79.8424 26.4970 45.7250 -9.3864 5.2973 -7.3290
# 2 26.4970 63.2311 23.2227 -5.4887 6.6421 10.5122
# 3 45.7250 23.2227 98.7371 -5.3272 9.5747 -1.2582
# 4 -9.3864 -5.4887 -5.3272 24.2354 -4.0339 4.2253
# 5 5.2973 6.6421 9.5747 -4.0339 36.0472 -7.4411
# 6 -7.3290 10.5122 -1.2582 4.2253 -7.4411 21.8036
#
#
#
# Elastic Compliance Matrix: (Units=1/GPa)
#
#
# Indices 1 2 3 4 5 6 
#
# 1 0.020626 -0.007578 -0.007748 0.003227 0.002957 0.010523
# 2 -0.007578 0.023197 -0.001386 0.003938 -0.005767 -0.016542
# 3 -0.007748 -0.001386 0.014276 -0.000297 -0.002850 -0.002027
# 4 0.003227 0.003938 -0.000297 0.045237 0.002109 -0.008878
# 5 0.002957 -0.005767 -0.002850 0.002109 0.032299 0.014224
# 6 0.010523 -0.016542 -0.002027 -0.008878 0.014224 0.063835
#
#
# Mechanical properties :
#
#
# Convention : Reuss Voigt Hill
#
# Bulk Modulus (GPa) = 40.52451 48.07777 44.30114
# Shear Modulus (GPa) = 20.73672 26.17498 23.45585
#
# Velocity S-wave (km/s) = 3.10069 3.48362 3.29772
# Velocity P-wave (km/s) = 5.62206 6.20253 5.91941
#
# Compressibility (1/GPa) = 0.02467642
#
# Stress axis : x y z
#
# Youngs Moduli (GPa) = 48.48299 43.10863 70.04551
#
# Poissons Ratio (x) = 0.32666 0.54272
# Poissons Ratio (y) = 0.36738 0.09707
# Poissons Ratio (z) = 0.37565 0.05974
#
# Static dielectric constant tensor:
#      x y z
#    x 4.258160 0.106490 0.210810 
#    y 0.106490 3.737680 0.052720 
#    z 0.210810 0.052720 3.906730 
# 
# 
# High freq. dielectric constant tensor:
#      x y z
#    x 1.860370 0.005650 0.010360 
#    y 0.005650 1.831060 -0.001370 
#    z 0.010360 -0.001370 1.847440 
# 
# From -- ./inp_files/207925.got.cif
#   From: 2010.06.25/outbox.cif.g09.slc.cpg/sg2_104_cif.got.tgz:207925.got - 2010.06.27 13:26:56.
