data_PCOD8022005
_publ_section_title
;
Structure prediction by ZEFSAII (Michael W. Deem and Ramdas Pophale) SiO2 
 PCOD8022005
Probable space group: P -1
;
_chemical_formula_sum "Si O2"
_cell_formula_units_Z 14
_cell_length_a 18.134732
_cell_length_b 8.312390
_cell_length_c 12.071272
_cell_angle_alpha 130.385406
_cell_angle_beta 148.238657
_cell_angle_gamma 41.148529
_cell_volume 630.113952
_symmetry_space_group_name_H-M "P -1"
_symmetry_group_IT_number 2
_symmetry_cell_setting 'triclinic'
loop_
_space_group_symop_operation_xyz
x,y,z
-x,-y,-z
loop_
_atom_site_type_symbol
_atom_site_label
_atom_site_fract_x
_atom_site_fract_y
_atom_site_fract_z
Si Si1 0.917101 0.008375 0.785611
Si Si2 0.857413 0.468205 0.252107
Si Si3 0.605371 0.034554 0.476447
Si Si4 0.668772 0.803680 0.953162
Si Si5 0.550106 0.686834 0.387549
Si Si6 0.520319 0.637119 0.986691
Si Si7 0.164589 0.471054 0.160420
O O1 0.783863 0.927938 0.606167
O O2 0.052923 0.819996 0.789942
O O3 0.835633 0.282318 0.759747
O O4 0.000000 0.000000 0.000000
O O5 0.000000 0.500000 0.500000
O O6 0.769354 0.620756 0.097841
O O7 0.711004 0.554474 0.191010
O O8 0.547647 0.834574 0.338150
O O9 0.484039 0.210573 0.302011
O O10 0.590274 0.166191 0.634162
O O11 0.789946 0.722236 0.967725
O O12 0.602178 0.074437 0.036531
O O13 0.531696 0.455348 0.230366
O O14 0.717171 0.633003 0.631280
O O15 0.500000 0.500000 0.000000
O O16 0.000000 0.500000 0.000000
#
# Coordination Sequence:
#
# PCOD8022005 Si02
#       7
#     2   2   2   2   2   2   2
#     4  12  24  44  71 100 138 180 228 287 347 406
#     4  12  29  46  69 101 143 182 228 289 349 409
#     4  10  22  44  72 101 135 178 234 284 341 409
#     4  11  25  47  70  97 137 181 231 281 337 416
#     4  10  23  41  72 102 134 181 232 284 336 414
#     4  12  26  46  72 100 136 187 232 278 344 418
#     4  11  26  43  70 105 139 176 229 291 347 401
#
# _framework density 22.218205999999999
#
# number of rings (size 3 to 8) (size 9 to 14) (size 15 to 20)
#    0.000    0.857    2.857    3.000    6.000    1.143 
#    0.000    1.429    0.000    0.000    0.000    0.000 
#    0.000    0.000    0.000    0.000    0.000    0.000 
#
# Total GULP energy -173459.208871 kJ/mol
# GULP energy per Si atom -12389.943491 kJ/mol
# Density = 2.216764 g / cm^3
# Si number density = 22.218206 Si / 1000 Ang^3
#
#
#
# Elastic Constant Matrix: (Units=GPa)
#
#
# Indices 1 2 3 4 5 6 
#
# 1 97.9302 37.0554 58.0177 -9.1102 19.6331 -10.1864
# 2 37.0554 133.6423 34.6042 9.6640 11.8096 -31.2692
# 3 58.0177 34.6042 116.3296 -6.7689 4.3105 -3.4712
# 4 -9.1102 9.6640 -6.7689 43.3445 -1.2137 -5.0257
# 5 19.6331 11.8096 4.3105 -1.2137 35.4642 -8.7469
# 6 -10.1864 -31.2692 -3.4712 -5.0257 -8.7469 32.1049
#
#
#
# Elastic Compliance Matrix: (Units=1/GPa)
#
#
# Indices 1 2 3 4 5 6 
#
# 1 0.017415 -0.002180 -0.007558 0.002861 -0.007666 0.000944
# 2 -0.002180 0.010972 -0.002020 -0.002121 0.000060 0.009460
# 3 -0.007558 -0.002020 0.012841 0.000701 0.002801 -0.002104
# 4 0.002861 -0.002121 0.000701 0.024612 0.000603 0.002935
# 5 -0.007666 0.000060 0.002801 0.000603 0.033891 0.007257
# 6 0.000944 0.009460 -0.002104 0.002935 0.007257 0.042870
#
#
# Mechanical properties :
#
#
# Convention : Reuss Voigt Hill
#
# Bulk Modulus (GPa) = 56.46107 67.47295 61.96701
# Shear Modulus (GPa) = 29.06595 36.73103 32.89849
#
# Velocity S-wave (km/s) = 3.62083 4.07036 3.85216
# Velocity P-wave (km/s) = 6.55346 7.24739 6.90914
#
# Compressibility (1/GPa) = 0.01771132
#
# Stress axis : x y z
#
# Youngs Moduli (GPa) = 57.42027 91.14308 77.87574
#
# Poissons Ratio (x) = 0.19872 0.58862
# Poissons Ratio (y) = 0.12519 0.15729
# Poissons Ratio (z) = 0.43401 0.18408
#
# Static dielectric constant tensor:
#      x y z
#    x 4.270840 -0.442830 -0.064900 
#    y -0.442830 4.244430 0.137130 
#    z -0.064900 0.137130 4.110750 
# 
# 
# High freq. dielectric constant tensor:
#      x y z
#    x 1.878830 -0.015010 -0.010090 
#    y -0.015010 1.880850 -0.003350 
#    z -0.010090 -0.003350 1.885020 
# 
# From -- ./inp_files/215130.got.cif
#   From: 2010.06.25/outbox.cif.g09.slc.cpg/sg2_108_cif.got.tgz:215130.got - 2010.06.27 13:26:56.
