data_PCOD8022542
_publ_section_title
;
Structure prediction by ZEFSAII (Michael W. Deem and Ramdas Pophale) SiO2 
 PCOD8022542
Probable space group: P -1
;
_chemical_formula_sum "Si O2"
_cell_formula_units_Z 12
_cell_length_a 11.193069
_cell_length_b 10.326774
_cell_length_c 7.172651
_cell_angle_alpha 61.311010
_cell_angle_beta 85.239376
_cell_angle_gamma 130.524656
_cell_volume 445.449891
_symmetry_space_group_name_H-M "P -1"
_symmetry_group_IT_number 2
_symmetry_cell_setting 'triclinic'
loop_
_space_group_symop_operation_xyz
x,y,z
-x,-y,-z
loop_
_atom_site_type_symbol
_atom_site_label
_atom_site_fract_x
_atom_site_fract_y
_atom_site_fract_z
Si Si1 0.035411 0.843534 0.847340
Si Si2 0.250486 0.875881 0.069478
Si Si3 0.288158 0.955664 0.416654
Si Si4 0.629011 0.481784 0.974955
Si Si5 0.672104 0.300353 0.571182
Si Si6 0.298298 0.369773 0.546009
O O1 0.132296 0.885284 0.613235
O O2 0.815549 0.672687 0.951339
O O3 0.136866 0.086880 0.752950
O O4 0.060401 0.733892 0.069707
O O5 0.250037 0.970142 0.196511
O O6 0.245547 0.697345 0.249413
O O7 0.438088 0.093579 0.766298
O O8 0.283501 0.770580 0.556819
O O9 0.507330 0.224307 0.248282
O O10 0.683664 0.523737 0.722985
O O11 0.500000 0.500000 0.000000
O O12 0.763811 0.554429 0.358584
O O13 0.500000 0.500000 0.500000
#
# Coordination Sequence:
#
# PCOD8022542 Si02
#       6
#     2   2   2   2   2   2
#     4  12  25  43  80 111 137 195 259 286 374 447
#     4   9  19  44  72 105 147 189 242 304 357 435
#     4  10  22  46  76  99 151 194 238 305 364 427
#     4  12  25  46  71 110 151 186 243 320 356 434
#     4   9  19  43  76  98 156 190 234 310 365 420
#     4  12  22  45  74 105 146 194 241 300 365 439
#
# _framework density 26.939057999999999
#
# number of rings (size 3 to 8) (size 9 to 14) (size 15 to 20)
#    1.000    0.333    5.000    0.500    0.000    0.667 
#    3.000    5.833    3.667    0.000    0.000    0.000 
#    0.000    0.000    0.000    0.000    0.000    0.000 
#
# Total GULP energy -148723.148340 kJ/mol
# GULP energy per Si atom -12393.595695 kJ/mol
# Density = 2.687774 g / cm^3
# Si number density = 26.939058 Si / 1000 Ang^3
#
#
#
# Elastic Constant Matrix: (Units=GPa)
#
#
# Indices 1 2 3 4 5 6 
#
# 1 181.0386 90.7649 46.6208 -32.4156 4.4430 5.1319
# 2 90.7649 134.0886 48.5657 -40.9884 -7.0463 7.5060
# 3 46.6208 48.5657 55.5589 -11.3308 1.2435 3.0286
# 4 -32.4156 -40.9884 -11.3308 36.4710 -3.7774 -0.4554
# 5 4.4430 -7.0463 1.2435 -3.7774 43.8002 -11.5717
# 6 5.1319 7.5060 3.0286 -0.4554 -11.5717 64.7335
#
#
#
# Elastic Compliance Matrix: (Units=1/GPa)
#
#
# Indices 1 2 3 4 5 6 
#
# 1 0.008919 -0.004338 -0.003259 0.001888 -0.001425 -0.000293
# 2 -0.004338 0.018687 -0.009805 0.014600 0.004881 -0.000389
# 3 -0.003259 -0.009805 0.028285 -0.005407 -0.002631 -0.000436
# 4 0.001888 0.014600 -0.005407 0.044455 0.006095 -0.000187
# 5 -0.001425 0.004881 -0.002631 0.006095 0.025489 0.004269
# 6 -0.000293 -0.000389 -0.000436 -0.000187 0.004269 0.016299
#
#
# Mechanical properties :
#
#
# Convention : Reuss Voigt Hill
#
# Bulk Modulus (GPa) = 47.42494 82.50987 64.96740
# Shear Modulus (GPa) = 27.17884 41.31659 34.24771
#
# Velocity S-wave (km/s) = 3.17977 3.92050 3.56940
# Velocity P-wave (km/s) = 5.57889 7.15462 6.41532
#
# Compressibility (1/GPa) = 0.02108595
#
# Stress axis : x y z
#
# Youngs Moduli (GPa) = 112.11466 53.51347 35.35501
#
# Poissons Ratio (x) = 0.23217 0.11523
# Poissons Ratio (y) = 0.48641 0.34665
# Poissons Ratio (z) = 0.36541 0.52469
#
# Static dielectric constant tensor:
#      x y z
#    x 4.841300 -0.143840 -0.007990 
#    y -0.143840 4.989860 0.209890 
#    z -0.007990 0.209890 4.929560 
# 
# 
# High freq. dielectric constant tensor:
#      x y z
#    x 2.092820 -0.001220 -0.002820 
#    y -0.001220 2.084770 0.007880 
#    z -0.002820 0.007880 2.075120 
# 
# From -- ./inp_files/201294.got.cif
#   From: 2010.06.25/outbox.cif.g09.slc.cpg/sg2_101_cif.got.tgz:201294.got - 2010.06.27 13:26:56.
