data_PCOD8022836
_publ_section_title
;
Structure prediction by ZEFSAII (Michael W. Deem and Ramdas Pophale) SiO2 
 PCOD8022836
Probable space group: P -1
;
_chemical_formula_sum "Si O2"
_cell_formula_units_Z 14
_cell_length_a 5.290997
_cell_length_b 13.515191
_cell_length_c 18.169500
_cell_angle_alpha 152.793513
_cell_angle_beta 88.806194
_cell_angle_gamma 91.342052
_cell_volume 593.865977
_symmetry_space_group_name_H-M "P -1"
_symmetry_group_IT_number 2
_symmetry_cell_setting 'triclinic'
loop_
_space_group_symop_operation_xyz
x,y,z
-x,-y,-z
loop_
_atom_site_type_symbol
_atom_site_label
_atom_site_fract_x
_atom_site_fract_y
_atom_site_fract_z
Si Si1 0.783136 0.086719 0.193964
Si Si2 0.595096 0.980769 0.375635
Si Si3 0.730998 0.331805 0.500015
Si Si4 0.802113 0.176373 0.636724
Si Si5 0.770090 0.414427 0.286720
Si Si6 0.877050 0.535907 0.102046
Si Si7 0.276880 0.800456 0.011051
O O1 0.769437 0.288101 0.384354
O O2 0.813214 0.192031 0.183086
O O3 0.530145 0.942569 0.101075
O O4 0.031204 0.948844 0.117374
O O5 0.307395 0.899016 0.332048
O O6 0.745006 0.764674 0.247941
O O7 0.669425 0.090263 0.371275
O O8 0.612452 0.169561 0.564070
O O9 0.490323 0.481582 0.614515
O O10 0.986969 0.428146 0.598435
O O11 0.905560 0.421275 0.808812
O O12 0.000000 0.000000 0.500000
O O13 0.743142 0.357086 0.163243
O O14 0.705466 0.341910 0.007456
O O15 0.000000 0.500000 0.000000
#
# Coordination Sequence:
#
# PCOD8022836 Si02
#       7
#     2   2   2   2   2   2   2
#     4  12  26  49  70 102 142 177 229 294 345 401
#     4  10  23  39  65  93 133 171 219 274 327 404
#     4  12  26  43  76 103 136 179 230 283 352 401
#     4   9  21  39  62  87 132 168 222 269 326 378
#     4  12  26  47  74 104 133 179 238 288 339 410
#     4  11  25  40  63  95 137 175 220 268 329 409
#     4  12  27  45  73 101 140 188 226 274 355 409
#
# _framework density 23.574341
#
# number of rings (size 3 to 8) (size 9 to 14) (size 15 to 20)
#    0.000    0.857    0.000    6.000   14.000    0.571 
#    0.000    0.000    0.000    0.000    0.000    0.000 
#    0.000    0.000    0.000    0.000    0.000    0.000 
#
# Total GULP energy -173463.795332 kJ/mol
# GULP energy per Si atom -12390.271095 kJ/mol
# Density = 2.352069 g / cm^3
# Si number density = 23.574341 Si / 1000 Ang^3
#
#
#
# Elastic Constant Matrix: (Units=GPa)
#
#
# Indices 1 2 3 4 5 6 
#
# 1 118.9710 3.0254 41.0761 -4.8458 2.6720 16.9447
# 2 3.0254 113.4819 29.5011 11.9436 -6.1283 15.8007
# 3 41.0761 29.5011 102.6207 -8.7648 -7.8120 6.2710
# 4 -4.8458 11.9436 -8.7648 51.9655 5.0315 0.6032
# 5 2.6720 -6.1283 -7.8120 5.0315 37.1441 3.8261
# 6 16.9447 15.8007 6.2710 0.6032 3.8261 34.2712
#
#
#
# Elastic Compliance Matrix: (Units=1/GPa)
#
#
# Indices 1 2 3 4 5 6 
#
# 1 0.010648 0.001523 -0.004460 0.000040 -0.000938 -0.005047
# 2 0.001523 0.010846 -0.003523 -0.003068 0.001897 -0.005267
# 3 -0.004460 -0.003523 0.012820 0.002349 0.001992 0.001220
# 4 0.000040 -0.003068 0.002349 0.020619 -0.002903 0.000926
# 5 -0.000938 0.001897 0.001992 -0.002903 0.028517 -0.003908
# 6 -0.005047 -0.005267 0.001220 0.000926 -0.003908 0.034299
#
#
# Mechanical properties :
#
#
# Convention : Reuss Voigt Hill
#
# Bulk Modulus (GPa) = 46.74051 53.58653 50.16352
# Shear Modulus (GPa) = 36.28428 42.10756 39.19592
#
# Velocity S-wave (km/s) = 3.92745 4.23088 4.08199
# Velocity P-wave (km/s) = 6.35896 6.82989 6.59863
#
# Compressibility (1/GPa) = 0.02139472
#
# Stress axis : x y z
#
# Youngs Moduli (GPa) = 93.91525 92.20049 78.00125
#
# Poissons Ratio (x) = -0.14045 0.34785
# Poissons Ratio (y) = -0.14306 0.27483
# Poissons Ratio (z) = 0.41882 0.32486
#
# Static dielectric constant tensor:
#      x y z
#    x 5.255930 -0.433140 1.192560 
#    y -0.433140 4.703870 -0.587410 
#    z 1.192560 -0.587410 5.163250 
# 
# 
# High freq. dielectric constant tensor:
#      x y z
#    x 1.946950 0.017360 0.005290 
#    y 0.017360 1.937690 -0.006370 
#    z 0.005290 -0.006370 1.943600 
# 
# From -- ./inp_files/107673.got.cif
#   From: 2010.06.25/outbox.cif.g09.slc.cpg/sg2_54_cif.got.tgz:107673.got - 2010.06.27 13:26:56.
