data_PCOD8022952
_publ_section_title
;
Structure prediction by ZEFSAII (Michael W. Deem and Ramdas Pophale) SiO2 
 PCOD8022952
Probable space group: P -1
;
_chemical_formula_sum "Si O2"
_cell_formula_units_Z 14
_cell_length_a 12.354406
_cell_length_b 6.754443
_cell_length_c 15.225266
_cell_angle_alpha 112.009927
_cell_angle_beta 143.766604
_cell_angle_gamma 61.567345
_cell_volume 660.276087
_symmetry_space_group_name_H-M "P -1"
_symmetry_group_IT_number 2
_symmetry_cell_setting 'triclinic'
loop_
_space_group_symop_operation_xyz
x,y,z
-x,-y,-z
loop_
_atom_site_type_symbol
_atom_site_label
_atom_site_fract_x
_atom_site_fract_y
_atom_site_fract_z
Si Si1 0.293956 0.375798 0.311350
Si Si2 0.692385 0.406849 0.999307
Si Si3 0.253568 0.482550 0.752144
Si Si4 0.057944 0.142382 0.487743
Si Si5 0.721667 0.160706 0.568064
Si Si6 0.935012 0.945184 0.842119
Si Si7 0.820267 0.436522 0.906580
O O1 0.495509 0.202714 0.445558
O O2 0.230752 0.603042 0.366898
O O3 0.127038 0.257965 0.187350
O O4 0.334980 0.457874 0.253868
O O5 0.472487 0.412332 0.849292
O O6 0.735681 0.537716 0.962722
O O7 0.739677 0.518820 0.137581
O O8 0.835894 0.149687 0.045134
O O9 0.156168 0.303147 0.627192
O O10 0.129255 0.723485 0.670544
O O11 0.217693 0.972072 0.504102
O O12 0.000000 0.000000 0.500000
O O13 0.829560 0.003380 0.690731
O O14 0.880178 0.162418 0.906165
O O15 0.000000 0.500000 0.000000
#
# Coordination Sequence:
#
# PCOD8022952 Si02
#       7
#     2   2   2   2   2   2   2
#     4  10  23  40  63 100 128 166 214 268 334 390
#     4  11  23  46  67  91 137 173 214 273 322 394
#     4  10  26  47  65  96 129 177 225 266 322 384
#     4  11  25  44  70  95 125 173 225 273 320 376
#     4  10  23  41  64  95 130 167 217 269 325 393
#     4  11  22  41  67  93 131 174 207 270 340 388
#     4  11  24  38  64  99 130 167 214 265 333 390
#
# _framework density 21.203251000000002
#
# number of rings (size 3 to 8) (size 9 to 14) (size 15 to 20)
#    0.000    1.429    2.857    0.857    6.000    0.000 
#    0.000    1.429    0.000    0.000    0.000    0.000 
#    0.000    0.000    0.000    0.000    0.000    0.000 
#
# Total GULP energy -173567.924300 kJ/mol
# GULP energy per Si atom -12397.708879 kJ/mol
# Density = 2.115499 g / cm^3
# Si number density = 21.203251 Si / 1000 Ang^3
#
#
#
# Elastic Constant Matrix: (Units=GPa)
#
#
# Indices 1 2 3 4 5 6 
#
# 1 131.6589 48.0290 47.5904 2.0765 -6.7284 -2.0572
# 2 48.0290 105.8445 36.9387 -2.6080 1.2650 6.0228
# 3 47.5904 36.9387 106.3557 -3.4893 8.9546 -5.5496
# 4 2.0765 -2.6080 -3.4893 36.3983 -4.8966 2.8151
# 5 -6.7284 1.2650 8.9546 -4.8966 35.8839 1.8556
# 6 -2.0572 6.0228 -5.5496 2.8151 1.8556 28.6598
#
#
#
# Elastic Compliance Matrix: (Units=1/GPa)
#
#
# Indices 1 2 3 4 5 6 
#
# 1 0.010368 -0.003526 -0.003645 -0.000866 0.002825 0.000682
# 2 -0.003526 0.012257 -0.002820 0.001069 -0.000064 -0.003476
# 3 -0.003645 -0.002820 0.012502 0.000466 -0.003793 0.002952
# 4 -0.000866 0.001069 0.000466 0.028395 0.003725 -0.003227
# 5 0.002825 -0.000064 -0.003793 0.003725 0.030001 -0.002827
# 6 0.000682 -0.003476 0.002952 -0.003227 -0.002827 0.036743
#
#
# Mechanical properties :
#
#
# Convention : Reuss Voigt Hill
#
# Bulk Modulus (GPa) = 66.03543 67.66393 66.84968
# Shear Modulus (GPa) = 32.19644 34.27514 33.23579
#
# Velocity S-wave (km/s) = 3.90098 4.02494 3.96344
# Velocity P-wave (km/s) = 7.17648 7.31994 7.24856
#
# Compressibility (1/GPa) = 0.01514339
#
# Stress axis : x y z
#
# Youngs Moduli (GPa) = 96.44928 81.58559 79.98998
#
# Poissons Ratio (x) = 0.28771 0.29158
# Poissons Ratio (y) = 0.34013 0.22557
# Poissons Ratio (z) = 0.35158 0.23007
#
# Static dielectric constant tensor:
#      x y z
#    x 4.017570 0.159410 -0.590780 
#    y 0.159410 4.181230 -0.816830 
#    z -0.590780 -0.816830 5.179010 
# 
# 
# High freq. dielectric constant tensor:
#      x y z
#    x 1.827310 -0.003900 -0.014320 
#    y -0.003900 1.823290 -0.013890 
#    z -0.014320 -0.013890 1.863260 
# 
# From -- ./inp_files/511111.got.cif
#   From: 2010.06.25/outbox.cif.g09.slc.cpg/sg2_256_cif.got.tgz:511111.got - 2010.06.27 13:26:56.
