data_PCOD8022605
_publ_section_title
;
Structure prediction by ZEFSAII (Michael W. Deem and Ramdas Pophale) SiO2 
 PCOD8022605
Probable space group: P -1
;
_chemical_formula_sum "Si O2"
_cell_formula_units_Z 14
_cell_length_a 15.362373
_cell_length_b 12.248349
_cell_length_c 8.662649
_cell_angle_alpha 52.631862
_cell_angle_beta 63.893574
_cell_angle_gamma 27.456747
_cell_volume 575.305393
_symmetry_space_group_name_H-M "P -1"
_symmetry_group_IT_number 2
_symmetry_cell_setting 'triclinic'
loop_
_space_group_symop_operation_xyz
x,y,z
-x,-y,-z
loop_
_atom_site_type_symbol
_atom_site_label
_atom_site_fract_x
_atom_site_fract_y
_atom_site_fract_z
Si Si1 0.312778 0.091962 0.007827
Si Si2 0.197175 0.102652 0.496370
Si Si3 0.796069 0.380047 0.940644
Si Si4 0.905117 0.504498 0.924396
Si Si5 0.460071 0.396432 0.559699
Si Si6 0.588372 0.017447 0.314298
Si Si7 0.061902 0.839799 0.320352
O O1 0.128820 0.210831 0.057971
O O2 0.344868 0.117207 0.790589
O O3 0.263414 0.286551 0.988095
O O4 0.494351 0.775972 0.198346
O O5 0.405293 0.795437 0.530785
O O6 0.233172 0.126990 0.615030
O O7 0.097420 0.337068 0.267284
O O8 0.034924 0.186216 0.553729
O O9 0.860144 0.456347 0.863568
O O10 0.561955 0.672860 0.869694
O O11 0.855610 0.256837 0.832363
O O12 0.888510 0.168118 0.182334
O O13 0.500000 0.500000 0.500000
O O14 0.231015 0.664648 0.462069
O O15 0.500000 0.000000 0.500000
#
# Coordination Sequence:
#
# PCOD8022605 Si02
#       7
#     2   2   2   2   2   2   2
#     4  10  25  44  71 108 141 191 240 300 361 428
#     4  11  25  45  75 105 142 190 243 299 360 422
#     4  11  24  45  72 109 144 191 245 295 356 430
#     4  10  22  48  72 105 145 187 243 299 358 427
#     4  11  25  49  71 106 149 190 239 298 367 437
#     4  12  25  46  75 107 146 189 245 301 357 427
#     4  11  26  46  74 106 148 191 242 298 359 435
#
# _framework density 24.334902
#
# number of rings (size 3 to 8) (size 9 to 14) (size 15 to 20)
#    0.000    1.143    2.857    1.714    4.000    4.000 
#    7.714    0.000    0.000    0.000    0.000    0.000 
#    0.000    0.000    0.000    0.000    0.000    0.000 
#
# Total GULP energy -173522.050834 kJ/mol
# GULP energy per Si atom -12394.432202 kJ/mol
# Density = 2.427951 g / cm^3
# Si number density = 24.334902 Si / 1000 Ang^3
#
#
#
# Elastic Constant Matrix: (Units=GPa)
#
#
# Indices 1 2 3 4 5 6 
#
# 1 154.4300 20.0182 52.9468 -7.4146 9.2971 -13.3959
# 2 20.0182 68.1765 50.5312 -17.7532 9.9564 -0.3311
# 3 52.9468 50.5312 118.0271 -0.9204 15.1668 -6.5527
# 4 -7.4146 -17.7532 -0.9204 33.2426 1.1264 2.5221
# 5 9.2971 9.9564 15.1668 1.1264 36.2184 -0.5341
# 6 -13.3959 -0.3311 -6.5527 2.5221 -0.5341 30.1762
#
#
#
# Elastic Compliance Matrix: (Units=1/GPa)
#
#
# Indices 1 2 3 4 5 6 
#
# 1 0.008010 0.001181 -0.003838 0.002145 -0.000803 0.002542
# 2 0.001181 0.027564 -0.011950 0.015002 -0.003389 -0.003082
# 3 -0.003838 -0.011950 0.015634 -0.006895 -0.002031 0.002100
# 4 0.002145 0.015002 -0.006895 0.038763 -0.003047 -0.003674
# 5 -0.000803 -0.003389 -0.002031 -0.003047 0.029693 -0.000055
# 6 0.002542 -0.003082 0.002100 -0.003674 -0.000055 0.034996
#
#
# Mechanical properties :
#
#
# Convention : Reuss Voigt Hill
#
# Bulk Modulus (GPa) = 45.46416 65.29176 55.37796
# Shear Modulus (GPa) = 26.15001 34.40325 30.27663
#
# Velocity S-wave (km/s) = 3.28165 3.76405 3.53110
# Velocity P-wave (km/s) = 5.75171 6.76606 6.27940
#
# Compressibility (1/GPa) = 0.02199535
#
# Stress axis : x y z
#
# Youngs Moduli (GPa) = 124.84406 36.27888 63.96259
#
# Poissons Ratio (x) = -0.04284 0.24548
# Poissons Ratio (y) = -0.14742 0.76432
# Poissons Ratio (z) = 0.47913 0.43352
#
# Static dielectric constant tensor:
#      x y z
#    x 4.273140 0.138840 0.302240 
#    y 0.138840 4.865520 -0.229820 
#    z 0.302240 -0.229820 4.445360 
# 
# 
# High freq. dielectric constant tensor:
#      x y z
#    x 1.971080 0.002380 0.022260 
#    y 0.002380 1.974330 -0.013640 
#    z 0.022260 -0.013640 1.965170 
# 
# From -- ./inp_files/306468.got.cif
#   From: 2010.06.25/outbox.cif.g09.slc.cpg/sg2_154_cif.got.tgz:306468.got - 2010.06.27 13:26:56.
