data_PCOD8022654
_publ_section_title
;
Structure prediction by ZEFSAII (Michael W. Deem and Ramdas Pophale) SiO2 
 PCOD8022654
Probable space group: P -1
;
_chemical_formula_sum "Si O2"
_cell_formula_units_Z 14
_cell_length_a 21.979026
_cell_length_b 13.353327
_cell_length_c 9.082136
_cell_angle_alpha 125.345241
_cell_angle_beta 38.011899
_cell_angle_gamma 153.306354
_cell_volume 657.275233
_symmetry_space_group_name_H-M "P -1"
_symmetry_group_IT_number 2
_symmetry_cell_setting 'triclinic'
loop_
_space_group_symop_operation_xyz
x,y,z
-x,-y,-z
loop_
_atom_site_type_symbol
_atom_site_label
_atom_site_fract_x
_atom_site_fract_y
_atom_site_fract_z
Si Si1 0.348694 0.803904 0.753851
Si Si2 0.907678 0.031990 0.179148
Si Si3 0.052137 0.758857 0.975583
Si Si4 0.324476 0.891609 0.374043
Si Si5 0.177174 0.465931 0.250666
Si Si6 0.415312 0.201100 0.242718
Si Si7 0.169009 0.868871 0.167535
O O1 0.500000 0.000000 0.500000
O O2 0.470653 0.888112 0.733971
O O3 0.217780 0.779904 0.024513
O O4 0.184568 0.523010 0.781340
O O5 0.917068 0.078570 0.029656
O O6 0.030054 0.272799 0.233620
O O7 0.678383 0.788005 0.472831
O O8 0.000000 0.000000 0.000000
O O9 0.145492 0.746477 0.695910
O O10 0.177797 0.912636 0.016714
O O11 0.278987 0.708415 0.237821
O O12 0.348015 0.002654 0.282030
O O13 0.055007 0.340545 0.528847
O O14 0.342932 0.536082 0.003928
O O15 0.331866 0.120865 0.166833
#
# Coordination Sequence:
#
# PCOD8022654 Si02
#       7
#     2   2   2   2   2   2   2
#     4  12  21  33  56  92 134 157 188 224 294 370
#     4  10  25  45  64  82 110 157 213 253 285 338
#     4  11  23  38  59  90 126 160 190 238 295 346
#     4  11  21  35  57  90 124 160 190 232 292 365
#     4  11  21  38  59  86 122 152 193 245 296 345
#     4  10  23  37  61  88 120 155 197 241 299 352
#     4  11  22  34  55  91 127 154 185 233 295 365
#
# _framework density 21.300055
#
# number of rings (size 3 to 8) (size 9 to 14) (size 15 to 20)
#    0.000    1.143    4.286    2.571    2.000    2.286 
#    0.000    2.857    0.000    1.714    0.000    0.000 
#    0.000    0.000    0.000    0.000    0.000    0.000 
#
# Total GULP energy -173561.686024 kJ/mol
# GULP energy per Si atom -12397.263287 kJ/mol
# Density = 2.125158 g / cm^3
# Si number density = 21.300055 Si / 1000 Ang^3
#
#
#
# Elastic Constant Matrix: (Units=GPa)
#
#
# Indices 1 2 3 4 5 6 
#
# 1 133.0629 32.3198 43.0931 8.2347 -4.1067 7.5129
# 2 32.3198 24.7093 11.2928 1.2481 -0.6706 5.7498
# 3 43.0931 11.2928 140.0607 -3.1984 -22.1122 -3.7601
# 4 8.2347 1.2481 -3.1984 24.0913 4.1276 -10.7553
# 5 -4.1067 -0.6706 -22.1122 4.1276 38.6119 9.2492
# 6 7.5129 5.7498 -3.7601 -10.7553 9.2492 25.5879
#
#
#
# Elastic Compliance Matrix: (Units=1/GPa)
#
#
# Indices 1 2 3 4 5 6 
#
# 1 0.012325 -0.013684 -0.002762 -0.005690 0.000985 -0.003698
# 2 -0.013684 0.062153 -0.000820 -0.005046 0.002862 -0.013224
# 3 -0.002762 -0.000820 0.008796 0.002243 0.004068 0.001760
# 4 -0.005690 -0.005046 0.002243 0.061718 -0.014200 0.034209
# 5 0.000985 0.002862 0.004068 -0.014200 0.034388 -0.018734
# 6 -0.003698 -0.013224 0.001760 0.034209 -0.018734 0.064547
#
#
# Mechanical properties :
#
#
# Convention : Reuss Voigt Hill
#
# Bulk Modulus (GPa) = 20.51569 52.36047 36.43808
# Shear Modulus (GPa) = 16.96594 31.73338 24.34966
#
# Velocity S-wave (km/s) = 2.82533 3.86401 3.38475
# Velocity P-wave (km/s) = 4.50511 6.67407 5.69382
#
# Compressibility (1/GPa) = 0.04874317
#
# Stress axis : x y z
#
# Youngs Moduli (GPa) = 81.13671 16.08922 113.68159
#
# Poissons Ratio (x) = 0.22016 0.31404
# Poissons Ratio (y) = 1.11026 0.09317
# Poissons Ratio (z) = 0.22413 0.01319
#
# Static dielectric constant tensor:
#      x y z
#    x 3.870930 0.307150 -0.228400 
#    y 0.307150 3.338200 -0.061510 
#    z -0.228400 -0.061510 4.338270 
# 
# 
# High freq. dielectric constant tensor:
#      x y z
#    x 1.836820 0.026760 -0.009170 
#    y 0.026760 1.782140 -0.003580 
#    z -0.009170 -0.003580 1.860780 
# 
# From -- ./inp_files/107028.got.cif
#   From: 2010.06.25/outbox.cif.g09.slc.cpg/sg2_54_cif.got.tgz:107028.got - 2010.06.27 13:26:56.
