data_PCOD8022643
_publ_section_title
;
Structure prediction by ZEFSAII (Michael W. Deem and Ramdas Pophale) SiO2 
 PCOD8022643
Probable space group: P -1
;
_chemical_formula_sum "Si O2"
_cell_formula_units_Z 16
_cell_length_a 22.529892
_cell_length_b 5.149184
_cell_length_c 13.246789
_cell_angle_alpha 87.285045
_cell_angle_beta 145.116133
_cell_angle_gamma 76.925321
_cell_volume 777.681927
_symmetry_space_group_name_H-M "P -1"
_symmetry_group_IT_number 2
_symmetry_cell_setting 'triclinic'
loop_
_space_group_symop_operation_xyz
x,y,z
-x,-y,-z
loop_
_atom_site_type_symbol
_atom_site_label
_atom_site_fract_x
_atom_site_fract_y
_atom_site_fract_z
Si Si1 0.105959 0.963747 0.473360
Si Si2 0.152431 0.787206 0.961079
Si Si3 0.745909 0.817418 0.989668
Si Si4 0.499865 0.761673 0.430858
Si Si5 0.132673 0.758570 0.306603
Si Si6 0.910727 0.783547 0.929501
Si Si7 0.750704 0.536520 0.707278
Si Si8 0.123860 0.417837 0.625649
O O1 0.181456 0.796658 0.481996
O O2 0.119824 0.718956 0.577676
O O3 0.152273 0.181012 0.579791
O O4 0.973698 0.172304 0.248954
O O5 0.244925 0.463503 0.055095
O O6 0.168575 0.055490 0.933882
O O7 0.180805 0.769550 0.123704
O O8 0.774982 0.721857 0.147979
O O9 0.614798 0.084372 0.801151
O O10 0.500000 0.500000 0.500000
O O11 0.612926 0.653414 0.519040
O O12 0.500000 0.000000 0.500000
O O13 0.217847 0.463240 0.368972
O O14 0.140746 0.972279 0.231391
O O15 0.997870 0.814180 0.135545
O O16 0.803504 0.739028 0.829244
O O17 0.000000 0.500000 0.000000
O O18 0.000000 0.500000 0.500000
#
# Coordination Sequence:
#
# PCOD8022643 Si02
#       8
#     2   2   2   2   2   2   2   2
#     4  12  24  38  65  93 124 168 206 254 312 381
#     4  12  22  36  66  91 130 165 198 251 317 381
#     4  12  24  42  60  92 128 163 207 263 306 366
#     4  12  25  43  64  95 124 168 214 254 315 376
#     4  10  23  37  57  92 130 162 207 251 315 381
#     4   9  19  36  56  87 130 163 200 242 322 372
#     4  11  24  37  64  90 133 165 204 256 318 382
#     4  12  24  41  62  89 125 165 215 255 316 361
#
# _framework density 20.573962999999999
#
# number of rings (size 3 to 8) (size 9 to 14) (size 15 to 20)
#    0.000    0.750    5.000    3.375   10.500    0.000 
#    0.000    0.000    0.000    1.500    0.000    0.000 
#    0.000    0.000    0.000    0.000    0.000    0.000 
#
# Total GULP energy -198304.225033 kJ/mol
# GULP energy per Si atom -12394.014065 kJ/mol
# Density = 2.052714 g / cm^3
# Si number density = 20.573963 Si / 1000 Ang^3
#
#
#
# Elastic Constant Matrix: (Units=GPa)
#
#
# Indices 1 2 3 4 5 6 
#
# 1 84.3229 14.9654 35.2239 5.7802 2.3107 -6.2486
# 2 14.9654 89.0422 12.5200 5.0929 -5.6217 -0.4930
# 3 35.2239 12.5200 108.6083 -9.2439 -4.1481 -11.3755
# 4 5.7802 5.0929 -9.2439 27.6390 -1.3324 -3.9494
# 5 2.3107 -5.6217 -4.1481 -1.3324 36.8454 5.4740
# 6 -6.2486 -0.4930 -11.3755 -3.9494 5.4740 30.6236
#
#
#
# Elastic Compliance Matrix: (Units=1/GPa)
#
#
# Indices 1 2 3 4 5 6 
#
# 1 0.014622 -0.001641 -0.004903 -0.004359 -0.002016 0.000934
# 2 -0.001641 0.011903 -0.001086 -0.002291 0.001889 -0.001180
# 3 -0.004903 -0.001086 0.011873 0.005813 0.001103 0.003945
# 4 -0.004359 -0.002291 0.005813 0.040405 0.001112 0.006245
# 5 -0.002016 0.001889 0.001103 0.001112 0.028449 -0.004913
# 6 0.000934 -0.001180 0.003945 0.006245 -0.004913 0.035975
#
#
# Mechanical properties :
#
#
# Convention : Reuss Voigt Hill
#
# Bulk Modulus (GPa) = 43.22110 45.26577 44.24343
# Shear Modulus (GPa) = 30.08417 33.63920 31.86169
#
# Velocity S-wave (km/s) = 3.82808 4.04795 3.93955
# Velocity P-wave (km/s) = 6.37120 6.62549 6.49959
#
# Compressibility (1/GPa) = 0.02313685
#
# Stress axis : x y z
#
# Youngs Moduli (GPa) = 68.39080 84.01288 84.22509
#
# Poissons Ratio (x) = 0.13785 0.41297
# Poissons Ratio (y) = 0.11222 0.09150
# Poissons Ratio (z) = 0.33533 0.09127
#
# Static dielectric constant tensor:
#      x y z
#    x 3.738130 0.028230 0.096930 
#    y 0.028230 4.301400 -0.163870 
#    z 0.096930 -0.163870 3.881910 
# 
# 
# High freq. dielectric constant tensor:
#      x y z
#    x 1.791360 -0.003960 -0.016500 
#    y -0.003960 1.839720 0.000660 
#    z -0.016500 0.000660 1.770240 
# 
# From -- ./inp_files/80118.got.cif
#   From: 2010.06.25/outbox.cif.g09.slc.cpg/sg2_41_cif.got.tgz:80118.got - 2010.06.27 13:26:56.
