data_PCOD8022624
_publ_section_title
;
Structure prediction by ZEFSAII (Michael W. Deem and Ramdas Pophale) SiO2 
 PCOD8022624
Probable space group: P -1
;
_chemical_formula_sum "Si O2"
_cell_formula_units_Z 14
_cell_length_a 10.208975
_cell_length_b 8.648287
_cell_length_c 11.620205
_cell_angle_alpha 105.883692
_cell_angle_beta 53.549717
_cell_angle_gamma 102.227073
_cell_volume 792.131807
_symmetry_space_group_name_H-M "P -1"
_symmetry_group_IT_number 2
_symmetry_cell_setting 'triclinic'
loop_
_space_group_symop_operation_xyz
x,y,z
-x,-y,-z
loop_
_atom_site_type_symbol
_atom_site_label
_atom_site_fract_x
_atom_site_fract_y
_atom_site_fract_z
Si Si1 0.864885 0.221516 0.780813
Si Si2 0.565566 0.845419 0.868919
Si Si3 0.368072 0.539930 0.982942
Si Si4 0.162889 0.075376 0.670040
Si Si5 0.325751 0.199394 0.836330
Si Si6 0.840802 0.937381 0.888561
Si Si7 0.661906 0.052122 0.660859
O O1 0.808270 0.145967 0.672708
O O2 0.061748 0.212481 0.685380
O O3 0.788210 0.112481 0.905395
O O4 0.799403 0.399489 0.861317
O O5 0.446513 0.686189 0.895732
O O6 0.732989 0.805002 0.841745
O O7 0.603163 0.889109 0.725594
O O8 0.500000 0.000000 0.000000
O O9 0.311514 0.388602 0.903539
O O10 0.500000 0.500000 0.000000
O O11 0.275717 0.161722 0.724809
O O12 0.279675 0.990336 0.504655
O O13 0.036045 0.936188 0.763207
O O14 0.512307 0.165497 0.753760
O O15 0.202869 0.091604 0.961001
#
# Coordination Sequence:
#
# PCOD8022624 Si02
#       7
#     2   2   2   2   2   2   2
#     4   9  19  35  56  80 106 143 188 221 269 314
#     4  11  16  34  59  84  97 145 195 227 252 321
#     4  12  19  33  58  87 110 134 193 237 263 318
#     4  10  23  35  56  85 116 146 178 222 284 329
#     4  12  21  34  59  87 113 142 180 234 275 317
#     4   9  18  35  57  81 107 141 193 220 265 321
#     4  11  19  37  61  80 110 145 193 220 264 335
#
# _framework density 17.673826999999999
#
# number of rings (size 3 to 8) (size 9 to 14) (size 15 to 20)
#    0.857    0.571    7.143    1.286    0.000    0.571 
#    0.000    0.714    3.143    2.571    0.000    0.000 
#    0.000    0.000    0.000    0.000    0.000    0.000 
#
# Total GULP energy -173440.212936 kJ/mol
# GULP energy per Si atom -12388.586638 kJ/mol
# Density = 1.763360 g / cm^3
# Si number density = 17.673827 Si / 1000 Ang^3
#
#
#
# Elastic Constant Matrix: (Units=GPa)
#
#
# Indices 1 2 3 4 5 6 
#
# 1 62.3697 18.1146 17.9704 -1.4378 17.4310 2.9832
# 2 18.1146 64.8967 39.5820 11.3500 9.5475 5.2567
# 3 17.9704 39.5820 103.6430 5.3461 12.6327 2.8342
# 4 -1.4378 11.3500 5.3461 15.1627 3.8503 -1.2460
# 5 17.4310 9.5475 12.6327 3.8503 29.1913 6.0359
# 6 2.9832 5.2567 2.8342 -1.2460 6.0359 20.3778
#
#
#
# Elastic Compliance Matrix: (Units=1/GPa)
#
#
# Indices 1 2 3 4 5 6 
#
# 1 0.021488 -0.005760 -0.000583 0.009976 -0.012581 0.002758
# 2 -0.005760 0.024997 -0.007740 -0.017610 0.002232 -0.006266
# 3 -0.000583 -0.007740 0.012960 0.002120 -0.003295 0.001385
# 4 0.009976 -0.017610 0.002120 0.084087 -0.014748 0.012298
# 5 -0.012581 0.002232 -0.003295 -0.014748 0.047127 -0.013136
# 6 0.002758 -0.006266 0.001385 0.012298 -0.013136 0.054736
#
#
# Mechanical properties :
#
#
# Convention : Reuss Voigt Hill
#
# Bulk Modulus (GPa) = 31.96914 42.47150 37.22032
# Shear Modulus (GPa) = 17.60642 23.29587 20.45114
#
# Velocity S-wave (km/s) = 3.15967 3.63450 3.40537
# Velocity P-wave (km/s) = 5.60705 6.45722 6.04709
#
# Compressibility (1/GPa) = 0.03128016
#
# Stress axis : x y z
#
# Youngs Moduli (GPa) = 46.53653 40.00506 77.16108
#
# Poissons Ratio (x) = 0.23042 0.04495
# Poissons Ratio (y) = 0.26805 0.59723
# Poissons Ratio (z) = 0.02711 0.30964
#
# Static dielectric constant tensor:
#      x y z
#    x 3.371620 -0.029530 -0.138730 
#    y -0.029530 3.175090 -0.115120 
#    z -0.138730 -0.115120 3.143520 
# 
# 
# High freq. dielectric constant tensor:
#      x y z
#    x 1.691960 -0.004640 -0.006940 
#    y -0.004640 1.651860 -0.002980 
#    z -0.006940 -0.002980 1.665420 
# 
# From -- ./inp_files/247725.got.cif
#   From: 2010.06.25/outbox.cif.g09.slc.cpg/sg2_124_cif.got.tgz:247725.got - 2010.06.27 13:26:56.
