data_PCOD8022496
_publ_section_title
;
Structure prediction by ZEFSAII (Michael W. Deem and Ramdas Pophale) SiO2 
 PCOD8022496
Probable space group: P -1
;
_chemical_formula_sum "Si O2"
_cell_formula_units_Z 16
_cell_length_a 12.121808
_cell_length_b 18.788956
_cell_length_c 8.550182
_cell_angle_alpha 61.518057
_cell_angle_beta 53.699003
_cell_angle_gamma 26.522578
_cell_volume 693.225380
_symmetry_space_group_name_H-M "P -1"
_symmetry_group_IT_number 2
_symmetry_cell_setting 'triclinic'
loop_
_space_group_symop_operation_xyz
x,y,z
-x,-y,-z
loop_
_atom_site_type_symbol
_atom_site_label
_atom_site_fract_x
_atom_site_fract_y
_atom_site_fract_z
Si Si1 0.451327 0.119369 0.913673
Si Si2 0.496046 0.515904 0.170892
Si Si3 0.144996 0.537049 0.939043
Si Si4 0.717788 0.073317 0.997092
Si Si5 0.078638 0.862307 0.189835
Si Si6 0.807027 0.644269 0.696666
Si Si7 0.368294 0.418396 0.540283
Si Si8 0.468736 0.819194 0.502938
O O1 0.696825 0.042316 0.877069
O O2 0.446021 0.148410 0.707296
O O3 0.158449 0.291890 0.052993
O O4 0.500000 0.000000 0.000000
O O5 0.761822 0.433235 0.070525
O O6 0.511953 0.426668 0.353013
O O7 0.223668 0.702535 0.260660
O O8 0.500000 0.500000 0.000000
O O9 0.344193 0.424671 0.741218
O O10 0.128716 0.467087 0.135949
O O11 0.702952 0.179519 0.903227
O O12 0.453560 0.174679 0.204514
O O13 0.998053 0.907125 0.025655
O O14 0.812656 0.012127 0.358662
O O15 0.718974 0.669444 0.566160
O O16 0.070383 0.566654 0.555311
O O17 0.566327 0.243535 0.506349
#
# Coordination Sequence:
#
# PCOD8022496 Si02
#       8
#     2   2   2   2   2   2   2   2
#     4  12  28  44  72 105 150 193 243 304 369 433
#     4  12  29  46  73 107 147 195 246 306 362 431
#     4  12  25  48  71 104 148 189 244 304 363 430
#     4  10  22  46  71 101 140 197 239 296 367 436
#     4  10  25  45  73 101 150 191 240 297 366 438
#     4  11  21  44  76 101 140 184 250 293 358 431
#     4  12  25  43  73 108 143 189 244 303 363 432
#     4  11  26  43  72 111 139 193 244 294 368 443
#
# _framework density 23.080515999999999
#
# number of rings (size 3 to 8) (size 9 to 14) (size 15 to 20)
#    0.000    0.750    3.750    2.625    8.750    0.500 
#    0.000    2.500    0.000    0.000    0.000    0.000 
#    0.000    0.000    0.000    0.000    0.000    0.000 
#
# Total GULP energy -198410.343317 kJ/mol
# GULP energy per Si atom -12400.646457 kJ/mol
# Density = 2.302798 g / cm^3
# Si number density = 23.080516 Si / 1000 Ang^3
#
#
#
# Elastic Constant Matrix: (Units=GPa)
#
#
# Indices 1 2 3 4 5 6 
#
# 1 135.4188 29.7500 28.3940 -9.2232 8.5711 -5.7669
# 2 29.7500 101.9750 26.9500 -12.3050 1.5789 11.2052
# 3 28.3940 26.9500 89.9120 -20.3776 12.1629 8.9079
# 4 -9.2232 -12.3050 -20.3776 42.3165 -0.6193 -7.3721
# 5 8.5711 1.5789 12.1629 -0.6193 38.8550 -0.8542
# 6 -5.7669 11.2052 8.9079 -7.3721 -0.8542 32.7023
#
#
#
# Elastic Compliance Matrix: (Units=1/GPa)
#
#
# Indices 1 2 3 4 5 6 
#
# 1 0.008529 -0.002171 -0.002017 0.000753 -0.001085 0.002939
# 2 -0.002171 0.011548 -0.002250 0.001213 0.000658 -0.003436
# 3 -0.002017 -0.002250 0.014423 0.005375 -0.003946 -0.002405
# 4 0.000753 0.001213 0.005375 0.027486 -0.001363 0.004414
# 5 -0.001085 0.000658 -0.003946 -0.001363 0.027186 0.001061
# 6 0.002939 -0.003436 -0.002405 0.004414 0.001061 0.033952
#
#
# Mechanical properties :
#
#
# Convention : Reuss Voigt Hill
#
# Bulk Modulus (GPa) = 46.23855 55.27710 50.75782
# Shear Modulus (GPa) = 34.91448 38.92221 36.91835
#
# Velocity S-wave (km/s) = 3.89360 4.11099 4.00377
# Velocity P-wave (km/s) = 6.34748 6.82168 6.58885
#
# Compressibility (1/GPa) = 0.02162698
#
# Stress axis : x y z
#
# Youngs Moduli (GPa) = 117.24286 86.59658 69.33185
#
# Poissons Ratio (x) = 0.18797 0.13981
# Poissons Ratio (y) = 0.25449 0.15596
# Poissons Ratio (z) = 0.23643 0.19480
#
# Static dielectric constant tensor:
#      x y z
#    x 4.397010 -0.228910 0.038870 
#    y -0.228910 4.112520 0.107180 
#    z 0.038870 0.107180 4.133250 
# 
# 
# High freq. dielectric constant tensor:
#      x y z
#    x 1.920980 -0.010210 0.009780 
#    y -0.010210 1.910400 0.004830 
#    z 0.009780 0.004830 1.907280 
# 
# From -- ./inp_files/279206.got.cif
#   From: 2010.06.25/outbox.cif.g09.slc.cpg/sg2_140_cif.got.tgz:279206.got - 2010.06.27 13:26:56.
