data_PCOD8022833
_publ_section_title
;
Structure prediction by ZEFSAII (Michael W. Deem and Ramdas Pophale) SiO2 
 PCOD8022833
Probable space group: P -1
;
_chemical_formula_sum "Si O2"
_cell_formula_units_Z 16
_cell_length_a 15.365370
_cell_length_b 12.711266
_cell_length_c 15.136610
_cell_angle_alpha 152.150329
_cell_angle_beta 137.080778
_cell_angle_gamma 34.191711
_cell_volume 776.113587
_symmetry_space_group_name_H-M "P -1"
_symmetry_group_IT_number 2
_symmetry_cell_setting 'triclinic'
loop_
_space_group_symop_operation_xyz
x,y,z
-x,-y,-z
loop_
_atom_site_type_symbol
_atom_site_label
_atom_site_fract_x
_atom_site_fract_y
_atom_site_fract_z
Si Si1 0.912428 0.682722 0.871191
Si Si2 0.201453 0.079452 0.858151
Si Si3 0.504239 0.601539 0.793112
Si Si4 0.352395 0.774266 0.998686
Si Si5 0.763390 0.650388 0.071707
Si Si6 0.680928 0.018161 0.434889
Si Si7 0.999989 0.106988 0.481421
Si Si8 0.570055 0.790771 0.314176
O O1 0.909903 0.432176 0.646912
O O2 0.090846 0.594190 0.946409
O O3 0.817843 0.949357 0.936972
O O4 0.828686 0.738513 0.944420
O O5 0.382406 0.831778 0.806070
O O6 0.092634 0.969946 0.707653
O O7 0.157450 0.254109 0.866435
O O8 0.532904 0.320310 0.571423
O O9 0.451100 0.672090 0.906660
O O10 0.669828 0.560809 0.880209
O O11 0.433510 0.844914 0.186668
O O12 0.334303 0.529150 0.827584
O O13 0.647208 0.902585 0.236845
O O14 0.693602 0.831817 0.388057
O O15 0.830905 0.023054 0.531722
O O16 0.000000 0.000000 0.500000
O O17 0.500000 0.000000 0.500000
#
# Coordination Sequence:
#
# PCOD8022833 Si02
#       8
#     2   2   2   2   2   2   2   2
#     4  10  23  39  65  89 130 172 207 263 307 385
#     4  11  23  38  62  93 130 178 213 251 315 373
#     4  11  23  37  64  96 127 164 214 267 312 375
#     4  10  23  41  66  97 120 162 213 264 327 378
#     4  11  22  40  58  92 135 169 211 255 311 376
#     4  11  23  39  64  92 127 167 212 259 312 381
#     4  11  23  41  60  92 132 178 209 248 315 374
#     4  11  22  43  70  93 125 162 209 270 333 370
#
# _framework density 20.615538999999998
#
# number of rings (size 3 to 8) (size 9 to 14) (size 15 to 20)
#    0.000    1.250    5.000    1.500    3.500    0.500 
#    0.000    2.500    0.000    6.750    0.000    0.000 
#    0.000    0.000    0.000    0.000    0.000    0.000 
#
# Total GULP energy -198312.228837 kJ/mol
# GULP energy per Si atom -12394.514302 kJ/mol
# Density = 2.056862 g / cm^3
# Si number density = 20.615539 Si / 1000 Ang^3
#
#
#
# Elastic Constant Matrix: (Units=GPa)
#
#
# Indices 1 2 3 4 5 6 
#
# 1 80.9275 16.7931 9.1915 -3.3619 9.9945 3.4981
# 2 16.7931 113.6116 32.1387 11.9951 6.4318 -3.6354
# 3 9.1915 32.1387 72.9289 11.5235 -10.2592 -1.6553
# 4 -3.3619 11.9951 11.5235 28.9947 0.2353 -0.8773
# 5 9.9945 6.4318 -10.2592 0.2353 39.2382 -4.8194
# 6 3.4981 -3.6354 -1.6553 -0.8773 -4.8194 25.4020
#
#
#
# Elastic Compliance Matrix: (Units=1/GPa)
#
#
# Indices 1 2 3 4 5 6 
#
# 1 0.013702 -0.001594 -0.002160 0.003052 -0.004173 -0.002942
# 2 -0.001594 0.010745 -0.004400 -0.002834 -0.002375 0.000922
# 3 -0.002160 -0.004400 0.017692 -0.005457 0.006151 0.001799
# 4 0.003052 -0.002834 -0.005457 0.038193 -0.001998 -0.000242
# 5 -0.004173 -0.002375 0.006151 -0.001998 0.029311 0.006128
# 6 -0.002942 0.000922 0.001799 -0.000242 0.006128 0.041176
#
#
# Mechanical properties :
#
#
# Convention : Reuss Voigt Hill
#
# Bulk Modulus (GPa) = 38.71429 42.63495 40.67462
# Shear Modulus (GPa) = 28.45145 32.68328 30.56737
#
# Velocity S-wave (km/s) = 3.71900 3.98599 3.85481
# Velocity P-wave (km/s) = 6.10419 6.47380 6.29171
#
# Compressibility (1/GPa) = 0.02583025
#
# Stress axis : x y z
#
# Youngs Moduli (GPa) = 72.98033 93.06276 56.52407
#
# Poissons Ratio (x) = 0.14837 0.12212
# Poissons Ratio (y) = 0.11635 0.24869
# Poissons Ratio (z) = 0.15767 0.40946
#
# Static dielectric constant tensor:
#      x y z
#    x 3.636900 0.043810 -0.026240 
#    y 0.043810 3.652050 0.092800 
#    z -0.026240 0.092800 3.978320 
# 
# 
# High freq. dielectric constant tensor:
#      x y z
#    x 1.796150 -0.001170 -0.005540 
#    y -0.001170 1.791280 0.005330 
#    z -0.005540 0.005330 1.827970 
# 
# From -- ./inp_files/273059.got.cif
#   From: 2010.06.25/outbox.cif.g09.slc.cpg/sg2_137_cif.got.tgz:273059.got - 2010.06.27 13:26:56.
