data_PCOD8022154
_publ_section_title
;
Structure prediction by ZEFSAII (Michael W. Deem and Ramdas Pophale) SiO2 
 PCOD8022154
Probable space group: P -1
;
_chemical_formula_sum "Si O2"
_cell_formula_units_Z 14
_cell_length_a 10.667101
_cell_length_b 6.911224
_cell_length_c 9.067278
_cell_angle_alpha 88.991121
_cell_angle_beta 100.323314
_cell_angle_gamma 99.102489
_cell_volume 649.322015
_symmetry_space_group_name_H-M "P -1"
_symmetry_group_IT_number 2
_symmetry_cell_setting 'triclinic'
loop_
_space_group_symop_operation_xyz
x,y,z
-x,-y,-z
loop_
_atom_site_type_symbol
_atom_site_label
_atom_site_fract_x
_atom_site_fract_y
_atom_site_fract_z
Si Si1 0.808542 0.257854 0.274833
Si Si2 0.370508 0.344575 0.466156
Si Si3 0.178066 0.648599 0.404617
Si Si4 0.397963 0.079066 0.752188
Si Si5 0.052989 0.413549 0.868487
Si Si6 0.672159 0.010371 0.750829
Si Si7 0.805507 0.935614 0.068490
O O1 0.876148 0.304455 0.446474
O O2 0.819658 0.453009 0.174803
O O3 0.661107 0.153742 0.277075
O O4 0.875653 0.105988 0.190902
O O5 0.500000 0.500000 0.500000
O O6 0.249443 0.459437 0.431223
O O7 0.357436 0.207092 0.607916
O O8 0.368956 0.205935 0.323661
O O9 0.274500 0.837989 0.366804
O O10 0.056032 0.601476 0.276544
O O11 0.550657 0.091217 0.797848
O O12 0.333770 0.156079 0.886053
O O13 0.092941 0.209854 0.925110
O O14 0.000000 0.500000 0.000000
O O15 0.780000 0.013752 0.899520
#
# Coordination Sequence:
#
# PCOD8022154 Si02
#       7
#     2   2   2   2   2   2   2
#     4  10  24  45  67  97 135 172 222 276 324 388
#     4  12  23  41  69 101 133 172 218 269 331 392
#     4  12  25  41  73  99 135 174 222 272 329 395
#     4  10  22  45  66  97 138 167 221 269 330 390
#     4  12  26  47  67  98 134 174 229 272 327 397
#     4  12  22  43  67 105 133 176 216 271 335 393
#     4  10  25  43  68  95 134 179 215 274 331 385
#
# _framework density 21.560953000000001
#
# number of rings (size 3 to 8) (size 9 to 14) (size 15 to 20)
#    0.857    0.000    2.857    4.714    0.000    4.000 
#    0.000    1.429    0.000    0.000    0.000    0.000 
#    0.000    0.000    0.000    0.000    0.000    0.000 
#
# Total GULP energy -173515.597371 kJ/mol
# GULP energy per Si atom -12393.971241 kJ/mol
# Density = 2.151188 g / cm^3
# Si number density = 21.560953 Si / 1000 Ang^3
#
#
#
# Elastic Constant Matrix: (Units=GPa)
#
#
# Indices 1 2 3 4 5 6 
#
# 1 68.9606 36.4042 29.2034 -5.4043 10.8724 -21.4036
# 2 36.4042 93.5557 34.7469 -0.1880 7.3371 -14.8187
# 3 29.2034 34.7469 128.2994 4.8162 -1.0111 -20.2459
# 4 -5.4043 -0.1880 4.8162 41.6099 -6.1066 -6.2568
# 5 10.8724 7.3371 -1.0111 -6.1066 31.6619 -8.4851
# 6 -21.4036 -14.8187 -20.2459 -6.2568 -8.4851 46.2915
#
#
#
# Elastic Compliance Matrix: (Units=1/GPa)
#
#
# Indices 1 2 3 4 5 6 
#
# 1 0.021753 -0.006218 -0.002346 0.003577 -0.003573 0.006870
# 2 -0.006218 0.014126 -0.002349 -0.000609 -0.001248 0.000309
# 3 -0.002346 -0.002349 0.009417 -0.000690 0.002213 0.002594
# 4 0.003577 -0.000609 -0.000690 0.026237 0.005481 0.005708
# 5 -0.003573 -0.001248 0.002213 0.005481 0.035899 0.006237
# 6 0.006870 0.000309 0.002594 0.005708 0.006237 0.027927
#
#
# Mechanical properties :
#
#
# Convention : Reuss Voigt Hill
#
# Bulk Modulus (GPa) = 42.60457 54.61385 48.60921
# Shear Modulus (GPa) = 30.30176 36.61007 33.45592
#
# Velocity S-wave (km/s) = 3.75293 4.12513 3.94342
# Velocity P-wave (km/s) = 6.21147 6.93353 6.58241
#
# Compressibility (1/GPa) = 0.02347166
#
# Stress axis : x y z
#
# Youngs Moduli (GPa) = 45.97156 70.79093 106.19020
#
# Poissons Ratio (x) = 0.44015 0.24910
# Poissons Ratio (y) = 0.28583 0.24941
# Poissons Ratio (z) = 0.10784 0.16627
#
# Static dielectric constant tensor:
#      x y z
#    x 1.346490 -0.216850 0.791430 
#    y -0.216850 4.012120 0.050510 
#    z 0.791430 0.050510 3.541990 
# 
# 
# High freq. dielectric constant tensor:
#      x y z
#    x 1.833790 0.006290 -0.015280 
#    y 0.006290 1.852310 -0.006560 
#    z -0.015280 -0.006560 1.858730 
# 
# From -- ./inp_files/36910.got.cif
#   From: 2010.06.25/outbox.cif.g09.slc.cpg/sg2_19_cif.got.tgz:36910.got - 2010.06.27 13:26:56.
