data_PCOD8022386
_publ_section_title
;
Structure prediction by ZEFSAII (Michael W. Deem and Ramdas Pophale) SiO2 
 PCOD8022386
Probable space group: P -1
;
_chemical_formula_sum "Si O2"
_cell_formula_units_Z 10
_cell_length_a 11.786330
_cell_length_b 11.127041
_cell_length_c 12.155820
_cell_angle_alpha 25.004201
_cell_angle_beta 35.750442
_cell_angle_gamma 37.413931
_cell_volume 382.390211
_symmetry_space_group_name_H-M "P -1"
_symmetry_group_IT_number 2
_symmetry_cell_setting 'triclinic'
loop_
_space_group_symop_operation_xyz
x,y,z
-x,-y,-z
loop_
_atom_site_type_symbol
_atom_site_label
_atom_site_fract_x
_atom_site_fract_y
_atom_site_fract_z
Si Si1 0.885992 0.939494 0.532474
Si Si2 0.415861 0.438303 0.278225
Si Si3 0.763833 0.112772 0.124330
Si Si4 0.965073 0.736509 0.047684
Si Si5 0.466920 0.299543 0.592623
O O1 0.959453 0.609998 0.708590
O O2 0.648720 0.011674 0.681290
O O3 0.000000 0.000000 0.500000
O O4 0.920402 0.155096 0.231131
O O5 0.626717 0.326531 0.144196
O O6 0.451895 0.492621 0.333194
O O7 0.279953 0.204082 0.571588
O O8 0.289585 0.740830 0.074766
O O9 0.989060 0.115688 0.993270
O O10 0.731164 0.818179 0.136591
O O11 0.500000 0.500000 0.500000
#
# Coordination Sequence:
#
# PCOD8022386 Si02
#       5
#     2   2   2   2   2
#     4  12  27  49  73 108 155 197 245 302 367 441
#     4  10  23  43  74 105 144 192 243 301 362 440
#     4  10  22  45  74 103 144 194 241 301 370 423
#     4  12  27  48  78 110 147 196 247 306 373 435
#     4  12  28  49  76 115 149 196 250 302 371 446
#
# _framework density 26.151299999999999
#
# number of rings (size 3 to 8) (size 9 to 14) (size 15 to 20)
#    0.000    0.800    4.000    1.800    5.600    5.600 
#    0.000    0.000    0.000    0.000    0.000    0.000 
#    0.000    0.000    0.000    0.000    0.000    0.000 
#
# Total GULP energy -124101.507401 kJ/mol
# GULP energy per Si atom -12410.150740 kJ/mol
# Density = 2.609178 g / cm^3
# Si number density = 26.151300 Si / 1000 Ang^3
#
#
#
# Elastic Constant Matrix: (Units=GPa)
#
#
# Indices 1 2 3 4 5 6 
#
# 1 214.4439 61.0544 34.1182 5.1463 -3.2357 10.5346
# 2 61.0544 126.7394 21.9510 1.3375 -9.8901 -23.4029
# 3 34.1182 21.9510 99.7583 -2.4385 2.5240 -7.1426
# 4 5.1463 1.3375 -2.4385 28.0371 0.0082 -1.7658
# 5 -3.2357 -9.8901 2.5240 0.0082 45.4033 10.8904
# 6 10.5346 -23.4029 -7.1426 -1.7658 10.8904 66.4448
#
#
#
# Elastic Compliance Matrix: (Units=1/GPa)
#
#
# Indices 1 2 3 4 5 6 
#
# 1 0.005894 -0.002936 -0.001570 -0.001219 0.000404 -0.002236
# 2 -0.002936 0.010268 -0.001009 0.000199 0.001175 0.003786
# 3 -0.001570 -0.001009 0.010942 0.001371 -0.001255 0.001312
# 4 -0.001219 0.000199 0.001371 0.036092 -0.000473 0.001448
# 5 0.000404 0.001175 -0.001255 -0.000473 0.023245 -0.003607
# 6 -0.002236 0.003786 0.001312 0.001448 -0.003607 0.017509
#
#
# Mechanical properties :
#
#
# Convention : Reuss Voigt Hill
#
# Bulk Modulus (GPa) = 62.20960 75.02097 68.61528
# Shear Modulus (GPa) = 41.54954 49.56490 45.55722
#
# Velocity S-wave (km/s) = 3.99032 4.35824 4.17833
# Velocity P-wave (km/s) = 6.71343 7.35359 7.04079
#
# Compressibility (1/GPa) = 0.01607469
#
# Stress axis : x y z
#
# Youngs Moduli (GPa) = 169.66124 97.38935 91.38774
#
# Poissons Ratio (x) = 0.28593 0.14347
# Poissons Ratio (y) = 0.49811 0.09222
# Poissons Ratio (z) = 0.26636 0.09827
#
# Static dielectric constant tensor:
#      x y z
#    x 5.264450 -0.100970 0.093270 
#    y -0.100970 5.341330 0.272030 
#    z 0.093270 0.272030 4.653480 
# 
# 
# High freq. dielectric constant tensor:
#      x y z
#    x 2.074400 -0.001710 -0.000180 
#    y -0.001710 2.088920 0.008680 
#    z -0.000180 0.008680 2.043390 
# 
# From -- ./inp_files/71371.got.cif
#   From: 2010.06.25/outbox.cif.g09.slc.cpg/sg2_36_cif.got.tgz:71371.got - 2010.06.27 13:26:56.
