data_PCOD8022105
_publ_section_title
;
Structure prediction by ZEFSAII (Michael W. Deem and Ramdas Pophale) SiO2 
 PCOD8022105
Probable space group: P -1
;
_chemical_formula_sum "Si O2"
_cell_formula_units_Z 14
_cell_length_a 8.799791
_cell_length_b 11.529372
_cell_length_c 9.712973
_cell_angle_alpha 81.506423
_cell_angle_beta 83.520665
_cell_angle_gamma 40.656126
_cell_volume 634.989571
_symmetry_space_group_name_H-M "P -1"
_symmetry_group_IT_number 2
_symmetry_cell_setting 'triclinic'
loop_
_space_group_symop_operation_xyz
x,y,z
-x,-y,-z
loop_
_atom_site_type_symbol
_atom_site_label
_atom_site_fract_x
_atom_site_fract_y
_atom_site_fract_z
Si Si1 0.043705 0.888338 0.174187
Si Si2 0.111217 0.588039 0.639136
Si Si3 0.026888 0.079006 0.366621
Si Si4 0.531121 0.822117 0.284260
Si Si5 0.621762 0.150939 0.988298
Si Si6 0.027215 0.309078 0.668217
Si Si7 0.150859 0.415941 0.137837
O O1 0.054270 0.778675 0.304045
O O2 0.294351 0.770477 0.096545
O O3 0.971229 0.050865 0.230846
O O4 0.851399 0.962857 0.068235
O O5 0.343660 0.378824 0.684767
O O6 0.142179 0.710203 0.635036
O O7 0.048511 0.594242 0.486911
O O8 0.904380 0.667641 0.750755
O O9 0.296765 0.962266 0.372517
O O10 0.000000 0.000000 0.500000
O O11 0.468921 0.880075 0.119826
O O12 0.694619 0.832227 0.320096
O O13 0.422158 0.274895 0.101303
O O14 0.908481 0.439098 0.787383
O O15 0.000000 0.500000 0.000000
#
# Coordination Sequence:
#
# PCOD8022105 Si02
#       7
#     2   2   2   2   2   2   2
#     4  10  24  43  64  98 137 175 225 284 336 399
#     4  11  24  44  69 102 136 174 227 286 336 397
#     4  11  24  45  66  96 136 180 228 267 346 409
#     4  10  23  43  67  98 132 176 224 284 332 398
#     4  10  22  45  61  98 137 174 228 273 339 402
#     4  11  23  43  68 101 136 171 227 284 340 398
#     4  11  22  41  69 102 130 179 230 271 339 407
#
# _framework density 22.047605999999998
#
# number of rings (size 3 to 8) (size 9 to 14) (size 15 to 20)
#    0.000    1.429    4.286    1.714    2.000    8.000 
#    5.143    0.000    0.000    0.000    0.000    0.000 
#    0.000    0.000    0.000    0.000    0.000    0.000 
#
# Total GULP energy -173515.402002 kJ/mol
# GULP energy per Si atom -12393.957286 kJ/mol
# Density = 2.199742 g / cm^3
# Si number density = 22.047606 Si / 1000 Ang^3
#
#
#
# Elastic Constant Matrix: (Units=GPa)
#
#
# Indices 1 2 3 4 5 6 
#
# 1 62.9175 12.8810 25.0844 -2.0008 -10.6137 9.4279
# 2 12.8810 42.8810 12.7213 2.4263 -4.1402 7.6626
# 3 25.0844 12.7213 128.8852 -3.0886 0.8855 -4.8337
# 4 -2.0008 2.4263 -3.0886 29.3888 -0.1213 -2.1533
# 5 -10.6137 -4.1402 0.8855 -0.1213 45.0696 0.7956
# 6 9.4279 7.6626 -4.8337 -2.1533 0.7956 46.9162
#
#
#
# Elastic Compliance Matrix: (Units=1/GPa)
#
#
# Indices 1 2 3 4 5 6 
#
# 1 0.019395 -0.003752 -0.003548 0.001006 0.004360 -0.003678
# 2 -0.003752 0.026074 -0.002069 -0.002903 0.001613 -0.003878
# 3 -0.003548 -0.002069 0.008762 0.000993 -0.001231 0.002020
# 4 0.001006 -0.002903 0.000993 0.034583 0.000009 0.001961
# 5 0.004360 0.001613 -0.001231 0.000009 0.023416 -0.001663
# 6 -0.003678 -0.003878 0.002020 0.001961 -0.001663 0.023014
#
#
# Mechanical properties :
#
#
# Convention : Reuss Voigt Hill
#
# Bulk Modulus (GPa) = 28.17562 37.33967 32.75765
# Shear Modulus (GPa) = 30.15415 36.54140 33.34778
#
# Velocity S-wave (km/s) = 3.70223 4.07552 3.89335
# Velocity P-wave (km/s) = 5.57517 6.25453 5.92460
#
# Compressibility (1/GPa) = 0.03549168
#
# Stress axis : x y z
#
# Youngs Moduli (GPa) = 51.55878 38.35171 114.13307
#
# Poissons Ratio (x) = 0.14390 0.40498
# Poissons Ratio (y) = 0.19346 0.23619
# Poissons Ratio (z) = 0.18295 0.07937
#
# Static dielectric constant tensor:
#      x y z
#    x 4.175150 -0.129130 -0.112060 
#    y -0.129130 3.703530 0.039370 
#    z -0.112060 0.039370 4.222150 
# 
# 
# High freq. dielectric constant tensor:
#      x y z
#    x 1.872600 -0.005170 -0.007430 
#    y -0.005170 1.835890 0.000280 
#    z -0.007430 0.000280 1.889770 
# 
# From -- ./inp_files/187559.got.cif
#   From: 2010.06.25/outbox.cif.g09.slc.cpg/sg2_94_cif.got.tgz:187559.got - 2010.06.27 13:26:56.
