data_PCOD8022258
_publ_section_title
;
Structure prediction by ZEFSAII (Michael W. Deem and Ramdas Pophale) SiO2 
 PCOD8022258
Probable space group: P -1
;
_chemical_formula_sum "Si O2"
_cell_formula_units_Z 16
_cell_length_a 15.117495
_cell_length_b 27.466991
_cell_length_c 9.342864
_cell_angle_alpha 38.100898
_cell_angle_beta 45.747142
_cell_angle_gamma 18.415276
_cell_volume 732.126586
_symmetry_space_group_name_H-M "P -1"
_symmetry_group_IT_number 2
_symmetry_cell_setting 'triclinic'
loop_
_space_group_symop_operation_xyz
x,y,z
-x,-y,-z
loop_
_atom_site_type_symbol
_atom_site_label
_atom_site_fract_x
_atom_site_fract_y
_atom_site_fract_z
Si Si1 0.768673 0.465200 0.561232
Si Si2 0.326191 0.332712 0.988535
Si Si3 0.426273 0.112234 0.717834
Si Si4 0.828161 0.108225 0.091103
Si Si5 0.372939 0.997962 0.574416
Si Si6 0.953275 0.208358 0.785893
Si Si7 0.745621 0.034603 0.743229
Si Si8 0.255888 0.793095 0.561852
O O1 0.638468 0.617428 0.279213
O O2 0.765238 0.390187 0.637300
O O3 0.539261 0.581791 0.677626
O O4 0.085676 0.306182 0.624305
O O5 0.507018 0.255863 0.102010
O O6 0.464464 0.171809 0.150274
O O7 0.000000 0.500000 0.000000
O O8 0.606405 0.006447 0.610395
O O9 0.519728 0.135274 0.647019
O O10 0.500000 0.000000 0.000000
O O11 0.782606 0.224470 0.927215
O O12 0.008447 0.951652 0.358194
O O13 0.000000 0.000000 0.000000
O O14 0.500000 0.000000 0.500000
O O15 0.048779 0.177247 0.588259
O O16 0.232260 0.033516 0.981869
O O17 0.085939 0.837929 0.765342
O O18 0.634829 0.186817 0.545260
#
# Coordination Sequence:
#
# PCOD8022258 Si02
#       8
#     2   2   2   2   2   2   2   2
#     4  12  24  42  69 105 141 172 237 293 333 402
#     4  12  23  40  65 102 136 170 225 287 331 403
#     4  12  24  42  70 100 138 187 223 277 348 413
#     4  11  21  41  68  95 135 182 225 274 354 408
#     4  12  22  42  72  99 141 184 223 278 351 411
#     4  11  23  43  70 100 137 184 229 284 344 412
#     4  10  22  45  69  92 135 184 233 270 356 417
#     4  10  23  42  70  95 131 184 228 293 339 408
#
# _framework density 21.854144000000002
#
# number of rings (size 3 to 8) (size 9 to 14) (size 15 to 20)
#    0.000    0.750    6.250    1.500    0.000    1.500 
#    0.000    1.250    5.500    0.000    0.000    0.000 
#    0.000    0.000    0.000    0.000    0.000    0.000 
#
# Total GULP energy -198267.065592 kJ/mol
# GULP energy per Si atom -12391.691599 kJ/mol
# Density = 2.180440 g / cm^3
# Si number density = 21.854144 Si / 1000 Ang^3
#
#
#
# Elastic Constant Matrix: (Units=GPa)
#
#
# Indices 1 2 3 4 5 6 
#
# 1 160.4270 54.5518 38.1646 -15.7891 -2.5418 -3.4857
# 2 54.5518 135.9921 17.1623 -0.1653 -0.7974 13.7811
# 3 38.1646 17.1623 88.8561 -0.0778 -5.9503 10.4132
# 4 -15.7891 -0.1653 -0.0778 25.4989 8.1838 0.3845
# 5 -2.5418 -0.7974 -5.9503 8.1838 39.1549 -3.8640
# 6 -3.4857 13.7811 10.4132 0.3845 -3.8640 36.0756
#
#
#
# Elastic Compliance Matrix: (Units=1/GPa)
#
#
# Indices 1 2 3 4 5 6 
#
# 1 0.008849 -0.003406 -0.003554 0.005699 -0.000928 0.003022
# 2 -0.003406 0.009085 0.000156 -0.002001 0.000029 -0.003820
# 3 -0.003554 0.000156 0.013351 -0.002733 0.001976 -0.004016
# 4 0.005699 -0.002001 -0.002733 0.045797 -0.009600 0.000588
# 5 -0.000928 0.000029 0.001976 -0.009600 0.028027 0.002433
# 6 0.003022 -0.003820 -0.004016 0.000588 0.002433 0.030884
#
#
# Mechanical properties :
#
#
# Convention : Reuss Voigt Hill
#
# Bulk Modulus (GPa) = 56.57112 67.22582 61.89847
# Shear Modulus (GPa) = 32.15581 38.50566 35.33074
#
# Velocity S-wave (km/s) = 3.84002 4.20210 4.02513
# Velocity P-wave (km/s) = 6.75300 7.37370 7.07016
#
# Compressibility (1/GPa) = 0.01767687
#
# Stress axis : x y z
#
# Youngs Moduli (GPa) = 113.01001 110.07476 74.90003
#
# Poissons Ratio (x) = 0.37489 0.26620
# Poissons Ratio (y) = 0.38489 -0.01168
# Poissons Ratio (z) = 0.40165 -0.01717
#
# Static dielectric constant tensor:
#      x y z
#    x 5.082080 -0.235950 0.686840 
#    y -0.235950 4.285340 0.051790 
#    z 0.686840 0.051790 4.684380 
# 
# 
# High freq. dielectric constant tensor:
#      x y z
#    x 1.875280 0.001600 -0.010340 
#    y 0.001600 1.845670 0.019500 
#    z -0.010340 0.019500 1.858240 
# 
# From -- ./inp_files/320649.got.cif
#   From: 2010.06.25/outbox.cif.g09.slc.cpg/sg2_161_cif.got.tgz:320649.got - 2010.06.27 13:26:56.
