data_PCOD8022379
_publ_section_title
;
Structure prediction by ZEFSAII (Michael W. Deem and Ramdas Pophale) SiO2 
 PCOD8022379
Probable space group: P -1
;
_chemical_formula_sum "Si O2"
_cell_formula_units_Z 14
_cell_length_a 7.006733
_cell_length_b 17.418393
_cell_length_c 6.797601
_cell_angle_alpha 52.429819
_cell_angle_beta 65.758777
_cell_angle_gamma 80.916581
_cell_volume 594.654087
_symmetry_space_group_name_H-M "P -1"
_symmetry_group_IT_number 2
_symmetry_cell_setting 'triclinic'
loop_
_space_group_symop_operation_xyz
x,y,z
-x,-y,-z
loop_
_atom_site_type_symbol
_atom_site_label
_atom_site_fract_x
_atom_site_fract_y
_atom_site_fract_z
Si Si1 0.682848 0.785511 0.620067
Si Si2 0.439412 0.049664 0.145265
Si Si3 0.210769 0.707272 0.972257
Si Si4 0.145450 0.173677 0.918676
Si Si5 0.892997 0.445959 0.441530
Si Si6 0.093225 0.380361 0.074911
Si Si7 0.198639 0.988735 0.690051
O O1 0.777699 0.763946 0.401139
O O2 0.766417 0.708549 0.854847
O O3 0.771063 0.895989 0.462179
O O4 0.430336 0.772399 0.732229
O O5 0.262922 0.976907 0.452283
O O6 0.649223 0.071652 0.152395
O O7 0.352920 0.154412 0.985379
O O8 0.500000 0.000000 0.000000
O O9 0.249455 0.645254 0.251655
O O10 0.025141 0.774200 0.975697
O O11 0.129920 0.644048 0.911610
O O12 0.038144 0.061904 0.087600
O O13 0.000000 0.500000 0.500000
O O14 0.052687 0.406451 0.278201
O O15 0.777620 0.525552 0.241506
#
# Coordination Sequence:
#
# PCOD8022379 Si02
#       7
#     2   2   2   2   2   2   2
#     4  12  25  43  68 102 133 181 233 271 334 404
#     4  11  23  40  65  91 121 175 233 275 333 392
#     4  11  24  44  67 102 139 172 226 278 331 401
#     4  12  25  44  68  94 140 184 225 287 329 382
#     4   9  20  45  75 102 135 172 215 274 338 408
#     4  10  22  45  73  99 138 175 214 277 341 398
#     4  11  25  45  63  95 137 181 234 280 328 386
#
# _framework density 23.543099000000002
#
# number of rings (size 3 to 8) (size 9 to 14) (size 15 to 20)
#    0.000    1.143    2.857    3.429    0.000    2.857 
#    5.143    6.429    0.000    0.000    0.000    0.000 
#    0.000    0.000    0.000    0.000    0.000    0.000 
#
# Total GULP energy -173451.748549 kJ/mol
# GULP energy per Si atom -12389.410611 kJ/mol
# Density = 2.348951 g / cm^3
# Si number density = 23.543099 Si / 1000 Ang^3
#
#
#
# Elastic Constant Matrix: (Units=GPa)
#
#
# Indices 1 2 3 4 5 6 
#
# 1 70.5784 41.9884 49.6054 -7.8397 10.9663 -21.8848
# 2 41.9884 109.9319 51.3673 -7.0148 3.1509 -11.2596
# 3 49.6054 51.3673 138.8031 8.6553 12.1204 -11.7634
# 4 -7.8397 -7.0148 8.6553 47.4625 -10.4918 9.8577
# 5 10.9663 3.1509 12.1204 -10.4918 37.1384 -4.6288
# 6 -21.8848 -11.2596 -11.7634 9.8577 -4.6288 29.3754
#
#
#
# Elastic Compliance Matrix: (Units=1/GPa)
#
#
# Indices 1 2 3 4 5 6 
#
# 1 0.027071 -0.005872 -0.006013 0.000890 -0.003454 0.014667
# 2 -0.005872 0.012714 -0.003019 0.002155 0.002112 -0.001101
# 3 -0.006013 -0.003019 0.010921 -0.003951 -0.002694 -0.000361
# 4 0.000890 0.002155 -0.003951 0.025377 0.007079 -0.007493
# 5 -0.003454 0.002112 -0.002694 0.007079 0.030597 -0.000397
# 6 0.014667 -0.001101 -0.000361 -0.007493 -0.000397 0.046854
#
#
# Mechanical properties :
#
#
# Convention : Reuss Voigt Hill
#
# Bulk Modulus (GPa) = 47.84725 67.24837 57.54781
# Shear Modulus (GPa) = 26.27321 34.55211 30.41266
#
# Velocity S-wave (km/s) = 3.34423 3.83510 3.59804
# Velocity P-wave (km/s) = 5.93963 6.94526 6.46203
#
# Compressibility (1/GPa) = 0.02089984
#
# Stress axis : x y z
#
# Youngs Moduli (GPa) = 36.93928 78.65197 91.56407
#
# Poissons Ratio (x) = 0.46188 0.55053
# Poissons Ratio (y) = 0.21692 0.27640
# Poissons Ratio (z) = 0.22210 0.23742
#
# Static dielectric constant tensor:
#      x y z
#    x 4.043180 -0.053220 0.252070 
#    y -0.053220 4.243950 -0.096330 
#    z 0.252070 -0.096330 4.987690 
# 
# 
# High freq. dielectric constant tensor:
#      x y z
#    x 1.901530 -0.012320 0.020850 
#    y -0.012320 1.933340 0.001610 
#    z 0.020850 0.001610 1.956530 
# 
# From -- ./inp_files/41528.got.cif
#   From: 2010.06.25/outbox.cif.g09.slc.cpg/sg2_21_cif.got.tgz:41528.got - 2010.06.27 13:26:56.
