data_PCOD8022092
_publ_section_title
;
Structure prediction by ZEFSAII (Michael W. Deem and Ramdas Pophale) SiO2 
 PCOD8022092
Probable space group: P -1
;
_chemical_formula_sum "Si O2"
_cell_formula_units_Z 16
_cell_length_a 8.663455
_cell_length_b 11.270187
_cell_length_c 8.930233
_cell_angle_alpha 68.926176
_cell_angle_beta 80.476305
_cell_angle_gamma 52.840287
_cell_volume 646.847047
_symmetry_space_group_name_H-M "P -1"
_symmetry_group_IT_number 2
_symmetry_cell_setting 'triclinic'
loop_
_space_group_symop_operation_xyz
x,y,z
-x,-y,-z
loop_
_atom_site_type_symbol
_atom_site_label
_atom_site_fract_x
_atom_site_fract_y
_atom_site_fract_z
Si Si1 0.804070 0.639186 0.045003
Si Si2 0.201032 0.408881 0.587284
Si Si3 0.726022 0.333074 0.601903
Si Si4 0.481429 0.735641 0.850080
Si Si5 0.957229 0.776217 0.778026
Si Si6 0.322504 0.174461 0.434641
Si Si7 0.044742 0.997520 0.820756
Si Si8 0.380379 0.568999 0.731353
O O1 0.816902 0.624575 0.225355
O O2 0.597536 0.669264 0.019504
O O3 0.812895 0.782935 0.921482
O O4 0.000000 0.500000 0.000000
O O5 0.279766 0.512236 0.498692
O O6 0.317319 0.238875 0.569448
O O7 0.000000 0.500000 0.500000
O O8 0.926812 0.178248 0.700905
O O9 0.552508 0.391031 0.724863
O O10 0.675818 0.305501 0.454565
O O11 0.640447 0.730496 0.729566
O O12 0.456339 0.607511 0.845748
O O13 0.276436 0.909094 0.811975
O O14 0.864920 0.811518 0.608371
O O15 0.172864 0.603704 0.801291
O O16 0.984999 0.907928 0.766382
O O17 0.500000 0.000000 0.500000
O O18 0.000000 0.000000 0.000000
#
# Coordination Sequence:
#
# PCOD8022092 Si02
#       8
#     2   2   2   2   2   2   2   2
#     4  11  25  47  79 109 152 191 253 312 375 449
#     4  12  26  46  77 110 147 196 252 311 366 443
#     4  11  25  44  74 113 144 189 255 302 373 438
#     4  10  24  47  70 107 145 196 242 302 375 442
#     4  10  25  48  70 111 145 195 243 302 377 438
#     4  11  25  43  74 108 148 198 251 304 372 440
#     4  11  28  46  75 107 155 197 244 309 379 450
#     4  10  22  44  75 105 146 191 242 310 364 440
#
# _framework density 24.735367
#
# number of rings (size 3 to 8) (size 9 to 14) (size 15 to 20)
#    0.000    1.250    1.250    3.000    7.000    5.000 
#    0.000    6.875    0.000    0.000    0.000    0.000 
#    0.000    0.000    0.000    0.000    0.000    0.000 
#
# Total GULP energy -198228.333229 kJ/mol
# GULP energy per Si atom -12389.270827 kJ/mol
# Density = 2.467907 g / cm^3
# Si number density = 24.735367 Si / 1000 Ang^3
#
#
#
# Elastic Constant Matrix: (Units=GPa)
#
#
# Indices 1 2 3 4 5 6 
#
# 1 141.6078 49.3788 57.1718 7.6897 19.1339 -19.0778
# 2 49.3788 148.9535 66.3886 5.8450 21.6141 -16.8878
# 3 57.1718 66.3886 161.7625 13.7537 19.7397 -8.4052
# 4 7.6897 5.8450 13.7537 43.4926 -13.4531 8.0612
# 5 19.1339 21.6141 19.7397 -13.4531 40.4816 -5.8160
# 6 -19.0778 -16.8878 -8.4052 8.0612 -5.8160 36.6486
#
#
#
# Elastic Compliance Matrix: (Units=1/GPa)
#
#
# Indices 1 2 3 4 5 6 
#
# 1 0.009386 -0.001219 -0.002022 -0.002537 -0.003078 0.003930
# 2 -0.001219 0.009144 -0.002645 -0.001683 -0.003168 0.002840
# 3 -0.002022 -0.002645 0.008552 -0.002821 -0.002758 -0.000127
# 4 -0.002537 -0.001683 -0.002821 0.029722 0.012298 -0.007329
# 5 -0.003078 -0.003168 -0.002758 0.012298 0.033116 -0.001144
# 6 0.003930 0.002840 -0.000127 -0.007329 -0.001144 0.032042
#
#
# Mechanical properties :
#
#
# Convention : Reuss Voigt Hill
#
# Bulk Modulus (GPa) = 65.30936 88.68913 76.99925
# Shear Modulus (GPa) = 36.01363 42.75022 39.38193
#
# Velocity S-wave (km/s) = 3.81984 4.16180 3.99448
# Velocity P-wave (km/s) = 6.77609 7.68291 7.24371
#
# Compressibility (1/GPa) = 0.01531174
#
# Stress axis : x y z
#
# Youngs Moduli (GPa) = 106.54020 109.36108 116.93638
#
# Poissons Ratio (x) = 0.13327 0.23640
# Poissons Ratio (y) = 0.12983 0.30927
# Poissons Ratio (z) = 0.21538 0.28924
#
# Static dielectric constant tensor:
#      x y z
#    x 4.822500 -0.236130 -0.114630 
#    y -0.236130 4.435330 0.104630 
#    z -0.114630 0.104630 4.417170 
# 
# 
# High freq. dielectric constant tensor:
#      x y z
#    x 2.001570 -0.014330 0.005970 
#    y -0.014330 1.974360 0.006280 
#    z 0.005970 0.006280 2.002210 
# 
# From -- ./inp_files/186691.got.cif
#   From: 2010.06.25/outbox.cif.g09.slc.cpg/sg2_94_cif.got.tgz:186691.got - 2010.06.27 13:26:56.
