data_PCOD8022471
_publ_section_title
;
Structure prediction by ZEFSAII (Michael W. Deem and Ramdas Pophale) SiO2 
 PCOD8022471
Probable space group: P -1
;
_chemical_formula_sum "Si O2"
_cell_formula_units_Z 16
_cell_length_a 16.582547
_cell_length_b 11.036293
_cell_length_c 20.106890
_cell_angle_alpha 135.173206
_cell_angle_beta 159.826822
_cell_angle_gamma 36.090038
_cell_volume 725.182830
_symmetry_space_group_name_H-M "P -1"
_symmetry_group_IT_number 2
_symmetry_cell_setting 'triclinic'
loop_
_space_group_symop_operation_xyz
x,y,z
-x,-y,-z
loop_
_atom_site_type_symbol
_atom_site_label
_atom_site_fract_x
_atom_site_fract_y
_atom_site_fract_z
Si Si1 0.897592 0.023505 0.158664
Si Si2 0.961422 0.204562 0.515107
Si Si3 0.316246 0.371552 0.901908
Si Si4 0.233969 0.067564 0.171375
Si Si5 0.278810 0.955245 0.541239
Si Si6 0.268230 0.282368 0.101321
Si Si7 0.013612 0.146395 0.167275
Si Si8 0.335515 0.457314 0.099143
O O1 0.091425 0.024265 0.250218
O O2 0.778419 0.896433 0.989266
O O3 0.614082 0.256938 0.046774
O O4 0.095580 0.911383 0.333464
O O5 0.155976 0.258544 0.725457
O O6 0.631457 0.416448 0.340022
O O7 0.000000 0.000000 0.500000
O O8 0.065255 0.160165 0.501090
O O9 0.118103 0.614594 0.820794
O O10 0.389285 0.359107 0.030523
O O11 0.518228 0.019218 0.339252
O O12 0.213379 0.878462 0.057974
O O13 0.271719 0.059118 0.278588
O O14 0.940203 0.298055 0.013251
O O15 0.467761 0.764426 0.666150
O O16 0.307508 0.298062 0.060106
O O17 0.000000 0.500000 0.000000
#
# Coordination Sequence:
#
# PCOD8022471 Si02
#       8
#     2   2   2   2   2   2   2   2
#     4  12  24  42  69  98 135 174 222 274 330 387
#     4  12  24  42  67  99 137 173 219 271 332 395
#     4  11  24  43  68 100 131 175 223 272 328 391
#     4  10  22  47  69  93 136 174 218 279 331 386
#     4  12  24  42  67 100 131 175 221 264 337 389
#     4  12  24  44  68  96 140 175 215 273 332 393
#     4  10  22  46  69  90 133 177 222 275 328 386
#     4  11  23  42  69 100 132 175 219 271 332 392
#
# _framework density 22.063400999999999
#
# number of rings (size 3 to 8) (size 9 to 14) (size 15 to 20)
#    0.000    0.750    6.250    0.375    1.750    2.000 
#   15.750    1.250    0.000    0.000    0.000    0.000 
#    0.000    0.000    0.000    0.000    0.000    0.000 
#
# Total GULP energy -198248.610242 kJ/mol
# GULP energy per Si atom -12390.538140 kJ/mol
# Density = 2.201318 g / cm^3
# Si number density = 22.063401 Si / 1000 Ang^3
#
#
#
# Elastic Constant Matrix: (Units=GPa)
#
#
# Indices 1 2 3 4 5 6 
#
# 1 140.1431 27.3422 14.4432 3.1185 1.6365 4.3377
# 2 27.3422 87.8515 20.9072 5.4678 1.2433 -3.6956
# 3 14.4432 20.9072 79.5853 6.1775 -3.0206 -0.5861
# 4 3.1185 5.4678 6.1775 22.2757 -5.6464 -0.2539
# 5 1.6365 1.2433 -3.0206 -5.6464 43.1817 -3.5843
# 6 4.3377 -3.6956 -0.5861 -0.2539 -3.5843 31.4905
#
#
#
# Elastic Compliance Matrix: (Units=1/GPa)
#
#
# Indices 1 2 3 4 5 6 
#
# 1 0.007713 -0.002233 -0.000807 -0.000440 -0.000458 -0.001395
# 2 -0.002233 0.012973 -0.002842 -0.002226 -0.000639 0.001687
# 3 -0.000807 -0.002842 0.013704 -0.002809 0.000711 0.000091
# 4 -0.000440 -0.002226 -0.002809 0.047863 0.006213 0.000840
# 5 -0.000458 -0.000639 0.000711 0.006213 0.024290 0.002816
# 6 -0.001395 0.001687 0.000091 0.000840 0.002816 0.032475
#
#
# Mechanical properties :
#
#
# Convention : Reuss Voigt Hill
#
# Bulk Modulus (GPa) = 44.19678 48.10725 46.15202
# Shear Modulus (GPa) = 31.58126 35.71541 33.64833
#
# Velocity S-wave (km/s) = 3.78747 4.02775 3.90946
# Velocity P-wave (km/s) = 6.26113 6.59407 6.42976
#
# Compressibility (1/GPa) = 0.02262608
#
# Stress axis : x y z
#
# Youngs Moduli (GPa) = 129.65582 77.08468 72.97310
#
# Poissons Ratio (x) = 0.17216 0.05885
# Poissons Ratio (y) = 0.28957 0.20737
# Poissons Ratio (z) = 0.10457 0.21905
#
# Static dielectric constant tensor:
#      x y z
#    x 4.382390 -0.196840 0.063810 
#    y -0.196840 3.728980 -0.079860 
#    z 0.063810 -0.079860 3.927470 
# 
# 
# High freq. dielectric constant tensor:
#      x y z
#    x 1.899090 -0.011630 0.001890 
#    y -0.011630 1.848580 -0.003430 
#    z 0.001890 -0.003430 1.857830 
# 
# From -- ./inp_files/600103.got.cif
#   From: 2010.06.25/outbox.cif.g09.slc.cpg/sg2_301_cif.got.tgz:600103.got - 2010.06.27 13:26:56.
