data_PCOD8022273
_publ_section_title
;
Structure prediction by ZEFSAII (Michael W. Deem and Ramdas Pophale) SiO2 
 PCOD8022273
Probable space group: P -1
;
_chemical_formula_sum "Si O2"
_cell_formula_units_Z 10
_cell_length_a 6.352612
_cell_length_b 8.898653
_cell_length_c 15.329489
_cell_angle_alpha 41.807340
_cell_angle_beta 49.634105
_cell_angle_gamma 68.498375
_cell_volume 428.468031
_symmetry_space_group_name_H-M "P -1"
_symmetry_group_IT_number 2
_symmetry_cell_setting 'triclinic'
loop_
_space_group_symop_operation_xyz
x,y,z
-x,-y,-z
loop_
_atom_site_type_symbol
_atom_site_label
_atom_site_fract_x
_atom_site_fract_y
_atom_site_fract_z
Si Si1 0.454907 0.877985 0.843071
Si Si2 0.885283 0.976158 0.381426
Si Si3 0.247774 0.281564 0.646985
Si Si4 0.443441 0.693656 0.740157
Si Si5 0.357360 0.744806 0.116611
O O1 0.412207 0.704559 0.848080
O O2 0.282371 0.076073 0.790606
O O3 0.330523 0.734685 0.023726
O O4 0.782929 0.002340 0.714154
O O5 0.744644 0.799315 0.419660
O O6 0.738122 0.871023 0.556405
O O7 0.817329 0.228653 0.271765
O O8 0.500000 0.500000 0.500000
O O9 0.951222 0.347401 0.719135
O O10 0.447989 0.429543 0.829145
O O11 0.500000 0.000000 0.000000
#
# Coordination Sequence:
#
# PCOD8022273 Si02
#       5
#     2   2   2   2   2
#     4  11  23  45  66  98 136 173 223 270 335 391
#     4  10  22  45  69  98 131 177 228 270 322 398
#     4  11  25  43  70  99 133 177 223 274 328 393
#     4  10  24  42  68  98 132 180 220 270 327 399
#     4  12  25  44  67 101 138 174 214 279 337 387
#
# _framework density 23.338961999999999
#
# number of rings (size 3 to 8) (size 9 to 14) (size 15 to 20)
#    0.000    1.200    2.000    3.000    2.800    5.600 
#    3.600    0.000    0.000    0.000    0.000    0.000 
#    0.000    0.000    0.000    0.000    0.000    0.000 
#
# Total GULP energy -124050.317289 kJ/mol
# GULP energy per Si atom -12405.031729 kJ/mol
# Density = 2.328584 g / cm^3
# Si number density = 23.338962 Si / 1000 Ang^3
#
#
#
# Elastic Constant Matrix: (Units=GPa)
#
#
# Indices 1 2 3 4 5 6 
#
# 1 44.9639 26.9315 0.1346 -11.6140 6.9209 -9.2823
# 2 26.9315 122.2737 42.4010 -13.0440 15.6876 -19.5187
# 3 0.1346 42.4010 67.4107 1.5713 8.2797 3.2141
# 4 -11.6140 -13.0440 1.5713 50.3967 -2.4715 3.1967
# 5 6.9209 15.6876 8.2797 -2.4715 45.5998 -0.7274
# 6 -9.2823 -19.5187 3.2141 3.1967 -0.7274 21.2984
#
#
#
# Elastic Compliance Matrix: (Units=1/GPa)
#
#
# Indices 1 2 3 4 5 6 
#
# 1 0.028423 -0.005716 0.003480 0.004461 -0.002644 0.005864
# 2 -0.005716 0.015526 -0.010132 0.002087 -0.002316 0.012874
# 3 0.003480 -0.010132 0.021921 -0.001880 -0.001297 -0.010839
# 4 0.004461 0.002087 -0.001880 0.021416 0.000122 0.000930
# 5 -0.002644 -0.002316 -0.001297 0.000122 0.023333 -0.002300
# 6 0.005864 0.012874 -0.010839 0.000930 -0.002300 0.062723
#
#
# Mechanical properties :
#
#
# Convention : Reuss Voigt Hill
#
# Bulk Modulus (GPa) = 24.31171 41.50917 32.91044
# Shear Modulus (GPa) = 23.60833 34.47106 29.03969
#
# Velocity S-wave (km/s) = 3.18392 3.84731 3.53123
# Velocity P-wave (km/s) = 4.89448 6.12860 5.54597
#
# Compressibility (1/GPa) = 0.04113244
#
# Stress axis : x y z
#
# Youngs Moduli (GPa) = 35.18290 64.40951 45.61919
#
# Poissons Ratio (x) = 0.36815 -0.15874
# Poissons Ratio (y) = 0.20110 0.46222
# Poissons Ratio (z) = -0.12242 0.65261
#
# Static dielectric constant tensor:
#      x y z
#    x 4.244510 -0.246090 0.253640 
#    y -0.246090 4.513570 0.261170 
#    z 0.253640 0.261170 4.070300 
# 
# 
# High freq. dielectric constant tensor:
#      x y z
#    x 1.920470 -0.015080 0.015210 
#    y -0.015080 1.937070 0.010790 
#    z 0.015210 0.010790 1.918510 
# 
# From -- ./inp_files/15118.got.cif
#   From: 2010.06.25/outbox.cif.g09.slc.cpg/sg2_8_cif.got.tgz:15118.got - 2010.06.27 13:26:56.
