data_PCOD8022011
_publ_section_title
;
Structure prediction by ZEFSAII (Michael W. Deem and Ramdas Pophale) SiO2 
 PCOD8022011
Probable space group: P -1
;
_chemical_formula_sum "Si O2"
_cell_formula_units_Z 14
_cell_length_a 20.329845
_cell_length_b 25.514268
_cell_length_c 12.343226
_cell_angle_alpha 152.681827
_cell_angle_beta 26.197949
_cell_angle_gamma 167.345575
_cell_volume 613.590863
_symmetry_space_group_name_H-M "P -1"
_symmetry_group_IT_number 2
_symmetry_cell_setting 'triclinic'
loop_
_space_group_symop_operation_xyz
x,y,z
-x,-y,-z
loop_
_atom_site_type_symbol
_atom_site_label
_atom_site_fract_x
_atom_site_fract_y
_atom_site_fract_z
Si Si1 0.699072 0.047089 0.721496
Si Si2 0.317707 0.850667 0.729749
Si Si3 0.638989 0.408942 0.618525
Si Si4 0.427654 0.453400 0.858843
Si Si5 0.799382 0.347863 0.677565
Si Si6 0.583918 0.492356 0.471203
Si Si7 0.727656 0.941499 0.910375
O O1 0.061334 0.314409 0.702755
O O2 0.622583 0.019113 0.656934
O O3 0.614794 0.859417 0.529111
O O4 0.500000 0.000000 0.000000
O O5 0.359148 0.836441 0.519454
O O6 0.001577 0.586414 0.764561
O O7 0.288645 0.967940 0.987163
O O8 0.649499 0.510139 0.694159
O O9 0.983095 0.584969 0.444680
O O10 0.540734 0.401995 0.864953
O O11 0.536518 0.542391 0.737101
O O12 0.069873 0.168171 0.874969
O O13 0.524911 0.217934 0.913675
O O14 0.500000 0.500000 0.500000
O O15 0.348050 0.226733 0.349436
#
# Coordination Sequence:
#
# PCOD8022011 Si02
#       7
#     2   2   2   2   2   2   2
#     4  11  26  45  70 100 137 178 231 289 343 409
#     4  10  23  40  72 104 134 175 225 293 343 400
#     4  10  23  46  69 101 136 180 228 291 340 413
#     4  11  26  43  69 101 140 183 233 278 347 421
#     4  10  22  44  72 103 138 172 237 287 344 405
#     4  12  29  45  67  99 142 191 227 283 351 413
#     4  12  25  43  73 100 137 185 228 289 339 416
#
# _framework density 22.816507000000001
#
# number of rings (size 3 to 8) (size 9 to 14) (size 15 to 20)
#    0.000    1.143    1.429    3.429    8.000    2.286 
#    0.000    0.000    0.000    0.000    0.000    0.000 
#    0.000    0.000    0.000    0.000    0.000    0.000 
#
# Total GULP energy -173690.151613 kJ/mol
# GULP energy per Si atom -12406.439401 kJ/mol
# Density = 2.276458 g / cm^3
# Si number density = 22.816507 Si / 1000 Ang^3
#
#
#
# Elastic Constant Matrix: (Units=GPa)
#
#
# Indices 1 2 3 4 5 6 
#
# 1 113.8169 27.1584 26.9161 -8.3166 0.7604 9.0616
# 2 27.1584 96.9707 34.4549 -2.5978 0.7972 13.1796
# 3 26.9161 34.4549 102.9161 11.4388 6.0307 -6.0861
# 4 -8.3166 -2.5978 11.4388 47.4776 -5.2248 1.7683
# 5 0.7604 0.7972 6.0307 -5.2248 35.3745 -2.7009
# 6 9.0616 13.1796 -6.0861 1.7683 -2.7009 30.1094
#
#
#
# Elastic Compliance Matrix: (Units=1/GPa)
#
#
# Indices 1 2 3 4 5 6 
#
# 1 0.010184 -0.001417 -0.002675 0.002511 0.000403 -0.003097
# 2 -0.001417 0.013296 -0.004688 0.001883 0.000318 -0.006423
# 3 -0.002675 -0.004688 0.012921 -0.004292 -0.002252 0.005519
# 4 0.002511 0.001883 -0.004292 0.023186 0.003795 -0.003469
# 5 0.000403 0.000318 -0.002252 0.003795 0.029327 0.001692
# 6 -0.003097 -0.006423 0.005519 -0.003469 0.001692 0.038427
#
#
# Mechanical properties :
#
#
# Convention : Reuss Voigt Hill
#
# Bulk Modulus (GPa) = 53.07721 54.52917 53.80319
# Shear Modulus (GPa) = 33.07273 37.60392 35.33833
#
# Velocity S-wave (km/s) = 3.81137 4.06409 3.93976
# Velocity P-wave (km/s) = 6.53314 6.78036 6.65790
#
# Compressibility (1/GPa) = 0.01884048
#
# Stress axis : x y z
#
# Youngs Moduli (GPa) = 98.19303 75.21076 77.39207
#
# Poissons Ratio (x) = 0.10657 0.20702
# Poissons Ratio (y) = 0.13914 0.36285
# Poissons Ratio (z) = 0.26266 0.35262
#
# Static dielectric constant tensor:
#      x y z
#    x 4.169100 0.253990 0.041860 
#    y 0.253990 4.100170 0.213530 
#    z 0.041860 0.213530 4.209980 
# 
# 
# High freq. dielectric constant tensor:
#      x y z
#    x 1.904730 0.012280 -0.000750 
#    y 0.012280 1.896270 0.006610 
#    z -0.000750 0.006610 1.909930 
# 
# From -- ./inp_files/543480.got.cif
#   From: 2010.06.25/outbox.cif.g09.slc.cpg/sg2_272_cif.got.tgz:543480.got - 2010.06.27 13:26:56.
