data_PCOD8022900
_publ_section_title
;
Structure prediction by ZEFSAII (Michael W. Deem and Ramdas Pophale) SiO2 
 PCOD8022900
Probable space group: P -1
;
_chemical_formula_sum "Si O2"
_cell_formula_units_Z 16
_cell_length_a 8.783512
_cell_length_b 15.877156
_cell_length_c 14.891613
_cell_angle_alpha 36.126756
_cell_angle_beta 129.803245
_cell_angle_gamma 102.162244
_cell_volume 692.786264
_symmetry_space_group_name_H-M "P -1"
_symmetry_group_IT_number 2
_symmetry_cell_setting 'triclinic'
loop_
_space_group_symop_operation_xyz
x,y,z
-x,-y,-z
loop_
_atom_site_type_symbol
_atom_site_label
_atom_site_fract_x
_atom_site_fract_y
_atom_site_fract_z
Si Si1 0.817842 0.812702 0.274309
Si Si2 0.302178 0.736107 0.607596
Si Si3 0.622301 0.661247 0.424921
Si Si4 0.681273 0.310481 0.053833
Si Si5 0.693675 0.981214 0.710518
Si Si6 0.195253 0.038874 0.033803
Si Si7 0.264946 0.671930 0.140795
Si Si8 0.717966 0.055094 0.412178
O O1 0.853552 0.631857 0.479808
O O2 0.910896 0.790811 0.224501
O O3 0.003829 0.826482 0.391408
O O4 0.500000 0.000000 0.000000
O O5 0.269597 0.818879 0.622534
O O6 0.415032 0.803224 0.523306
O O7 0.523880 0.502480 0.890008
O O8 0.399062 0.710946 0.229565
O O9 0.740453 0.484448 0.686639
O O10 0.487626 0.842468 0.283579
O O11 0.610969 0.183168 0.169579
O O12 0.590250 0.381434 0.854826
O O13 0.003989 0.164465 0.312590
O O14 0.486796 0.964091 0.612442
O O15 0.786233 0.894849 0.920099
O O16 0.951552 0.861680 0.844266
O O17 0.000000 0.000000 0.000000
#
# Coordination Sequence:
#
# PCOD8022900 Si02
#       8
#     2   2   2   2   2   2   2   2
#     4  10  23  39  71 102 137 186 225 284 351 420
#     4  12  24  48  73  99 143 184 234 288 351 412
#     4  10  23  40  65 102 140 181 222 284 350 425
#     4  11  27  46  73 100 138 185 236 296 346 406
#     4  12  24  43  72  98 140 188 227 287 348 416
#     4  11  20  40  64 101 135 181 224 278 355 410
#     4  11  23  43  66 100 145 174 228 290 348 416
#     4  11  28  49  70 103 139 185 240 298 340 404
#
# _framework density 23.095147999999998
#
# number of rings (size 3 to 8) (size 9 to 14) (size 15 to 20)
#    0.000    1.000    3.750    2.250    3.500    3.500 
#    2.250    1.250    0.000    0.000    0.000    0.000 
#    0.000    0.000    0.000    0.000    0.000    0.000 
#
# Total GULP energy -198309.880893 kJ/mol
# GULP energy per Si atom -12394.367556 kJ/mol
# Density = 2.304258 g / cm^3
# Si number density = 23.095148 Si / 1000 Ang^3
#
#
#
# Elastic Constant Matrix: (Units=GPa)
#
#
# Indices 1 2 3 4 5 6 
#
# 1 154.3684 30.7099 38.2272 3.6146 -26.4263 15.2474
# 2 30.7099 68.3581 34.8603 -4.4001 9.7613 8.1308
# 3 38.2272 34.8603 97.4555 -8.3986 -4.1679 6.8691
# 4 3.6146 -4.4001 -8.3986 24.0549 -2.7294 2.9861
# 5 -26.4263 9.7613 -4.1679 -2.7294 41.9765 1.9444
# 6 15.2474 8.1308 6.8691 2.9861 1.9444 40.4027
#
#
#
# Elastic Compliance Matrix: (Units=1/GPa)
#
#
# Indices 1 2 3 4 5 6 
#
# 1 0.009105 -0.003860 -0.001882 -0.001686 0.006450 -0.002525
# 2 -0.003860 0.020806 -0.006018 0.001592 -0.007695 -0.001455
# 3 -0.001882 -0.006018 0.013657 0.004264 0.001885 -0.000806
# 4 -0.001686 0.001592 0.004264 0.044307 0.002048 -0.003782
# 5 0.006450 -0.007695 0.001885 0.002048 0.030123 -0.002807
# 6 -0.002525 -0.001455 -0.000806 -0.003782 -0.002807 0.026548
#
#
# Mechanical properties :
#
#
# Convention : Reuss Voigt Hill
#
# Bulk Modulus (GPa) = 49.87925 58.64186 54.26056
# Shear Modulus (GPa) = 28.61248 35.71246 32.16247
#
# Velocity S-wave (km/s) = 3.52361 3.93659 3.73581
# Velocity P-wave (km/s) = 6.18051 6.79035 6.49259
#
# Compressibility (1/GPa) = 0.02004841
#
# Stress axis : x y z
#
# Youngs Moduli (GPa) = 109.82867 48.06301 73.22282
#
# Poissons Ratio (x) = 0.18551 0.13783
# Poissons Ratio (y) = 0.42392 0.44064
# Poissons Ratio (z) = 0.20673 0.28923
#
# Static dielectric constant tensor:
#      x y z
#    x 4.868300 -0.023560 -0.417180 
#    y -0.023560 3.886000 -0.019480 
#    z -0.417180 -0.019480 4.131210 
# 
# 
# High freq. dielectric constant tensor:
#      x y z
#    x 1.939940 -0.005140 -0.023020 
#    y -0.005140 1.890350 0.003410 
#    z -0.023020 0.003410 1.905380 
# 
# From -- ./inp_files/505306.got.cif
#   From: 2010.06.25/outbox.cif.g09.slc.cpg/sg2_253_cif.got.tgz:505306.got - 2010.06.27 13:26:56.
