data_PCOD8022479
_publ_section_title
;
Structure prediction by ZEFSAII (Michael W. Deem and Ramdas Pophale) SiO2 
 PCOD8022479
Probable space group: P -1
;
_chemical_formula_sum "Si O2"
_cell_formula_units_Z 16
_cell_length_a 16.689358
_cell_length_b 20.385919
_cell_length_c 11.314492
_cell_angle_alpha 149.488493
_cell_angle_beta 140.613845
_cell_angle_gamma 21.056233
_cell_volume 691.907730
_symmetry_space_group_name_H-M "P -1"
_symmetry_group_IT_number 2
_symmetry_cell_setting 'triclinic'
loop_
_space_group_symop_operation_xyz
x,y,z
-x,-y,-z
loop_
_atom_site_type_symbol
_atom_site_label
_atom_site_fract_x
_atom_site_fract_y
_atom_site_fract_z
Si Si1 0.816918 0.506175 0.226385
Si Si2 0.887008 0.387839 0.870067
Si Si3 0.484627 0.425301 0.129039
Si Si4 0.362502 0.432109 0.536569
Si Si5 0.847045 0.928871 0.723278
Si Si6 0.295032 0.998831 0.591396
Si Si7 0.645349 0.752563 0.976724
Si Si8 0.742948 0.854658 0.695102
O O1 0.682037 0.754685 0.481170
O O2 0.998813 0.332641 0.266488
O O3 0.944016 0.409491 0.093370
O O4 0.636160 0.542587 0.072267
O O5 0.665993 0.482154 0.782429
O O6 0.846996 0.531452 0.947680
O O7 0.101668 0.121977 0.657717
O O8 0.485578 0.577275 0.349083
O O9 0.741849 0.151066 0.002436
O O10 0.474298 0.274283 0.536819
O O11 0.113620 0.696654 0.692387
O O12 0.360706 0.325821 0.269531
O O13 0.718269 0.922138 0.636012
O O14 0.793868 0.963393 0.579168
O O15 0.326166 0.124670 0.837806
O O16 0.416745 0.928345 0.064208
#
# Coordination Sequence:
#
# PCOD8022479 Si02
#       8
#     2   2   2   2   2   2   2   2
#     4   9  22  40  73 101 133 180 232 287 337 405
#     4  10  22  46  70 101 134 184 228 282 345 409
#     4  10  25  50  67 100 140 189 230 278 346 413
#     4  12  29  46  69 104 142 188 228 283 346 415
#     4  12  26  46  72 104 137 183 234 288 344 409
#     4  12  27  46  71 106 143 178 228 297 348 398
#     4  12  24  45  71 105 141 180 232 289 346 408
#     4  11  22  42  72 105 136 178 239 284 342 412
#
# _framework density 23.124472000000001
#
# number of rings (size 3 to 8) (size 9 to 14) (size 15 to 20)
#    0.750    0.250    2.500    3.375    7.000    3.000 
#    2.250    0.000    0.000    0.000    0.000    0.000 
#    0.000    0.000    0.000    0.000    0.000    0.000 
#
# Total GULP energy -198372.011025 kJ/mol
# GULP energy per Si atom -12398.250689 kJ/mol
# Density = 2.307184 g / cm^3
# Si number density = 23.124472 Si / 1000 Ang^3
#
#
#
# Elastic Constant Matrix: (Units=GPa)
#
#
# Indices 1 2 3 4 5 6 
#
# 1 90.9430 31.3121 34.4530 0.1204 6.6347 2.9385
# 2 31.3121 113.8586 30.8139 19.4029 2.3758 7.9722
# 3 34.4530 30.8139 57.3160 12.6576 9.9338 -1.1112
# 4 0.1204 19.4029 12.6576 27.2115 -3.0853 -7.0353
# 5 6.6347 2.3758 9.9338 -3.0853 42.1232 2.3040
# 6 2.9385 7.9722 -1.1112 -7.0353 2.3040 40.3710
#
#
#
# Elastic Compliance Matrix: (Units=1/GPa)
#
#
# Indices 1 2 3 4 5 6 
#
# 1 0.015421 -0.002865 -0.009189 0.006361 0.000350 0.000279
# 2 -0.002865 0.012027 -0.003048 -0.008082 0.000100 -0.003664
# 3 -0.009189 -0.003048 0.028166 -0.011455 -0.005883 0.000385
# 4 0.006361 -0.008082 -0.011455 0.050843 0.005367 0.009372
# 5 0.000350 0.000100 -0.005883 0.005367 0.025499 -0.000727
# 6 0.000279 -0.003664 0.000385 0.009372 -0.000727 0.027159
#
#
# Mechanical properties :
#
#
# Convention : Reuss Voigt Hill
#
# Bulk Modulus (GPa) = 39.35348 50.58617 44.96982
# Shear Modulus (GPa) = 25.27946 32.97705 29.12825
#
# Velocity S-wave (km/s) = 3.30993 3.78043 3.55298
# Velocity P-wave (km/s) = 5.62695 6.40145 6.02666
#
# Compressibility (1/GPa) = 0.02541071
#
# Stress axis : x y z
#
# Youngs Moduli (GPa) = 64.84874 83.14555 35.50339
#
# Poissons Ratio (x) = 0.23818 0.32625
# Poissons Ratio (y) = 0.18577 0.10820
# Poissons Ratio (z) = 0.59592 0.25340
#
# Static dielectric constant tensor:
#      x y z
#    x 4.094160 -0.018790 -0.183280 
#    y -0.018790 4.187080 0.313370 
#    z -0.183280 0.313370 4.006780 
# 
# 
# High freq. dielectric constant tensor:
#      x y z
#    x 1.917720 -0.001010 -0.018270 
#    y -0.001010 1.915890 0.018940 
#    z -0.018270 0.018940 1.900670 
# 
# From -- ./inp_files/467189.got.cif
#   From: 2010.06.25/outbox.cif.g09.slc.cpg/sg2_234_cif.got.tgz:467189.got - 2010.06.27 13:26:56.
