data_PCOD8022939
_publ_section_title
;
Structure prediction by ZEFSAII (Michael W. Deem and Ramdas Pophale) SiO2 
 PCOD8022939
Probable space group: P -1
;
_chemical_formula_sum "Si O2"
_cell_formula_units_Z 16
_cell_length_a 9.150815
_cell_length_b 27.379580
_cell_length_c 6.804057
_cell_angle_alpha 72.124551
_cell_angle_beta 51.052306
_cell_angle_gamma 38.759235
_cell_volume 768.997830
_symmetry_space_group_name_H-M "P -1"
_symmetry_group_IT_number 2
_symmetry_cell_setting 'triclinic'
loop_
_space_group_symop_operation_xyz
x,y,z
-x,-y,-z
loop_
_atom_site_type_symbol
_atom_site_label
_atom_site_fract_x
_atom_site_fract_y
_atom_site_fract_z
Si Si1 0.815018 0.958415 0.716467
Si Si2 0.846430 0.038218 0.291863
Si Si3 0.856833 0.360289 0.397241
Si Si4 0.822702 0.614532 0.071306
Si Si5 0.772399 0.321754 0.117693
Si Si6 0.329616 0.767721 0.585025
Si Si7 0.341445 0.437808 0.004031
Si Si8 0.689054 0.769059 0.510394
O O1 0.918550 0.977988 0.763179
O O2 0.069025 0.859293 0.593354
O O3 0.786414 0.994983 0.489391
O O4 0.500000 0.000000 0.000000
O O5 0.512341 0.136173 0.433250
O O6 0.000000 0.000000 0.000000
O O7 0.581036 0.423300 0.708554
O O8 0.156214 0.270164 0.358699
O O9 0.748643 0.348751 0.322554
O O10 0.930236 0.401693 0.217548
O O11 0.573753 0.701222 0.291937
O O12 0.660286 0.616708 0.036189
O O13 0.005916 0.537160 0.162334
O O14 0.453640 0.404899 0.172770
O O15 0.062320 0.282216 0.810073
O O16 0.820999 0.250356 0.174935
O O17 0.484403 0.763633 0.641993
#
# Coordination Sequence:
#
# PCOD8022939 Si02
#       8
#     2   2   2   2   2   2   2   2
#     4  10  23  43  64  92 131 162 205 262 310 376
#     4  10  23  41  64  94 124 164 207 253 319 375
#     4  11  22  40  64  88 121 164 204 253 306 358
#     4  11  22  41  62  89 126 162 205 253 307 364
#     4  11  22  41  62  90 123 160 209 253 305 360
#     4  11  22  40  64  91 122 167 203 249 313 365
#     4  10  24  42  59  90 126 163 204 255 305 363
#     4  10  23  40  62  89 125 161 202 255 303 370
#
# _framework density 20.806303
#
# number of rings (size 3 to 8) (size 9 to 14) (size 15 to 20)
#    0.000    1.500    2.500    1.875    1.750    3.500 
#    2.250    0.000    0.000    0.000    0.000    0.000 
#    0.000    0.000    0.000    0.000    0.000    0.000 
#
# Total GULP energy -198459.812450 kJ/mol
# GULP energy per Si atom -12403.738278 kJ/mol
# Density = 2.075895 g / cm^3
# Si number density = 20.806303 Si / 1000 Ang^3
#
#
#
# Elastic Constant Matrix: (Units=GPa)
#
#
# Indices 1 2 3 4 5 6 
#
# 1 90.8151 47.5460 34.1044 -11.3322 -2.6565 -10.0394
# 2 47.5460 128.2275 42.0666 -5.1235 6.8489 -8.5610
# 3 34.1044 42.0666 80.4081 -8.0952 5.4695 3.1798
# 4 -11.3322 -5.1235 -8.0952 36.1716 0.5845 -3.3732
# 5 -2.6565 6.8489 5.4695 0.5845 34.9870 -10.5228
# 6 -10.0394 -8.5610 3.1798 -3.3732 -10.5228 34.1143
#
#
#
# Elastic Compliance Matrix: (Units=1/GPa)
#
#
# Indices 1 2 3 4 5 6 
#
# 1 0.016297 -0.004117 -0.004912 0.003910 0.004554 0.006012
# 2 -0.004117 0.010746 -0.003884 -0.000487 -0.001389 0.001371
# 3 -0.004912 -0.003884 0.017149 0.001338 -0.003841 -0.005071
# 4 0.003910 -0.000487 0.001338 0.029469 0.000925 0.004103
# 5 0.004554 -0.001389 -0.003841 0.000925 0.033308 0.011716
# 6 0.006012 0.001371 -0.005071 0.004103 0.011716 0.035919
#
#
# Mechanical properties :
#
#
# Convention : Reuss Voigt Hill
#
# Bulk Modulus (GPa) = 54.45317 60.76496 57.60907
# Shear Modulus (GPa) = 28.59801 32.77015 30.68408
#
# Velocity S-wave (km/s) = 3.71143 3.97295 3.84441
# Velocity P-wave (km/s) = 6.67792 7.09325 6.88872
#
# Compressibility (1/GPa) = 0.01836440
#
# Stress axis : x y z
#
# Youngs Moduli (GPa) = 61.35921 93.06017 58.31318
#
# Poissons Ratio (x) = 0.38313 0.28646
# Poissons Ratio (y) = 0.25262 0.22651
# Poissons Ratio (z) = 0.30142 0.36148
#
# Static dielectric constant tensor:
#      x y z
#    x 3.679760 0.657470 0.221640 
#    y 0.657470 0.345570 -1.937040 
#    z 0.221640 -1.937040 2.709360 
# 
# 
# High freq. dielectric constant tensor:
#      x y z
#    x 1.820700 -0.002070 -0.011110 
#    y -0.002070 1.823640 -0.007280 
#    z -0.011110 -0.007280 1.812090 
# 
# From -- ./inp_files/52298.got.cif
#   From: 2010.06.25/outbox.cif.g09.slc.cpg/sg2_27_cif.got.tgz:52298.got - 2010.06.27 13:26:56.
