data_PCOD8022490
_publ_section_title
;
Structure prediction by ZEFSAII (Michael W. Deem and Ramdas Pophale) SiO2 
 PCOD8022490
Probable space group: P -1
;
_chemical_formula_sum "Si O2"
_cell_formula_units_Z 16
_cell_length_a 6.279445
_cell_length_b 16.528074
_cell_length_c 9.895719
_cell_angle_alpha 110.842235
_cell_angle_beta 113.534775
_cell_angle_gamma 109.889235
_cell_volume 727.364949
_symmetry_space_group_name_H-M "P -1"
_symmetry_group_IT_number 2
_symmetry_cell_setting 'triclinic'
loop_
_space_group_symop_operation_xyz
x,y,z
-x,-y,-z
loop_
_atom_site_type_symbol
_atom_site_label
_atom_site_fract_x
_atom_site_fract_y
_atom_site_fract_z
Si Si1 0.543101 0.961456 0.702569
Si Si2 0.009097 0.107421 0.069310
Si Si3 0.679059 0.262716 0.868627
Si Si4 0.546192 0.271108 0.133145
Si Si5 0.720498 0.956620 0.482387
Si Si6 0.911566 0.220961 0.346166
Si Si7 0.403886 0.371828 0.765431
Si Si8 0.316458 0.394396 0.060849
O O1 0.767419 0.958587 0.658488
O O2 0.374175 0.861728 0.696273
O O3 0.341928 0.960051 0.538180
O O4 0.715349 0.069699 0.896901
O O5 0.275674 0.191308 0.103050
O O6 0.002605 0.158235 0.239118
O O7 0.000000 0.000000 0.000000
O O8 0.539191 0.159720 0.683692
O O9 0.628418 0.342810 0.826425
O O10 0.524398 0.226365 0.952132
O O11 0.011515 0.318231 0.005767
O O12 0.830660 0.292257 0.286761
O O13 0.540432 0.374349 0.173272
O O14 0.000000 0.000000 0.500000
O O15 0.159439 0.290735 0.554557
O O16 0.566337 0.485920 0.806289
O O17 0.273257 0.371963 0.876105
#
# Coordination Sequence:
#
# PCOD8022490 Si02
#       8
#     2   2   2   2   2   2   2   2
#     4  11  24  39  59  93 126 172 216 260 315 385
#     4  12  26  41  63  90 133 177 216 257 320 392
#     4  11  22  41  68  92 131 172 218 265 325 390
#     4  11  24  42  65  96 130 176 215 264 325 394
#     4  11  23  37  62  93 131 166 214 268 317 377
#     4  12  25  41  64  98 131 172 219 270 324 388
#     4  10  24  42  70  99 127 164 220 276 328 386
#     4  10  22  46  70  96 127 169 216 274 333 384
#
# _framework density 21.997209999999999
#
# number of rings (size 3 to 8) (size 9 to 14) (size 15 to 20)
#    0.000    1.000    1.250    5.250    5.250    5.500 
#    0.000    2.500    0.000    0.000    0.000    0.000 
#    0.000    0.000    0.000    0.000    0.000    0.000 
#
# Total GULP energy -198262.262699 kJ/mol
# GULP energy per Si atom -12391.391419 kJ/mol
# Density = 2.194714 g / cm^3
# Si number density = 21.997210 Si / 1000 Ang^3
#
#
#
# Elastic Constant Matrix: (Units=GPa)
#
#
# Indices 1 2 3 4 5 6 
#
# 1 104.8448 46.0813 42.6945 -3.7925 -7.0290 1.9169
# 2 46.0813 95.8934 27.7015 -3.6416 -14.4464 -3.8804
# 3 42.6945 27.7015 109.4073 0.8802 -10.6300 0.2675
# 4 -3.7925 -3.6416 0.8802 31.8981 -2.7557 7.6604
# 5 -7.0290 -14.4464 -10.6300 -2.7557 33.9373 -8.9649
# 6 1.9169 -3.8804 0.2675 7.6604 -8.9649 47.2424
#
#
#
# Elastic Compliance Matrix: (Units=1/GPa)
#
#
# Indices 1 2 3 4 5 6 
#
# 1 0.013616 -0.005548 -0.004019 0.001342 -0.001063 -0.001405
# 2 -0.005548 0.014296 -0.000951 0.000914 0.005311 0.002264
# 3 -0.004019 -0.000951 0.011184 -0.000837 0.002357 0.000605
# 4 0.001342 0.000914 -0.000837 0.032987 0.001766 -0.004989
# 5 -0.001063 0.005311 0.002357 0.001766 0.034148 0.006660
# 6 -0.001405 0.002264 0.000605 -0.004989 0.006660 0.023480
#
#
# Mechanical properties :
#
#
# Convention : Reuss Voigt Hill
#
# Bulk Modulus (GPa) = 55.37766 60.34446 57.86106
# Shear Modulus (GPa) = 31.89446 35.52677 33.71062
#
# Velocity S-wave (km/s) = 3.81193 4.02314 3.91896
# Velocity P-wave (km/s) = 6.67862 7.00523 6.84387
#
# Compressibility (1/GPa) = 0.01805782
#
# Stress axis : x y z
#
# Youngs Moduli (GPa) = 73.44244 69.95177 89.41467
#
# Poissons Ratio (x) = 0.38810 0.35939
# Poissons Ratio (y) = 0.40746 0.08507
# Poissons Ratio (z) = 0.29519 0.06656
#
# Static dielectric constant tensor:
#      x y z
#    x 4.009130 -0.080770 0.317490 
#    y -0.080770 4.115330 -0.354720 
#    z 0.317490 -0.354720 3.759690 
# 
# 
# High freq. dielectric constant tensor:
#      x y z
#    x 1.879120 -0.006250 -0.002320 
#    y -0.006250 1.870440 -0.018450 
#    z -0.002320 -0.018450 1.859890 
# 
# From -- ./inp_files/139257.got.cif
#   From: 2010.06.25/outbox.cif.g09.slc.cpg/sg2_70_cif.got.tgz:139257.got - 2010.06.27 13:26:56.
