data_PCOD8022316
_publ_section_title
;
Structure prediction by ZEFSAII (Michael W. Deem and Ramdas Pophale) SiO2 
 PCOD8022316
Probable space group: P -1
;
_chemical_formula_sum "Si O2"
_cell_formula_units_Z 16
_cell_length_a 5.335135
_cell_length_b 11.664358
_cell_length_c 22.586067
_cell_angle_alpha 32.693863
_cell_angle_beta 109.056989
_cell_angle_gamma 113.550288
_cell_volume 695.839605
_symmetry_space_group_name_H-M "P -1"
_symmetry_group_IT_number 2
_symmetry_cell_setting 'triclinic'
loop_
_space_group_symop_operation_xyz
x,y,z
-x,-y,-z
loop_
_atom_site_type_symbol
_atom_site_label
_atom_site_fract_x
_atom_site_fract_y
_atom_site_fract_z
Si Si1 0.137922 0.760721 0.957604
Si Si2 0.974260 0.947066 0.681963
Si Si3 0.184249 0.895055 0.516274
Si Si4 0.140574 0.536559 0.842719
Si Si5 0.929299 0.582804 0.240165
Si Si6 0.572303 0.755664 0.227814
Si Si7 0.252709 0.380366 0.575071
Si Si8 0.689158 0.646476 0.890398
O O1 0.849361 0.791712 0.893725
O O2 0.103084 0.660138 0.065190
O O3 0.366447 0.984689 0.871782
O O4 0.234247 0.585572 0.001007
O O5 0.095984 0.778540 0.725537
O O6 0.747399 0.789669 0.772839
O O7 0.175619 0.125233 0.660910
O O8 0.863101 0.087315 0.564598
O O9 0.119328 0.640815 0.631946
O O10 0.500000 0.000000 0.500000
O O11 0.000000 0.000000 0.500000
O O12 0.361808 0.574378 0.897274
O O13 0.209479 0.454428 0.819530
O O14 0.254599 0.680743 0.218295
O O15 0.769535 0.731525 0.199016
O O16 0.638253 0.621704 0.348275
O O17 0.500000 0.500000 0.500000
O O18 0.000000 0.500000 0.500000
#
# Coordination Sequence:
#
# PCOD8022316 Si02
#       8
#     2   2   2   2   2   2   2   2
#     4  10  24  44  71 105 136 187 241 301 366 417
#     4  11  24  42  72 103 135 185 234 299 356 413
#     4  12  24  43  70 103 141 182 234 287 349 417
#     4  11  25  43  73 105 139 190 245 297 360 422
#     4  12  28  47  71 104 153 193 238 289 353 441
#     4  12  27  49  71 104 151 192 235 291 363 432
#     4  12  27  48  72 105 144 186 241 290 359 431
#     4  10  22  45  71 103 139 174 247 309 357 418
#
# _framework density 22.993801999999999
#
# number of rings (size 3 to 8) (size 9 to 14) (size 15 to 20)
#    0.000    0.750    2.500    4.125    7.000    2.000 
#    0.000    0.000    0.000    0.000    0.000    0.000 
#    0.000    0.000    0.000    0.000    0.000    0.000 
#
# Total GULP energy -198232.384829 kJ/mol
# GULP energy per Si atom -12389.524052 kJ/mol
# Density = 2.294147 g / cm^3
# Si number density = 22.993802 Si / 1000 Ang^3
#
#
#
# Elastic Constant Matrix: (Units=GPa)
#
#
# Indices 1 2 3 4 5 6 
#
# 1 111.6351 26.5295 22.1635 -4.9429 -17.3208 9.7773
# 2 26.5295 94.6537 24.9237 0.7803 -12.6906 5.5222
# 3 22.1635 24.9237 114.2295 -17.5959 -12.7269 6.9008
# 4 -4.9429 0.7803 -17.5959 32.6448 7.1375 -5.8768
# 5 -17.3208 -12.6906 -12.7269 7.1375 18.2161 -0.4841
# 6 9.7773 5.5222 6.9008 -5.8768 -0.4841 40.8745
#
#
#
# Elastic Compliance Matrix: (Units=1/GPa)
#
#
# Indices 1 2 3 4 5 6 
#
# 1 0.011077 -0.001489 -0.000827 -0.001198 0.009324 -0.002371
# 2 -0.001489 0.012619 -0.002113 -0.003501 0.007235 -0.001410
# 3 -0.000827 -0.002113 0.010503 0.004788 0.003189 -0.000564
# 4 -0.001198 -0.003501 0.004788 0.037252 -0.014694 0.005133
# 5 0.009324 0.007235 0.003189 -0.014694 0.076656 -0.004951
# 6 -0.002371 -0.001410 -0.000564 0.005133 -0.004951 0.025997
#
#
# Mechanical properties :
#
#
# Convention : Reuss Voigt Hill
#
# Bulk Modulus (GPa) = 39.45946 51.97239 45.71592
# Shear Modulus (GPa) = 26.12205 34.80718 30.46461
#
# Velocity S-wave (km/s) = 3.37419 3.89493 3.64387
# Velocity P-wave (km/s) = 5.69020 6.54822 6.13423
#
# Compressibility (1/GPa) = 0.02534247
#
# Stress axis : x y z
#
# Youngs Moduli (GPa) = 90.27724 79.24274 95.21500
#
# Poissons Ratio (x) = 0.11796 0.07874
# Poissons Ratio (y) = 0.13438 0.20117
# Poissons Ratio (z) = 0.07465 0.16742
#
# Static dielectric constant tensor:
#      x y z
#    x 4.279650 0.079890 0.019010 
#    y 0.079890 4.289080 0.066240 
#    z 0.019010 0.066240 4.317540 
# 
# 
# High freq. dielectric constant tensor:
#      x y z
#    x 1.900140 0.002530 -0.013470 
#    y 0.002530 1.915330 0.006620 
#    z -0.013470 0.006620 1.930560 
# 
# From -- ./inp_files/473510.got.cif
#   From: 2010.06.25/outbox.cif.g09.slc.cpg/sg2_237_cif.got.tgz:473510.got - 2010.06.27 13:26:56.
