data_PCOD8022884
_publ_section_title
;
Structure prediction by ZEFSAII (Michael W. Deem and Ramdas Pophale) SiO2 
 PCOD8022884
Probable space group: P -1
;
_chemical_formula_sum "Si O2"
_cell_formula_units_Z 16
_cell_length_a 11.644401
_cell_length_b 11.409503
_cell_length_c 17.811302
_cell_angle_alpha 60.746199
_cell_angle_beta 21.294020
_cell_angle_gamma 63.029205
_cell_volume 749.740238
_symmetry_space_group_name_H-M "P -1"
_symmetry_group_IT_number 2
_symmetry_cell_setting 'triclinic'
loop_
_space_group_symop_operation_xyz
x,y,z
-x,-y,-z
loop_
_atom_site_type_symbol
_atom_site_label
_atom_site_fract_x
_atom_site_fract_y
_atom_site_fract_z
Si Si1 0.873986 0.016055 0.963718
Si Si2 0.722294 0.899469 0.940027
Si Si3 0.878850 0.469971 0.692210
Si Si4 0.927181 0.265408 0.338139
Si Si5 0.796722 0.791805 0.197978
Si Si6 0.827651 0.449675 0.900583
Si Si7 0.822876 0.295517 0.642725
Si Si8 0.193829 0.132784 0.358937
O O1 0.561229 0.100624 0.148133
O O2 0.884089 0.875266 0.044800
O O3 0.163631 0.111462 0.783398
O O4 0.896575 0.983341 0.872583
O O5 0.989697 0.847613 0.737552
O O6 0.518549 0.775320 0.136837
O O7 0.500000 0.000000 0.000000
O O8 0.938731 0.424056 0.755053
O O9 0.874425 0.335213 0.686138
O O10 0.158759 0.568830 0.461491
O O11 0.550569 0.552148 0.860200
O O12 0.555809 0.262967 0.577827
O O13 0.033862 0.409943 0.197462
O O14 0.116319 0.243014 0.307797
O O15 0.032025 0.666313 0.096914
O O16 0.087868 0.189941 0.486549
O O17 0.000000 0.000000 0.500000
#
# Coordination Sequence:
#
# PCOD8022884 Si02
#       8
#     2   2   2   2   2   2   2   2
#     4  11  25  45  67  99 131 178 219 272 327 405
#     4  12  24  40  70 101 132 169 226 278 318 388
#     4  10  23  39  68  99 129 168 224 281 317 387
#     4  12  23  43  67 100 126 176 220 275 330 390
#     4  11  26  44  66  94 138 178 217 264 346 394
#     4  11  23  44  68  94 135 175 220 274 331 394
#     4  11  21  38  62 105 128 159 218 284 325 369
#     4  12  20  40  71  93 128 170 223 269 325 388
#
# _framework density 21.340724999999999
#
# number of rings (size 3 to 8) (size 9 to 14) (size 15 to 20)
#    0.000    0.750    6.250    1.125    3.500    0.500 
#    0.000    5.625    0.000    0.000    0.000    0.000 
#    0.000    0.000    0.000    0.000    0.000    0.000 
#
# Total GULP energy -198460.614022 kJ/mol
# GULP energy per Si atom -12403.788376 kJ/mol
# Density = 2.129215 g / cm^3
# Si number density = 21.340725 Si / 1000 Ang^3
#
#
#
# Elastic Constant Matrix: (Units=GPa)
#
#
# Indices 1 2 3 4 5 6 
#
# 1 104.3898 40.9973 7.3577 17.0998 7.2018 3.2817
# 2 40.9973 77.1816 21.8130 12.8461 -8.5174 -5.4768
# 3 7.3577 21.8130 48.1888 0.4382 1.9055 -8.4774
# 4 17.0998 12.8461 0.4382 43.0370 14.2486 3.2640
# 5 7.2018 -8.5174 1.9055 14.2486 28.2133 11.8052
# 6 3.2817 -5.4768 -8.4774 3.2640 11.8052 44.5345
#
#
#
# Elastic Compliance Matrix: (Units=1/GPa)
#
#
# Indices 1 2 3 4 5 6 
#
# 1 0.013083 -0.007830 0.001738 -0.001153 -0.005180 -0.000138
# 2 -0.007830 0.022749 -0.009901 -0.008218 0.014408 -0.001727
# 3 0.001738 -0.009901 0.026388 0.004924 -0.010223 0.006026
# 4 -0.001153 -0.008218 0.004924 0.032562 -0.020212 0.002983
# 5 -0.005180 0.014408 -0.010223 -0.020212 0.057709 -0.013608
# 6 -0.000138 -0.001727 0.006026 0.002983 -0.013608 0.026788
#
#
# Mechanical properties :
#
#
# Convention : Reuss Voigt Hill
#
# Bulk Modulus (GPa) = 33.07608 41.12179 37.09894
# Shear Modulus (GPa) = 22.58945 33.79643 28.19294
#
# Velocity S-wave (km/s) = 3.25701 3.98384 3.63862
# Velocity P-wave (km/s) = 5.44765 6.36178 5.92238
#
# Compressibility (1/GPa) = 0.03023333
#
# Stress axis : x y z
#
# Youngs Moduli (GPa) = 76.43673 43.95813 37.89641
#
# Poissons Ratio (x) = 0.34419 -0.06586
# Poissons Ratio (y) = 0.59850 0.37520
# Poissons Ratio (z) = -0.13283 0.43522
#
# Static dielectric constant tensor:
#      x y z
#    x 3.919700 0.165780 0.043010 
#    y 0.165780 4.050490 -0.099610 
#    z 0.043010 -0.099610 3.830360 
# 
# 
# High freq. dielectric constant tensor:
#      x y z
#    x 1.825330 0.018690 0.005930 
#    y 0.018690 1.852340 -0.015530 
#    z 0.005930 -0.015530 1.826740 
# 
# From -- ./inp_files/218855.got.cif
#   From: 2010.06.25/outbox.cif.g09.slc.cpg/sg2_110_cif.got.tgz:218855.got - 2010.06.27 13:26:56.
