data_PCOD8022497
_publ_section_title
;
Structure prediction by ZEFSAII (Michael W. Deem and Ramdas Pophale) SiO2 
 PCOD8022497
Probable space group: P -1
;
_chemical_formula_sum "Si O2"
_cell_formula_units_Z 14
_cell_length_a 8.120481
_cell_length_b 7.492767
_cell_length_c 18.736424
_cell_angle_alpha 117.549119
_cell_angle_beta 56.939457
_cell_angle_gamma 72.733701
_cell_volume 570.704957
_symmetry_space_group_name_H-M "P -1"
_symmetry_group_IT_number 2
_symmetry_cell_setting 'triclinic'
loop_
_space_group_symop_operation_xyz
x,y,z
-x,-y,-z
loop_
_atom_site_type_symbol
_atom_site_label
_atom_site_fract_x
_atom_site_fract_y
_atom_site_fract_z
Si Si1 0.686769 0.540177 0.996410
Si Si2 0.932582 0.052681 0.943154
Si Si3 0.211724 0.975589 0.540982
Si Si4 0.734250 0.805194 0.752898
Si Si5 0.275965 0.423209 0.157043
Si Si6 0.644067 0.736394 0.518964
Si Si7 0.474517 0.376743 0.331485
O O1 0.910921 0.294633 0.958455
O O2 0.478629 0.848780 0.145373
O O3 0.500000 0.500000 0.000000
O O4 0.844294 0.518679 0.885051
O O5 0.625305 0.180116 0.025617
O O6 0.000000 0.000000 0.000000
O O7 0.213490 0.747515 0.778904
O O8 0.455220 0.787935 0.510066
O O9 0.224901 0.739074 0.462712
O O10 0.292320 0.075912 0.478162
O O11 0.898076 0.261623 0.704391
O O12 0.783937 0.733398 0.813069
O O13 0.600206 0.700803 0.733990
O O14 0.049387 0.615560 0.610803
O O15 0.496483 0.800094 0.641463
#
# Coordination Sequence:
#
# PCOD8022497 Si02
#       7
#     2   2   2   2   2   2   2
#     4  10  24  41  72  98 138 189 235 288 353 416
#     4  11  24  45  66 103 139 185 231 289 355 418
#     4  10  24  45  75 103 139 189 236 292 352 422
#     4  11  24  44  70 107 141 181 236 300 351 419
#     4  10  22  46  71 103 138 185 241 285 349 423
#     4  10  24  44  69 108 139 184 243 282 353 435
#     4  12  25  43  72 103 144 185 226 301 357 415
#
# _framework density 24.531063
#
# number of rings (size 3 to 8) (size 9 to 14) (size 15 to 20)
#    0.000    1.429    1.429    2.143    8.000    4.000 
#    5.143    0.000    0.000    0.000    0.000    0.000 
#    0.000    0.000    0.000    0.000    0.000    0.000 
#
# Total GULP energy -173473.639465 kJ/mol
# GULP energy per Si atom -12390.974248 kJ/mol
# Density = 2.447523 g / cm^3
# Si number density = 24.531063 Si / 1000 Ang^3
#
#
#
# Elastic Constant Matrix: (Units=GPa)
#
#
# Indices 1 2 3 4 5 6 
#
# 1 53.2310 4.0181 32.1373 2.2520 2.3674 0.8570
# 2 4.0181 141.2011 39.9766 -18.8165 12.3113 -20.2468
# 3 32.1373 39.9766 143.0021 7.2770 -9.1095 1.2173
# 4 2.2520 -18.8165 7.2770 51.4756 7.9625 -0.3718
# 5 2.3674 12.3113 -9.1095 7.9625 40.7455 2.5628
# 6 0.8570 -20.2468 1.2173 -0.3718 2.5628 24.8154
#
#
#
# Elastic Compliance Matrix: (Units=1/GPa)
#
#
# Indices 1 2 3 4 5 6 
#
# 1 0.022190 0.001547 -0.005684 0.000913 -0.003277 0.001127
# 2 0.001547 0.010844 -0.004120 0.005472 -0.005967 0.009695
# 3 -0.005684 -0.004120 0.009933 -0.003423 0.004729 -0.004192
# 4 0.000913 0.005472 -0.003423 0.023047 -0.007334 0.005704
# 5 -0.003277 -0.005967 0.004729 -0.007334 0.029539 -0.008147
# 6 0.001127 0.009695 -0.004192 0.005704 -0.008147 0.049301
#
#
# Mechanical properties :
#
#
# Convention : Reuss Voigt Hill
#
# Bulk Modulus (GPa) = 37.80387 54.41092 46.10740
# Shear Modulus (GPa) = 29.37970 40.82745 35.10357
#
# Velocity S-wave (km/s) = 3.46447 4.08403 3.78694
# Velocity P-wave (km/s) = 5.60780 6.66841 6.16097
#
# Compressibility (1/GPa) = 0.02645232
#
# Stress axis : x y z
#
# Youngs Moduli (GPa) = 45.06558 92.21641 100.67257
#
# Poissons Ratio (x) = -0.14263 0.57222
# Poissons Ratio (y) = -0.06970 0.41478
# Poissons Ratio (z) = 0.25615 0.37994
#
# Static dielectric constant tensor:
#      x y z
#    x 3.980410 -0.369050 -0.113590 
#    y -0.369050 5.726050 -0.369770 
#    z -0.113590 -0.369770 4.706860 
# 
# 
# High freq. dielectric constant tensor:
#      x y z
#    x 1.931620 -0.009770 -0.011810 
#    y -0.009770 2.000350 -0.003810 
#    z -0.011810 -0.003810 1.986610 
# 
# From -- ./inp_files/555516.got.cif
#   From: 2010.06.25/outbox.cif.g09.slc.cpg/sg2_278_cif.got.tgz:555516.got - 2010.06.27 13:26:56.
