data_PCOD8022873
_publ_section_title
;
Structure prediction by ZEFSAII (Michael W. Deem and Ramdas Pophale) SiO2 
 PCOD8022873
Probable space group: P -1
;
_chemical_formula_sum "Si O2"
_cell_formula_units_Z 14
_cell_length_a 11.340426
_cell_length_b 8.984875
_cell_length_c 9.523145
_cell_angle_alpha 113.671778
_cell_angle_beta 120.611310
_cell_angle_gamma 106.669101
_cell_volume 598.104618
_symmetry_space_group_name_H-M "P -1"
_symmetry_group_IT_number 2
_symmetry_cell_setting 'triclinic'
loop_
_space_group_symop_operation_xyz
x,y,z
-x,-y,-z
loop_
_atom_site_type_symbol
_atom_site_label
_atom_site_fract_x
_atom_site_fract_y
_atom_site_fract_z
Si Si1 0.124967 0.356462 0.296886
Si Si2 0.752107 0.988871 0.392189
Si Si3 0.767680 0.044395 0.095436
Si Si4 0.631128 0.616938 0.749726
Si Si5 0.369394 0.729772 0.025640
Si Si6 0.004996 0.429019 0.824105
Si Si7 0.361089 0.418735 0.714524
O O1 0.186667 0.329942 0.171309
O O2 0.093617 0.525668 0.327787
O O3 0.262265 0.430791 0.530897
O O4 0.942961 0.141724 0.149700
O O5 0.759610 0.803761 0.367251
O O6 0.804293 0.050487 0.284947
O O7 0.899462 0.182128 0.652934
O O8 0.556318 0.914120 0.280688
O O9 0.686151 0.161984 0.066415
O O10 0.640865 0.814108 0.869273
O O11 0.500000 0.500000 0.500000
O O12 0.539694 0.467656 0.776363
O O13 0.419840 0.604488 0.924228
O O14 0.211173 0.564829 0.969398
O O15 0.000000 0.500000 0.000000
#
# Coordination Sequence:
#
# PCOD8022873 Si02
#       7
#     2   2   2   2   2   2   2
#     4  10  24  45  69  95 143 178 229 280 342 410
#     4  12  26  43  74 103 138 184 228 286 346 402
#     4  11  23  43  72 102 132 186 229 278 348 401
#     4  10  23  39  67  98 138 178 224 275 337 406
#     4  11  25  45  72 102 141 175 236 283 342 412
#     4  11  28  47  69 103 139 183 228 289 344 407
#     4  11  24  44  68 107 136 179 232 281 344 409
#
# _framework density 23.407277000000001
#
# number of rings (size 3 to 8) (size 9 to 14) (size 15 to 20)
#    0.000    1.143    1.429    3.000    6.000   10.857 
#    0.000    0.000    0.000    0.000    0.000    0.000 
#    0.000    0.000    0.000    0.000    0.000    0.000 
#
# Total GULP energy -173527.889892 kJ/mol
# GULP energy per Si atom -12394.849278 kJ/mol
# Density = 2.335400 g / cm^3
# Si number density = 23.407277 Si / 1000 Ang^3
#
#
#
# Elastic Constant Matrix: (Units=GPa)
#
#
# Indices 1 2 3 4 5 6 
#
# 1 133.2921 29.6656 24.7390 7.3504 1.2897 26.0558
# 2 29.6656 72.9134 14.3265 22.3345 -4.4704 13.5539
# 3 24.7390 14.3265 97.6739 20.3474 -12.2882 11.6216
# 4 7.3504 22.3345 20.3474 34.6303 -4.4103 0.5879
# 5 1.2897 -4.4704 -12.2882 -4.4103 37.9880 3.9216
# 6 26.0558 13.5539 11.6216 0.5879 3.9216 40.0222
#
#
#
# Elastic Compliance Matrix: (Units=1/GPa)
#
#
# Indices 1 2 3 4 5 6 
#
# 1 0.009304 -0.002925 -0.001649 0.000878 -0.000623 -0.004540
# 2 -0.002925 0.019509 0.001307 -0.012401 0.001903 -0.005087
# 3 -0.001649 0.001307 0.012924 -0.007537 0.003865 -0.003390
# 4 0.000878 -0.012401 -0.007537 0.041067 0.000306 0.005183
# 5 -0.000623 0.001903 0.003865 0.000306 0.028282 -0.004137
# 6 -0.004540 -0.005087 -0.003390 0.005183 -0.004137 0.030978
#
#
# Mechanical properties :
#
#
# Convention : Reuss Voigt Hill
#
# Bulk Modulus (GPa) = 28.40543 49.03794 38.72169
# Shear Modulus (GPa) = 31.18541 38.20466 34.69503
#
# Velocity S-wave (km/s) = 3.65402 4.04440 3.85415
# Velocity P-wave (km/s) = 5.47395 6.54254 6.03196
#
# Compressibility (1/GPa) = 0.03520453
#
# Stress axis : x y z
#
# Youngs Moduli (GPa) = 107.47655 51.25901 77.37721
#
# Poissons Ratio (x) = 0.14992 0.12757
# Poissons Ratio (y) = 0.31434 -0.10115
# Poissons Ratio (z) = 0.17719 -0.06701
#
# Static dielectric constant tensor:
#      x y z
#    x 5.060480 0.168300 0.124330 
#    y 0.168300 4.684660 0.039620 
#    z 0.124330 0.039620 4.002780 
# 
# 
# High freq. dielectric constant tensor:
#      x y z
#    x 1.937890 0.014070 0.010300 
#    y 0.014070 1.937650 0.004500 
#    z 0.010300 0.004500 1.919670 
# 
# From -- ./inp_files/175058.got.cif
#   From: 2010.06.25/outbox.cif.g09.slc.cpg/sg2_88_cif.got.tgz:175058.got - 2010.06.27 13:26:56.
