data_PCOD8022888
_publ_section_title
;
Structure prediction by ZEFSAII (Michael W. Deem and Ramdas Pophale) SiO2 
 PCOD8022888
Probable space group: P -1
;
_chemical_formula_sum "Si O2"
_cell_formula_units_Z 14
_cell_length_a 17.875134
_cell_length_b 9.081214
_cell_length_c 14.818157
_cell_angle_alpha 128.631047
_cell_angle_beta 161.255095
_cell_angle_gamma 50.786064
_cell_volume 595.725249
_symmetry_space_group_name_H-M "P -1"
_symmetry_group_IT_number 2
_symmetry_cell_setting 'triclinic'
loop_
_space_group_symop_operation_xyz
x,y,z
-x,-y,-z
loop_
_atom_site_type_symbol
_atom_site_label
_atom_site_fract_x
_atom_site_fract_y
_atom_site_fract_z
Si Si1 0.590107 0.692626 0.477691
Si Si2 0.864437 0.438879 0.410477
Si Si3 0.300777 0.005690 0.145929
Si Si4 0.551637 0.608363 0.687388
Si Si5 0.803491 0.077543 0.518109
Si Si6 0.489832 0.190234 0.853712
Si Si7 0.956177 0.375858 0.687609
O O1 0.396509 0.837770 0.259677
O O2 0.434032 0.536618 0.268406
O O3 0.809925 0.581796 0.628668
O O4 0.690432 0.792243 0.718016
O O5 0.667783 0.613717 0.283105
O O6 0.020908 0.383448 0.657948
O O7 0.000000 0.500000 0.500000
O O8 0.745778 0.247954 0.188517
O O9 0.478573 0.969784 0.250204
O O10 0.040296 0.987454 0.807134
O O11 0.500000 0.500000 0.500000
O O12 0.334469 0.775832 0.513052
O O13 0.805198 0.676715 0.000864
O O14 0.831243 0.191582 0.499735
O O15 0.645871 0.906023 0.257086
#
# Coordination Sequence:
#
# PCOD8022888 Si02
#       7
#     2   2   2   2   2   2   2
#     4  10  23  39  69 101 138 178 230 275 340 406
#     4  11  26  45  72  98 133 181 232 288 340 397
#     4  11  22  42  67 104 137 179 223 284 337 407
#     4  11  23  40  65 101 144 185 218 274 339 412
#     4  11  24  41  68  98 141 177 223 280 341 405
#     4  11  24  44  69  99 134 179 227 285 340 400
#     4  11  24  45  68 103 138 183 227 278 340 408
#
# _framework density 23.500768000000001
#
# number of rings (size 3 to 8) (size 9 to 14) (size 15 to 20)
#    0.000    1.143    1.429    4.286    4.000    4.000 
#    0.000    8.571    0.000    0.000    0.000    0.000 
#    0.000    0.000    0.000    0.000    0.000    0.000 
#
# Total GULP energy -173436.234455 kJ/mol
# GULP energy per Si atom -12388.302461 kJ/mol
# Density = 2.344728 g / cm^3
# Si number density = 23.500768 Si / 1000 Ang^3
#
#
#
# Elastic Constant Matrix: (Units=GPa)
#
#
# Indices 1 2 3 4 5 6 
#
# 1 122.8385 42.4584 58.9591 15.1538 -2.3561 2.1298
# 2 42.4584 91.1200 36.8784 0.3586 4.5111 6.5566
# 3 58.9591 36.8784 114.3205 6.6444 7.0021 14.2343
# 4 15.1538 0.3586 6.6444 38.3119 7.6665 15.6754
# 5 -2.3561 4.5111 7.0021 7.6665 30.7261 4.4677
# 6 2.1298 6.5566 14.2343 15.6754 4.4677 31.6716
#
#
#
# Elastic Compliance Matrix: (Units=1/GPa)
#
#
# Indices 1 2 3 4 5 6 
#
# 1 0.013475 -0.004415 -0.006070 -0.007442 0.004072 0.005845
# 2 -0.004415 0.014165 -0.001954 0.003786 -0.002440 -0.003287
# 3 -0.006070 -0.001954 0.013299 0.003347 -0.003117 -0.006382
# 4 -0.007442 0.003786 0.003347 0.038095 -0.008569 -0.019434
# 5 0.004072 -0.002440 -0.003117 -0.008569 0.035948 0.000802
# 6 0.005845 -0.003287 -0.006382 -0.019434 0.000802 0.044235
#
#
# Mechanical properties :
#
#
# Convention : Reuss Voigt Hill
#
# Bulk Modulus (GPa) = 62.26093 67.20787 64.73440
# Shear Modulus (GPa) = 26.39245 32.80745 29.59995
#
# Velocity S-wave (km/s) = 3.35482 3.74038 3.55284
# Velocity P-wave (km/s) = 6.44648 6.87853 6.66601
#
# Compressibility (1/GPa) = 0.01606144
#
# Stress axis : x y z
#
# Youngs Moduli (GPa) = 74.21104 70.59688 75.19365
#
# Poissons Ratio (x) = 0.31169 0.45642
# Poissons Ratio (y) = 0.32765 0.14691
# Poissons Ratio (z) = 0.45046 0.13793
#
# Static dielectric constant tensor:
#      x y z
#    x 6.353740 0.778210 0.853470 
#    y 0.778210 4.808640 0.368650 
#    z 0.853470 0.368650 4.328410 
# 
# 
# High freq. dielectric constant tensor:
#      x y z
#    x 1.928020 0.006760 0.013100 
#    y 0.006760 1.955660 -0.000560 
#    z 0.013100 -0.000560 1.914220 
# 
# From -- ./inp_files/28147.got.cif
#   From: 2010.06.25/outbox.cif.g09.slc.cpg/sg2_15_cif.got.tgz:28147.got - 2010.06.27 13:26:56.
