data_PCOD8022801
_publ_section_title
;
Structure prediction by ZEFSAII (Michael W. Deem and Ramdas Pophale) SiO2 
 PCOD8022801
Probable space group: P -1
;
_chemical_formula_sum "Si O2"
_cell_formula_units_Z 16
_cell_length_a 11.977499
_cell_length_b 14.550006
_cell_length_c 9.398789
_cell_angle_alpha 102.169067
_cell_angle_beta 89.737824
_cell_angle_gamma 150.461778
_cell_volume 733.018028
_symmetry_space_group_name_H-M "P -1"
_symmetry_group_IT_number 2
_symmetry_cell_setting 'triclinic'
loop_
_space_group_symop_operation_xyz
x,y,z
-x,-y,-z
loop_
_atom_site_type_symbol
_atom_site_label
_atom_site_fract_x
_atom_site_fract_y
_atom_site_fract_z
Si Si1 0.527409 0.875166 0.019804
Si Si2 0.346546 0.206601 0.482753
Si Si3 0.133937 0.704500 0.349111
Si Si4 0.850394 0.255483 0.965554
Si Si5 0.854826 0.750186 0.429704
Si Si6 0.788210 0.450651 0.712193
Si Si7 0.622070 0.393393 0.254017
Si Si8 0.141068 0.830264 0.640139
O O1 0.501650 0.747836 0.928222
O O2 0.696690 0.054447 0.963269
O O3 0.266347 0.731684 0.983290
O O4 0.641834 0.959155 0.204045
O O5 0.325974 0.302648 0.539803
O O6 0.527508 0.302198 0.633851
O O7 0.437872 0.255493 0.340888
O O8 0.083938 0.961249 0.411066
O O9 0.150983 0.758983 0.208038
O O10 0.239512 0.680420 0.357587
O O11 0.269418 0.875413 0.517449
O O12 0.850919 0.499630 0.333239
O O13 0.125903 0.464324 0.097013
O O14 0.708212 0.564609 0.272848
O O15 0.946212 0.763758 0.574653
O O16 0.004792 0.651565 0.678206
#
# Coordination Sequence:
#
# PCOD8022801 Si02
#       8
#     2   2   2   2   2   2   2   2
#     4  10  23  41  61  96 139 182 208 266 331 380
#     4  11  24  42  73  95 131 175 215 283 325 382
#     4  11  22  38  63 101 136 167 222 261 323 400
#     4  10  23  39  62  96 147 174 214 263 322 405
#     4  10  24  46  67 100 125 169 234 267 327 389
#     4  11  21  39  65  99 135 173 212 270 332 388
#     4  11  23  41  69  95 134 173 211 276 328 384
#     4  10  23  40  65  97 133 171 222 268 319 400
#
# _framework density 21.827566000000001
#
# number of rings (size 3 to 8) (size 9 to 14) (size 15 to 20)
#    0.000    1.500    3.750    1.125    5.250    0.500 
#    0.000    0.625    0.000    4.500    0.000    0.000 
#    0.000    0.000    0.000    0.000    0.000    0.000 
#
# Total GULP energy -198418.193687 kJ/mol
# GULP energy per Si atom -12401.137105 kJ/mol
# Density = 2.177789 g / cm^3
# Si number density = 21.827566 Si / 1000 Ang^3
#
#
#
# Elastic Constant Matrix: (Units=GPa)
#
#
# Indices 1 2 3 4 5 6 
#
# 1 143.3020 32.8381 80.3517 5.2195 -8.3571 -10.0606
# 2 32.8381 59.2891 55.0119 -0.5924 -15.4895 -0.8297
# 3 80.3517 55.0119 173.8109 17.1346 -25.7823 -12.8973
# 4 5.2195 -0.5924 17.1346 26.4906 -4.2647 -0.9180
# 5 -8.3571 -15.4895 -25.7823 -4.2647 31.3137 4.3027
# 6 -10.0606 -0.8297 -12.8973 -0.9180 4.3027 27.5715
#
#
#
# Elastic Compliance Matrix: (Units=1/GPa)
#
#
# Indices 1 2 3 4 5 6 
#
# 1 0.009722 -0.002163 -0.003996 0.000369 -0.001981 0.001934
# 2 -0.002163 0.027068 -0.007352 0.006972 0.008324 -0.004481
# 3 -0.003996 -0.007352 0.011225 -0.006003 0.003330 0.002852
# 4 0.000369 0.006972 -0.006003 0.042398 0.004623 -0.001773
# 5 -0.001981 0.008324 0.003330 0.004623 0.039573 -0.004937
# 6 0.001934 -0.004481 0.002852 -0.001773 -0.004937 0.038886
#
#
# Mechanical properties :
#
#
# Convention : Reuss Voigt Hill
#
# Bulk Modulus (GPa) = 47.63911 79.20060 63.41986
# Shear Modulus (GPa) = 24.64368 30.95517 27.79943
#
# Velocity S-wave (km/s) = 3.36373 3.76994 3.57261
# Velocity P-wave (km/s) = 6.07938 7.43730 6.79236
#
# Compressibility (1/GPa) = 0.02099116
#
# Stress axis : x y z
#
# Youngs Moduli (GPa) = 102.86374 36.94400 89.08603
#
# Poissons Ratio (x) = 0.07992 0.35601
# Poissons Ratio (y) = 0.22253 0.65497
# Poissons Ratio (z) = 0.41107 0.27162
#
# Static dielectric constant tensor:
#      x y z
#    x 3.932260 -0.066060 -0.085190 
#    y -0.066060 4.032590 0.082910 
#    z -0.085190 0.082910 4.123160 
# 
# 
# High freq. dielectric constant tensor:
#      x y z
#    x 1.839470 -0.005850 -0.009520 
#    y -0.005850 1.873770 0.003090 
#    z -0.009520 0.003090 1.854270 
# 
# From -- ./inp_files/273417.got.cif
#   From: 2010.06.25/outbox.cif.g09.slc.cpg/sg2_137_cif.got.tgz:273417.got - 2010.06.27 13:26:56.
