data_PCOD8022469
_publ_section_title
;
Structure prediction by ZEFSAII (Michael W. Deem and Ramdas Pophale) SiO2 
 PCOD8022469
Probable space group: P -1
;
_chemical_formula_sum "Si O2"
_cell_formula_units_Z 16
_cell_length_a 6.325729
_cell_length_b 7.781854
_cell_length_c 18.581252
_cell_angle_alpha 75.386510
_cell_angle_beta 119.673443
_cell_angle_gamma 71.801801
_cell_volume 656.862115
_symmetry_space_group_name_H-M "P -1"
_symmetry_group_IT_number 2
_symmetry_cell_setting 'triclinic'
loop_
_space_group_symop_operation_xyz
x,y,z
-x,-y,-z
loop_
_atom_site_type_symbol
_atom_site_label
_atom_site_fract_x
_atom_site_fract_y
_atom_site_fract_z
Si Si1 0.593065 0.187510 0.581128
Si Si2 0.838626 0.107006 0.864079
Si Si3 0.231452 0.466880 0.211709
Si Si4 0.790363 0.148015 0.271968
Si Si5 0.411057 0.853124 0.034964
Si Si6 0.341288 0.193762 0.679222
Si Si7 0.757084 0.407862 0.109677
Si Si8 0.211966 0.500380 0.373365
O O1 0.368241 0.176134 0.598762
O O2 0.439200 0.277141 0.469599
O O3 0.675712 0.342569 0.615605
O O4 0.876539 0.961231 0.637051
O O5 0.886520 0.300448 0.862635
O O6 0.706682 0.060429 0.915414
O O7 0.650619 0.150913 0.757761
O O8 0.147750 0.888270 0.932984
O O9 0.572967 0.331903 0.269219
O O10 0.175649 0.464655 0.287665
O O11 0.079321 0.359614 0.152548
O O12 0.756942 0.233320 0.176428
O O13 0.706287 0.975898 0.274135
O O14 0.660106 0.619764 0.116180
O O15 0.500000 0.000000 0.000000
O O16 0.085184 0.414630 0.641885
O O17 0.500000 0.500000 0.000000
#
# Coordination Sequence:
#
# PCOD8022469 Si02
#       8
#     2   2   2   2   2   2   2   2
#     4  10  22  46  69 109 135 180 231 282 347 410
#     4  11  24  40  68  98 131 178 233 286 333 405
#     4  12  24  46  67 104 140 183 227 284 348 407
#     4  11  27  44  66 100 147 184 222 279 354 414
#     4  11  24  42  64  97 131 173 238 284 333 392
#     4  11  23  43  72 100 138 180 229 285 344 406
#     4  12  28  43  67  95 140 185 229 280 344 412
#     4  10  23  41  78 102 137 177 233 290 336 409
#
# _framework density 24.358231
#
# number of rings (size 3 to 8) (size 9 to 14) (size 15 to 20)
#    0.000    1.000    3.750    1.875    5.250    1.000 
#    0.000    2.500    0.000    0.000    0.000    0.000 
#    0.000    0.000    0.000    0.000    0.000    0.000 
#
# Total GULP energy -198266.357854 kJ/mol
# GULP energy per Si atom -12391.647366 kJ/mol
# Density = 2.430279 g / cm^3
# Si number density = 24.358231 Si / 1000 Ang^3
#
#
#
# Elastic Constant Matrix: (Units=GPa)
#
#
# Indices 1 2 3 4 5 6 
#
# 1 121.9828 17.9076 55.1923 -12.4910 -17.6753 -7.0139
# 2 17.9076 20.1751 26.6725 -20.1934 0.4769 -11.2078
# 3 55.1923 26.6725 149.2647 -22.5396 -8.3600 -4.4882
# 4 -12.4910 -20.1934 -22.5396 43.4780 -1.3760 8.6312
# 5 -17.6753 0.4769 -8.3600 -1.3760 39.9666 -8.8258
# 6 -7.0139 -11.2078 -4.4882 8.6312 -8.8258 51.7836
#
#
#
# Elastic Compliance Matrix: (Units=1/GPa)
#
#
# Indices 1 2 3 4 5 6 
#
# 1 0.011073 -0.007876 -0.002696 -0.001859 0.004504 0.000639
# 2 -0.007876 0.132984 -0.013012 0.049108 -0.002117 0.018042
# 3 -0.002696 -0.013012 0.009790 -0.001325 0.000518 -0.002024
# 4 -0.001859 0.049108 -0.001325 0.044005 0.000495 0.003012
# 5 0.004504 -0.002117 0.000518 0.000495 0.028252 0.004930
# 6 0.000639 0.018042 -0.002024 0.003012 0.004930 0.023465
#
#
# Mechanical properties :
#
#
# Convention : Reuss Voigt Hill
#
# Bulk Modulus (GPa) = 9.37392 54.55192 31.96292
# Shear Modulus (GPa) = 15.04678 39.82232 27.43455
#
# Velocity S-wave (km/s) = 2.48811 4.04773 3.35967
# Velocity P-wave (km/s) = 3.48008 6.65506 5.31040
#
# Compressibility (1/GPa) = 0.10667898
#
# Stress axis : x y z
#
# Youngs Moduli (GPa) = 90.30894 7.51970 102.14826
#
# Poissons Ratio (x) = 0.05923 0.27541
# Poissons Ratio (y) = 0.71128 1.32911
# Poissons Ratio (z) = 0.24349 0.09784
#
# Static dielectric constant tensor:
#      x y z
#    x 4.653500 -0.177210 0.309950 
#    y -0.177210 4.513780 -0.412900 
#    z 0.309950 -0.412900 4.657520 
# 
# 
# High freq. dielectric constant tensor:
#      x y z
#    x 1.983360 -0.006980 0.004300 
#    y -0.006980 1.952140 -0.029520 
#    z 0.004300 -0.029520 1.973350 
# 
# From -- ./inp_files/91012.got.cif
#   From: 2010.06.25/outbox.cif.g09.slc.cpg/sg2_46_cif.got.tgz:91012.got - 2010.06.27 13:26:56.
