data_PCOD8022572
_publ_section_title
;
Structure prediction by ZEFSAII (Michael W. Deem and Ramdas Pophale) SiO2 
 PCOD8022572
Probable space group: P -1
;
_chemical_formula_sum "Si O2"
_cell_formula_units_Z 16
_cell_length_a 12.396839
_cell_length_b 18.503274
_cell_length_c 8.949492
_cell_angle_alpha 128.603276
_cell_angle_beta 96.888828
_cell_angle_gamma 41.159595
_cell_volume 774.089536
_symmetry_space_group_name_H-M "P -1"
_symmetry_group_IT_number 2
_symmetry_cell_setting 'triclinic'
loop_
_space_group_symop_operation_xyz
x,y,z
-x,-y,-z
loop_
_atom_site_type_symbol
_atom_site_label
_atom_site_fract_x
_atom_site_fract_y
_atom_site_fract_z
Si Si1 0.197614 0.282832 0.718026
Si Si2 0.987800 0.241234 0.096922
Si Si3 0.416685 0.453317 0.092548
Si Si4 0.547476 0.564533 0.272280
Si Si5 0.924314 0.032411 0.195094
Si Si6 0.229695 0.948727 0.271554
Si Si7 0.049214 0.235164 0.434882
Si Si8 0.307300 0.038452 0.637557
O O1 0.232858 0.189096 0.742901
O O2 0.137958 0.269207 0.542358
O O3 0.424683 0.170659 0.581138
O O4 0.000000 0.500000 0.000000
O O5 0.767489 0.438655 0.228496
O O6 0.990723 0.284499 0.315945
O O7 0.209053 0.111625 0.881927
O O8 0.976250 0.140055 0.971736
O O9 0.521671 0.474181 0.175331
O O10 0.160758 0.639942 0.339072
O O11 0.437896 0.417352 0.874336
O O12 0.544544 0.279236 0.983468
O O13 0.342405 0.770092 0.580890
O O14 0.019114 0.036293 0.334884
O O15 0.000000 0.000000 0.000000
O O16 0.203431 0.027215 0.520286
O O17 0.235155 0.017159 0.220832
#
# Coordination Sequence:
#
# PCOD8022572 Si02
#       8
#     2   2   2   2   2   2   2   2
#     4  10  22  47  71  90 118 160 214 270 327 378
#     4  12  25  40  62  97 137 168 206 262 311 380
#     4  11  22  37  60  88 123 174 216 258 299 368
#     4  11  24  36  57  89 129 174 216 254 300 367
#     4  12  24  39  60  94 137 181 209 250 311 374
#     4  11  21  40  63  88 127 172 215 249 306 373
#     4  11  24  41  66  93 125 167 211 262 323 375
#     4  10  24  41  66  97 123 160 216 268 314 376
#
# _framework density 20.669442
#
# number of rings (size 3 to 8) (size 9 to 14) (size 15 to 20)
#    0.000    1.000    3.750    3.000    3.500    3.500 
#    0.000    0.625    0.000    0.000    0.000    0.000 
#    0.000    0.000    0.000    0.000    0.000    0.000 
#
# Total GULP energy -198473.550868 kJ/mol
# GULP energy per Si atom -12404.596929 kJ/mol
# Density = 2.062240 g / cm^3
# Si number density = 20.669442 Si / 1000 Ang^3
#
#
#
# Elastic Constant Matrix: (Units=GPa)
#
#
# Indices 1 2 3 4 5 6 
#
# 1 86.5769 36.2967 40.3330 -3.9342 -8.0706 -16.6364
# 2 36.2967 101.3512 51.4368 5.9972 -7.3321 -18.7926
# 3 40.3330 51.4368 108.7612 3.1935 -16.1265 -8.2819
# 4 -3.9342 5.9972 3.1935 40.3493 6.6835 1.7709
# 5 -8.0706 -7.3321 -16.1265 6.6835 39.9301 -1.4560
# 6 -16.6364 -18.7926 -8.2819 1.7709 -1.4560 22.9421
#
#
#
# Elastic Compliance Matrix: (Units=1/GPa)
#
#
# Indices 1 2 3 4 5 6 
#
# 1 0.016223 -0.002094 -0.004251 0.001658 0.001209 0.008463
# 2 -0.002094 0.015405 -0.005583 -0.002616 0.000929 0.009346
# 3 -0.004251 -0.005583 0.013836 -0.001211 0.003822 -0.002325
# 4 0.001658 -0.002616 -0.001211 0.026456 -0.005199 -0.003750
# 5 0.001209 0.000929 0.003822 -0.005199 0.028062 0.005200
# 6 0.008463 0.009346 -0.002325 -0.003750 0.005200 0.057161
#
#
# Mechanical properties :
#
#
# Convention : Reuss Voigt Hill
#
# Bulk Modulus (GPa) = 46.27685 61.42472 53.85078
# Shear Modulus (GPa) = 26.56751 31.88582 29.22666
#
# Velocity S-wave (km/s) = 3.58907 3.93193 3.76440
# Velocity P-wave (km/s) = 6.29387 7.09898 6.70852
#
# Compressibility (1/GPa) = 0.02160908
#
# Stress axis : x y z
#
# Youngs Moduli (GPa) = 61.64150 64.91507 72.27424
#
# Poissons Ratio (x) = 0.13593 0.30722
# Poissons Ratio (y) = 0.12908 0.40348
# Poissons Ratio (z) = 0.26202 0.36239
#
# Static dielectric constant tensor:
#      x y z
#    x 3.773390 0.119490 0.031210 
#    y 0.119490 4.435940 0.001790 
#    z 0.031210 0.001790 3.675630 
# 
# 
# High freq. dielectric constant tensor:
#      x y z
#    x 1.798890 -0.003570 0.005230 
#    y -0.003570 1.816690 0.012570 
#    z 0.005230 0.012570 1.805580 
# 
# From -- ./inp_files/279896.got.cif
#   From: 2010.06.25/outbox.cif.g09.slc.cpg/sg2_140_cif.got.tgz:279896.got - 2010.06.27 13:26:56.
