data_PCOD8022446
_publ_section_title
;
Structure prediction by ZEFSAII (Michael W. Deem and Ramdas Pophale) SiO2 
 PCOD8022446
Probable space group: P -1
;
_chemical_formula_sum "Si O2"
_cell_formula_units_Z 16
_cell_length_a 14.923140
_cell_length_b 15.264374
_cell_length_c 8.703844
_cell_angle_alpha 128.396334
_cell_angle_beta 28.016697
_cell_angle_gamma 128.464189
_cell_volume 715.122481
_symmetry_space_group_name_H-M "P -1"
_symmetry_group_IT_number 2
_symmetry_cell_setting 'triclinic'
loop_
_space_group_symop_operation_xyz
x,y,z
-x,-y,-z
loop_
_atom_site_type_symbol
_atom_site_label
_atom_site_fract_x
_atom_site_fract_y
_atom_site_fract_z
Si Si1 0.739247 0.939674 0.984218
Si Si2 0.811293 0.422562 0.626133
Si Si3 0.705354 0.787276 0.448046
Si Si4 0.961240 0.159616 0.750188
Si Si5 0.545026 0.558263 0.331490
Si Si6 0.227203 0.015786 0.670176
Si Si7 0.160110 0.602166 0.805638
Si Si8 0.607543 0.195351 0.822759
O O1 0.925217 0.879136 0.610709
O O2 0.695001 0.961307 0.250498
O O3 0.546523 0.854678 0.129232
O O4 0.777017 0.059124 0.961500
O O5 0.831431 0.414311 0.405896
O O6 0.774132 0.295916 0.614646
O O7 0.000000 0.500000 0.500000
O O8 0.621442 0.474605 0.006722
O O9 0.896992 0.827130 0.302321
O O10 0.716916 0.669644 0.216431
O O11 0.678355 0.880967 0.468056
O O12 0.506508 0.759906 0.817043
O O13 0.894010 0.276409 0.938803
O O14 0.500000 0.500000 0.500000
O O15 0.360843 0.597052 0.578085
O O16 0.284120 0.902937 0.390681
O O17 0.000000 0.000000 0.000000
O O18 0.000000 0.500000 0.000000
#
# Coordination Sequence:
#
# PCOD8022446 Si02
#       8
#     2   2   2   2   2   2   2   2
#     4  10  23  43  70  98 141 180 226 284 341 423
#     4  12  27  49  73 100 143 187 240 295 352 416
#     4  11  24  44  72  97 145 182 227 289 342 425
#     4  10  22  46  68 100 139 185 226 280 353 411
#     4  12  26  49  72 103 140 183 237 296 355 415
#     4  12  25  41  67 108 137 176 231 283 349 409
#     4  12  28  45  75 104 139 185 239 291 358 426
#     4  11  26  45  71  96 141 184 230 282 357 417
#
# _framework density 22.373791000000001
#
# number of rings (size 3 to 8) (size 9 to 14) (size 15 to 20)
#    0.000    0.750    2.500    4.125    7.000    2.000 
#    0.000    0.000    0.000    0.000    0.000    0.000 
#    0.000    0.000    0.000    0.000    0.000    0.000 
#
# Total GULP energy -198476.268316 kJ/mol
# GULP energy per Si atom -12404.766770 kJ/mol
# Density = 2.232287 g / cm^3
# Si number density = 22.373791 Si / 1000 Ang^3
#
#
#
# Elastic Constant Matrix: (Units=GPa)
#
#
# Indices 1 2 3 4 5 6 
#
# 1 60.2197 33.3041 10.9085 -5.2950 1.3069 -13.0652
# 2 33.3041 172.6290 34.6105 0.3715 1.0780 -14.5870
# 3 10.9085 34.6105 78.2111 11.2666 1.1354 -14.5898
# 4 -5.2950 0.3715 11.2666 49.0701 -3.8981 -4.8822
# 5 1.3069 1.0780 1.1354 -3.8981 34.5206 -0.7320
# 6 -13.0652 -14.5870 -14.5898 -4.8822 -0.7320 40.4026
#
#
#
# Elastic Compliance Matrix: (Units=1/GPa)
#
#
# Indices 1 2 3 4 5 6 
#
# 1 0.019958 -0.003252 -0.000757 0.002869 -0.000192 0.005350
# 2 -0.003252 0.006982 -0.002565 0.000245 0.000029 0.000573
# 3 -0.000757 -0.002565 0.015233 -0.003223 -0.000673 0.003928
# 4 0.002869 0.000245 -0.003223 0.021879 0.002514 0.002542
# 5 -0.000192 0.000029 -0.000673 0.002514 0.029292 0.000540
# 6 0.005350 0.000573 0.003928 0.002542 0.000540 0.028423
#
#
# Mechanical properties :
#
#
# Convention : Reuss Voigt Hill
#
# Bulk Modulus (GPa) = 34.45167 52.07843 43.26505
# Shear Modulus (GPa) = 34.58017 40.28113 37.43065
#
# Velocity S-wave (km/s) = 3.93563 4.24768 4.09463
# Velocity P-wave (km/s) = 6.00699 6.88361 6.46019
#
# Compressibility (1/GPa) = 0.02902617
#
# Stress axis : x y z
#
# Youngs Moduli (GPa) = 50.10418 143.22466 65.64522
#
# Poissons Ratio (x) = 0.46570 0.04972
# Poissons Ratio (y) = 0.16291 0.16838
# Poissons Ratio (z) = 0.03795 0.36737
#
# Static dielectric constant tensor:
#      x y z
#    x 3.609070 0.269000 0.097030 
#    y 0.269000 4.155280 0.188550 
#    z 0.097030 0.188550 4.307320 
# 
# 
# High freq. dielectric constant tensor:
#      x y z
#    x 1.877010 0.005590 0.004020 
#    y 0.005590 1.899790 0.005660 
#    z 0.004020 0.005660 1.895760 
# 
# From -- ./inp_files/315798.got.cif
#   From: 2010.06.25/outbox.cif.g09.slc.cpg/sg2_158_cif.got.tgz:315798.got - 2010.06.27 13:26:56.
