data_PCOD8022425
_publ_section_title
;
Structure prediction by ZEFSAII (Michael W. Deem and Ramdas Pophale) SiO2 
 PCOD8022425
Probable space group: P -1
;
_chemical_formula_sum "Si O2"
_cell_formula_units_Z 14
_cell_length_a 9.350109
_cell_length_b 12.735080
_cell_length_c 8.951657
_cell_angle_alpha 124.286586
_cell_angle_beta 129.403126
_cell_angle_gamma 62.623947
_cell_volume 671.724991
_symmetry_space_group_name_H-M "P -1"
_symmetry_group_IT_number 2
_symmetry_cell_setting 'triclinic'
loop_
_space_group_symop_operation_xyz
x,y,z
-x,-y,-z
loop_
_atom_site_type_symbol
_atom_site_label
_atom_site_fract_x
_atom_site_fract_y
_atom_site_fract_z
Si Si1 0.829699 0.022115 0.518709
Si Si2 0.418558 0.722761 0.937730
Si Si3 0.206416 0.282074 0.305913
Si Si4 0.510717 0.133365 0.190341
Si Si5 0.872147 0.442790 0.487725
Si Si6 0.889711 0.127921 0.958173
Si Si7 0.226327 0.257319 0.639054
O O1 0.662897 0.115888 0.406189
O O2 0.874670 0.104176 0.754877
O O3 0.768898 0.888211 0.419891
O O4 0.000000 0.000000 0.500000
O O5 0.435716 0.769348 0.818257
O O6 0.301950 0.605785 0.748883
O O7 0.309730 0.836036 0.061890
O O8 0.624228 0.679082 0.111640
O O9 0.314042 0.187164 0.179636
O O10 0.208403 0.429004 0.366986
O O11 0.292059 0.259896 0.512214
O O12 0.996569 0.249096 0.151722
O O13 0.500000 0.000000 0.000000
O O14 0.000000 0.500000 0.500000
O O15 0.012817 0.333515 0.584063
O O16 0.000000 0.000000 0.000000
#
# Coordination Sequence:
#
# PCOD8022425 Si02
#       7
#     2   2   2   2   2   2   2
#     4  12  24  40  66 100 138 173 219 278 343 396
#     4  12  24  43  70  99 132 180 224 278 327 398
#     4  11  24  44  66  97 135 177 219 278 327 401
#     4  12  25  42  66  98 139 168 221 278 338 394
#     4  10  22  46  66  95 137 174 228 274 327 389
#     4  12  22  39  68  97 134 176 220 271 343 391
#     4  11  23  42  71  99 131 177 226 272 333 398
#
# _framework density 20.841863
#
# number of rings (size 3 to 8) (size 9 to 14) (size 15 to 20)
#    0.000    0.571    5.714    4.286    0.000    4.000 
#    2.571    0.714    0.000    0.000    0.000    0.000 
#    0.000    0.000    0.000    0.000    0.000    0.000 
#
# Total GULP energy -173584.915509 kJ/mol
# GULP energy per Si atom -12398.922536 kJ/mol
# Density = 2.079443 g / cm^3
# Si number density = 20.841863 Si / 1000 Ang^3
#
#
#
# Elastic Constant Matrix: (Units=GPa)
#
#
# Indices 1 2 3 4 5 6 
#
# 1 94.1920 31.5260 27.7641 -1.5968 -10.5447 -1.9139
# 2 31.5260 72.1718 56.2947 -1.6015 -7.2732 1.5516
# 3 27.7641 56.2947 156.9943 -7.1484 9.9646 4.4403
# 4 -1.5968 -1.6015 -7.1484 39.3457 3.7491 0.0477
# 5 -10.5447 -7.2732 9.9646 3.7491 38.6044 1.5852
# 6 -1.9139 1.5516 4.4403 0.0477 1.5852 35.7273
#
#
#
# Elastic Compliance Matrix: (Units=1/GPa)
#
#
# Indices 1 2 3 4 5 6 
#
# 1 0.012745 -0.004709 -0.000769 -0.000079 0.002765 0.000860
# 2 -0.004709 0.022247 -0.007497 -0.001121 0.004970 -0.000506
# 3 -0.000769 -0.007497 0.009565 0.001806 -0.004237 -0.000719
# 4 -0.000079 -0.001121 0.001806 0.026002 -0.003221 -0.000072
# 5 0.002765 0.004970 -0.004237 -0.003221 0.029036 -0.000825
# 6 0.000860 -0.000506 -0.000719 -0.000072 -0.000825 0.028184
#
#
# Mechanical properties :
#
#
# Convention : Reuss Voigt Hill
#
# Bulk Modulus (GPa) = 53.73975 61.61418 57.67696
# Shear Modulus (GPa) = 31.26339 36.58703 33.92521
#
# Velocity S-wave (km/s) = 3.87722 4.19436 4.03891
# Velocity P-wave (km/s) = 6.77379 7.28586 7.03449
#
# Compressibility (1/GPa) = 0.01860820
#
# Stress axis : x y z
#
# Youngs Moduli (GPa) = 78.46179 44.94926 104.54490
#
# Poissons Ratio (x) = 0.21168 0.08036
# Poissons Ratio (y) = 0.36950 0.78374
# Poissons Ratio (z) = 0.06031 0.33697
#
# Static dielectric constant tensor:
#      x y z
#    x 3.954170 -0.291430 0.077790 
#    y -0.291430 4.604890 0.266080 
#    z 0.077790 0.266080 4.010300 
# 
# 
# High freq. dielectric constant tensor:
#      x y z
#    x 1.815090 -0.002450 0.004800 
#    y -0.002450 1.814880 0.002670 
#    z 0.004800 0.002670 1.825230 
# 
# From -- ./inp_files/179557.got.cif
#   From: 2010.06.25/outbox.cif.g09.slc.cpg/sg2_90_cif.got.tgz:179557.got - 2010.06.27 13:26:56.
