data_PCOD8022897
_publ_section_title
;
Structure prediction by ZEFSAII (Michael W. Deem and Ramdas Pophale) SiO2 
 PCOD8022897
Probable space group: P -1
;
_chemical_formula_sum "Si O2"
_cell_formula_units_Z 14
_cell_length_a 17.825727
_cell_length_b 9.461010
_cell_length_c 9.624001
_cell_angle_alpha 128.359969
_cell_angle_beta 114.614520
_cell_angle_gamma 31.938994
_cell_volume 649.114947
_symmetry_space_group_name_H-M "P -1"
_symmetry_group_IT_number 2
_symmetry_cell_setting 'triclinic'
loop_
_space_group_symop_operation_xyz
x,y,z
-x,-y,-z
loop_
_atom_site_type_symbol
_atom_site_label
_atom_site_fract_x
_atom_site_fract_y
_atom_site_fract_z
Si Si1 0.277587 0.404419 0.608842
Si Si2 0.871720 0.368237 0.095499
Si Si3 0.154074 0.822460 0.518491
Si Si4 0.644062 0.615460 0.856481
Si Si5 0.556431 0.304130 0.140462
Si Si6 0.123923 0.279549 0.844235
Si Si7 0.471260 0.806764 0.250024
O O1 0.179189 0.494814 0.705635
O O2 0.207782 0.689126 0.635622
O O3 0.416312 0.231281 0.694768
O O4 0.314761 0.169006 0.395421
O O5 0.921386 0.470051 0.133989
O O6 0.757739 0.468175 0.971749
O O7 0.000000 0.000000 0.000000
O O8 0.272239 0.533975 0.319658
O O9 0.128098 0.084470 0.642436
O O10 0.000000 0.000000 0.500000
O O11 0.579957 0.529970 0.775768
O O12 0.500000 0.000000 0.000000
O O13 0.530005 0.564515 0.266427
O O14 0.713712 0.973002 0.125440
O O15 0.552704 0.233696 0.941084
O O16 0.000000 0.500000 0.000000
#
# Coordination Sequence:
#
# PCOD8022897 Si02
#       7
#     2   2   2   2   2   2   2
#     4  11  23  44  69 100 139 182 234 290 364 419
#     4  12  27  47  71 104 148 191 241 300 367 434
#     4  12  28  49  73 105 147 193 245 299 371 441
#     4  12  25  45  76 107 144 190 245 305 358 430
#     4  11  23  43  70 106 143 182 246 295 360 428
#     4  12  27  46  74 102 146 198 245 298 369 437
#     4  10  23  39  70 104 140 181 227 303 358 421
#
# _framework density 21.567829
#
# number of rings (size 3 to 8) (size 9 to 14) (size 15 to 20)
#    0.000    0.571    4.286    3.429    6.000    0.571 
#    0.000    1.429    0.000    0.000    0.000    0.000 
#    0.000    0.000    0.000    0.000    0.000    0.000 
#
# Total GULP energy -173529.396552 kJ/mol
# GULP energy per Si atom -12394.956897 kJ/mol
# Density = 2.151874 g / cm^3
# Si number density = 21.567829 Si / 1000 Ang^3
#
#
#
# Elastic Constant Matrix: (Units=GPa)
#
#
# Indices 1 2 3 4 5 6 
#
# 1 149.2997 58.1388 60.3772 9.7579 -22.9294 8.1839
# 2 58.1388 120.9621 40.1888 6.3025 2.2723 5.7421
# 3 60.3772 40.1888 94.5590 11.7280 -18.4235 1.3151
# 4 9.7579 6.3025 11.7280 35.4892 1.2875 3.0045
# 5 -22.9294 2.2723 -18.4235 1.2875 38.2173 -0.4886
# 6 8.1839 5.7421 1.3151 3.0045 -0.4886 43.7099
#
#
#
# Elastic Compliance Matrix: (Units=1/GPa)
#
#
# Indices 1 2 3 4 5 6 
#
# 1 0.010689 -0.003716 -0.004210 -0.000948 0.004620 -0.001270
# 2 -0.003716 0.011261 -0.003328 0.000350 -0.004525 -0.000758
# 3 -0.004210 -0.003328 0.016250 -0.003917 0.005651 0.001069
# 4 -0.000948 0.000350 -0.003917 0.029954 -0.003510 -0.001849
# 5 0.004620 -0.004525 0.005651 -0.003510 0.032052 0.000159
# 6 -0.001270 -0.000758 0.001069 -0.001849 0.000159 0.023312
#
#
# Mechanical properties :
#
#
# Convention : Reuss Voigt Hill
#
# Bulk Modulus (GPa) = 63.72663 75.80339 69.76501
# Shear Modulus (GPa) = 33.05624 37.22434 35.14029
#
# Velocity S-wave (km/s) = 3.91917 4.15893 4.04083
# Velocity P-wave (km/s) = 7.07751 7.63446 7.36125
#
# Compressibility (1/GPa) = 0.01569203
#
# Stress axis : x y z
#
# Youngs Moduli (GPa) = 93.55830 88.79852 61.53723
#
# Poissons Ratio (x) = 0.32994 0.25909
# Poissons Ratio (y) = 0.34762 0.20481
# Poissons Ratio (z) = 0.39391 0.29554
#
# Static dielectric constant tensor:
#      x y z
#    x 4.147070 0.314090 0.115270 
#    y 0.314090 3.940040 0.092300 
#    z 0.115270 0.092300 3.859450 
# 
# 
# High freq. dielectric constant tensor:
#      x y z
#    x 1.858780 0.003790 -0.001560 
#    y 0.003790 1.853410 0.005640 
#    z -0.001560 0.005640 1.851290 
# 
# From -- ./inp_files/319548.got.cif
#   From: 2010.06.25/outbox.cif.g09.slc.cpg/sg2_160_cif.got.tgz:319548.got - 2010.06.27 13:26:56.
