data_PCOD8022315
_publ_section_title
;
Structure prediction by ZEFSAII (Michael W. Deem and Ramdas Pophale) SiO2 
 PCOD8022315
Probable space group: P -1
;
_chemical_formula_sum "Si O2"
_cell_formula_units_Z 16
_cell_length_a 16.526841
_cell_length_b 16.844735
_cell_length_c 7.483567
_cell_angle_alpha 87.133300
_cell_angle_beta 81.739780
_cell_angle_gamma 157.731363
_cell_volume 681.998166
_symmetry_space_group_name_H-M "P -1"
_symmetry_group_IT_number 2
_symmetry_cell_setting 'triclinic'
loop_
_space_group_symop_operation_xyz
x,y,z
-x,-y,-z
loop_
_atom_site_type_symbol
_atom_site_label
_atom_site_fract_x
_atom_site_fract_y
_atom_site_fract_z
Si Si1 0.596213 0.672014 0.882578
Si Si2 0.416883 0.326789 0.726680
Si Si3 0.661269 0.915427 0.258111
Si Si4 0.158789 0.355594 0.861315
Si Si5 0.118723 0.179726 0.632236
Si Si6 0.506760 0.127506 0.975688
Si Si7 0.913496 0.385357 0.855431
Si Si8 0.377166 0.723072 0.672536
O O1 0.650188 0.765329 0.042973
O O2 0.500000 0.500000 0.000000
O O3 0.400955 0.536604 0.840747
O O4 0.855790 0.910365 0.662176
O O5 0.438987 0.263162 0.623347
O O6 0.201717 0.185817 0.738406
O O7 0.671317 0.611746 0.607321
O O8 0.516815 0.813506 0.137902
O O9 0.606065 0.924728 0.439637
O O10 0.953200 0.176064 0.101711
O O11 0.067694 0.216115 0.745485
O O12 0.222176 0.500362 0.756617
O O13 0.756383 0.309835 0.812651
O O14 0.516675 0.154669 0.181620
O O15 0.265788 0.854734 0.036590
O O16 0.177098 0.601219 0.661957
O O17 0.000000 0.500000 0.000000
#
# Coordination Sequence:
#
# PCOD8022315 Si02
#       8
#     2   2   2   2   2   2   2   2
#     4  12  24  40  65  90 123 178 230 284 341 394
#     4  11  23  43  65  95 128 181 228 280 344 398
#     4  12  24  43  70 100 139 181 229 278 343 406
#     4  12  24  43  63  95 137 175 227 285 334 396
#     4  11  24  44  65  88 138 175 227 290 333 391
#     4  10  22  45  71 103 138 175 219 280 333 408
#     4   9  20  45  76  97 140 177 214 277 340 399
#     4  11  24  43  68 104 137 176 221 278 341 403
#
# _framework density 23.460474000000001
#
# number of rings (size 3 to 8) (size 9 to 14) (size 15 to 20)
#    0.000    1.000    5.000    1.875    0.000    2.000 
#    4.500    5.625    0.000    0.000    0.000    0.000 
#    0.000    0.000    0.000    0.000    0.000    0.000 
#
# Total GULP energy -198292.506877 kJ/mol
# GULP energy per Si atom -12393.281680 kJ/mol
# Density = 2.340708 g / cm^3
# Si number density = 23.460474 Si / 1000 Ang^3
#
#
#
# Elastic Constant Matrix: (Units=GPa)
#
#
# Indices 1 2 3 4 5 6 
#
# 1 105.2696 38.0640 18.4553 -13.9665 -14.4236 10.8758
# 2 38.0640 97.5985 11.4162 -23.2227 -4.4979 12.7197
# 3 18.4553 11.4162 50.4187 -20.6580 -4.1076 21.8579
# 4 -13.9665 -23.2227 -20.6580 37.9114 7.3295 -8.6203
# 5 -14.4236 -4.4979 -4.1076 7.3295 29.1642 -5.7540
# 6 10.8758 12.7197 21.8579 -8.6203 -5.7540 35.6145
#
#
#
# Elastic Compliance Matrix: (Units=1/GPa)
#
#
# Indices 1 2 3 4 5 6 
#
# 1 0.012285 -0.004476 -0.003878 -0.001171 0.005291 0.000799
# 2 -0.004476 0.014001 0.003496 0.008368 -0.002485 -0.004155
# 3 -0.003878 0.003496 0.034612 0.016274 -0.004153 -0.018039
# 4 -0.001171 0.008368 0.016274 0.040554 -0.007996 -0.004095
# 5 0.005291 -0.002485 -0.004153 -0.007996 0.039173 0.006214
# 6 0.000799 -0.004155 -0.018039 -0.004095 0.006214 0.040402
#
#
# Mechanical properties :
#
#
# Convention : Reuss Voigt Hill
#
# Bulk Modulus (GPa) = 19.53888 43.23974 31.38931
# Shear Modulus (GPa) = 24.06100 32.89478 28.47789
#
# Velocity S-wave (km/s) = 3.20597 3.74857 3.48784
# Velocity P-wave (km/s) = 4.69583 6.09972 5.44323
#
# Compressibility (1/GPa) = 0.05118000
#
# Stress axis : x y z
#
# Youngs Moduli (GPa) = 81.39987 71.42331 28.89186
#
# Poissons Ratio (x) = 0.31972 0.11205
# Poissons Ratio (y) = 0.36438 -0.10100
# Poissons Ratio (z) = 0.31569 -0.24968
#
# Static dielectric constant tensor:
#      x y z
#    x 4.504010 -0.136450 -0.663220 
#    y -0.136450 4.289290 0.000960 
#    z -0.663220 0.000960 4.282220 
# 
# 
# High freq. dielectric constant tensor:
#      x y z
#    x 1.943640 -0.004770 -0.024480 
#    y -0.004770 1.929000 -0.007570 
#    z -0.024480 -0.007570 1.919660 
# 
# From -- ./inp_files/336527.got.cif
#   From: 2010.06.25/outbox.cif.g09.slc.cpg/sg2_169_cif.got.tgz:336527.got - 2010.06.27 13:26:56.
