data_PCOD8022850
_publ_section_title
;
Structure prediction by ZEFSAII (Michael W. Deem and Ramdas Pophale) SiO2 
 PCOD8022850
Probable space group: P -1
;
_chemical_formula_sum "Si O2"
_cell_formula_units_Z 12
_cell_length_a 13.775418
_cell_length_b 8.950501
_cell_length_c 7.831902
_cell_angle_alpha 132.134745
_cell_angle_beta 99.859131
_cell_angle_gamma 58.802621
_cell_volume 588.411834
_symmetry_space_group_name_H-M "P -1"
_symmetry_group_IT_number 2
_symmetry_cell_setting 'triclinic'
loop_
_space_group_symop_operation_xyz
x,y,z
-x,-y,-z
loop_
_atom_site_type_symbol
_atom_site_label
_atom_site_fract_x
_atom_site_fract_y
_atom_site_fract_z
Si Si1 0.687276 0.030548 0.397024
Si Si2 0.259789 0.480776 0.497243
Si Si3 0.555603 0.505335 0.245727
Si Si4 0.607847 0.020337 0.999670
Si Si5 0.138597 0.819453 0.403152
Si Si6 0.259560 0.474166 0.864423
O O1 0.577792 0.270069 0.631165
O O2 0.674960 0.031490 0.191506
O O3 0.804509 0.024143 0.471918
O O4 0.695726 0.800638 0.301449
O O5 0.380375 0.478886 0.550808
O O6 0.176340 0.665563 0.469753
O O7 0.194218 0.553690 0.719122
O O8 0.296111 0.211962 0.257424
O O9 0.559614 0.258990 0.055055
O O10 0.624388 0.512447 0.104119
O O11 0.500000 0.000000 0.000000
O O12 0.173356 0.644091 0.117089
O O13 0.000000 0.000000 0.500000
#
# Coordination Sequence:
#
# PCOD8022850 Si02
#       6
#     2   2   2   2   2   2
#     4  12  22  41  68 101 137 171 219 267 329 401
#     4  10  23  44  62  99 133 166 220 270 335 383
#     4  10  23  39  66 104 137 169 205 274 338 393
#     4  12  20  37  68 100 141 175 207 266 337 404
#     4  12  27  47  69  91 130 184 228 272 322 382
#     4  10  25  43  67 102 131 170 222 274 330 396
#
# _framework density 20.393878999999998
#
# number of rings (size 3 to 8) (size 9 to 14) (size 15 to 20)
#    1.000    0.000    5.000    2.000    2.333    2.000 
#    0.000    0.833    0.000    0.000    0.000    0.000 
#    0.000    0.000    0.000    0.000    0.000    0.000 
#
# Total GULP energy -148775.398393 kJ/mol
# GULP energy per Si atom -12397.949866 kJ/mol
# Density = 2.034746 g / cm^3
# Si number density = 20.393879 Si / 1000 Ang^3
#
#
#
# Elastic Constant Matrix: (Units=GPa)
#
#
# Indices 1 2 3 4 5 6 
#
# 1 115.8997 70.5613 51.2824 26.7530 -5.8797 -4.9978
# 2 70.5613 130.1346 75.0780 6.2426 -0.9267 18.3606
# 3 51.2824 75.0780 103.4015 6.5673 2.7308 0.5574
# 4 26.7530 6.2426 6.5673 42.6952 12.4292 9.3621
# 5 -5.8797 -0.9267 2.7308 12.4292 25.8904 10.5104
# 6 -4.9978 18.3606 0.5574 9.3621 10.5104 33.7503
#
#
#
# Elastic Compliance Matrix: (Units=1/GPa)
#
#
# Indices 1 2 3 4 5 6 
#
# 1 0.020366 -0.011014 -0.001373 -0.015496 0.007331 0.011046
# 2 -0.011014 0.021862 -0.010908 0.008365 0.002032 -0.016297
# 3 -0.001373 -0.010908 0.018400 -0.000389 -0.005384 0.007212
# 4 -0.015496 0.008365 -0.000389 0.039708 -0.017163 -0.012508
# 5 0.007331 0.002032 -0.005384 -0.017163 0.054041 -0.011999
# 6 0.011046 -0.016297 0.007212 -0.012508 -0.011999 0.047218
#
#
# Mechanical properties :
#
#
# Convention : Reuss Voigt Hill
#
# Bulk Modulus (GPa) = 71.23188 82.58657 76.90923
# Shear Modulus (GPa) = 19.77343 30.63479 25.20411
#
# Velocity S-wave (km/s) = 3.11718 3.87997 3.51930
# Velocity P-wave (km/s) = 6.92529 7.78819 7.36938
#
# Compressibility (1/GPa) = 0.01403866
#
# Stress axis : x y z
#
# Youngs Moduli (GPa) = 49.10146 45.74114 54.34689
#
# Poissons Ratio (x) = 0.50378 0.07460
# Poissons Ratio (y) = 0.54079 0.59284
# Poissons Ratio (z) = 0.06740 0.49897
#
# Static dielectric constant tensor:
#      x y z
#    x 3.413180 0.146730 0.229700 
#    y 0.146730 3.698380 -0.091090 
#    z 0.229700 -0.091090 3.814110 
# 
# 
# High freq. dielectric constant tensor:
#      x y z
#    x 1.766500 0.016310 0.021010 
#    y 0.016310 1.803210 -0.005080 
#    z 0.021010 -0.005080 1.810930 
# 
# From -- ./inp_files/54042.got.cif
#   From: 2010.06.25/outbox.cif.g09.slc.cpg/sg2_28_cif.got.tgz:54042.got - 2010.06.27 13:26:56.
