data_PCOD8022489
_publ_section_title
;
Structure prediction by ZEFSAII (Michael W. Deem and Ramdas Pophale) SiO2 
 PCOD8022489
Probable space group: P -1
;
_chemical_formula_sum "Si O2"
_cell_formula_units_Z 16
_cell_length_a 11.730618
_cell_length_b 6.646346
_cell_length_c 11.454525
_cell_angle_alpha 122.053633
_cell_angle_beta 98.539934
_cell_angle_gamma 80.462854
_cell_volume 744.490920
_symmetry_space_group_name_H-M "P -1"
_symmetry_group_IT_number 2
_symmetry_cell_setting 'triclinic'
loop_
_space_group_symop_operation_xyz
x,y,z
-x,-y,-z
loop_
_atom_site_type_symbol
_atom_site_label
_atom_site_fract_x
_atom_site_fract_y
_atom_site_fract_z
Si Si1 0.646223 0.982207 0.833800
Si Si2 0.039500 0.128629 0.659765
Si Si3 0.464297 0.276981 0.741951
Si Si4 0.071970 0.665694 0.846124
Si Si5 0.591600 0.460364 0.603874
Si Si6 0.705973 0.090521 0.356642
Si Si7 0.896634 0.070503 0.845651
Si Si8 0.678193 0.235138 0.143733
O O1 0.543941 0.166523 0.824791
O O2 0.762408 0.033412 0.799990
O O3 0.626018 0.707424 0.734214
O O4 0.658443 0.021333 0.986571
O O5 0.048982 0.404210 0.722932
O O6 0.943485 0.111576 0.737843
O O7 0.163130 0.005883 0.682911
O O8 0.000000 0.000000 0.500000
O O9 0.541271 0.297815 0.645096
O O10 0.401008 0.534751 0.845540
O O11 0.363132 0.107276 0.651737
O O12 0.187197 0.726071 0.816958
O O13 0.088522 0.699177 0.998744
O O14 0.961126 0.835985 0.841275
O O15 0.500000 0.500000 0.500000
O O16 0.703492 0.311061 0.515099
O O17 0.641037 0.169050 0.248631
#
# Coordination Sequence:
#
# PCOD8022489 Si02
#       8
#     2   2   2   2   2   2   2   2
#     4  11  27  43  70 104 136 177 229 280 334 405
#     4  12  27  42  69 105 134 176 227 278 335 408
#     4  12  24  44  72  98 138 176 231 270 343 395
#     4  10  22  46  70  95 133 180 222 276 339 397
#     4  12  26  45  65  97 137 185 217 276 336 402
#     4  12  26  45  69  97 139 181 225 278 342 401
#     4  10  24  45  69  99 135 174 223 280 338 395
#     4  11  23  46  71 100 134 177 229 284 336 395
#
# _framework density 21.491198000000001
#
# number of rings (size 3 to 8) (size 9 to 14) (size 15 to 20)
#    0.000    0.750    5.000    1.125    3.500    4.500 
#    0.000    0.000    0.000    0.000    0.000    0.000 
#    0.000    0.000    0.000    0.000    0.000    0.000 
#
# Total GULP energy -198450.231417 kJ/mol
# GULP energy per Si atom -12403.139464 kJ/mol
# Density = 2.144228 g / cm^3
# Si number density = 21.491198 Si / 1000 Ang^3
#
#
#
# Elastic Constant Matrix: (Units=GPa)
#
#
# Indices 1 2 3 4 5 6 
#
# 1 90.7154 25.5919 39.4870 9.2277 -0.2557 -3.2342
# 2 25.5919 90.7907 60.0032 14.9047 6.3669 8.9081
# 3 39.4870 60.0032 157.0067 19.4019 -0.2934 25.0524
# 4 9.2277 14.9047 19.4019 39.6625 2.0143 -5.8956
# 5 -0.2557 6.3669 -0.2934 2.0143 35.8203 0.8956
# 6 -3.2342 8.9081 25.0524 -5.8956 0.8956 33.9003
#
#
#
# Elastic Compliance Matrix: (Units=1/GPa)
#
#
# Indices 1 2 3 4 5 6 
#
# 1 0.013131 -0.002006 -0.003167 -0.000162 0.000331 0.004083
# 2 -0.002006 0.015622 -0.004917 -0.003031 -0.002633 -0.001120
# 3 -0.003167 -0.004917 0.010750 -0.003882 0.001349 -0.007665
# 4 -0.000162 -0.003031 -0.003882 0.029674 -0.001384 0.008847
# 5 0.000331 -0.002633 0.001349 -0.001384 0.028508 -0.001268
# 6 0.004083 -0.001120 -0.007665 0.008847 -0.001268 0.037419
#
#
# Mechanical properties :
#
#
# Convention : Reuss Voigt Hill
#
# Bulk Modulus (GPa) = 51.75149 65.40855 58.58002
# Shear Modulus (GPa) = 30.91697 36.10534 33.51116
#
# Velocity S-wave (km/s) = 3.79699 4.10323 3.95308
# Velocity P-wave (km/s) = 6.58448 7.27666 6.93921
#
# Compressibility (1/GPa) = 0.01932311
#
# Stress axis : x y z
#
# Youngs Moduli (GPa) = 76.15742 64.01364 93.02209
#
# Poissons Ratio (x) = 0.12839 0.29457
# Poissons Ratio (y) = 0.15274 0.45742
# Poissons Ratio (z) = 0.24117 0.31478
#
# Static dielectric constant tensor:
#      x y z
#    x 4.065480 -0.094260 -0.218510 
#    y -0.094260 3.853720 0.157300 
#    z -0.218510 0.157300 4.024410 
# 
# 
# High freq. dielectric constant tensor:
#      x y z
#    x 1.858650 -0.003460 -0.012500 
#    y -0.003460 1.840620 0.006730 
#    z -0.012500 0.006730 1.849390 
# 
# From -- ./inp_files/68576.got.cif
#   From: 2010.06.25/outbox.cif.g09.slc.cpg/sg2_35_cif.got.tgz:68576.got - 2010.06.27 13:26:56.
