data_PCOD8022176
_publ_section_title
;
Structure prediction by ZEFSAII (Michael W. Deem and Ramdas Pophale) SiO2 
 PCOD8022176
Probable space group: P -1
;
_chemical_formula_sum "Si O2"
_cell_formula_units_Z 12
_cell_length_a 13.270009
_cell_length_b 9.040836
_cell_length_c 9.641231
_cell_angle_alpha 101.179867
_cell_angle_beta 64.444134
_cell_angle_gamma 146.622650
_cell_volume 540.884832
_symmetry_space_group_name_H-M "P -1"
_symmetry_group_IT_number 2
_symmetry_cell_setting 'triclinic'
loop_
_space_group_symop_operation_xyz
x,y,z
-x,-y,-z
loop_
_atom_site_type_symbol
_atom_site_label
_atom_site_fract_x
_atom_site_fract_y
_atom_site_fract_z
Si Si1 0.086073 0.117355 0.624982
Si Si2 0.389666 0.663612 0.413435
Si Si3 0.082253 0.821495 0.082850
Si Si4 0.542635 0.373290 0.926695
Si Si5 0.959334 0.722770 0.826097
Si Si6 0.829053 0.321568 0.324598
O O1 0.317908 0.462806 0.539335
O O2 0.927956 0.043019 0.790373
O O3 0.000000 0.000000 0.500000
O O4 0.099599 0.981036 0.681893
O O5 0.348856 0.532745 0.269508
O O6 0.232949 0.630445 0.510350
O O7 0.629507 0.988309 0.346359
O O8 0.907478 0.497427 0.170725
O O9 0.059568 0.845351 0.941733
O O10 0.319804 0.029466 0.005181
O O11 0.716475 0.499599 0.949207
O O12 0.500000 0.500000 0.000000
O O13 0.982597 0.577675 0.726643
#
# Coordination Sequence:
#
# PCOD8022176 Si02
#       6
#     2   2   2   2   2   2
#     4  11  22  43  68 100 137 182 226 285 331 401
#     4  10  22  45  67  95 142 175 223 286 329 400
#     4  11  24  46  69  99 145 172 230 287 332 411
#     4  12  24  42  70 102 136 174 231 284 332 400
#     4  12  24  41  74 103 131 186 228 268 363 390
#     4  10  24  45  69  99 139 183 223 281 341 407
#
# _framework density 22.185869
#
# number of rings (size 3 to 8) (size 9 to 14) (size 15 to 20)
#    0.000    1.000    5.000    1.000    0.000    2.000 
#    0.000    5.000    0.000    0.000    0.000    0.000 
#    0.000    0.000    0.000    0.000    0.000    0.000 
#
# Total GULP energy -148698.303710 kJ/mol
# GULP energy per Si atom -12391.525309 kJ/mol
# Density = 2.213537 g / cm^3
# Si number density = 22.185869 Si / 1000 Ang^3
#
#
#
# Elastic Constant Matrix: (Units=GPa)
#
#
# Indices 1 2 3 4 5 6 
#
# 1 146.7818 57.5400 65.6375 0.7037 -12.7568 -11.7536
# 2 57.5400 97.8676 59.2618 -12.1595 6.5673 0.3704
# 3 65.6375 59.2618 139.6343 4.5040 -6.0747 -14.2848
# 4 0.7037 -12.1595 4.5040 37.3171 -9.4487 -4.5984
# 5 -12.7568 6.5673 -6.0747 -9.4487 43.9703 -8.0996
# 6 -11.7536 0.3704 -14.2848 -4.5984 -8.0996 30.7090
#
#
#
# Elastic Compliance Matrix: (Units=1/GPa)
#
#
# Indices 1 2 3 4 5 6 
#
# 1 0.010514 -0.005215 -0.002107 -0.000029 0.004313 0.004240
# 2 -0.005215 0.017931 -0.006113 0.004692 -0.005076 -0.005692
# 3 -0.002107 -0.006113 0.011414 -0.002144 0.002314 0.004866
# 4 -0.000029 0.004692 -0.002144 0.030915 0.006616 0.005309
# 5 0.004313 -0.005076 0.002314 0.006616 0.028578 0.011317
# 6 0.004240 -0.005692 0.004866 0.005309 0.011317 0.040299
#
#
# Mechanical properties :
#
#
# Convention : Reuss Voigt Hill
#
# Bulk Modulus (GPa) = 76.98637 83.24027 80.11332
# Shear Modulus (GPa) = 29.26571 35.85557 32.56064
#
# Velocity S-wave (km/s) = 3.63590 4.02449 3.83512
# Velocity P-wave (km/s) = 7.23895 7.69391 7.46990
#
# Compressibility (1/GPa) = 0.01298931
#
# Stress axis : x y z
#
# Youngs Moduli (GPa) = 95.11482 55.77055 87.61264
#
# Poissons Ratio (x) = 0.29083 0.18456
# Poissons Ratio (y) = 0.49600 0.53558
# Poissons Ratio (z) = 0.20037 0.34093
#
# Static dielectric constant tensor:
#      x y z
#    x 4.010480 -0.200970 -0.349010 
#    y -0.200970 4.078630 -0.219480 
#    z -0.349010 -0.219480 4.365460 
# 
# 
# High freq. dielectric constant tensor:
#      x y z
#    x 1.851610 -0.018740 -0.023550 
#    y -0.018740 1.879020 -0.011150 
#    z -0.023550 -0.011150 1.893240 
# 
# From -- ./inp_files/164953.got.cif
#   From: 2010.06.25/outbox.cif.g09.slc.cpg/sg2_83_cif.got.tgz:164953.got - 2010.06.27 13:26:56.
