data_PCOD8022602
_publ_section_title
;
Structure prediction by ZEFSAII (Michael W. Deem and Ramdas Pophale) SiO2 
 PCOD8022602
Probable space group: P -1
;
_chemical_formula_sum "Si O2"
_cell_formula_units_Z 16
_cell_length_a 9.818225
_cell_length_b 13.076480
_cell_length_c 9.072971
_cell_angle_alpha 106.536483
_cell_angle_beta 31.519730
_cell_angle_gamma 103.691889
_cell_volume 583.750068
_symmetry_space_group_name_H-M "P -1"
_symmetry_group_IT_number 2
_symmetry_cell_setting 'triclinic'
loop_
_space_group_symop_operation_xyz
x,y,z
-x,-y,-z
loop_
_atom_site_type_symbol
_atom_site_label
_atom_site_fract_x
_atom_site_fract_y
_atom_site_fract_z
Si Si1 0.317386 0.504932 0.854783
Si Si2 0.956148 0.232792 0.557918
Si Si3 0.861401 0.539605 0.498108
Si Si4 0.589580 0.209299 0.646397
Si Si5 0.739198 0.258653 0.075435
Si Si6 0.739707 0.056329 0.222312
Si Si7 0.713346 0.717935 0.298632
Si Si8 0.662890 0.953358 0.964671
O O1 0.568460 0.497002 0.729966
O O2 0.313602 0.409082 0.698646
O O3 0.312383 0.615385 0.819804
O O4 0.045470 0.492121 0.183539
O O5 0.154106 0.329372 0.447332
O O6 0.782317 0.277733 0.598850
O O7 0.762597 0.214491 0.868308
O O8 0.096829 0.119570 0.346295
O O9 0.000000 0.500000 0.500000
O O10 0.752258 0.171247 0.336375
O O11 0.345193 0.270500 0.820518
O O12 0.504167 0.115890 0.797041
O O13 0.007634 0.232520 0.903689
O O14 0.489185 0.214461 0.380443
O O15 0.500000 0.000000 0.500000
O O16 0.741704 0.055222 0.038109
O O17 0.000000 0.000000 0.000000
O O18 0.500000 0.000000 0.000000
#
# Coordination Sequence:
#
# PCOD8022602 Si02
#       8
#     2   2   2   2   2   2   2   2
#     4  11  23  44  68 103 149 197 246 294 354 426
#     4  11  26  45  72 106 149 187 245 298 368 433
#     4  11  24  40  71 107 152 194 238 300 361 430
#     4  11  27  45  75 105 144 187 243 304 362 440
#     4  11  26  44  69 107 147 195 242 301 356 427
#     4  10  22  48  70 102 136 179 229 292 360 426
#     4  12  26  45  75 106 145 197 249 296 358 433
#     4  11  27  48  77 105 145 191 241 304 373 442
#
# _framework density 27.408988999999998
#
# number of rings (size 3 to 8) (size 9 to 14) (size 15 to 20)
#    0.000    1.000    1.250    4.125   10.500    0.500 
#    2.250    0.000    0.000    0.000    0.000    0.000 
#    0.000    0.000    0.000    0.000    0.000    0.000 
#
# Total GULP energy -198258.354441 kJ/mol
# GULP energy per Si atom -12391.147153 kJ/mol
# Density = 2.734660 g / cm^3
# Si number density = 27.408989 Si / 1000 Ang^3
#
#
#
# Elastic Constant Matrix: (Units=GPa)
#
#
# Indices 1 2 3 4 5 6 
#
# 1 169.4605 24.1087 71.8646 15.3718 0.9399 -5.2363
# 2 24.1087 34.7555 36.9345 9.7032 12.9269 -7.9716
# 3 71.8646 36.9345 149.6219 15.0602 4.2684 -1.6558
# 4 15.3718 9.7032 15.0602 36.2236 2.8569 2.2391
# 5 0.9399 12.9269 4.2684 2.8569 58.3968 3.0059
# 6 -5.2363 -7.9716 -1.6558 2.2391 3.0059 51.6636
#
#
#
# Elastic Compliance Matrix: (Units=1/GPa)
#
#
# Indices 1 2 3 4 5 6 
#
# 1 0.007601 -0.001626 -0.003101 -0.001570 0.000518 0.000458
# 2 -0.001626 0.048138 -0.009949 -0.007771 -0.009927 0.007858
# 3 -0.003101 -0.009949 0.010613 -0.000458 0.001580 -0.001582
# 4 -0.001570 -0.007771 -0.000458 0.030680 0.000418 -0.002727
# 5 0.000518 -0.009927 0.001580 0.000418 0.019310 -0.002570
# 6 0.000458 0.007858 -0.001582 -0.002727 -0.002570 0.020832
#
#
# Mechanical properties :
#
#
# Convention : Reuss Voigt Hill
#
# Bulk Modulus (GPa) = 27.02864 68.85039 47.93952
# Shear Modulus (GPa) = 27.95484 43.98548 35.97016
#
# Velocity S-wave (km/s) = 3.19708 4.01032 3.62657
# Velocity P-wave (km/s) = 4.84882 6.82772 5.92152
#
# Compressibility (1/GPa) = 0.03699779
#
# Stress axis : x y z
#
# Youngs Moduli (GPa) = 131.55688 20.77367 94.22764
#
# Poissons Ratio (x) = 0.03378 0.29222
# Poissons Ratio (y) = 0.21395 0.93752
# Poissons Ratio (z) = 0.40798 0.20669
#
# Static dielectric constant tensor:
#      x y z
#    x 5.474490 0.378090 0.398350 
#    y 0.378090 4.945390 0.188560 
#    z 0.398350 0.188560 5.308180 
# 
# 
# High freq. dielectric constant tensor:
#      x y z
#    x 2.122960 -0.006990 0.007200 
#    y -0.006990 2.107010 0.010810 
#    z 0.007200 0.010810 2.115820 
# 
# From -- ./inp_files/207472.got.cif
#   From: 2010.06.25/outbox.cif.g09.slc.cpg/sg2_104_cif.got.tgz:207472.got - 2010.06.27 13:26:56.
