data_PCOD8022681
_publ_section_title
;
Structure prediction by ZEFSAII (Michael W. Deem and Ramdas Pophale) SiO2 
 PCOD8022681
Probable space group: P -1
;
_chemical_formula_sum "Si O2"
_cell_formula_units_Z 14
_cell_length_a 16.669552
_cell_length_b 12.006475
_cell_length_c 8.296901
_cell_angle_alpha 52.218012
_cell_angle_beta 35.041969
_cell_angle_gamma 44.067933
_cell_volume 661.901212
_symmetry_space_group_name_H-M "P -1"
_symmetry_group_IT_number 2
_symmetry_cell_setting 'triclinic'
loop_
_space_group_symop_operation_xyz
x,y,z
-x,-y,-z
loop_
_atom_site_type_symbol
_atom_site_label
_atom_site_fract_x
_atom_site_fract_y
_atom_site_fract_z
Si Si1 0.563661 0.933351 0.708828
Si Si2 0.192878 0.796219 0.742012
Si Si3 0.976053 0.350300 0.296451
Si Si4 0.517315 0.764151 0.218607
Si Si5 0.173812 0.506985 0.894328
Si Si6 0.749813 0.924639 0.107938
Si Si7 0.091719 0.888652 0.181413
O O1 0.703227 0.875919 0.398493
O O2 0.566477 0.071420 0.689698
O O3 0.395141 0.997352 0.844705
O O4 0.593561 0.785029 0.908026
O O5 0.375254 0.723343 0.448171
O O6 0.127617 0.672822 0.915358
O O7 0.185210 0.822784 0.921126
O O8 0.085085 0.964857 0.681323
O O9 0.830469 0.467301 0.315914
O O10 0.918031 0.258096 0.591449
O O11 0.044388 0.447902 0.202903
O O12 0.114790 0.235371 0.049413
O O13 0.649974 0.624878 0.230461
O O14 0.808564 0.055940 0.918110
#
# Coordination Sequence:
#
# PCOD8022681 Si02
#       7
#     2   2   2   2   2   2   2
#     4  10  23  37  71  92 122 165 214 252 314 362
#     4  11  24  42  65  97 125 162 210 263 304 376
#     4  11  24  43  65  93 125 170 204 257 314 373
#     4  11  22  43  61  94 128 168 203 259 310 374
#     4  11  25  43  63  90 133 165 208 255 316 368
#     4  11  20  43  65  97 121 158 215 266 292 376
#     4  11  24  41  69  93 123 165 215 254 310 367
#
# _framework density 21.151192000000002
#
# number of rings (size 3 to 8) (size 9 to 14) (size 15 to 20)
#    0.000    1.143    4.286    1.714    4.000    0.571 
#    5.143    0.714    0.000    0.000    0.000    0.000 
#    0.000    0.000    0.000    0.000    0.000    0.000 
#
# Total GULP energy -173644.086373 kJ/mol
# GULP energy per Si atom -12403.149027 kJ/mol
# Density = 2.110305 g / cm^3
# Si number density = 21.151192 Si / 1000 Ang^3
#
#
#
# Elastic Constant Matrix: (Units=GPa)
#
#
# Indices 1 2 3 4 5 6 
#
# 1 88.7178 22.6296 29.9357 -20.5371 -15.6448 -1.0961
# 2 22.6296 73.2441 23.9828 -32.2124 -3.4452 -14.3321
# 3 29.9357 23.9828 82.9538 -27.3453 -12.3770 -6.5500
# 4 -20.5371 -32.2124 -27.3453 34.7517 4.0398 0.0088
# 5 -15.6448 -3.4452 -12.3770 4.0398 29.3238 -11.0002
# 6 -1.0961 -14.3321 -6.5500 0.0088 -11.0002 69.5071
#
#
#
# Elastic Compliance Matrix: (Units=1/GPa)
#
#
# Indices 1 2 3 4 5 6 
#
# 1 0.014620 -0.001064 -0.002273 0.005132 0.006307 0.000795
# 2 -0.001064 0.025027 0.001679 0.023666 0.001923 0.005603
# 3 -0.002273 0.001679 0.018002 0.013704 0.005791 0.002921
# 4 0.005132 0.023666 0.013704 0.063929 0.005143 0.007058
# 5 0.006307 0.001923 0.005791 0.005143 0.042332 0.007741
# 6 0.000795 0.005603 0.002921 0.007058 0.007741 0.017054
#
#
# Mechanical properties :
#
#
# Convention : Reuss Voigt Hill
#
# Bulk Modulus (GPa) = 18.40479 44.22355 31.31417
# Shear Modulus (GPa) = 24.70476 37.94103 31.32289
#
# Velocity S-wave (km/s) = 3.42132 4.23992 3.85243
# Velocity P-wave (km/s) = 4.93231 6.70246 5.88433
#
# Compressibility (1/GPa) = 0.05433369
#
# Stress axis : x y z
#
# Youngs Moduli (GPa) = 68.39984 39.95727 55.54924
#
# Poissons Ratio (x) = 0.04249 0.12626
# Poissons Ratio (y) = 0.07274 -0.09326
# Poissons Ratio (z) = 0.15547 -0.06709
#
# Static dielectric constant tensor:
#      x y z
#    x 4.083840 0.045950 -0.075390 
#    y 0.045950 3.766070 -0.203250 
#    z -0.075390 -0.203250 3.705630 
# 
# 
# High freq. dielectric constant tensor:
#      x y z
#    x 1.848590 -0.000380 -0.011420 
#    y -0.000380 1.821520 -0.017330 
#    z -0.011420 -0.017330 1.819470 
# 
# From -- ./inp_files/150822.got.cif
#   From: 2010.06.25/outbox.cif.g09.slc.cpg/sg2_76_cif.got.tgz:150822.got - 2010.06.27 13:26:56.
