data_PCOD8022377
_publ_section_title
;
Structure prediction by ZEFSAII (Michael W. Deem and Ramdas Pophale) SiO2 
 PCOD8022377
Probable space group: P -1
;
_chemical_formula_sum "Si O2"
_cell_formula_units_Z 16
_cell_length_a 14.607652
_cell_length_b 8.988994
_cell_length_c 8.692768
_cell_angle_alpha 106.956612
_cell_angle_beta 91.486108
_cell_angle_gamma 42.149877
_cell_volume 699.746956
_symmetry_space_group_name_H-M "P -1"
_symmetry_group_IT_number 2
_symmetry_cell_setting 'triclinic'
loop_
_space_group_symop_operation_xyz
x,y,z
-x,-y,-z
loop_
_atom_site_type_symbol
_atom_site_label
_atom_site_fract_x
_atom_site_fract_y
_atom_site_fract_z
Si Si1 0.060098 0.879641 0.130423
Si Si2 0.618208 0.922504 0.088567
Si Si3 0.727769 0.234334 0.695952
Si Si4 0.225062 0.698302 0.612918
Si Si5 0.656009 0.767528 0.370752
Si Si6 0.887392 0.722971 0.450883
Si Si7 0.440108 0.646621 0.702268
Si Si8 0.921433 0.482085 0.887585
O O1 0.945215 0.079997 0.313867
O O2 0.207373 0.772635 0.150527
O O3 0.090186 0.659585 0.060234
O O4 0.000000 0.000000 0.000000
O O5 0.643940 0.771228 0.186608
O O6 0.577639 0.144072 0.225009
O O7 0.759272 0.753678 0.935883
O O8 0.500000 0.000000 0.000000
O O9 0.742788 0.328061 0.575387
O O10 0.555828 0.441062 0.774379
O O11 0.802051 0.972585 0.601270
O O12 0.288258 0.459283 0.613576
O O13 0.286388 0.761868 0.740391
O O14 0.768725 0.757262 0.402463
O O15 0.500000 0.000000 0.500000
O O16 0.000000 0.500000 0.500000
O O17 0.985372 0.666414 0.304317
O O18 0.500000 0.500000 0.500000
O O19 0.000000 0.500000 0.000000
#
# Coordination Sequence:
#
# PCOD8022377 Si02
#       8
#     2   2   2   2   2   2   2   2
#     4  12  26  43  68 102 140 182 231 291 358 424
#     4  12  26  47  73 106 147 191 236 296 370 425
#     4  11  23  46  71  99 136 183 238 287 351 424
#     4  11  22  42  69  97 135 180 234 289 344 414
#     4  12  25  44  69 108 143 186 247 295 351 432
#     4  12  27  45  74 107 140 188 242 297 361 429
#     4  10  22  45  73  98 135 187 233 283 352 425
#     4  12  26  47  70 100 150 186 232 296 365 427
#
# _framework density 22.865407000000001
#
# number of rings (size 3 to 8) (size 9 to 14) (size 15 to 20)
#    0.000    0.500    2.500    7.125    5.250    0.000 
#    0.000    1.250    0.000    0.000    0.000    0.000 
#    0.000    0.000    0.000    0.000    0.000    0.000 
#
# Total GULP energy -198333.019254 kJ/mol
# GULP energy per Si atom -12395.813703 kJ/mol
# Density = 2.281336 g / cm^3
# Si number density = 22.865407 Si / 1000 Ang^3
#
#
#
# Elastic Constant Matrix: (Units=GPa)
#
#
# Indices 1 2 3 4 5 6 
#
# 1 109.2426 42.8351 30.9364 -12.6530 25.3933 -12.8861
# 2 42.8351 138.3474 27.4413 -7.7556 19.0280 0.5156
# 3 30.9364 27.4413 61.7791 -14.1162 17.7616 1.8973
# 4 -12.6530 -7.7556 -14.1162 48.5511 -8.6737 6.3526
# 5 25.3933 19.0280 17.7616 -8.6737 40.3316 4.4873
# 6 -12.8861 0.5156 1.8973 6.3526 4.4873 59.4899
#
#
#
# Elastic Compliance Matrix: (Units=1/GPa)
#
#
# Indices 1 2 3 4 5 6 
#
# 1 0.012934 -0.002476 -0.003771 0.000447 -0.005588 0.003317
# 2 -0.002476 0.008631 -0.002166 -0.000117 -0.001539 -0.000413
# 3 -0.003771 -0.002166 0.021484 0.004232 -0.004982 -0.001559
# 4 0.000447 -0.000117 0.004232 0.022838 0.003123 -0.002712
# 5 -0.005588 -0.001539 -0.004982 0.003123 0.032328 -0.003810
# 6 0.003317 -0.000413 -0.001559 -0.002712 -0.003810 0.018158
#
#
# Mechanical properties :
#
#
# Convention : Reuss Voigt Hill
#
# Bulk Modulus (GPa) = 38.13072 56.86607 47.49840
# Shear Modulus (GPa) = 35.22629 43.55160 39.38894
#
# Velocity S-wave (km/s) = 3.92930 4.36901 4.15498
# Velocity P-wave (km/s) = 6.10723 7.09753 6.62092
#
# Compressibility (1/GPa) = 0.02622557
#
# Stress axis : x y z
#
# Youngs Moduli (GPa) = 77.31283 115.86345 46.54635
#
# Poissons Ratio (x) = 0.28683 0.17551
# Poissons Ratio (y) = 0.19140 0.10080
# Poissons Ratio (z) = 0.29152 0.25092
#
# Static dielectric constant tensor:
#      x y z
#    x 5.596190 -0.707970 -0.369670 
#    y -0.707970 4.632130 0.306290 
#    z -0.369670 0.306290 4.150760 
# 
# 
# High freq. dielectric constant tensor:
#      x y z
#    x 1.914670 -0.016090 0.010650 
#    y -0.016090 1.928700 0.008540 
#    z 0.010650 0.008540 1.886790 
# 
# From -- ./inp_files/207884.got.cif
#   From: 2010.06.25/outbox.cif.g09.slc.cpg/sg2_104_cif.got.tgz:207884.got - 2010.06.27 13:26:56.
