data_PCOD8022155
_publ_section_title
;
Structure prediction by ZEFSAII (Michael W. Deem and Ramdas Pophale) SiO2 
 PCOD8022155
Probable space group: P -1
;
_chemical_formula_sum "Si O2"
_cell_formula_units_Z 16
_cell_length_a 20.623218
_cell_length_b 6.772711
_cell_length_c 8.315402
_cell_angle_alpha 97.331449
_cell_angle_beta 128.256026
_cell_angle_gamma 57.967422
_cell_volume 737.159967
_symmetry_space_group_name_H-M "P -1"
_symmetry_group_IT_number 2
_symmetry_cell_setting 'triclinic'
loop_
_space_group_symop_operation_xyz
x,y,z
-x,-y,-z
loop_
_atom_site_type_symbol
_atom_site_label
_atom_site_fract_x
_atom_site_fract_y
_atom_site_fract_z
Si Si1 0.072642 0.524824 0.226832
Si Si2 0.915131 0.742574 0.485920
Si Si3 0.571805 0.638587 0.453924
Si Si4 0.435825 0.504211 0.227492
Si Si5 0.977318 0.047374 0.159852
Si Si6 0.782702 0.516571 0.821275
Si Si7 0.279801 0.053092 0.985550
Si Si8 0.441376 0.080424 0.082806
O O1 0.121437 0.324545 0.419521
O O2 0.164486 0.482978 0.259786
O O3 0.003480 0.790435 0.237144
O O4 0.000000 0.500000 0.000000
O O5 0.820852 0.900994 0.239179
O O6 0.000000 0.500000 0.500000
O O7 0.953805 0.900766 0.624776
O O8 0.530432 0.493605 0.286919
O O9 0.530264 0.648114 0.569461
O O10 0.692211 0.498031 0.624654
O O11 0.518478 0.908936 0.326877
O O12 0.402507 0.361892 0.057560
O O13 0.340786 0.785760 0.130220
O O14 0.860452 0.277430 0.023964
O O15 0.000000 0.000000 0.000000
O O16 0.742950 0.756245 0.889403
O O17 0.344027 0.071718 0.944275
O O18 0.500000 0.000000 0.000000
#
# Coordination Sequence:
#
# PCOD8022155 Si02
#       8
#     2   2   2   2   2   2   2   2
#     4  11  23  44  68  95 138 182 226 282 338 403
#     4  12  24  45  67 101 143 179 226 284 350 406
#     4  10  23  41  71  96 126 173 227 276 331 402
#     4  10  23  45  69  94 130 177 226 281 338 402
#     4  10  22  45  66  98 136 176 231 280 330 409
#     4  11  22  43  67 101 133 172 236 281 329 414
#     4  11  25  43  68 101 137 177 229 281 343 412
#     4  11  25  47  64  97 142 172 223 287 342 409
#
# _framework density 21.704923000000001
#
# number of rings (size 3 to 8) (size 9 to 14) (size 15 to 20)
#    0.000    1.250    5.000    0.375    5.250    5.500 
#    6.750    0.000    0.000    0.000    0.000    0.000 
#    0.000    0.000    0.000    0.000    0.000    0.000 
#
# Total GULP energy -198252.446675 kJ/mol
# GULP energy per Si atom -12390.777917 kJ/mol
# Density = 2.165552 g / cm^3
# Si number density = 21.704923 Si / 1000 Ang^3
#
#
#
# Elastic Constant Matrix: (Units=GPa)
#
#
# Indices 1 2 3 4 5 6 
#
# 1 99.1050 42.1114 40.1076 -3.8854 17.7756 1.7319
# 2 42.1114 157.0312 50.7796 -1.4374 5.4094 6.3954
# 3 40.1076 50.7796 123.4382 -7.1590 27.8035 3.7896
# 4 -3.8854 -1.4374 -7.1590 34.2970 1.3051 1.4421
# 5 17.7756 5.4094 27.8035 1.3051 43.4894 3.9177
# 6 1.7319 6.3954 3.7896 1.4421 3.9177 29.4708
#
#
#
# Elastic Compliance Matrix: (Units=1/GPa)
#
#
# Indices 1 2 3 4 5 6 
#
# 1 0.012762 -0.002587 -0.002245 0.000981 -0.003535 0.000522
# 2 -0.002587 0.007981 -0.002897 -0.000581 0.002065 -0.001454
# 3 -0.002245 -0.002897 0.011544 0.002269 -0.006169 -0.000015
# 4 0.000981 -0.000581 0.002269 0.029871 -0.002555 -0.001345
# 5 -0.003535 0.002065 -0.006169 -0.002555 0.028483 -0.003109
# 6 0.000522 -0.001454 -0.000015 -0.001345 -0.003109 0.034698
#
#
# Mechanical properties :
#
#
# Convention : Reuss Voigt Hill
#
# Bulk Modulus (GPa) = 59.42082 71.73019 65.57551
# Shear Modulus (GPa) = 34.15142 37.88982 36.02062
#
# Velocity S-wave (km/s) = 3.97097 4.18266 4.07819
# Velocity P-wave (km/s) = 6.96138 7.51305 7.24247
#
# Compressibility (1/GPa) = 0.01682912
#
# Stress axis : x y z
#
# Youngs Moduli (GPa) = 78.36048 125.29058 86.62421
#
# Poissons Ratio (x) = 0.32410 0.19448
# Poissons Ratio (y) = 0.20270 0.25096
# Poissons Ratio (z) = 0.17593 0.36298
#
# Static dielectric constant tensor:
#      x y z
#    x 3.758240 0.365590 0.392520 
#    y 0.365590 4.657090 0.091960 
#    z 0.392520 0.091960 3.968950 
# 
# 
# High freq. dielectric constant tensor:
#      x y z
#    x 1.847340 0.015400 0.008360 
#    y 0.015400 1.861750 -0.001600 
#    z 0.008360 -0.001600 1.850480 
# 
# From -- ./inp_files/340502.got.cif
#   From: 2010.06.25/outbox.cif.g09.slc.cpg/sg2_171_cif.got.tgz:340502.got - 2010.06.27 13:26:56.
