data_PCOD8022195
_publ_section_title
;
Structure prediction by ZEFSAII (Michael W. Deem and Ramdas Pophale) SiO2 
 PCOD8022195
Probable space group: P -1
;
_chemical_formula_sum "Si O2"
_cell_formula_units_Z 14
_cell_length_a 11.912555
_cell_length_b 6.612483
_cell_length_c 11.502961
_cell_angle_alpha 113.384032
_cell_angle_beta 123.337609
_cell_angle_gamma 99.380297
_cell_volume 602.939939
_symmetry_space_group_name_H-M "P -1"
_symmetry_group_IT_number 2
_symmetry_cell_setting 'triclinic'
loop_
_space_group_symop_operation_xyz
x,y,z
-x,-y,-z
loop_
_atom_site_type_symbol
_atom_site_label
_atom_site_fract_x
_atom_site_fract_y
_atom_site_fract_z
Si Si1 0.825397 0.849005 0.408268
Si Si2 0.152920 0.976781 0.969115
Si Si3 0.392868 0.662442 0.743845
Si Si4 0.664593 0.898712 0.116835
Si Si5 0.896835 0.576475 0.879202
Si Si6 0.430522 0.112149 0.315529
Si Si7 0.324885 0.967484 0.458944
O O1 0.773950 0.581462 0.381369
O O2 0.714073 0.772368 0.216366
O O3 0.801123 0.020532 0.528294
O O4 0.000000 0.000000 0.500000
O O5 0.156205 0.246049 0.042672
O O6 0.278066 0.952441 0.115305
O O7 0.188800 0.943889 0.849047
O O8 0.988731 0.737976 0.854773
O O9 0.450212 0.647263 0.641420
O O10 0.381648 0.914212 0.803656
O O11 0.521934 0.680767 0.912949
O O12 0.746650 0.321600 0.693032
O O13 0.000000 0.500000 0.000000
O O14 0.518406 0.954603 0.361718
O O15 0.372771 0.161099 0.419116
#
# Coordination Sequence:
#
# PCOD8022195 Si02
#       7
#     2   2   2   2   2   2   2
#     4  12  28  43  66 106 140 185 218 275 353 410
#     4  10  24  42  73  97 132 183 228 278 340 405
#     4  10  23  46  71  96 136 177 231 278 331 409
#     4  10  23  45  68 101 132 179 229 276 331 405
#     4  11  24  44  65 102 137 177 229 278 339 408
#     4  10  22  45  68 102 126 178 231 283 340 385
#     4  11  25  43  70  99 142 174 227 293 336 403
#
# _framework density 23.219560000000001
#
# number of rings (size 3 to 8) (size 9 to 14) (size 15 to 20)
#    0.000    1.429    2.857    0.429    4.000    8.571 
#    2.571    0.000    0.000    0.000    0.000    0.000 
#    0.000    0.000    0.000    0.000    0.000    0.000 
#
# Total GULP energy -173469.129004 kJ/mol
# GULP energy per Si atom -12390.652072 kJ/mol
# Density = 2.316671 g / cm^3
# Si number density = 23.219560 Si / 1000 Ang^3
#
#
#
# Elastic Constant Matrix: (Units=GPa)
#
#
# Indices 1 2 3 4 5 6 
#
# 1 155.9911 49.5355 40.4150 -3.7450 0.0001 33.2078
# 2 49.5355 98.7056 53.3257 -4.4731 -1.6683 21.8281
# 3 40.4150 53.3257 64.9883 -8.9655 -1.9546 6.6287
# 4 -3.7450 -4.4731 -8.9655 34.0677 7.1404 -2.1311
# 5 0.0001 -1.6683 -1.9546 7.1404 30.1402 -3.1911
# 6 33.2078 21.8281 6.6287 -2.1311 -3.1911 46.9643
#
#
#
# Elastic Compliance Matrix: (Units=1/GPa)
#
#
# Indices 1 2 3 4 5 6 
#
# 1 0.008972 -0.001063 -0.004248 -0.000438 -0.000794 -0.005324
# 2 -0.001063 0.020614 -0.015847 -0.001972 -0.000128 -0.006691
# 3 -0.004248 -0.015847 0.031231 0.005980 0.000394 0.006259
# 4 -0.000438 -0.001972 0.005980 0.032216 -0.007210 0.001354
# 5 -0.000794 -0.000128 0.000394 -0.007210 0.035183 0.002629
# 6 -0.005324 -0.006691 0.006259 0.001354 0.002629 0.027523
#
#
# Mechanical properties :
#
#
# Convention : Reuss Voigt Hill
#
# Bulk Modulus (GPa) = 54.05497 67.35971 60.70734
# Shear Modulus (GPa) = 24.48303 33.99503 29.23903
#
# Velocity S-wave (km/s) = 3.25070 3.83047 3.55243
# Velocity P-wave (km/s) = 6.11718 6.97396 6.55957
#
# Compressibility (1/GPa) = 0.01849969
#
# Stress axis : x y z
#
# Youngs Moduli (GPa) = 111.46092 48.51015 32.01965
#
# Poissons Ratio (x) = 0.05159 0.13602
# Poissons Ratio (y) = 0.11853 0.50742
# Poissons Ratio (z) = 0.47349 0.76874
#
# Static dielectric constant tensor:
#      x y z
#    x 4.437840 0.305470 0.025760 
#    y 0.305470 4.124440 -0.330820 
#    z 0.025760 -0.330820 4.074400 
# 
# 
# High freq. dielectric constant tensor:
#      x y z
#    x 1.935450 0.022400 0.002760 
#    y 0.022400 1.913430 -0.021970 
#    z 0.002760 -0.021970 1.897490 
# 
# From -- ./inp_files/409955.got.cif
#   From: 2010.06.25/outbox.cif.g09.slc.cpg/sg2_205_cif.got.tgz:409955.got - 2010.06.27 13:26:56.
