data_PCOD8022852
_publ_section_title
;
Structure prediction by ZEFSAII (Michael W. Deem and Ramdas Pophale) SiO2 
 PCOD8022852
Probable space group: P -1
;
_chemical_formula_sum "Si O2"
_cell_formula_units_Z 14
_cell_length_a 8.666476
_cell_length_b 14.619707
_cell_length_c 20.177783
_cell_angle_alpha 148.761998
_cell_angle_beta 145.930032
_cell_angle_gamma 53.475490
_cell_volume 684.140466
_symmetry_space_group_name_H-M "P -1"
_symmetry_group_IT_number 2
_symmetry_cell_setting 'triclinic'
loop_
_space_group_symop_operation_xyz
x,y,z
-x,-y,-z
loop_
_atom_site_type_symbol
_atom_site_label
_atom_site_fract_x
_atom_site_fract_y
_atom_site_fract_z
Si Si1 0.312838 0.085813 0.414557
Si Si2 0.742085 0.303270 0.806281
Si Si3 0.822987 0.515193 0.544049
Si Si4 0.208357 0.811588 0.764784
Si Si5 0.683807 0.371954 0.977759
Si Si6 0.696986 0.030670 0.400219
Si Si7 0.768203 0.411954 0.607880
O O1 0.464089 0.255061 0.626771
O O2 0.577321 0.089445 0.461806
O O3 0.057812 0.123404 0.307877
O O4 0.163981 0.880912 0.272847
O O5 0.644526 0.328974 0.860120
O O6 0.000000 0.500000 0.000000
O O7 0.728017 0.309414 0.346973
O O8 0.905074 0.500177 0.640418
O O9 0.547799 0.580394 0.483867
O O10 0.110276 0.676019 0.710945
O O11 0.500000 0.000000 0.000000
O O12 0.018888 0.474281 0.186040
O O13 0.500000 0.500000 0.000000
O O14 0.540775 0.167597 0.837363
O O15 0.740505 0.193561 0.462166
O O16 0.000000 0.000000 0.500000
#
# Coordination Sequence:
#
# PCOD8022852 Si02
#       7
#     2   2   2   2   2   2   2
#     4  10  23  42  63  98 134 168 221 274 324 398
#     4  10  23  39  66  93 129 172 210 265 338 386
#     4  10  26  44  69  95 127 179 225 275 324 384
#     4  11  25  45  68  96 133 178 228 268 332 387
#     4  11  24  39  64  99 129 170 215 262 337 397
#     4  11  22  40  68  95 137 172 208 275 338 395
#     4  11  23  45  67  95 134 170 223 276 324 392
#
# _framework density 20.463636000000001
#
# number of rings (size 3 to 8) (size 9 to 14) (size 15 to 20)
#    0.000    1.429    2.857    0.857    6.000    3.429 
#    0.000    2.857    0.000    0.000    0.000    0.000 
#    0.000    0.000    0.000    0.000    0.000    0.000 
#
# Total GULP energy -173574.392952 kJ/mol
# GULP energy per Si atom -12398.170925 kJ/mol
# Density = 2.041706 g / cm^3
# Si number density = 20.463636 Si / 1000 Ang^3
#
#
#
# Elastic Constant Matrix: (Units=GPa)
#
#
# Indices 1 2 3 4 5 6 
#
# 1 88.7104 43.7371 50.6124 -5.4086 -6.1231 -2.8819
# 2 43.7371 121.2598 58.1526 3.5407 4.3661 -4.6252
# 3 50.6124 58.1526 156.6787 18.4074 -2.9545 7.2868
# 4 -5.4086 3.5407 18.4074 37.2878 4.5974 0.5366
# 5 -6.1231 4.3661 -2.9545 4.5974 30.8475 3.3784
# 6 -2.8819 -4.6252 7.2868 0.5366 3.3784 29.1383
#
#
#
# Elastic Compliance Matrix: (Units=1/GPa)
#
#
# Indices 1 2 3 4 5 6 
#
# 1 0.016180 -0.003913 -0.004338 0.004529 0.002490 0.001692
# 2 -0.003913 0.011373 -0.003162 0.000247 -0.003006 0.002553
# 3 -0.004338 -0.003162 0.009775 -0.005314 0.001695 -0.003474
# 4 0.004529 0.000247 -0.005314 0.030592 -0.004397 0.001762
# 5 0.002490 -0.003006 0.001695 -0.004397 0.034658 -0.004592
# 6 0.001692 0.002553 -0.003474 0.001762 -0.004592 0.036260
#
#
# Mechanical properties :
#
#
# Convention : Reuss Voigt Hill
#
# Bulk Modulus (GPa) = 68.95318 74.62812 71.79065
# Shear Modulus (GPa) = 30.03073 33.73117 31.88095
#
# Velocity S-wave (km/s) = 3.83497 4.06439 3.95135
# Velocity P-wave (km/s) = 7.30602 7.65333 7.48169
#
# Compressibility (1/GPa) = 0.01450260
#
# Stress axis : x y z
#
# Youngs Moduli (GPa) = 61.80581 87.93077 102.30114
#
# Poissons Ratio (x) = 0.34405 0.44379
# Poissons Ratio (y) = 0.24183 0.32343
# Poissons Ratio (z) = 0.26812 0.27799
#
# Static dielectric constant tensor:
#      x y z
#    x 3.619790 0.018930 0.045570 
#    y 0.018930 3.777430 0.102990 
#    z 0.045570 0.102990 3.241030 
# 
# 
# High freq. dielectric constant tensor:
#      x y z
#    x 1.799860 0.002220 -0.001060 
#    y 0.002220 1.812550 0.015950 
#    z -0.001060 0.015950 1.803270 
# 
# From -- ./inp_files/271972.got.cif
#   From: 2010.06.25/outbox.cif.g09.slc.cpg/sg2_136_cif.got.tgz:271972.got - 2010.06.27 13:26:56.
