data_PCOD8022203
_publ_section_title
;
Structure prediction by ZEFSAII (Michael W. Deem and Ramdas Pophale) SiO2 
 PCOD8022203
Probable space group: P -1
;
_chemical_formula_sum "Si O2"
_cell_formula_units_Z 16
_cell_length_a 8.406978
_cell_length_b 16.158547
_cell_length_c 18.726148
_cell_angle_alpha 22.227200
_cell_angle_beta 138.713250
_cell_angle_gamma 141.568272
_cell_volume 594.392739
_symmetry_space_group_name_H-M "P -1"
_symmetry_group_IT_number 2
_symmetry_cell_setting 'triclinic'
loop_
_space_group_symop_operation_xyz
x,y,z
-x,-y,-z
loop_
_atom_site_type_symbol
_atom_site_label
_atom_site_fract_x
_atom_site_fract_y
_atom_site_fract_z
Si Si1 0.340314 0.546391 0.473246
Si Si2 0.245586 0.287382 0.260663
Si Si3 0.542331 0.941875 0.883246
Si Si4 0.776386 0.365543 0.396478
Si Si5 0.736443 0.213965 0.344788
Si Si6 0.973561 0.435024 0.940267
Si Si7 0.292185 0.080686 0.196354
Si Si8 0.269036 0.069805 0.898636
O O1 0.500000 0.500000 0.500000
O O2 0.312894 0.344483 0.682819
O O3 0.063894 0.550034 0.347246
O O4 0.485087 0.806329 0.344550
O O5 0.535736 0.456612 0.249229
O O6 0.033456 0.344296 0.190817
O O7 0.201594 0.014947 0.472949
O O8 0.202450 0.351359 0.113240
O O9 0.596012 0.835265 0.912184
O O10 0.288953 0.782364 0.967314
O O11 0.761978 0.971973 0.993111
O O12 0.701747 0.216273 0.416191
O O13 0.754513 0.193053 0.592968
O O14 0.966447 0.454578 0.207223
O O15 0.487380 0.223999 0.208749
O O16 0.005256 0.096815 0.095536
O O17 0.500000 0.000000 0.000000
#
# Coordination Sequence:
#
# PCOD8022203 Si02
#       8
#     2   2   2   2   2   2   2   2
#     4  11  26  49  74 106 143 190 244 302 364 436
#     4  10  22  45  68 104 148 186 238 300 366 429
#     4  12  27  45  75 105 152 196 239 307 360 439
#     4  10  25  46  76 105 143 194 249 297 370 433
#     4  11  24  47  77 106 146 198 238 308 362 430
#     4  11  26  41  68 111 144 188 245 292 359 438
#     4  10  23  46  73 109 148 188 250 298 369 434
#     4  11  25  45  72 110 144 191 245 300 368 434
#
# _framework density 26.918229
#
# number of rings (size 3 to 8) (size 9 to 14) (size 15 to 20)
#    0.000    1.250    1.250    3.750    3.500    9.500 
#    0.000    1.250    0.000    0.000    0.000    0.000 
#    0.000    0.000    0.000    0.000    0.000    0.000 
#
# Total GULP energy -198272.451184 kJ/mol
# GULP energy per Si atom -12392.028199 kJ/mol
# Density = 2.685696 g / cm^3
# Si number density = 26.918229 Si / 1000 Ang^3
#
#
#
# Elastic Constant Matrix: (Units=GPa)
#
#
# Indices 1 2 3 4 5 6 
#
# 1 94.5843 27.2072 33.7928 15.7690 -18.5384 17.3796
# 2 27.2072 83.7126 46.8438 8.4386 -1.2290 20.5090
# 3 33.7928 46.8438 144.1273 6.7356 -16.2820 14.0874
# 4 15.7690 8.4386 6.7356 48.2554 6.5780 -0.4198
# 5 -18.5384 -1.2290 -16.2820 6.5780 34.6496 10.9094
# 6 17.3796 20.5090 14.0874 -0.4198 10.9094 46.9696
#
#
#
# Elastic Compliance Matrix: (Units=1/GPa)
#
#
# Indices 1 2 3 4 5 6 
#
# 1 0.016312 -0.002183 -0.000700 -0.006553 0.011995 -0.007718
# 2 -0.002183 0.016437 -0.004378 -0.001480 -0.000825 -0.004878
# 3 -0.000700 -0.004378 0.009240 -0.000925 0.004509 -0.001657
# 4 -0.006553 -0.001480 -0.000925 0.024749 -0.010590 0.006029
# 5 0.011995 -0.000825 0.004509 -0.010590 0.044362 -0.015829
# 6 -0.007718 -0.004878 -0.001657 0.006029 -0.015829 0.030503
#
#
# Mechanical properties :
#
#
# Convention : Reuss Voigt Hill
#
# Bulk Modulus (GPa) = 36.40489 59.79019 48.09754
# Shear Modulus (GPa) = 30.25197 40.28026 35.26612
#
# Velocity S-wave (km/s) = 3.35602 3.87252 3.62349
# Velocity P-wave (km/s) = 5.34516 6.50040 5.95088
#
# Compressibility (1/GPa) = 0.02746884
#
# Stress axis : x y z
#
# Youngs Moduli (GPa) = 61.30440 60.83887 108.22853
#
# Poissons Ratio (x) = 0.13279 0.07571
# Poissons Ratio (y) = 0.13380 0.47380
# Poissons Ratio (z) = 0.04288 0.26634
#
# Static dielectric constant tensor:
#      x y z
#    x 4.680470 0.225690 -0.190040 
#    y 0.225690 4.907370 0.235180 
#    z -0.190040 0.235180 5.170470 
# 
# 
# High freq. dielectric constant tensor:
#      x y z
#    x 2.073290 0.015460 -0.013440 
#    y 0.015460 2.074690 0.006550 
#    z -0.013440 0.006550 2.100510 
# 
# From -- ./inp_files/591202.got.cif
#   From: 2010.06.25/outbox.cif.g09.slc.cpg/sg2_296_cif.got.tgz:591202.got - 2010.06.27 13:26:56.
