data_PCOD8022182
_publ_section_title
;
Structure prediction by ZEFSAII (Michael W. Deem and Ramdas Pophale) SiO2 
 PCOD8022182
Probable space group: P -1
;
_chemical_formula_sum "Si O2"
_cell_formula_units_Z 16
_cell_length_a 11.738104
_cell_length_b 8.737726
_cell_length_c 12.853365
_cell_angle_alpha 130.235702
_cell_angle_beta 97.195834
_cell_angle_gamma 113.551391
_cell_volume 771.809952
_symmetry_space_group_name_H-M "P -1"
_symmetry_group_IT_number 2
_symmetry_cell_setting 'triclinic'
loop_
_space_group_symop_operation_xyz
x,y,z
-x,-y,-z
loop_
_atom_site_type_symbol
_atom_site_label
_atom_site_fract_x
_atom_site_fract_y
_atom_site_fract_z
Si Si1 0.138434 0.078724 0.302162
Si Si2 0.103290 0.066959 0.944189
Si Si3 0.334917 0.671608 0.236922
Si Si4 0.201061 0.727991 0.839740
Si Si5 0.937127 0.143017 0.587537
Si Si6 0.676791 0.050467 0.830291
Si Si7 0.333470 0.669405 0.635322
Si Si8 0.675194 0.078841 0.451655
O O1 0.240744 0.363503 0.487576
O O2 0.089024 0.877553 0.301073
O O3 0.228799 0.048835 0.214838
O O4 0.992872 0.013681 0.206277
O O5 0.167987 0.917559 0.888092
O O6 0.244758 0.367536 0.089529
O O7 0.000000 0.000000 0.000000
O O8 0.284298 0.754774 0.172483
O O9 0.300914 0.742260 0.372190
O O10 0.508577 0.809274 0.309176
O O11 0.310822 0.753127 0.779188
O O12 0.046208 0.440969 0.698596
O O13 0.281958 0.799355 0.990977
O O14 0.783282 0.009128 0.449206
O O15 0.000000 0.000000 0.500000
O O16 0.504699 0.800313 0.698161
O O17 0.280323 0.757334 0.576239
#
# Coordination Sequence:
#
# PCOD8022182 Si02
#       8
#     2   2   2   2   2   2   2   2
#     4  12  24  42  71  98 131 176 226 276 325 397
#     4  12  25  41  66 100 133 174 220 273 330 391
#     4  10  22  45  67  98 129 171 228 276 322 386
#     4  12  26  44  66  98 140 176 216 275 336 396
#     4  12  25  43  66  99 133 174 217 272 334 393
#     4  11  24  44  70  99 132 176 222 280 325 391
#     4  11  25  45  65 101 138 175 219 272 338 396
#     4  10  23  42  71  94 131 176 221 273 327 392
#
# _framework density 20.730492000000002
#
# number of rings (size 3 to 8) (size 9 to 14) (size 15 to 20)
#    0.000    0.750    3.750    3.750    1.750    3.000 
#    2.250    1.250    0.000    0.000    0.000    0.000 
#    0.000    0.000    0.000    0.000    0.000    0.000 
#
# Total GULP energy -198523.992016 kJ/mol
# GULP energy per Si atom -12407.749501 kJ/mol
# Density = 2.068331 g / cm^3
# Si number density = 20.730492 Si / 1000 Ang^3
#
#
#
# Elastic Constant Matrix: (Units=GPa)
#
#
# Indices 1 2 3 4 5 6 
#
# 1 97.0216 28.7634 42.3844 6.3306 -0.5248 -6.6824
# 2 28.7634 97.8441 54.9162 3.7212 -3.3386 7.2194
# 3 42.3844 54.9162 115.5946 2.6639 -3.2966 -8.4655
# 4 6.3306 3.7212 2.6639 52.9833 -1.4721 -2.7080
# 5 -0.5248 -3.3386 -3.2966 -1.4721 38.1496 -7.6811
# 6 -6.6824 7.2194 -8.4655 -2.7080 -7.6811 25.2133
#
#
#
# Elastic Compliance Matrix: (Units=1/GPa)
#
#
# Indices 1 2 3 4 5 6 
#
# 1 0.012659 -0.001898 -0.003514 -0.001061 0.000200 0.002666
# 2 -0.001898 0.015377 -0.007176 -0.000910 -0.000882 -0.007682
# 3 -0.003514 -0.007176 0.013856 0.000605 0.001833 0.006399
# 4 -0.001061 -0.000910 0.000605 0.019202 0.001226 0.002618
# 5 0.000200 -0.000882 0.001833 0.001226 0.028291 0.009671
# 6 0.002666 -0.007682 0.006399 0.002618 0.009671 0.047944
#
#
# Mechanical properties :
#
#
# Convention : Reuss Voigt Hill
#
# Bulk Modulus (GPa) = 59.82934 62.50981 61.16958
# Shear Modulus (GPa) = 29.74810 35.56233 32.65522
#
# Velocity S-wave (km/s) = 3.79224 4.14630 3.97322
# Velocity P-wave (km/s) = 6.93527 7.28982 7.11475
#
# Compressibility (1/GPa) = 0.01671421
#
# Stress axis : x y z
#
# Youngs Moduli (GPa) = 78.99561 65.03032 72.17279
#
# Poissons Ratio (x) = 0.12346 0.25364
# Poissons Ratio (y) = 0.14997 0.51792
# Poissons Ratio (z) = 0.27761 0.46667
#
# Static dielectric constant tensor:
#      x y z
#    x 3.822470 0.052060 0.129980 
#    y 0.052060 3.949790 -0.094040 
#    z 0.129980 -0.094040 3.789800 
# 
# 
# High freq. dielectric constant tensor:
#      x y z
#    x 1.817480 0.000660 0.009120 
#    y 0.000660 1.827210 -0.005790 
#    z 0.009120 -0.005790 1.813880 
# 
# From -- ./inp_files/242682.got.cif
#   From: 2010.06.25/outbox.cif.g09.slc.cpg/sg2_122_cif.got.tgz:242682.got - 2010.06.27 13:26:56.
