data_PCOD8022734
_publ_section_title
;
Structure prediction by ZEFSAII (Michael W. Deem and Ramdas Pophale) SiO2 
 PCOD8022734
Probable space group: P -1
;
_chemical_formula_sum "Si O2"
_cell_formula_units_Z 14
_cell_length_a 11.860559
_cell_length_b 14.431925
_cell_length_c 14.223889
_cell_angle_alpha 127.485614
_cell_angle_beta 159.220267
_cell_angle_gamma 54.354778
_cell_volume 684.590839
_symmetry_space_group_name_H-M "P -1"
_symmetry_group_IT_number 2
_symmetry_cell_setting 'triclinic'
loop_
_space_group_symop_operation_xyz
x,y,z
-x,-y,-z
loop_
_atom_site_type_symbol
_atom_site_label
_atom_site_fract_x
_atom_site_fract_y
_atom_site_fract_z
Si Si1 0.795570 0.208293 0.194362
Si Si2 0.133882 0.399749 0.474027
Si Si3 0.823115 0.916841 0.435347
Si Si4 0.679478 0.664137 0.978696
Si Si5 0.346651 0.383287 0.276730
Si Si6 0.821746 0.161963 0.512471
Si Si7 0.140760 0.560023 0.920654
O O1 0.674906 0.300705 0.238530
O O2 0.985710 0.276632 0.306319
O O3 0.044196 0.113219 0.375837
O O4 0.493207 0.151587 0.875510
O O5 0.000000 0.500000 0.500000
O O6 0.046889 0.426833 0.315148
O O7 0.510955 0.389434 0.778535
O O8 0.119157 0.885100 0.576407
O O9 0.737986 0.055562 0.449624
O O10 0.704808 0.591309 0.857656
O O11 0.849072 0.579515 0.136629
O O12 0.850430 0.784156 0.167116
O O13 0.500000 0.500000 0.500000
O O14 0.548858 0.262289 0.369686
O O15 0.036200 0.367904 0.088680
#
# Coordination Sequence:
#
# PCOD8022734 Si02
#       7
#     2   2   2   2   2   2   2
#     4  11  23  41  68  91 131 160 228 269 323 364
#     4  12  26  42  66  91 130 177 221 269 318 374
#     4  10  23  41  65  99 124 172 213 275 318 381
#     4  11  23  38  65  96 136 169 204 264 332 396
#     4  12  24  40  63  98 142 172 207 259 335 403
#     4  10  23  38  65  94 137 164 213 258 338 384
#     4  12  26  40  63  96 134 171 211 257 328 394
#
# _framework density 20.450171999999998
#
# number of rings (size 3 to 8) (size 9 to 14) (size 15 to 20)
#    0.000    0.857    4.286    2.571    8.000    1.714 
#    0.000    0.000    0.000    5.143    0.000    0.000 
#    0.000    0.000    0.000    0.000    0.000    0.000 
#
# Total GULP energy -173567.650797 kJ/mol
# GULP energy per Si atom -12397.689343 kJ/mol
# Density = 2.040363 g / cm^3
# Si number density = 20.450172 Si / 1000 Ang^3
#
#
#
# Elastic Constant Matrix: (Units=GPa)
#
#
# Indices 1 2 3 4 5 6 
#
# 1 87.2249 31.8896 27.6776 1.3516 2.6108 12.0633
# 2 31.8896 120.9778 21.6170 0.5916 10.2628 18.2124
# 3 27.6776 21.6170 86.9901 -1.4229 9.9454 3.3524
# 4 1.3516 0.5916 -1.4229 30.8556 4.6631 1.2391
# 5 2.6108 10.2628 9.9454 4.6631 39.8398 -8.0008
# 6 12.0633 18.2124 3.3524 1.2391 -8.0008 32.4896
#
#
#
# Elastic Compliance Matrix: (Units=1/GPa)
#
#
# Indices 1 2 3 4 5 6 
#
# 1 0.014047 -0.002530 -0.003727 -0.000611 0.000055 -0.003376
# 2 -0.002530 0.010254 -0.001134 0.000595 -0.003376 -0.005545
# 3 -0.003727 -0.001134 0.013328 0.001253 -0.002964 -0.000134
# 4 -0.000611 0.000595 0.001253 0.033327 -0.004870 -0.002706
# 5 0.000055 -0.003376 -0.002964 -0.004870 0.029195 0.009553
# 6 -0.003376 -0.005545 -0.000134 -0.002706 0.009553 0.037611
#
#
# Mechanical properties :
#
#
# Convention : Reuss Voigt Hill
#
# Bulk Modulus (GPa) = 43.76952 50.84014 47.30483
# Shear Modulus (GPa) = 31.21920 34.90423 33.06171
#
# Velocity S-wave (km/s) = 3.91141 4.13582 4.02518
# Velocity P-wave (km/s) = 6.46903 6.90805 6.69214
#
# Compressibility (1/GPa) = 0.02284695
#
# Stress axis : x y z
#
# Youngs Moduli (GPa) = 71.18984 97.52449 75.03253
#
# Poissons Ratio (x) = 0.24677 0.27963
# Poissons Ratio (y) = 0.18014 0.08506
# Poissons Ratio (z) = 0.26531 0.11055
#
# Static dielectric constant tensor:
#      x y z
#    x 4.305480 -0.102090 0.204600 
#    y -0.102090 4.872180 0.209700 
#    z 0.204600 0.209700 3.799890 
# 
# 
# High freq. dielectric constant tensor:
#      x y z
#    x 1.787920 0.015660 0.001290 
#    y 0.015660 1.795150 -0.002840 
#    z 0.001290 -0.002840 1.805210 
# 
# From -- ./inp_files/66395.got.cif
#   From: 2010.06.25/outbox.cif.g09.slc.cpg/sg2_34_cif.got.tgz:66395.got - 2010.06.27 13:26:56.
