data_PCOD8022482
_publ_section_title
;
Structure prediction by ZEFSAII (Michael W. Deem and Ramdas Pophale) SiO2 
 PCOD8022482
Probable space group: P -1
;
_chemical_formula_sum "Si O2"
_cell_formula_units_Z 16
_cell_length_a 10.393498
_cell_length_b 14.619092
_cell_length_c 10.111469
_cell_angle_alpha 56.171568
_cell_angle_beta 67.297725
_cell_angle_gamma 32.303815
_cell_volume 669.553796
_symmetry_space_group_name_H-M "P -1"
_symmetry_group_IT_number 2
_symmetry_cell_setting 'triclinic'
loop_
_space_group_symop_operation_xyz
x,y,z
-x,-y,-z
loop_
_atom_site_type_symbol
_atom_site_label
_atom_site_fract_x
_atom_site_fract_y
_atom_site_fract_z
Si Si1 0.534970 0.775046 0.259269
Si Si2 0.160792 0.847382 0.439486
Si Si3 0.803686 0.942506 0.075045
Si Si4 0.907530 0.639534 0.705540
Si Si5 0.201678 0.274033 0.604852
Si Si6 0.859644 0.342037 0.242274
Si Si7 0.164005 0.810665 0.864266
Si Si8 0.555966 0.687718 0.919408
O O1 0.416289 0.741260 0.392123
O O2 0.550871 0.842907 0.328609
O O3 0.808500 0.573567 0.261454
O O4 0.372303 0.941878 0.078067
O O5 0.220977 0.681077 0.582478
O O6 0.000000 0.000000 0.500000
O O7 0.985403 0.979706 0.276511
O O8 0.883156 0.771544 0.232712
O O9 0.668713 0.089101 0.131905
O O10 0.062007 0.832831 0.026605
O O11 0.763675 0.779743 0.520325
O O12 0.774975 0.614309 0.826769
O O13 0.903881 0.738350 0.739906
O O14 0.000000 0.500000 0.500000
O O15 0.902899 0.239648 0.177452
O O16 0.646356 0.567855 0.112509
O O17 0.450417 0.660255 0.884139
#
# Coordination Sequence:
#
# PCOD8022482 Si02
#       8
#     2   2   2   2   2   2   2   2
#     4  10  22  46  70 103 137 185 227 288 344 418
#     4   9  22  42  70  98 134 174 236 280 339 404
#     4  11  24  45  71 103 139 181 234 286 349 410
#     4  11  26  44  67 105 141 178 235 285 352 404
#     4  10  25  42  70 103 140 180 230 287 346 417
#     4  11  24  45  72  99 136 190 230 284 343 413
#     4  10  25  46  72 100 136 187 232 287 344 416
#     4  12  26  44  71 103 144 179 233 292 343 413
#
# _framework density 23.896509999999999
#
# number of rings (size 3 to 8) (size 9 to 14) (size 15 to 20)
#    0.000    1.500    1.250    1.500    8.750    6.000 
#    0.000    0.000    0.000    0.000    0.000    0.000 
#    0.000    0.000    0.000    0.000    0.000    0.000 
#
# Total GULP energy -198212.989850 kJ/mol
# GULP energy per Si atom -12388.311866 kJ/mol
# Density = 2.384212 g / cm^3
# Si number density = 23.896510 Si / 1000 Ang^3
#
#
#
# Elastic Constant Matrix: (Units=GPa)
#
#
# Indices 1 2 3 4 5 6 
#
# 1 174.9547 38.4062 73.3047 11.1861 6.1972 -20.7936
# 2 38.4062 82.3428 29.5745 14.2424 -15.4415 -13.2759
# 3 73.3047 29.5745 182.5558 -5.7507 -29.3581 -10.6768
# 4 11.1861 14.2424 -5.7507 22.1542 -1.9876 -6.9893
# 5 6.1972 -15.4415 -29.3581 -1.9876 49.3841 9.1816
# 6 -20.7936 -13.2759 -10.6768 -6.9893 9.1816 31.1427
#
#
#
# Elastic Compliance Matrix: (Units=1/GPa)
#
#
# Indices 1 2 3 4 5 6 
#
# 1 0.008692 -0.002460 -0.003734 -0.002867 -0.004995 0.004304
# 2 -0.002460 0.016231 -0.001162 -0.008576 0.004019 0.001769
# 3 -0.003734 -0.001162 0.008132 0.005018 0.005258 -0.000624
# 4 -0.002867 -0.008576 0.005018 0.056159 0.001369 0.008350
# 5 -0.004995 0.004019 0.005258 0.001369 0.026686 -0.007380
# 6 0.004304 0.001769 -0.000624 0.008350 -0.007380 0.039574
#
#
# Mechanical properties :
#
#
# Convention : Reuss Voigt Hill
#
# Bulk Modulus (GPa) = 54.51303 80.26936 67.39119
# Shear Modulus (GPa) = 28.36081 40.44072 34.40077
#
# Velocity S-wave (km/s) = 3.44876 4.11825 3.79829
# Velocity P-wave (km/s) = 6.22256 7.50178 6.89191
#
# Compressibility (1/GPa) = 0.01834424
#
# Stress axis : x y z
#
# Youngs Moduli (GPa) = 115.04974 61.60944 122.96611
#
# Poissons Ratio (x) = 0.15156 0.45910
# Poissons Ratio (y) = 0.28303 0.14289
# Poissons Ratio (z) = 0.42954 0.07159
#
# Static dielectric constant tensor:
#      x y z
#    x 4.896560 0.075470 0.151820 
#    y 0.075470 3.908980 -0.055850 
#    z 0.151820 -0.055850 4.927420 
# 
# 
# High freq. dielectric constant tensor:
#      x y z
#    x 1.955710 -0.005250 0.003420 
#    y -0.005250 1.919600 -0.003060 
#    z 0.003420 -0.003060 1.966680 
# 
# From -- ./inp_files/436609.got.cif
#   From: 2010.06.25/outbox.cif.g09.slc.cpg/sg2_219_cif.got.tgz:436609.got - 2010.06.27 13:26:56.
