data_PCOD8022749
_publ_section_title
;
Structure prediction by ZEFSAII (Michael W. Deem and Ramdas Pophale) SiO2 
 PCOD8022749
Probable space group: P -1
;
_chemical_formula_sum "Si O2"
_cell_formula_units_Z 14
_cell_length_a 24.003986
_cell_length_b 15.009179
_cell_length_c 14.842123
_cell_angle_alpha 29.685760
_cell_angle_beta 21.370754
_cell_angle_gamma 19.904571
_cell_volume 662.386532
_symmetry_space_group_name_H-M "P -1"
_symmetry_group_IT_number 2
_symmetry_cell_setting 'triclinic'
loop_
_space_group_symop_operation_xyz
x,y,z
-x,-y,-z
loop_
_atom_site_type_symbol
_atom_site_label
_atom_site_fract_x
_atom_site_fract_y
_atom_site_fract_z
Si Si1 0.909673 0.801660 0.950912
Si Si2 0.525486 0.612301 0.164981
Si Si3 0.024366 0.069285 0.500758
Si Si4 0.595528 0.678186 0.363843
Si Si5 0.860542 0.569664 0.378982
Si Si6 0.528447 0.851685 0.791231
Si Si7 0.324374 0.301512 0.975813
O O1 0.152585 0.517508 0.803605
O O2 0.942068 0.984331 0.769040
O O3 0.809708 0.778821 0.205589
O O4 0.737479 0.942936 0.002925
O O5 0.523688 0.397834 0.351188
O O6 0.674417 0.547118 0.082077
O O7 0.622343 0.617503 0.922693
O O8 0.276222 0.904937 0.292173
O O9 0.877408 0.373533 0.466469
O O10 0.000000 0.000000 0.500000
O O11 0.614767 0.653140 0.249031
O O12 0.439466 0.977709 0.364555
O O13 0.653701 0.725083 0.619996
O O14 0.082181 0.417774 0.235865
O O15 0.500000 0.000000 0.000000
#
# Coordination Sequence:
#
# PCOD8022749 Si02
#       7
#     2   2   2   2   2   2   2
#     4  10  23  39  62  88 125 164 204 244 298 371
#     4  11  22  40  66  91 120 162 209 255 294 365
#     4  11  22  39  64  91 115 160 212 248 297 363
#     4  10  23  38  67  91 119 164 212 249 297 365
#     4  11  26  40  61  93 128 162 198 256 311 362
#     4  12  23  39  60  95 130 161 195 254 318 358
#     4  11  20  44  66  86 121 162 215 251 298 360
#
# _framework density 21.135695999999999
#
# number of rings (size 3 to 8) (size 9 to 14) (size 15 to 20)
#    0.000    1.143    4.286    2.143    4.000    2.286 
#    0.000    0.714    0.000    0.000    0.000    0.000 
#    0.000    0.000    0.000    0.000    0.000    0.000 
#
# Total GULP energy -173607.443998 kJ/mol
# GULP energy per Si atom -12400.531714 kJ/mol
# Density = 2.108759 g / cm^3
# Si number density = 21.135696 Si / 1000 Ang^3
#
#
#
# Elastic Constant Matrix: (Units=GPa)
#
#
# Indices 1 2 3 4 5 6 
#
# 1 107.3193 39.7934 39.4342 -5.8429 -0.6661 4.5544
# 2 39.7934 70.6582 50.0143 -20.9583 6.0274 -1.7740
# 3 39.4342 50.0143 94.0334 -31.3302 11.7506 14.9761
# 4 -5.8429 -20.9583 -31.3302 31.1509 -10.8237 2.0804
# 5 -0.6661 6.0274 11.7506 -10.8237 33.5828 0.8493
# 6 4.5544 -1.7740 14.9761 2.0804 0.8493 31.8196
#
#
#
# Elastic Compliance Matrix: (Units=1/GPa)
#
#
# Indices 1 2 3 4 5 6 
#
# 1 0.012748 -0.005943 -0.004139 -0.005424 0.001016 0.000119
# 2 -0.005943 0.027412 -0.011535 0.005424 0.000558 0.007438
# 3 -0.004139 -0.011535 0.027453 0.019710 -0.000905 -0.014236
# 4 -0.005424 0.005424 0.019710 0.059370 0.011471 -0.012386
# 5 0.001016 0.000558 -0.000905 0.011471 0.033745 -0.001339
# 6 0.000119 0.007438 -0.014236 -0.012386 -0.001339 0.039371
#
#
# Mechanical properties :
#
#
# Convention : Reuss Voigt Hill
#
# Bulk Modulus (GPa) = 41.01661 58.94386 49.98024
# Shear Modulus (GPa) = 19.88400 28.82860 24.35630
#
# Velocity S-wave (km/s) = 3.07054 3.69721 3.39835
# Velocity P-wave (km/s) = 5.65857 6.79520 6.25276
#
# Compressibility (1/GPa) = 0.02438037
#
# Stress axis : x y z
#
# Youngs Moduli (GPa) = 78.44266 36.47979 36.42606
#
# Poissons Ratio (x) = 0.21679 0.15076
# Poissons Ratio (y) = 0.46616 0.42018
# Poissons Ratio (z) = 0.32465 0.42080
#
# Static dielectric constant tensor:
#      x y z
#    x 3.865310 -0.299440 -0.100530 
#    y -0.299440 3.754110 -0.363840 
#    z -0.100530 -0.363840 3.927090 
# 
# 
# High freq. dielectric constant tensor:
#      x y z
#    x 1.823060 -0.016970 -0.004850 
#    y -0.016970 1.813950 -0.031550 
#    z -0.004850 -0.031550 1.831760 
# 
# From -- ./inp_files/256163.got.cif
#   From: 2010.06.25/outbox.cif.g09.slc.cpg/sg2_129_cif.got.tgz:256163.got - 2010.06.27 13:26:56.
