data_PCOD8022773
_publ_section_title
;
Structure prediction by ZEFSAII (Michael W. Deem and Ramdas Pophale) SiO2 
 PCOD8022773
Probable space group: P -1
;
_chemical_formula_sum "Si O2"
_cell_formula_units_Z 16
_cell_length_a 12.346354
_cell_length_b 8.560411
_cell_length_c 15.931514
_cell_angle_alpha 59.002467
_cell_angle_beta 66.444546
_cell_angle_gamma 115.145828
_cell_volume 789.044017
_symmetry_space_group_name_H-M "P -1"
_symmetry_group_IT_number 2
_symmetry_cell_setting 'triclinic'
loop_
_space_group_symop_operation_xyz
x,y,z
-x,-y,-z
loop_
_atom_site_type_symbol
_atom_site_label
_atom_site_fract_x
_atom_site_fract_y
_atom_site_fract_z
Si Si1 0.354960 0.656657 0.151685
Si Si2 0.889602 0.656907 0.854368
Si Si3 0.980150 0.163719 0.687151
Si Si4 0.288002 0.138847 0.991132
Si Si5 0.056594 0.484595 0.821289
Si Si6 0.014538 0.812354 0.513002
Si Si7 0.300287 0.570896 0.851072
Si Si8 0.738905 0.208714 0.494059
O O1 0.228890 0.460002 0.162357
O O2 0.208966 0.536246 0.305971
O O3 0.482420 0.636813 0.141950
O O4 0.500000 0.000000 0.000000
O O5 0.037105 0.669789 0.803261
O O6 0.730277 0.432565 0.039859
O O7 0.026061 0.005558 0.730874
O O8 0.168948 0.523919 0.547321
O O9 0.918037 0.120057 0.622456
O O10 0.795951 0.985697 0.853733
O O11 0.286334 0.339741 0.899608
O O12 0.157704 0.850580 0.050437
O O13 0.124146 0.449123 0.888753
O O14 0.221361 0.673963 0.645185
O O15 0.165177 0.872556 0.501626
O O16 0.000000 0.000000 0.500000
O O17 0.506861 0.913651 0.664436
#
# Coordination Sequence:
#
# PCOD8022773 Si02
#       8
#     2   2   2   2   2   2   2   2
#     4  12  22  38  63  92 124 155 198 251 302 361
#     4  11  23  41  61  90 123 158 201 249 302 354
#     4  10  23  39  59  88 125 160 194 245 306 361
#     4  10  23  40  64  91 121 157 201 250 301 357
#     4  11  21  46  61  86 122 164 201 248 297 354
#     4  12  22  39  60  88 126 162 192 243 310 361
#     4  11  25  38  65  90 120 159 207 248 294 354
#     4  11  23  40  60  90 121 160 203 247 295 358
#
# _framework density 20.277702000000001
#
# number of rings (size 3 to 8) (size 9 to 14) (size 15 to 20)
#    0.000    1.000    3.750    3.000    3.500    1.000 
#    0.000    0.625    0.000    0.000    0.000    0.000 
#    0.000    0.000    0.000    0.000    0.000    0.000 
#
# Total GULP energy -198415.487586 kJ/mol
# GULP energy per Si atom -12400.967974 kJ/mol
# Density = 2.023155 g / cm^3
# Si number density = 20.277702 Si / 1000 Ang^3
#
#
#
# Elastic Constant Matrix: (Units=GPa)
#
#
# Indices 1 2 3 4 5 6 
#
# 1 127.8887 32.8645 14.7469 -1.8692 -1.1425 1.4639
# 2 32.8645 68.8466 14.2297 -4.4975 2.5123 -11.4360
# 3 14.7469 14.2297 74.5564 -4.0934 0.4236 9.1539
# 4 -1.8692 -4.4975 -4.0934 25.5217 -5.8800 8.2686
# 5 -1.1425 2.5123 0.4236 -5.8800 28.8172 -3.3828
# 6 1.4639 -11.4360 9.1539 8.2686 -3.3828 28.6869
#
#
#
# Elastic Compliance Matrix: (Units=1/GPa)
#
#
# Indices 1 2 3 4 5 6 
#
# 1 0.009104 -0.004561 -0.000632 0.000616 0.000637 -0.002184
# 2 -0.004561 0.019011 -0.003891 -0.000780 -0.000863 0.009176
# 3 -0.000632 -0.003891 0.015454 0.004243 0.000053 -0.007667
# 4 0.000616 -0.000780 0.004243 0.046124 0.007790 -0.014072
# 5 0.000637 -0.000863 0.000053 0.007790 0.036587 0.001676
# 6 -0.002184 0.009176 -0.007667 -0.014072 0.001676 0.045329
#
#
# Mechanical properties :
#
#
# Convention : Reuss Voigt Hill
#
# Bulk Modulus (GPa) = 39.36704 43.88600 41.62652
# Shear Modulus (GPa) = 25.22135 30.56853 27.89494
#
# Velocity S-wave (km/s) = 3.53058 3.88686 3.71299
# Velocity P-wave (km/s) = 6.00634 6.46785 6.24136
#
# Compressibility (1/GPa) = 0.02540196
#
# Stress axis : x y z
#
# Youngs Moduli (GPa) = 109.84288 52.60054 64.70719
#
# Poissons Ratio (x) = 0.23991 0.04089
# Poissons Ratio (y) = 0.50099 0.25176
# Poissons Ratio (z) = 0.06941 0.20466
#
# Static dielectric constant tensor:
#      x y z
#    x 4.045070 -0.242050 -0.465210 
#    y -0.242050 3.825410 0.159610 
#    z -0.465210 0.159610 5.073220 
# 
# 
# High freq. dielectric constant tensor:
#      x y z
#    x 1.791720 -0.016490 0.016760 
#    y -0.016490 1.788860 0.003580 
#    z 0.016760 0.003580 1.801960 
# 
# From -- ./inp_files/176097.got.cif
#   From: 2010.06.25/outbox.cif.g09.slc.cpg/sg2_89_cif.got.tgz:176097.got - 2010.06.27 13:26:56.
