data_PCOD8022359
_publ_section_title
;
Structure prediction by ZEFSAII (Michael W. Deem and Ramdas Pophale) SiO2 
 PCOD8022359
Probable space group: P -1
;
_chemical_formula_sum "Si O2"
_cell_formula_units_Z 16
_cell_length_a 14.696670
_cell_length_b 13.741703
_cell_length_c 8.350381
_cell_angle_alpha 101.442522
_cell_angle_beta 67.841989
_cell_angle_gamma 151.630158
_cell_volume 707.179415
_symmetry_space_group_name_H-M "P -1"
_symmetry_group_IT_number 2
_symmetry_cell_setting 'triclinic'
loop_
_space_group_symop_operation_xyz
x,y,z
-x,-y,-z
loop_
_atom_site_type_symbol
_atom_site_label
_atom_site_fract_x
_atom_site_fract_y
_atom_site_fract_z
Si Si1 0.825819 0.277958 0.961729
Si Si2 0.963336 0.190025 0.720496
Si Si3 0.851808 0.145315 0.446088
Si Si4 0.539445 0.718836 0.955386
Si Si5 0.791263 0.699201 0.153090
Si Si6 0.218469 0.593593 0.210403
Si Si7 0.567079 0.066198 0.655773
Si Si8 0.769686 0.902033 0.187735
O O1 0.625581 0.088369 0.146904
O O2 0.921466 0.255879 0.858099
O O3 0.773784 0.290779 0.840407
O O4 0.000000 0.500000 0.000000
O O5 0.001580 0.235095 0.518143
O O6 0.169277 0.324248 0.713011
O O7 0.758359 0.935219 0.789359
O O8 0.993888 0.337101 0.290128
O O9 0.684914 0.067905 0.619607
O O10 0.728785 0.949836 0.364360
O O11 0.384705 0.674191 0.034092
O O12 0.590489 0.740713 0.114871
O O13 0.417806 0.521929 0.878417
O O14 0.762817 0.789577 0.242956
O O15 0.996802 0.866593 0.960678
O O16 0.295842 0.707215 0.366022
O O17 0.500000 0.000000 0.500000
#
# Coordination Sequence:
#
# PCOD8022359 Si02
#       8
#     2   2   2   2   2   2   2   2
#     4  12  25  42  65  94 136 186 221 267 332 405
#     4  11  25  43  66  97 141 175 228 282 334 407
#     4  12  25  43  63 103 140 178 226 284 336 400
#     4  11  21  43  70  97 130 179 226 278 341 412
#     4  10  22  45  72  97 128 180 227 282 348 403
#     4  12  23  42  65  93 140 181 220 267 336 402
#     4  12  25  40  64  99 139 177 226 277 329 403
#     4  10  23  43  71 100 132 170 231 289 337 403
#
# _framework density 22.625094000000001
#
# number of rings (size 3 to 8) (size 9 to 14) (size 15 to 20)
#    0.000    0.750    3.750    4.125    5.250    0.500 
#    2.250    0.625    0.000    0.000    0.000    0.000 
#    0.000    0.000    0.000    0.000    0.000    0.000 
#
# Total GULP energy -198345.756122 kJ/mol
# GULP energy per Si atom -12396.609758 kJ/mol
# Density = 2.257360 g / cm^3
# Si number density = 22.625094 Si / 1000 Ang^3
#
#
#
# Elastic Constant Matrix: (Units=GPa)
#
#
# Indices 1 2 3 4 5 6 
#
# 1 95.6189 39.1448 19.9566 -1.3009 15.5433 -11.8228
# 2 39.1448 146.0233 26.9151 23.7750 1.4649 -1.6494
# 3 19.9566 26.9151 60.1934 9.8411 12.8519 -6.3784
# 4 -1.3009 23.7750 9.8411 26.9950 -0.0895 -1.7088
# 5 15.5433 1.4649 12.8519 -0.0895 37.2031 5.8847
# 6 -11.8228 -1.6494 -6.3784 -1.7088 5.8847 38.2455
#
#
#
# Elastic Compliance Matrix: (Units=1/GPa)
#
#
# Indices 1 2 3 4 5 6 
#
# 1 0.014250 -0.004231 -0.001920 0.005414 -0.005910 0.005054
# 2 -0.004231 0.009669 -0.002367 -0.007977 0.002506 -0.002028
# 3 -0.001920 -0.002367 0.021081 -0.005486 -0.006977 0.003649
# 4 0.005414 -0.007977 -0.005486 0.046490 -0.000343 0.002545
# 5 -0.005910 0.002506 -0.006977 -0.000343 0.032919 -0.007963
# 6 0.005054 -0.002028 0.003649 0.002545 -0.007963 0.029569
#
#
# Mechanical properties :
#
#
# Convention : Reuss Voigt Hill
#
# Bulk Modulus (GPa) = 35.75910 52.65206 44.20558
# Shear Modulus (GPa) = 27.72581 34.87668 31.30124
#
# Velocity S-wave (km/s) = 3.50443 3.93046 3.72354
# Velocity P-wave (km/s) = 5.67575 6.62722 6.16985
#
# Compressibility (1/GPa) = 0.02796491
#
# Stress axis : x y z
#
# Youngs Moduli (GPa) = 70.17348 103.41803 47.43563
#
# Poissons Ratio (x) = 0.43759 0.09109
# Poissons Ratio (y) = 0.29692 0.11226
# Poissons Ratio (z) = 0.13475 0.24474
#
# Static dielectric constant tensor:
#      x y z
#    x 4.717060 0.040000 0.139570 
#    y 0.040000 4.201360 0.049210 
#    z 0.139570 0.049210 3.672890 
# 
# 
# High freq. dielectric constant tensor:
#      x y z
#    x 1.896210 -0.000850 0.010590 
#    y -0.000850 1.910120 0.019820 
#    z 0.010590 0.019820 1.871410 
# 
# From -- ./inp_files/299767.got.cif
#   From: 2010.06.25/outbox.cif.g09.slc.cpg/sg2_150_cif.got.tgz:299767.got - 2010.06.27 13:26:56.
