data_PCOD8022553
_publ_section_title
;
Structure prediction by ZEFSAII (Michael W. Deem and Ramdas Pophale) SiO2 
 PCOD8022553
Probable space group: P -1
;
_chemical_formula_sum "Si O2"
_cell_formula_units_Z 16
_cell_length_a 8.985941
_cell_length_b 9.011248
_cell_length_c 16.257592
_cell_angle_alpha 133.074767
_cell_angle_beta 76.174958
_cell_angle_gamma 78.113568
_cell_volume 797.320363
_symmetry_space_group_name_H-M "P -1"
_symmetry_group_IT_number 2
_symmetry_cell_setting 'triclinic'
loop_
_space_group_symop_operation_xyz
x,y,z
-x,-y,-z
loop_
_atom_site_type_symbol
_atom_site_label
_atom_site_fract_x
_atom_site_fract_y
_atom_site_fract_z
Si Si1 0.983585 0.358996 0.751953
Si Si2 0.015163 0.865101 0.161676
Si Si3 0.466145 0.915940 0.828043
Si Si4 0.068469 0.164250 0.016272
Si Si5 0.591696 0.284715 0.969574
Si Si6 0.368791 0.776515 0.625646
Si Si7 0.648278 0.064359 0.493159
Si Si8 0.621595 0.488940 0.760165
O O1 0.981168 0.293669 0.823073
O O2 0.997001 0.594359 0.832549
O O3 0.806622 0.390681 0.746157
O O4 0.151133 0.156934 0.601855
O O5 0.195788 0.872077 0.134759
O O6 0.840247 0.135027 0.293067
O O7 0.997510 0.752835 0.036811
O O8 0.447159 0.877838 0.720390
O O9 0.609516 0.671455 0.761273
O O10 0.519414 0.111087 0.899735
O O11 0.282129 0.010101 0.936602
O O12 0.000000 0.000000 0.000000
O O13 0.500000 0.500000 0.000000
O O14 0.544474 0.388138 0.107471
O O15 0.500000 0.500000 0.500000
O O16 0.373960 0.874437 0.575165
O O17 0.613556 0.276929 0.637660
O O18 0.500000 0.000000 0.500000
#
# Coordination Sequence:
#
# PCOD8022553 Si02
#       8
#     2   2   2   2   2   2   2   2
#     4  11  24  44  65  94 136 175 218 272 333 393
#     4  10  23  40  67  96 132 169 224 266 334 385
#     4  11  24  42  67 100 132 174 217 273 337 390
#     4  11  23  39  66  98 132 172 222 274 325 388
#     4  12  24  41  68 102 136 171 220 276 336 395
#     4  10  22  47  68  91 133 172 219 275 329 392
#     4  11  27  43  70  97 127 177 228 271 328 399
#     4  12  24  44  66  94 144 172 217 271 337 398
#
# _framework density 20.067216999999999
#
# number of rings (size 3 to 8) (size 9 to 14) (size 15 to 20)
#    0.000    1.000    3.750    1.875    7.000    1.000 
#    0.000    0.625    0.000    0.000    0.000    0.000 
#    0.000    0.000    0.000    0.000    0.000    0.000 
#
# Total GULP energy -198382.041551 kJ/mol
# GULP energy per Si atom -12398.877597 kJ/mol
# Density = 2.002154 g / cm^3
# Si number density = 20.067217 Si / 1000 Ang^3
#
#
#
# Elastic Constant Matrix: (Units=GPa)
#
#
# Indices 1 2 3 4 5 6 
#
# 1 130.8849 66.5577 75.0338 4.6711 -6.2953 12.8273
# 2 66.5577 92.3535 56.7200 8.0005 11.9671 -3.7014
# 3 75.0338 56.7200 154.2491 6.6399 12.0796 9.3656
# 4 4.6711 8.0005 6.6399 32.5708 -0.2878 4.4223
# 5 -6.2953 11.9671 12.0796 -0.2878 40.5914 4.0328
# 6 12.8273 -3.7014 9.3656 4.4223 4.0328 38.5513
#
#
#
# Elastic Compliance Matrix: (Units=1/GPa)
#
#
# Indices 1 2 3 4 5 6 
#
# 1 0.016497 -0.010606 -0.004421 0.002087 0.007659 -0.006474
# 2 -0.010606 0.021719 -0.002462 -0.004411 -0.008098 0.007566
# 3 -0.004421 -0.002462 0.009836 -0.000685 -0.002814 -0.000782
# 4 0.002087 -0.004411 -0.000685 0.032317 0.002546 -0.004925
# 5 0.007659 -0.008098 -0.002814 0.002546 0.029667 -0.006038
# 6 -0.006474 0.007566 -0.000782 -0.004925 -0.006038 0.030207
#
#
# Mechanical properties :
#
#
# Convention : Reuss Voigt Hill
#
# Bulk Modulus (GPa) = 76.49775 86.01227 81.25501
# Shear Modulus (GPa) = 27.84281 34.28779 31.06530
#
# Velocity S-wave (km/s) = 3.72893 4.13806 3.93881
# Velocity P-wave (km/s) = 7.53282 8.11089 7.82719
#
# Compressibility (1/GPa) = 0.01307228
#
# Stress axis : x y z
#
# Youngs Moduli (GPa) = 60.61747 46.04323 101.66258
#
# Poissons Ratio (x) = 0.48836 0.44948
# Poissons Ratio (y) = 0.64294 0.25031
# Poissons Ratio (z) = 0.26800 0.11337
#
# Static dielectric constant tensor:
#      x y z
#    x 3.739270 -0.170960 -0.137470 
#    y -0.170960 3.761530 -0.116880 
#    z -0.137470 -0.116880 3.990240 
# 
# 
# High freq. dielectric constant tensor:
#      x y z
#    x 1.788260 -0.014240 -0.004640 
#    y -0.014240 1.793400 -0.000460 
#    z -0.004640 -0.000460 1.790200 
# 
# From -- ./inp_files/208419.got.cif
#   From: 2010.06.25/outbox.cif.g09.slc.cpg/sg2_105_cif.got.tgz:208419.got - 2010.06.27 13:26:56.
