data_PCOD8022241
_publ_section_title
;
Structure prediction by ZEFSAII (Michael W. Deem and Ramdas Pophale) SiO2 
 PCOD8022241
Probable space group: P -1
;
_chemical_formula_sum "Si O2"
_cell_formula_units_Z 12
_cell_length_a 7.603270
_cell_length_b 13.009958
_cell_length_c 5.250527
_cell_angle_alpha 78.618903
_cell_angle_beta 61.463078
_cell_angle_gamma 75.779903
_cell_volume 440.338260
_symmetry_space_group_name_H-M "P -1"
_symmetry_group_IT_number 2
_symmetry_cell_setting 'triclinic'
loop_
_space_group_symop_operation_xyz
x,y,z
-x,-y,-z
loop_
_atom_site_type_symbol
_atom_site_label
_atom_site_fract_x
_atom_site_fract_y
_atom_site_fract_z
Si Si1 0.077403 0.235743 0.561003
Si Si2 0.265358 0.022300 0.712809
Si Si3 0.094068 0.426573 0.738612
Si Si4 0.592855 0.734418 0.099680
Si Si5 0.391421 0.549546 0.294733
Si Si6 0.772272 0.098038 0.687488
O O1 0.964775 0.346256 0.724054
O O2 0.257945 0.260095 0.242562
O O3 0.909138 0.190138 0.535730
O O4 0.178942 0.148237 0.743589
O O5 0.157576 0.983785 0.551674
O O6 0.500000 0.000000 0.500000
O O7 0.202940 0.959890 0.028358
O O8 0.168707 0.513031 0.456052
O O9 0.284475 0.335204 0.729632
O O10 0.000000 0.500000 0.000000
O O11 0.401966 0.674094 0.198732
O O12 0.470413 0.851551 0.206255
O O13 0.500000 0.500000 0.500000
O O14 0.500000 0.500000 0.000000
#
# Coordination Sequence:
#
# PCOD8022241 Si02
#       6
#     2   2   2   2   2   2
#     4  12  27  47  78 111 154 202 261 315 390 463
#     4  12  26  51  79 113 156 201 250 319 390 460
#     4  11  27  48  77 112 157 207 264 326 384 462
#     4  11  26  46  76 107 153 202 258 311 392 455
#     4  10  22  45  69 101 145 195 247 309 373 439
#     4  12  29  47  80 114 156 198 255 319 387 463
#
# _framework density 27.251778999999999
#
# number of rings (size 3 to 8) (size 9 to 14) (size 15 to 20)
#    0.000    0.667    3.333    2.500    7.000    3.333 
#    0.000    0.000    0.000    0.000    0.000    0.000 
#    0.000    0.000    0.000    0.000    0.000    0.000 
#
# Total GULP energy -148703.153692 kJ/mol
# GULP energy per Si atom -12391.929474 kJ/mol
# Density = 2.718975 g / cm^3
# Si number density = 27.251779 Si / 1000 Ang^3
#
#
#
# Elastic Constant Matrix: (Units=GPa)
#
#
# Indices 1 2 3 4 5 6 
#
# 1 65.0808 31.4355 23.8447 -16.3584 1.3999 10.1628
# 2 31.4355 188.9468 73.4425 6.0014 2.6713 0.8457
# 3 23.8447 73.4425 182.3330 -4.4406 -4.2430 18.4330
# 4 -16.3584 6.0014 -4.4406 49.3809 2.6196 -0.6735
# 5 1.3999 2.6713 -4.2430 2.6196 49.6406 -13.6629
# 6 10.1628 0.8457 18.4330 -0.6735 -13.6629 53.7253
#
#
#
# Elastic Compliance Matrix: (Units=1/GPa)
#
#
# Indices 1 2 3 4 5 6 
#
# 1 0.019495 -0.003108 -0.000796 0.006811 -0.001842 -0.003749
# 2 -0.003108 0.006857 -0.002540 -0.002072 -0.000026 0.001319
# 3 -0.000796 -0.002540 0.006844 0.000625 0.000128 -0.002117
# 4 0.006811 -0.002072 0.000625 0.022882 -0.001678 -0.001610
# 5 -0.001842 -0.000026 0.000128 -0.001678 0.021909 0.005855
# 6 -0.003749 0.001319 -0.002117 -0.001610 0.005855 0.021497
#
#
# Mechanical properties :
#
#
# Convention : Reuss Voigt Hill
#
# Bulk Modulus (GPa) = 49.23858 77.08955 63.16406
# Shear Modulus (GPa) = 41.96724 51.05857 46.51290
#
# Velocity S-wave (km/s) = 3.92852 4.33319 4.13581
# Velocity P-wave (km/s) = 6.21972 7.30648 6.78490
#
# Compressibility (1/GPa) = 0.02030928
#
# Stress axis : x y z
#
# Youngs Moduli (GPa) = 51.29506 145.83499 146.11662
#
# Poissons Ratio (x) = 0.45320 0.11627
# Poissons Ratio (y) = 0.15941 0.37113
# Poissons Ratio (z) = 0.04082 0.37042
#
# Static dielectric constant tensor:
#      x y z
#    x 5.558930 0.353200 -0.184640 
#    y 0.353200 5.479850 -0.197300 
#    z -0.184640 -0.197300 4.772510 
# 
# 
# High freq. dielectric constant tensor:
#      x y z
#    x 2.130410 -0.001310 -0.005360 
#    y -0.001310 2.127690 -0.015400 
#    z -0.005360 -0.015400 2.090050 
# 
# From -- ./inp_files/26388.got.cif
#   From: 2010.06.25/outbox.cif.g09.slc.cpg/sg2_14_cif.got.tgz:26388.got - 2010.06.27 13:26:56.
