data_PCOD8022139
_publ_section_title
;
Structure prediction by ZEFSAII (Michael W. Deem and Ramdas Pophale) SiO2 
 PCOD8022139
Probable space group: P -1
;
_chemical_formula_sum "Si O2"
_cell_formula_units_Z 16
_cell_length_a 14.509856
_cell_length_b 14.304329
_cell_length_c 8.565863
_cell_angle_alpha 91.046453
_cell_angle_beta 116.809228
_cell_angle_gamma 37.025244
_cell_volume 737.344424
_symmetry_space_group_name_H-M "P -1"
_symmetry_group_IT_number 2
_symmetry_cell_setting 'triclinic'
loop_
_space_group_symop_operation_xyz
x,y,z
-x,-y,-z
loop_
_atom_site_type_symbol
_atom_site_label
_atom_site_fract_x
_atom_site_fract_y
_atom_site_fract_z
Si Si1 0.032277 0.403752 0.271257
Si Si2 0.443362 0.485234 0.107284
Si Si3 0.437843 0.008595 0.781229
Si Si4 0.814236 0.961261 0.043032
Si Si5 0.897600 0.694270 0.022112
Si Si6 0.024542 0.074992 0.115164
Si Si7 0.116667 0.873283 0.430993
Si Si8 0.550535 0.733595 0.990252
O O1 0.223752 0.224228 0.537100
O O2 0.029037 0.348606 0.103678
O O3 0.803914 0.565381 0.193430
O O4 0.046201 0.501193 0.228792
O O5 0.635004 0.363639 0.368469
O O6 0.500000 0.500000 0.000000
O O7 0.212474 0.690005 0.019759
O O8 0.464585 0.358522 0.086958
O O9 0.644114 0.862297 0.820700
O O10 0.500000 0.000000 0.000000
O O11 0.411450 0.917197 0.778548
O O12 0.976435 0.903027 0.249708
O O13 0.911124 0.779456 0.132411
O O14 0.817416 0.980812 0.860624
O O15 0.563873 0.170544 0.922800
O O16 0.139998 0.952068 0.358393
O O17 0.000000 0.000000 0.000000
O O18 0.000000 0.000000 0.500000
#
# Coordination Sequence:
#
# PCOD8022139 Si02
#       8
#     2   2   2   2   2   2   2   2
#     4  10  24  44  72  95 134 182 225 285 343 412
#     4  12  23  42  68  98 132 180 227 275 337 409
#     4  11  23  45  69 101 137 173 230 287 341 410
#     4  11  22  43  64  98 141 171 226 284 335 403
#     4  10  22  45  66 101 135 173 230 280 345 411
#     4  10  23  42  64  93 134 171 223 284 329 397
#     4  11  22  43  68  95 137 181 224 279 339 396
#     4  11  24  41  66  98 134 177 234 272 343 408
#
# _framework density 21.699494000000001
#
# number of rings (size 3 to 8) (size 9 to 14) (size 15 to 20)
#    0.000    1.250    3.750    1.875    0.000    7.000 
#    2.250    2.500    0.000    0.000    0.000    0.000 
#    0.000    0.000    0.000    0.000    0.000    0.000 
#
# Total GULP energy -198252.188588 kJ/mol
# GULP energy per Si atom -12390.761787 kJ/mol
# Density = 2.165011 g / cm^3
# Si number density = 21.699494 Si / 1000 Ang^3
#
#
#
# Elastic Constant Matrix: (Units=GPa)
#
#
# Indices 1 2 3 4 5 6 
#
# 1 140.2048 67.1873 58.3004 -7.0100 -19.1226 -9.4216
# 2 67.1873 147.1281 48.6677 -10.8055 -13.1227 -2.5173
# 3 58.3004 48.6677 150.5376 -22.8706 -21.3709 -8.3341
# 4 -7.0100 -10.8055 -22.8706 31.9078 -0.0111 2.6545
# 5 -19.1226 -13.1227 -21.3709 -0.0111 23.6603 -1.0339
# 6 -9.4216 -2.5173 -8.3341 2.6545 -1.0339 58.7819
#
#
#
# Elastic Compliance Matrix: (Units=1/GPa)
#
#
# Indices 1 2 3 4 5 6 
#
# 1 0.010501 -0.003672 -0.002278 -0.000677 0.004449 0.001312
# 2 -0.003672 0.009046 -0.001165 0.001457 0.000980 -0.000415
# 3 -0.002278 -0.001165 0.009770 0.006042 0.006375 0.000809
# 4 -0.000677 0.001457 0.006042 0.036078 0.005704 -0.000718
# 5 0.004449 0.000980 0.006375 0.005704 0.052267 0.002321
# 6 0.001312 -0.000415 0.000809 -0.000718 0.002321 0.017393
#
#
# Mechanical properties :
#
#
# Convention : Reuss Voigt Hill
#
# Bulk Modulus (GPa) = 66.28652 87.35348 76.82000
# Shear Modulus (GPa) = 32.40180 40.45100 36.42640
#
# Velocity S-wave (km/s) = 3.86839 4.32226 4.10161
# Velocity P-wave (km/s) = 7.11101 8.07791 7.60983
#
# Compressibility (1/GPa) = 0.01508602
#
# Stress axis : x y z
#
# Youngs Moduli (GPa) = 95.23333 110.54226 102.35795
#
# Poissons Ratio (x) = 0.40591 0.23318
# Poissons Ratio (y) = 0.34970 0.11926
# Poissons Ratio (z) = 0.21695 0.12879
#
# Static dielectric constant tensor:
#      x y z
#    x 5.776870 -0.247260 -1.510050 
#    y -0.247260 4.333950 0.057850 
#    z -1.510050 0.057850 4.940610 
# 
# 
# High freq. dielectric constant tensor:
#      x y z
#    x 1.871370 -0.005250 -0.018400 
#    y -0.005250 1.872590 -0.009600 
#    z -0.018400 -0.009600 1.824950 
# 
# From -- ./inp_files/313182.got.cif
#   From: 2010.06.25/outbox.cif.g09.slc.cpg/sg2_157_cif.got.tgz:313182.got - 2010.06.27 13:26:56.
