data_PCOD8022291
_publ_section_title
;
Structure prediction by ZEFSAII (Michael W. Deem and Ramdas Pophale) SiO2 
 PCOD8022291
Probable space group: P -1
;
_chemical_formula_sum "Si O2"
_cell_formula_units_Z 14
_cell_length_a 7.833323
_cell_length_b 11.511241
_cell_length_c 17.394738
_cell_angle_alpha 33.686180
_cell_angle_beta 134.843471
_cell_angle_gamma 125.186446
_cell_volume 616.613161
_symmetry_space_group_name_H-M "P -1"
_symmetry_group_IT_number 2
_symmetry_cell_setting 'triclinic'
loop_
_space_group_symop_operation_xyz
x,y,z
-x,-y,-z
loop_
_atom_site_type_symbol
_atom_site_label
_atom_site_fract_x
_atom_site_fract_y
_atom_site_fract_z
Si Si1 0.267825 0.442762 0.413054
Si Si2 0.424562 0.503927 0.256355
Si Si3 0.403275 0.288385 0.049984
Si Si4 0.089804 0.273310 0.181716
Si Si5 0.190083 0.303202 0.815723
Si Si6 0.827325 0.013159 0.365200
Si Si7 0.948306 0.133089 0.062352
O O1 0.500000 0.500000 0.500000
O O2 0.358180 0.429160 0.361506
O O3 0.182044 0.221075 0.540312
O O4 0.051062 0.605221 0.271672
O O5 0.348762 0.313992 0.280149
O O6 0.704853 0.549395 0.300583
O O7 0.290925 0.727486 0.075405
O O8 0.121592 0.262629 0.991361
O O9 0.552970 0.098276 0.243889
O O10 0.500000 0.500000 0.000000
O O11 0.403768 0.284154 0.958762
O O12 0.093760 0.107458 0.203935
O O13 0.916037 0.184145 0.239696
O O14 0.000000 0.500000 0.000000
O O15 0.123103 0.083047 0.879047
O O16 0.000000 0.000000 0.500000
#
# Coordination Sequence:
#
# PCOD8022291 Si02
#       7
#     2   2   2   2   2   2   2
#     4  12  28  47  70 105 154 191 237 305 371 436
#     4  11  23  46  72 102 146 187 246 305 357 432
#     4  12  23  43  76 107 139 192 248 297 365 436
#     4  10  22  45  70 104 139 188 244 299 352 432
#     4  12  26  46  75 105 142 196 249 296 365 438
#     4  12  25  46  72 105 151 190 239 306 370 426
#     4  11  23  42  74 106 141 184 254 308 347 430
#
# _framework density 22.704673
#
# number of rings (size 3 to 8) (size 9 to 14) (size 15 to 20)
#    0.000    0.571    2.857    6.857    4.000    0.571 
#    2.571    1.429    0.000    0.000    0.000    0.000 
#    0.000    0.000    0.000    0.000    0.000    0.000 
#
# Total GULP energy -173481.550564 kJ/mol
# GULP energy per Si atom -12391.539326 kJ/mol
# Density = 2.265300 g / cm^3
# Si number density = 22.704673 Si / 1000 Ang^3
#
#
#
# Elastic Constant Matrix: (Units=GPa)
#
#
# Indices 1 2 3 4 5 6 
#
# 1 107.0143 42.7843 29.3614 7.0042 -18.9188 8.5090
# 2 42.7843 218.1219 55.8813 -2.8260 -8.6175 -6.7871
# 3 29.3614 55.8813 100.9288 8.6094 -4.5749 -7.3350
# 4 7.0042 -2.8260 8.6094 29.7178 7.0001 -3.2498
# 5 -18.9188 -8.6175 -4.5749 7.0001 37.0509 -3.1611
# 6 8.5090 -6.7871 -7.3350 -3.2498 -3.1611 41.6290
#
#
#
# Elastic Compliance Matrix: (Units=1/GPa)
#
#
# Indices 1 2 3 4 5 6 
#
# 1 0.012236 -0.001750 -0.002177 -0.004189 0.006105 -0.003033
# 2 -0.001750 0.005675 -0.002735 0.001891 -0.000189 0.000934
# 3 -0.002177 -0.002735 0.012508 -0.003291 0.000588 0.001991
# 4 -0.004189 0.001891 -0.003291 0.038225 -0.009082 0.002879
# 5 0.006105 -0.000189 0.000588 -0.009082 0.031898 0.000538
# 6 -0.003033 0.000934 0.001991 0.002879 0.000538 0.025410
#
#
# Mechanical properties :
#
#
# Convention : Reuss Voigt Hill
#
# Bulk Modulus (GPa) = 58.49747 75.79099 67.14423
# Shear Modulus (GPa) = 34.48921 41.54874 38.01898
#
# Velocity S-wave (km/s) = 3.90171 4.28245 4.09650
# Velocity P-wave (km/s) = 6.79104 7.60961 7.21195
#
# Compressibility (1/GPa) = 0.01709476
#
# Stress axis : x y z
#
# Youngs Moduli (GPa) = 81.72521 176.22555 79.95134
#
# Poissons Ratio (x) = 0.30836 0.17407
# Poissons Ratio (y) = 0.14300 0.21865
# Poissons Ratio (z) = 0.17793 0.48194
#
# Static dielectric constant tensor:
#      x y z
#    x 4.215580 -0.077420 -0.167190 
#    y -0.077420 4.464270 0.249110 
#    z -0.167190 0.249110 4.062630 
# 
# 
# High freq. dielectric constant tensor:
#      x y z
#    x 1.901010 0.006100 -0.014020 
#    y 0.006100 1.920260 0.007060 
#    z -0.014020 0.007060 1.874750 
# 
# From -- ./inp_files/559611.got.cif
#   From: 2010.06.25/outbox.cif.g09.slc.cpg/sg2_280_cif.got.tgz:559611.got - 2010.06.27 13:26:56.
