data_PCOD8022422
_publ_section_title
;
Structure prediction by ZEFSAII (Michael W. Deem and Ramdas Pophale) SiO2 
 PCOD8022422
Probable space group: P -1
;
_chemical_formula_sum "Si O2"
_cell_formula_units_Z 12
_cell_length_a 14.235519
_cell_length_b 13.836783
_cell_length_c 9.098935
_cell_angle_alpha 92.622990
_cell_angle_beta 77.116323
_cell_angle_gamma 159.464509
_cell_volume 538.726439
_symmetry_space_group_name_H-M "P -1"
_symmetry_group_IT_number 2
_symmetry_cell_setting 'triclinic'
loop_
_space_group_symop_operation_xyz
x,y,z
-x,-y,-z
loop_
_atom_site_type_symbol
_atom_site_label
_atom_site_fract_x
_atom_site_fract_y
_atom_site_fract_z
Si Si1 0.344131 0.099959 0.524434
Si Si2 0.650860 0.394329 0.744405
Si Si3 0.771544 0.332829 0.894714
Si Si4 0.841599 0.674299 0.234436
Si Si5 0.200316 0.574209 0.788710
Si Si6 0.536121 0.641872 0.940365
O O1 0.415966 0.154058 0.674884
O O2 0.528215 0.373554 0.425754
O O3 0.461730 0.121007 0.384537
O O4 0.973725 0.753573 0.605658
O O5 0.715456 0.348389 0.778081
O O6 0.486873 0.305742 0.913452
O O7 0.067231 0.546938 0.768073
O O8 0.807551 0.431722 0.033010
O O9 0.500000 0.000000 0.000000
O O10 0.994421 0.711376 0.194022
O O11 0.727635 0.590905 0.104219
O O12 0.108164 0.002987 0.219722
O O13 0.500000 0.500000 0.000000
#
# Coordination Sequence:
#
# PCOD8022422 Si02
#       6
#     2   2   2   2   2   2
#     4  10  25  41  66  92 137 170 200 264 335 364
#     4  12  24  42  64  97 130 163 222 266 309 385
#     4  11  23  38  67  92 127 175 223 253 312 376
#     4  10  22  46  66  89 135 168 205 263 322 382
#     4   9  23  40  63  90 129 176 208 248 330 370
#     4  12  24  43  72  97 121 168 221 265 313 383
#
# _framework density 22.274756
#
# number of rings (size 3 to 8) (size 9 to 14) (size 15 to 20)
#    1.000    0.333    1.667    3.500    7.000    1.333 
#    0.000    5.000    0.000    0.000    0.000    0.000 
#    0.000    0.000    0.000    0.000    0.000    0.000 
#
# Total GULP energy -148681.367102 kJ/mol
# GULP energy per Si atom -12390.113925 kJ/mol
# Density = 2.222406 g / cm^3
# Si number density = 22.274756 Si / 1000 Ang^3
#
#
#
# Elastic Constant Matrix: (Units=GPa)
#
#
# Indices 1 2 3 4 5 6 
#
# 1 86.5948 3.8308 12.7807 7.5430 18.8165 -8.7763
# 2 3.8308 64.7926 -6.2933 -14.7034 2.1535 -6.5399
# 3 12.7807 -6.2933 50.4906 -8.4948 10.7165 1.9604
# 4 7.5430 -14.7034 -8.4948 43.9288 1.7856 14.3161
# 5 18.8165 2.1535 10.7165 1.7856 20.4052 -10.8346
# 6 -8.7763 -6.5399 1.9604 14.3161 -10.8346 29.6128
#
#
#
# Elastic Compliance Matrix: (Units=1/GPa)
#
#
# Indices 1 2 3 4 5 6 
#
# 1 0.014851 -0.001365 -0.002300 -0.003664 -0.010952 0.002016
# 2 -0.001365 0.017838 0.005331 0.008452 -0.005762 -0.003012
# 3 -0.002300 0.005331 0.029328 0.014495 -0.024328 -0.017354
# 4 -0.003664 0.008452 0.014495 0.038907 -0.023101 -0.027440
# 5 -0.010952 -0.005762 -0.024328 -0.023101 0.097921 0.044087
# 6 0.002016 -0.003012 -0.017354 -0.027440 0.044087 0.064246
#
#
# Mechanical properties :
#
#
# Convention : Reuss Voigt Hill
#
# Bulk Modulus (GPa) = 15.30240 24.72383 20.01311
# Shear Modulus (GPa) = 17.75928 31.56000 24.65964
#
# Velocity S-wave (km/s) = 2.82668 3.76819 3.33087
# Velocity P-wave (km/s) = 4.18787 5.48233 4.87823
#
# Compressibility (1/GPa) = 0.06534924
#
# Stress axis : x y z
#
# Youngs Moduli (GPa) = 67.33516 56.06067 34.09672
#
# Poissons Ratio (x) = 0.07654 0.07841
# Poissons Ratio (y) = 0.09193 -0.18177
# Poissons Ratio (z) = 0.15485 -0.29886
#
# Static dielectric constant tensor:
#      x y z
#    x 5.099190 0.470520 -0.497850 
#    y 0.470520 3.973860 -0.374490 
#    z -0.497850 -0.374490 4.238000 
# 
# 
# High freq. dielectric constant tensor:
#      x y z
#    x 1.861430 0.001830 0.012390 
#    y 0.001830 1.875020 -0.005460 
#    z 0.012390 -0.005460 1.875600 
# 
# From -- ./inp_files/99131.got.cif
#   From: 2010.06.25/outbox.cif.g09.slc.cpg/sg2_50_cif.got.tgz:99131.got - 2010.06.27 13:26:56.
