data_PCOD8022910
_publ_section_title
;
Structure prediction by ZEFSAII (Michael W. Deem and Ramdas Pophale) SiO2 
 PCOD8022910
Probable space group: P -1
;
_chemical_formula_sum "Si O2"
_cell_formula_units_Z 16
_cell_length_a 21.438494
_cell_length_b 12.085484
_cell_length_c 8.030633
_cell_angle_alpha 82.576364
_cell_angle_beta 67.079830
_cell_angle_gamma 26.676959
_cell_volume 730.099592
_symmetry_space_group_name_H-M "P -1"
_symmetry_group_IT_number 2
_symmetry_cell_setting 'triclinic'
loop_
_space_group_symop_operation_xyz
x,y,z
-x,-y,-z
loop_
_atom_site_type_symbol
_atom_site_label
_atom_site_fract_x
_atom_site_fract_y
_atom_site_fract_z
Si Si1 0.111095 0.193957 0.779720
Si Si2 0.445964 0.645527 0.360569
Si Si3 0.946262 0.642926 0.698267
Si Si4 0.374217 0.818457 0.882034
Si Si5 0.212900 0.442112 0.022677
Si Si6 0.526126 0.808123 0.779167
Si Si7 0.451949 0.268643 0.840406
Si Si8 0.233764 0.367121 0.404293
O O1 0.996886 0.480069 0.823863
O O2 0.977800 0.291318 0.911525
O O3 0.236425 0.987932 0.524874
O O4 0.224507 0.026947 0.860005
O O5 0.500000 0.500000 0.500000
O O6 0.500076 0.482065 0.181738
O O7 0.554593 0.594703 0.241019
O O8 0.000000 0.500000 0.500000
O O9 0.050901 0.600264 0.625430
O O10 0.735089 0.991018 0.868426
O O11 0.500466 0.731570 0.719660
O O12 0.205437 0.426694 0.227753
O O13 0.274012 0.476770 0.921234
O O14 0.357367 0.140595 0.850943
O O15 0.700808 0.614713 0.585242
O O16 0.540449 0.751009 0.966243
O O17 0.621315 0.948708 0.650047
#
# Coordination Sequence:
#
# PCOD8022910 Si02
#       8
#     2   2   2   2   2   2   2   2
#     4  11  21  38  59  84 117 154 190 237 286 335
#     4  10  23  40  56  79 119 160 193 228 281 348
#     4  12  20  35  62  90 114 143 198 243 281 334
#     4  11  24  38  54  86 122 150 189 238 286 342
#     4   9  17  32  60  87 113 143 192 238 287 335
#     4   9  18  33  55  86 119 144 183 241 289 336
#     4   9  17  35  58  84 111 155 190 229 288 341
#     4   9  17  32  57  89 114 141 189 242 283 336
#
# _framework density 21.914818
#
# number of rings (size 3 to 8) (size 9 to 14) (size 15 to 20)
#    0.000    2.000    3.750    2.625    0.000    0.500 
#    0.000    6.875    0.000    3.000    0.000    0.000 
#    0.000    0.000    0.000    0.000    0.000    0.000 
#
# Total GULP energy -198264.157932 kJ/mol
# GULP energy per Si atom -12391.509871 kJ/mol
# Density = 2.186494 g / cm^3
# Si number density = 21.914818 Si / 1000 Ang^3
#
#
#
# Elastic Constant Matrix: (Units=GPa)
#
#
# Indices 1 2 3 4 5 6 
#
# 1 200.9188 35.3291 43.8518 13.2648 -46.6992 14.7174
# 2 35.3291 27.5668 4.9001 3.2237 -10.6907 15.8203
# 3 43.8518 4.9001 67.6890 14.9962 -12.2028 14.7737
# 4 13.2648 3.2237 14.9962 21.1451 -2.0813 -0.6195
# 5 -46.6992 -10.6907 -12.2028 -2.0813 44.2898 -0.5350
# 6 14.7174 15.8203 14.7737 -0.6195 -0.5350 40.5978
#
#
#
# Elastic Compliance Matrix: (Units=1/GPa)
#
#
# Indices 1 2 3 4 5 6 
#
# 1 0.008809 -0.009451 -0.004365 -0.000354 0.005813 0.002149
# 2 -0.009451 0.066257 0.011311 -0.012161 0.008252 -0.026586
# 3 -0.004365 0.011311 0.023418 -0.015567 0.003709 -0.011536
# 4 -0.000354 -0.012161 -0.015567 0.060287 -0.004627 0.011391
# 5 0.005813 0.008252 0.003709 -0.004627 0.031428 -0.006329
# 6 0.002149 -0.026586 -0.011536 0.011391 -0.006329 0.038501
#
#
# Mechanical properties :
#
#
# Convention : Reuss Voigt Hill
#
# Bulk Modulus (GPa) = 10.69834 51.59297 31.14566
# Shear Modulus (GPa) = 18.87739 35.34612 27.11175
#
# Velocity S-wave (km/s) = 2.93814 4.02043 3.52112
# Velocity P-wave (km/s) = 4.05002 6.71904 5.54744
#
# Compressibility (1/GPa) = 0.09347243
#
# Stress axis : x y z
#
# Youngs Moduli (GPa) = 113.52258 15.09284 42.70276
#
# Poissons Ratio (x) = 0.14264 0.18640
# Poissons Ratio (y) = 1.07288 -0.48299
# Poissons Ratio (z) = 0.49554 -0.17071
#
# Static dielectric constant tensor:
#      x y z
#    x 4.756740 0.163700 -0.222670 
#    y 0.163700 3.790590 0.426810 
#    z -0.222670 0.426810 4.354000 
# 
# 
# High freq. dielectric constant tensor:
#      x y z
#    x 1.874900 -0.002910 -0.021520 
#    y -0.002910 1.827290 -0.003720 
#    z -0.021520 -0.003720 1.842770 
# 
# From -- ./inp_files/345320.got.cif
#   From: 2010.06.25/outbox.cif.g09.slc.cpg/sg2_173_cif.got.tgz:345320.got - 2010.06.27 13:26:56.
