data_PCOD8022112
_publ_section_title
;
Structure prediction by ZEFSAII (Michael W. Deem and Ramdas Pophale) SiO2 
 PCOD8022112
Probable space group: P -1
;
_chemical_formula_sum "Si O2"
_cell_formula_units_Z 16
_cell_length_a 27.856682
_cell_length_b 14.356134
_cell_length_c 8.390838
_cell_angle_alpha 125.868253
_cell_angle_beta 136.176262
_cell_angle_gamma 20.054952
_cell_volume 734.843260
_symmetry_space_group_name_H-M "P -1"
_symmetry_group_IT_number 2
_symmetry_cell_setting 'triclinic'
loop_
_space_group_symop_operation_xyz
x,y,z
-x,-y,-z
loop_
_atom_site_type_symbol
_atom_site_label
_atom_site_fract_x
_atom_site_fract_y
_atom_site_fract_z
Si Si1 0.271657 0.741818 0.656833
Si Si2 0.294647 0.278554 0.276677
Si Si3 0.722955 0.497364 0.747936
Si Si4 0.311443 0.925499 0.428016
Si Si5 0.339061 0.136941 0.574343
Si Si6 0.101317 0.653324 0.721465
Si Si7 0.962844 0.435029 0.268712
Si Si8 0.501676 0.545884 0.805578
O O1 0.319757 0.563603 0.475651
O O2 0.342599 0.747097 0.741812
O O3 0.362517 0.588224 0.893374
O O4 0.059005 0.069591 0.504463
O O5 0.200101 0.541288 0.252164
O O6 0.230735 0.325446 0.339398
O O7 0.500000 0.000000 0.500000
O O8 0.231873 0.277723 0.995354
O O9 0.546421 0.828658 0.725246
O O10 0.853167 0.303110 0.018853
O O11 0.430398 0.736232 0.684643
O O12 0.397692 0.718985 0.288113
O O13 0.291974 0.086844 0.489134
O O14 0.115309 0.176203 0.243624
O O15 0.276514 0.336684 0.737906
O O16 0.017813 0.685343 0.666586
O O17 0.000000 0.500000 0.500000
#
# Coordination Sequence:
#
# PCOD8022112 Si02
#       8
#     2   2   2   2   2   2   2   2
#     4  11  22  43  66  92 125 175 218 263 324 381
#     4   9  23  42  62  92 134 167 218 263 322 388
#     4  10  22  45  64  91 131 178 212 260 325 392
#     4  11  22  41  64  97 130 167 214 266 327 382
#     4  11  22  41  67  98 129 171 211 271 327 383
#     4  11  23  40  65  99 132 163 218 267 325 388
#     4  11  22  38  63  96 133 169 204 270 328 384
#     4  10  24  41  64  92 129 168 218 266 317 394
#
# _framework density 21.773353
#
# number of rings (size 3 to 8) (size 9 to 14) (size 15 to 20)
#    0.000    1.500    3.750    0.750    1.750    3.500 
#    4.500    0.625    0.000    0.000    0.000    0.000 
#    0.000    0.000    0.000    0.000    0.000    0.000 
#
# Total GULP energy -198247.557526 kJ/mol
# GULP energy per Si atom -12390.472345 kJ/mol
# Density = 2.172380 g / cm^3
# Si number density = 21.773353 Si / 1000 Ang^3
#
#
#
# Elastic Constant Matrix: (Units=GPa)
#
#
# Indices 1 2 3 4 5 6 
#
# 1 88.2589 12.9332 33.5103 -0.4457 -10.6651 6.9830
# 2 12.9332 85.4016 44.7816 -1.4911 -5.7663 -6.5993
# 3 33.5103 44.7816 187.5825 -2.4664 -8.2509 10.1617
# 4 -0.4457 -1.4911 -2.4664 31.1519 2.5883 1.8427
# 5 -10.6651 -5.7663 -8.2509 2.5883 23.3570 -0.1882
# 6 6.9830 -6.5993 10.1617 1.8427 -0.1882 23.9514
#
#
#
# Elastic Compliance Matrix: (Units=1/GPa)
#
#
# Indices 1 2 3 4 5 6 
#
# 1 0.012990 -0.000999 -0.001683 -0.000223 0.005088 -0.003291
# 2 -0.000999 0.014234 -0.003446 -0.000100 0.001897 0.005698
# 3 -0.001683 -0.003446 0.006669 0.000481 0.000657 -0.003320
# 4 -0.000223 -0.000100 0.000481 0.032589 -0.003590 -0.002702
# 5 0.005088 0.001897 0.000657 -0.003590 0.046231 -0.000600
# 6 -0.003291 0.005698 -0.003320 -0.002702 -0.000600 0.045893
#
#
# Mechanical properties :
#
#
# Convention : Reuss Voigt Hill
#
# Bulk Modulus (GPa) = 46.21742 60.41036 53.31389
# Shear Modulus (GPa) = 28.07804 33.69326 30.88565
#
# Velocity S-wave (km/s) = 3.59494 3.93804 3.77039
# Velocity P-wave (km/s) = 6.20517 6.96296 6.59496
#
# Compressibility (1/GPa) = 0.02163686
#
# Stress axis : x y z
#
# Youngs Moduli (GPa) = 76.98323 70.25197 149.93880
#
# Poissons Ratio (x) = 0.07022 0.25231
# Poissons Ratio (y) = 0.07694 0.51672
# Poissons Ratio (z) = 0.12954 0.24210
#
# Static dielectric constant tensor:
#      x y z
#    x 4.146420 -0.058800 -0.238000 
#    y -0.058800 3.797180 -0.219040 
#    z -0.238000 -0.219040 4.223020 
# 
# 
# High freq. dielectric constant tensor:
#      x y z
#    x 1.854130 -0.000990 -0.007370 
#    y -0.000990 1.835820 -0.008030 
#    z -0.007370 -0.008030 1.865950 
# 
# From -- ./inp_files/358874.got.cif
#   From: 2010.06.25/outbox.cif.g09.slc.cpg/sg2_180_cif.got.tgz:358874.got - 2010.06.27 13:26:56.
