data_PCOD8022613
_publ_section_title
;
Structure prediction by ZEFSAII (Michael W. Deem and Ramdas Pophale) SiO2 
 PCOD8022613
Probable space group: P -1
;
_chemical_formula_sum "Si O2"
_cell_formula_units_Z 10
_cell_length_a 11.469549
_cell_length_b 8.426788
_cell_length_c 14.897940
_cell_angle_alpha 32.861911
_cell_angle_beta 154.346169
_cell_angle_gamma 139.108427
_cell_volume 338.253224
_symmetry_space_group_name_H-M "P -1"
_symmetry_group_IT_number 2
_symmetry_cell_setting 'triclinic'
loop_
_space_group_symop_operation_xyz
x,y,z
-x,-y,-z
loop_
_atom_site_type_symbol
_atom_site_label
_atom_site_fract_x
_atom_site_fract_y
_atom_site_fract_z
Si Si1 0.630422 0.401544 0.881999
Si Si2 0.758291 0.298991 0.271701
Si Si3 0.269927 0.346669 0.485607
Si Si4 0.850915 0.825272 0.247558
Si Si5 0.962510 0.138464 0.003781
O O1 0.447715 0.427087 0.655543
O O2 0.446987 0.310482 0.882944
O O3 0.763985 0.713828 0.841908
O O4 0.855705 0.148154 0.144418
O O5 0.915576 0.356363 0.450173
O O6 0.953443 0.354165 0.295440
O O7 0.652151 0.965932 0.353158
O O8 0.500000 0.500000 0.000000
O O9 0.275047 0.608545 0.288585
O O10 0.897482 0.870488 0.152222
O O11 0.000000 0.000000 0.000000
#
# Coordination Sequence:
#
# PCOD8022613 Si02
#       5
#     2   2   2   2   2
#     4  10  23  49  83 113 164 219 269 339 409 494
#     4  10  22  48  83 117 162 217 274 337 413 494
#     4  10  24  48  77 119 166 211 271 341 413 486
#     4  10  23  49  82 120 157 218 275 334 416 489
#     4  12  27  50  76 124 168 211 274 340 411 490
#
# _framework density 29.563648000000001
#
# number of rings (size 3 to 8) (size 9 to 14) (size 15 to 20)
#    0.000    1.600    2.000    0.600    2.800    4.000 
#    7.200    3.000    0.000    0.000    0.000    0.000 
#    0.000    0.000    0.000    0.000    0.000    0.000 
#
# Total GULP energy -124136.927312 kJ/mol
# GULP energy per Si atom -12413.692731 kJ/mol
# Density = 2.949636 g / cm^3
# Si number density = 29.563648 Si / 1000 Ang^3
#
#
#
# Elastic Constant Matrix: (Units=GPa)
#
#
# Indices 1 2 3 4 5 6 
#
# 1 184.8016 43.2135 62.8681 -11.3319 -27.1603 -6.0177
# 2 43.2135 147.9259 53.3798 14.7301 -3.5040 -2.1131
# 3 62.8681 53.3798 228.9504 -18.8583 -3.5839 5.5043
# 4 -11.3319 14.7301 -18.8583 38.8157 1.3227 1.3747
# 5 -27.1603 -3.5040 -3.5839 1.3227 48.0358 -15.7753
# 6 -6.0177 -2.1131 5.5043 1.3747 -15.7753 47.1629
#
#
#
# Elastic Compliance Matrix: (Units=1/GPa)
#
#
# Indices 1 2 3 4 5 6 
#
# 1 0.007132 -0.001598 -0.001430 0.001750 0.004578 0.002485
# 2 -0.001598 0.008374 -0.001905 -0.004581 -0.000152 0.000476
# 3 -0.001430 -0.001905 0.005471 0.003048 -0.001067 -0.001352
# 4 0.001750 -0.004581 0.003048 0.029552 -0.000365 -0.001321
# 5 0.004578 -0.000152 -0.001067 -0.000365 0.026467 0.009565
# 6 0.002485 0.000476 -0.001352 -0.001321 0.009565 0.024937
#
#
# Mechanical properties :
#
#
# Convention : Reuss Voigt Hill
#
# Bulk Modulus (GPa) = 89.99071 97.84452 93.91761
# Shear Modulus (GPa) = 43.28915 53.61732 48.45324
#
# Velocity S-wave (km/s) = 3.83073 4.26329 4.05278
# Velocity P-wave (km/s) = 7.07614 7.57642 7.33055
#
# Compressibility (1/GPa) = 0.01111226
#
# Stress axis : x y z
#
# Youngs Moduli (GPa) = 140.20745 119.42230 182.77086
#
# Poissons Ratio (x) = 0.19082 0.26134
# Poissons Ratio (y) = 0.22403 0.34813
# Poissons Ratio (z) = 0.20048 0.22747
#
# Static dielectric constant tensor:
#      x y z
#    x 5.743060 0.066250 0.003680 
#    y 0.066250 5.911980 -0.195230 
#    z 0.003680 -0.195230 6.072390 
# 
# 
# High freq. dielectric constant tensor:
#      x y z
#    x 2.213250 -0.007260 -0.005160 
#    y -0.007260 2.241310 0.000640 
#    z -0.005160 0.000640 2.230750 
# 
# From -- ./inp_files/511458.got.cif
#   From: 2010.06.25/outbox.cif.g09.slc.cpg/sg2_256_cif.got.tgz:511458.got - 2010.06.27 13:26:56.
