data_PCOD8022205
_publ_section_title
;
Structure prediction by ZEFSAII (Michael W. Deem and Ramdas Pophale) SiO2 
 PCOD8022205
Probable space group: P -1
;
_chemical_formula_sum "Si O2"
_cell_formula_units_Z 14
_cell_length_a 5.037765
_cell_length_b 15.827871
_cell_length_c 8.947018
_cell_angle_alpha 111.023764
_cell_angle_beta 66.201267
_cell_angle_gamma 87.405814
_cell_volume 594.021427
_symmetry_space_group_name_H-M "P -1"
_symmetry_group_IT_number 2
_symmetry_cell_setting 'triclinic'
loop_
_space_group_symop_operation_xyz
x,y,z
-x,-y,-z
loop_
_atom_site_type_symbol
_atom_site_label
_atom_site_fract_x
_atom_site_fract_y
_atom_site_fract_z
Si Si1 0.638537 0.586016 0.733005
Si Si2 0.125871 0.068855 0.409966
Si Si3 0.837750 0.382133 0.563102
Si Si4 0.959943 0.256414 0.732298
Si Si5 0.304330 0.283141 0.962480
Si Si6 0.790379 0.259785 0.231501
Si Si7 0.762125 0.068358 0.196239
O O1 0.594046 0.480594 0.680408
O O2 0.338284 0.662421 0.814678
O O3 0.858756 0.597296 0.555852
O O4 0.745181 0.612291 0.889793
O O5 0.471608 0.025776 0.260911
O O6 0.134969 0.164419 0.551631
O O7 0.917401 0.087938 0.326057
O O8 0.000000 0.000000 0.500000
O O9 0.883393 0.344497 0.696182
O O10 0.731462 0.306059 0.437511
O O11 0.654164 0.234625 0.851162
O O12 0.172252 0.283445 0.827291
O O13 0.139022 0.227583 0.083408
O O14 0.655116 0.168379 0.201627
O O15 0.000000 0.000000 0.000000
#
# Coordination Sequence:
#
# PCOD8022205 Si02
#       7
#     2   2   2   2   2   2   2
#     4  10  22  45  68 106 133 195 229 297 340 418
#     4  12  28  49  73 107 146 182 236 291 365 423
#     4  10  23  41  73  98 142 181 245 285 350 419
#     4  12  25  46  68 103 140 193 224 293 358 416
#     4  11  26  42  69  99 144 188 231 287 350 418
#     4  11  23  46  70 101 146 180 245 281 363 406
#     4  12  28  47  78 108 138 188 237 297 348 427
#
# _framework density 23.568175
#
# number of rings (size 3 to 8) (size 9 to 14) (size 15 to 20)
#    0.000    0.857    2.857    3.000    8.000    1.143 
#    0.000    0.000    0.000    0.000    0.000    0.000 
#    0.000    0.000    0.000    0.000    0.000    0.000 
#
# Total GULP energy -173577.133609 kJ/mol
# GULP energy per Si atom -12398.366686 kJ/mol
# Density = 2.351453 g / cm^3
# Si number density = 23.568175 Si / 1000 Ang^3
#
#
#
# Elastic Constant Matrix: (Units=GPa)
#
#
# Indices 1 2 3 4 5 6 
#
# 1 106.9249 18.0944 32.8737 -1.1882 -2.6702 -1.3381
# 2 18.0944 115.0146 37.9424 15.3710 -3.1129 2.9549
# 3 32.8737 37.9424 96.4720 -1.7075 -1.5594 -1.4437
# 4 -1.1882 15.3710 -1.7075 22.4214 -0.4977 -2.2845
# 5 -2.6702 -3.1129 -1.5594 -0.4977 52.4547 -7.2040
# 6 -1.3381 2.9549 -1.4437 -2.2845 -7.2040 28.2934
#
#
#
# Elastic Compliance Matrix: (Units=1/GPa)
#
#
# Indices 1 2 3 4 5 6 
#
# 1 0.010505 -0.000687 -0.003278 0.000849 0.000486 0.000594
# 2 -0.000687 0.011457 -0.004450 -0.008440 0.000144 -0.002101
# 3 -0.003278 -0.004450 0.013328 0.004035 0.000191 0.001364
# 4 0.000849 -0.008440 0.004035 0.051319 0.000905 0.005502
# 5 0.000486 0.000144 0.000191 0.000905 0.019817 0.005136
# 6 0.000594 -0.002101 0.001364 0.005502 0.005136 0.037413
#
#
# Mechanical properties :
#
#
# Convention : Reuss Voigt Hill
#
# Bulk Modulus (GPa) = 54.17223 55.13693 54.65458
# Shear Modulus (GPa) = 29.97193 35.93398 32.95296
#
# Velocity S-wave (km/s) = 3.56998 3.90895 3.74330
# Velocity P-wave (km/s) = 6.32678 6.61957 6.47483
#
# Compressibility (1/GPa) = 0.01845964
#
# Stress axis : x y z
#
# Youngs Moduli (GPa) = 95.18923 87.28599 75.03082
#
# Poissons Ratio (x) = 0.05997 0.24594
# Poissons Ratio (y) = 0.06540 0.33391
# Poissons Ratio (z) = 0.31201 0.38845
#
# Static dielectric constant tensor:
#      x y z
#    x 4.337270 0.005430 -0.018790 
#    y 0.005430 4.136430 -0.002020 
#    z -0.018790 -0.002020 4.550740 
# 
# 
# High freq. dielectric constant tensor:
#      x y z
#    x 1.932380 0.006430 0.001080 
#    y 0.006430 1.916010 0.000540 
#    z 0.001080 0.000540 1.953270 
# 
# From -- ./inp_files/55316.got.cif
#   From: 2010.06.25/outbox.cif.g09.slc.cpg/sg2_28_cif.got.tgz:55316.got - 2010.06.27 13:26:56.
