data_PCOD8022016
_publ_section_title
;
Structure prediction by ZEFSAII (Michael W. Deem and Ramdas Pophale) SiO2 
 PCOD8022016
Probable space group: P -1
;
_chemical_formula_sum "Si O2"
_cell_formula_units_Z 16
_cell_length_a 12.079579
_cell_length_b 9.449720
_cell_length_c 13.192285
_cell_angle_alpha 108.581241
_cell_angle_beta 65.423436
_cell_angle_gamma 53.425021
_cell_volume 694.136845
_symmetry_space_group_name_H-M "P -1"
_symmetry_group_IT_number 2
_symmetry_cell_setting 'triclinic'
loop_
_space_group_symop_operation_xyz
x,y,z
-x,-y,-z
loop_
_atom_site_type_symbol
_atom_site_label
_atom_site_fract_x
_atom_site_fract_y
_atom_site_fract_z
Si Si1 0.239938 0.223246 0.796104
Si Si2 0.236912 0.372358 0.217647
Si Si3 0.753133 0.275236 0.390351
Si Si4 0.177231 0.079492 0.606531
Si Si5 0.538016 0.698354 0.226865
Si Si6 0.496741 0.738885 0.735580
Si Si7 0.372791 0.931971 0.128888
Si Si8 0.794707 0.135214 0.972522
O O1 0.216289 0.189273 0.681930
O O2 0.358491 0.258618 0.758680
O O3 0.383993 0.953249 0.740620
O O4 0.000000 0.500000 0.000000
O O5 0.390733 0.277773 0.226266
O O6 0.002876 0.699894 0.363159
O O7 0.188543 0.247932 0.234276
O O8 0.381590 0.247883 0.031267
O O9 0.500000 0.500000 0.500000
O O10 0.711691 0.428986 0.534915
O O11 0.890311 0.985792 0.308432
O O12 0.928087 0.162897 0.213699
O O13 0.393962 0.790023 0.398096
O O14 0.371347 0.905209 0.242981
O O15 0.722253 0.383566 0.054133
O O16 0.294064 0.846277 0.884595
O O17 0.323968 0.826455 0.067611
#
# Coordination Sequence:
#
# PCOD8022016 Si02
#       8
#     2   2   2   2   2   2   2   2
#     4  12  26  47  74 103 146 194 241 298 364 432
#     4  10  23  45  73 102 146 186 242 301 362 428
#     4  12  26  48  71 105 150 189 246 301 361 433
#     4  12  27  45  71 108 146 190 245 301 362 433
#     4  12  25  46  71 108 145 190 243 303 361 434
#     4  11  25  49  75 108 143 196 242 297 365 431
#     4  10  22  44  72 105 142 189 243 292 366 433
#     4  11  26  45  76 108 144 192 243 301 365 428
#
# _framework density 23.05021
#
# number of rings (size 3 to 8) (size 9 to 14) (size 15 to 20)
#    0.000    0.750    3.750    3.000    5.250    4.500 
#    0.000    0.000    0.000    0.000    0.000    0.000 
#    0.000    0.000    0.000    0.000    0.000    0.000 
#
# Total GULP energy -198359.245582 kJ/mol
# GULP energy per Si atom -12397.452849 kJ/mol
# Density = 2.299775 g / cm^3
# Si number density = 23.050210 Si / 1000 Ang^3
#
#
#
# Elastic Constant Matrix: (Units=GPa)
#
#
# Indices 1 2 3 4 5 6 
#
# 1 76.4759 22.5034 38.6449 2.5098 6.5927 9.7061
# 2 22.5034 78.1308 32.3586 7.8980 -4.7646 10.1445
# 3 38.6449 32.3586 141.3238 -0.0693 4.2515 6.0511
# 4 2.5098 7.8980 -0.0693 34.9798 0.6409 2.5491
# 5 6.5927 -4.7646 4.2515 0.6409 31.9980 4.4723
# 6 9.7061 10.1445 6.0511 2.5491 4.4723 37.4186
#
#
#
# Elastic Compliance Matrix: (Units=1/GPa)
#
#
# Indices 1 2 3 4 5 6 
#
# 1 0.016366 -0.003071 -0.003577 -0.000254 -0.003006 -0.002458
# 2 -0.003071 0.015812 -0.002758 -0.003186 0.003877 -0.003290
# 3 -0.003577 -0.002758 0.008699 0.000890 -0.000891 0.000315
# 4 -0.000254 -0.003186 0.000890 0.029426 -0.000976 -0.001102
# 5 -0.003006 0.003877 -0.000891 -0.000976 0.033149 -0.004023
# 6 -0.002458 -0.003290 0.000315 -0.001102 -0.004023 0.028759
#
#
# Mechanical properties :
#
#
# Convention : Reuss Voigt Hill
#
# Bulk Modulus (GPa) = 45.31865 53.66046 49.48955
# Shear Modulus (GPa) = 31.57013 34.37418 32.97215
#
# Velocity S-wave (km/s) = 3.70486 3.86589 3.78623
# Velocity P-wave (km/s) = 6.16481 6.57702 6.37424
#
# Compressibility (1/GPa) = 0.02206597
#
# Stress axis : x y z
#
# Youngs Moduli (GPa) = 61.10067 63.24485 114.95263
#
# Poissons Ratio (x) = 0.19423 0.41115
# Poissons Ratio (y) = 0.18765 0.31702
# Poissons Ratio (z) = 0.21854 0.17442
#
# Static dielectric constant tensor:
#      x y z
#    x 4.280150 0.137560 0.306620 
#    y 0.137560 4.069200 -0.044670 
#    z 0.306620 -0.044670 4.173980 
# 
# 
# High freq. dielectric constant tensor:
#      x y z
#    x 1.914630 0.007460 0.015580 
#    y 0.007460 1.911290 -0.003230 
#    z 0.015580 -0.003230 1.916600 
# 
# From -- ./inp_files/515910.got.cif
#   From: 2010.06.25/outbox.cif.g09.slc.cpg/sg2_258_cif.got.tgz:515910.got - 2010.06.27 13:26:56.
