data_PCOD8022387
_publ_section_title
;
Structure prediction by ZEFSAII (Michael W. Deem and Ramdas Pophale) SiO2 
 PCOD8022387
Probable space group: P -1
;
_chemical_formula_sum "Si O2"
_cell_formula_units_Z 14
_cell_length_a 19.621308
_cell_length_b 4.852043
_cell_length_c 7.192802
_cell_angle_alpha 71.507013
_cell_angle_beta 134.620810
_cell_angle_gamma 92.625244
_cell_volume 446.064806
_symmetry_space_group_name_H-M "P -1"
_symmetry_group_IT_number 2
_symmetry_cell_setting 'triclinic'
loop_
_space_group_symop_operation_xyz
x,y,z
-x,-y,-z
loop_
_atom_site_type_symbol
_atom_site_label
_atom_site_fract_x
_atom_site_fract_y
_atom_site_fract_z
Si Si1 0.080472 0.682060 0.756984
Si Si2 0.167327 0.106084 0.362411
Si Si3 0.074610 0.596498 0.352959
Si Si4 0.749333 0.064670 0.816783
Si Si5 0.379896 0.956369 0.866906
Si Si6 0.606696 0.780881 0.796965
Si Si7 0.581384 0.585424 0.414804
O O1 0.103691 0.501476 0.643573
O O2 0.034658 0.473542 0.862778
O O3 0.179597 0.741584 0.010022
O O4 0.000000 0.000000 0.500000
O O5 0.078408 0.942472 0.255116
O O6 0.188784 0.163143 0.173597
O O7 0.149749 0.404587 0.388818
O O8 0.272236 0.885882 0.684092
O O9 0.652085 0.311966 0.493407
O O10 0.706838 0.886592 0.928044
O O11 0.462521 0.633485 0.133961
O O12 0.389618 0.226338 0.969922
O O13 0.396499 0.096156 0.667738
O O14 0.609136 0.515698 0.704193
O O15 0.500000 0.000000 0.500000
#
# Coordination Sequence:
#
# PCOD8022387 Si02
#       7
#     2   2   2   2   2   2   2
#     4  11  26  52  77 111 152 202 263 328 398 470
#     4  12  25  47  74 118 152 206 256 319 397 467
#     4  11  26  50  78 112 148 203 257 319 404 464
#     4  12  27  46  75 111 154 202 267 325 385 478
#     4  10  22  45  74 103 161 202 254 321 389 464
#     4  10  23  44  69 107 149 202 258 320 378 459
#     4  10  23  47  68 111 150 206 263 315 386 466
#
# _framework density 31.385573999999998
#
# number of rings (size 3 to 8) (size 9 to 14) (size 15 to 20)
#    0.000    1.143    2.857    1.714    2.000    5.143 
#    7.714    0.000    0.000    0.000    0.000    0.000 
#    0.000    0.000    0.000    0.000    0.000    0.000 
#
# Total GULP energy -173437.365712 kJ/mol
# GULP energy per Si atom -12388.383265 kJ/mol
# Density = 3.131414 g / cm^3
# Si number density = 31.385574 Si / 1000 Ang^3
#
#
#
# Elastic Constant Matrix: (Units=GPa)
#
#
# Indices 1 2 3 4 5 6 
#
# 1 161.5004 34.8221 30.2961 16.5754 7.4973 -9.7613
# 2 34.8221 109.5110 5.4944 17.7947 10.5893 -17.3251
# 3 30.2961 5.4944 106.2203 24.6830 36.3902 -13.5017
# 4 16.5754 17.7947 24.6830 48.2389 7.6634 10.2170
# 5 7.4973 10.5893 36.3902 7.6634 51.2511 4.3585
# 6 -9.7613 -17.3251 -13.5017 10.2170 4.3585 71.9994
#
#
#
# Elastic Compliance Matrix: (Units=1/GPa)
#
#
# Indices 1 2 3 4 5 6 
#
# 1 0.007069 -0.002087 -0.002030 -0.000798 0.000947 0.000131
# 2 -0.002087 0.011519 0.003056 -0.005352 -0.003789 0.004051
# 3 -0.002030 0.003056 0.016177 -0.008074 -0.011065 0.005309
# 4 -0.000798 -0.005352 -0.008074 0.028079 0.003360 -0.007098
# 5 0.000947 -0.003789 -0.011065 0.003360 0.027938 -0.005026
# 6 0.000131 0.004051 0.005309 -0.007098 -0.005026 0.017189
#
#
# Mechanical properties :
#
#
# Convention : Reuss Voigt Hill
#
# Bulk Modulus (GPa) = 30.63571 57.60631 44.12101
# Shear Modulus (GPa) = 41.33130 54.73916 48.03523
#
# Velocity S-wave (km/s) = 3.63283 4.18076 3.91639
# Velocity P-wave (km/s) = 5.23248 6.45749 5.87699
#
# Compressibility (1/GPa) = 0.03264165
#
# Stress axis : x y z
#
# Youngs Moduli (GPa) = 141.46863 86.81671 61.81505
#
# Poissons Ratio (x) = 0.18118 0.12551
# Poissons Ratio (y) = 0.29523 -0.18890
# Poissons Ratio (z) = 0.28724 -0.26530
#
# Static dielectric constant tensor:
#      x y z
#    x 6.437140 -0.292930 0.220210 
#    y -0.292930 6.050400 0.349850 
#    z 0.220210 0.349850 6.247230 
# 
# 
# High freq. dielectric constant tensor:
#      x y z
#    x 2.318590 -0.014030 0.015790 
#    y -0.014030 2.288170 0.016020 
#    z 0.015790 0.016020 2.307840 
# 
# From -- ./inp_files/339750.got.cif
#   From: 2010.06.25/outbox.cif.g09.slc.cpg/sg2_170_cif.got.tgz:339750.got - 2010.06.27 13:26:56.
