data_PCOD8022650
_publ_section_title
;
Structure prediction by ZEFSAII (Michael W. Deem and Ramdas Pophale) SiO2 
 PCOD8022650
Probable space group: P -1
;
_chemical_formula_sum "Si O2"
_cell_formula_units_Z 14
_cell_length_a 20.691541
_cell_length_b 18.105637
_cell_length_c 11.037854
_cell_angle_alpha 28.723829
_cell_angle_beta 29.991612
_cell_angle_gamma 19.070032
_cell_volume 630.734460
_symmetry_space_group_name_H-M "P -1"
_symmetry_group_IT_number 2
_symmetry_cell_setting 'triclinic'
loop_
_space_group_symop_operation_xyz
x,y,z
-x,-y,-z
loop_
_atom_site_type_symbol
_atom_site_label
_atom_site_fract_x
_atom_site_fract_y
_atom_site_fract_z
Si Si1 0.583412 0.583619 0.957655
Si Si2 0.387608 0.508756 0.512184
Si Si3 0.859611 0.067385 0.856630
Si Si4 0.898948 0.295603 0.648616
Si Si5 0.331865 0.281633 0.766584
Si Si6 0.236192 0.209487 0.256189
Si Si7 0.219923 0.513485 0.001704
O O1 0.741399 0.405823 0.851751
O O2 0.579144 0.439789 0.263903
O O3 0.359431 0.816243 0.928906
O O4 0.661389 0.642530 0.841633
O O5 0.176945 0.783598 0.412050
O O6 0.428076 0.316450 0.650915
O O7 0.366247 0.487828 0.718278
O O8 0.930991 0.105092 0.801129
O O9 0.017917 0.790668 0.967779
O O10 0.815142 0.510497 0.392493
O O11 0.108948 0.169660 0.544325
O O12 0.527169 0.026766 0.749986
O O13 0.214175 0.268436 0.063026
O O14 0.149345 0.426811 0.168555
#
# Coordination Sequence:
#
# PCOD8022650 Si02
#       7
#     2   2   2   2   2   2   2
#     4  10  23  37  60  89 118 158 192 238 301 337
#     4   8  19  39  61  87 113 150 200 241 288 335
#     4   9  22  36  62  89 113 153 197 243 293 332
#     4  11  22  40  62  88 118 153 200 241 285 355
#     4   9  20  41  62  85 118 153 199 244 281 347
#     4  10  23  39  62  89 115 159 195 235 300 343
#     4  11  21  40  59  89 121 151 195 246 287 354
#
# _framework density 22.196345999999998
#
# number of rings (size 3 to 8) (size 9 to 14) (size 15 to 20)
#    0.857    1.429    0.000    1.714    2.000    3.429 
#    2.571    1.429    0.000    0.000    0.000    0.000 
#    0.000    0.000    0.000    0.000    0.000    0.000 
#
# Total GULP energy -173457.792336 kJ/mol
# GULP energy per Si atom -12389.842310 kJ/mol
# Density = 2.214583 g / cm^3
# Si number density = 22.196346 Si / 1000 Ang^3
#
#
#
# Elastic Constant Matrix: (Units=GPa)
#
#
# Indices 1 2 3 4 5 6 
#
# 1 96.0444 45.9893 24.3407 7.3463 -16.1047 17.8118
# 2 45.9893 113.0052 42.2358 4.2496 -20.7327 24.0595
# 3 24.3407 42.2358 53.1777 17.2611 -19.7161 7.6387
# 4 7.3463 4.2496 17.2611 26.9178 1.2165 0.4370
# 5 -16.1047 -20.7327 -19.7161 1.2165 18.6308 0.7136
# 6 17.8118 24.0595 7.6387 0.4370 0.7136 27.5806
#
#
#
# Elastic Compliance Matrix: (Units=1/GPa)
#
#
# Indices 1 2 3 4 5 6 
#
# 1 0.015594 -0.003020 0.005172 -0.007690 0.016445 -0.009172
# 2 -0.003020 0.016812 -0.009654 0.004256 0.005997 -0.010264
# 3 0.005172 -0.009654 0.064815 -0.044196 0.065735 -0.013870
# 4 -0.007690 0.004256 -0.044196 0.069121 -0.053722 0.013788
# 5 0.016445 0.005997 0.065735 -0.053722 0.149055 -0.037063
# 6 -0.009172 -0.010264 -0.013870 0.013788 -0.037063 0.055716
#
#
# Mechanical properties :
#
#
# Convention : Reuss Voigt Hill
#
# Bulk Modulus (GPa) = 12.16309 54.15099 33.15704
# Shear Modulus (GPa) = 12.09119 24.60329 18.34724
#
# Velocity S-wave (km/s) = 2.33649 3.33293 2.87816
# Velocity P-wave (km/s) = 3.57360 6.26583 5.10055
#
# Compressibility (1/GPa) = 0.08221594
#
# Stress axis : x y z
#
# Youngs Moduli (GPa) = 64.12725 59.48206 15.42848
#
# Poissons Ratio (x) = 0.17963 -0.07979
# Poissons Ratio (y) = 0.19366 0.14895
# Poissons Ratio (z) = -0.33164 0.57425
#
# Static dielectric constant tensor:
#      x y z
#    x 3.919270 0.047420 0.040480 
#    y 0.047420 3.678090 0.070290 
#    z 0.040480 0.070290 3.849860 
# 
# 
# High freq. dielectric constant tensor:
#      x y z
#    x 1.873140 0.006590 -0.000850 
#    y 0.006590 1.862730 0.009040 
#    z -0.000850 0.009040 1.858410 
# 
# From -- ./inp_files/259902.got.cif
#   From: 2010.06.25/outbox.cif.g09.slc.cpg/sg2_130_cif.got.tgz:259902.got - 2010.06.27 13:26:56.
