data_PCOD8022521
_publ_section_title
;
Structure prediction by ZEFSAII (Michael W. Deem and Ramdas Pophale) SiO2 
 PCOD8022521
Probable space group: P -1
;
_chemical_formula_sum "Si O2"
_cell_formula_units_Z 14
_cell_length_a 21.035692
_cell_length_b 11.391083
_cell_length_c 9.132702
_cell_angle_alpha 122.077210
_cell_angle_beta 139.114376
_cell_angle_gamma 28.475281
_cell_volume 617.302469
_symmetry_space_group_name_H-M "P -1"
_symmetry_group_IT_number 2
_symmetry_cell_setting 'triclinic'
loop_
_space_group_symop_operation_xyz
x,y,z
-x,-y,-z
loop_
_atom_site_type_symbol
_atom_site_label
_atom_site_fract_x
_atom_site_fract_y
_atom_site_fract_z
Si Si1 0.323327 0.820918 0.681811
Si Si2 0.683695 0.486261 0.556397
Si Si3 0.322731 0.546811 0.134721
Si Si4 0.098224 0.565537 0.676553
Si Si5 0.678997 0.041441 0.927508
Si Si6 0.903220 0.917172 0.007521
Si Si7 0.978248 0.490055 0.214060
O O1 0.323071 0.660194 0.614600
O O2 0.468404 0.672688 0.704078
O O3 0.384653 0.830253 0.938119
O O4 0.116023 0.117764 0.461708
O O5 0.665637 0.513570 0.717603
O O6 0.504531 0.785150 0.368620
O O7 0.876464 0.323538 0.731795
O O8 0.239796 0.521394 0.877868
O O9 0.183571 0.850297 0.083264
O O10 0.111790 0.452658 0.480518
O O11 0.147434 0.414505 0.805799
O O12 0.782460 0.044987 0.030016
O O13 0.827918 0.731151 0.992134
O O14 0.887802 0.792321 0.808355
#
# Coordination Sequence:
#
# PCOD8022521 Si02
#       7
#     2   2   2   2   2   2   2
#     4  11  24  44  69 102 137 171 226 282 334 390
#     4  12  24  40  69 105 135 170 223 284 335 390
#     4  12  24  42  76 105 124 175 232 285 329 382
#     4  10  22  46  72  96 135 174 229 276 330 393
#     4  11  27  44  64 100 143 181 215 271 342 405
#     4  12  24  43  72  98 137 174 228 274 336 395
#     4  10  23  46  67  97 138 182 217 272 335 406
#
# _framework density 22.679320000000001
#
# number of rings (size 3 to 8) (size 9 to 14) (size 15 to 20)
#    0.000    0.857    4.286    2.571    2.000    3.429 
#    0.000    9.286    0.000    0.000    0.000    0.000 
#    0.000    0.000    0.000    0.000    0.000    0.000 
#
# Total GULP energy -173663.301161 kJ/mol
# GULP energy per Si atom -12404.521511 kJ/mol
# Density = 2.262770 g / cm^3
# Si number density = 22.679320 Si / 1000 Ang^3
#
#
#
# Elastic Constant Matrix: (Units=GPa)
#
#
# Indices 1 2 3 4 5 6 
#
# 1 49.9408 9.2511 30.0517 -14.3690 -4.2964 -1.0691
# 2 9.2511 69.4147 32.8929 23.5014 5.3700 10.8814
# 3 30.0517 32.8929 105.5567 -6.9572 -0.1524 7.8743
# 4 -14.3690 23.5014 -6.9572 32.5041 7.4452 7.0903
# 5 -4.2964 5.3700 -0.1524 7.4452 36.6771 -5.7562
# 6 -1.0691 10.8814 7.8743 7.0903 -5.7562 39.9364
#
#
#
# Elastic Compliance Matrix: (Units=1/GPa)
#
#
# Indices 1 2 3 4 5 6 
#
# 1 0.029397 -0.007514 -0.004991 0.016851 0.001261 0.001008
# 2 -0.007514 0.027923 -0.008056 -0.024768 -0.000267 -0.001862
# 3 -0.004991 -0.008056 0.014053 0.007376 -0.001188 -0.002190
# 4 0.016851 -0.024768 0.007376 0.060803 -0.007678 -0.006156
# 5 0.001261 -0.000267 -0.001188 -0.007678 0.029950 0.006021
# 6 0.001008 -0.001862 -0.002190 -0.006156 0.006021 0.027967
#
#
# Mechanical properties :
#
#
# Convention : Reuss Voigt Hill
#
# Bulk Modulus (GPa) = 33.05572 41.03375 37.04474
# Shear Modulus (GPa) = 20.72132 32.00461 26.36296
#
# Velocity S-wave (km/s) = 3.02597 3.76064 3.41313
# Velocity P-wave (km/s) = 5.17838 6.08185 5.64821
#
# Compressibility (1/GPa) = 0.03025195
#
# Stress axis : x y z
#
# Youngs Moduli (GPa) = 34.01684 35.81280 71.16144
#
# Poissons Ratio (x) = 0.26909 0.35514
# Poissons Ratio (y) = 0.25560 0.57327
# Poissons Ratio (z) = 0.16976 0.28851
#
# Static dielectric constant tensor:
#      x y z
#    x 4.044770 0.207980 -0.048220 
#    y 0.207980 4.129130 0.028230 
#    z -0.048220 0.028230 4.138000 
# 
# 
# High freq. dielectric constant tensor:
#      x y z
#    x 1.889120 0.011070 -0.007330 
#    y 0.011070 1.894730 0.001610 
#    z -0.007330 0.001610 1.895430 
# 
# From -- ./inp_files/346300.got.cif
#   From: 2010.06.25/outbox.cif.g09.slc.cpg/sg2_174_cif.got.tgz:346300.got - 2010.06.27 13:26:56.
