data_PCOD8022670
_publ_section_title
;
Structure prediction by ZEFSAII (Michael W. Deem and Ramdas Pophale) SiO2 
 PCOD8022670
Probable space group: P -1
;
_chemical_formula_sum "Si O2"
_cell_formula_units_Z 14
_cell_length_a 11.161812
_cell_length_b 9.685320
_cell_length_c 12.829997
_cell_angle_alpha 44.017312
_cell_angle_beta 111.113015
_cell_angle_gamma 138.347780
_cell_volume 591.559744
_symmetry_space_group_name_H-M "P -1"
_symmetry_group_IT_number 2
_symmetry_cell_setting 'triclinic'
loop_
_space_group_symop_operation_xyz
x,y,z
-x,-y,-z
loop_
_atom_site_type_symbol
_atom_site_label
_atom_site_fract_x
_atom_site_fract_y
_atom_site_fract_z
Si Si1 0.280732 0.069678 0.820912
Si Si2 0.135113 0.264519 0.166054
Si Si3 0.391262 0.595481 0.506811
Si Si4 0.977358 0.690483 0.343808
Si Si5 0.589783 0.125042 0.168684
Si Si6 0.834480 0.645124 0.649022
Si Si7 0.181904 0.807588 0.148563
O O1 0.441763 0.428494 0.647148
O O2 0.364767 0.954929 0.876378
O O3 0.080589 0.896570 0.792726
O O4 0.230275 0.010693 0.958789
O O5 0.259123 0.431825 0.222259
O O6 0.121601 0.016734 0.267262
O O7 0.240869 0.511021 0.971691
O O8 0.310344 0.501676 0.413669
O O9 0.244604 0.503731 0.599340
O O10 0.579879 0.963542 0.354797
O O11 0.029967 0.746691 0.207871
O O12 0.000000 0.500000 0.500000
O O13 0.383779 0.997375 0.168335
O O14 0.916996 0.514854 0.743792
O O15 0.000000 0.000000 0.500000
#
# Coordination Sequence:
#
# PCOD8022670 Si02
#       7
#     2   2   2   2   2   2   2
#     4  11  22  40  61  94 121 163 199 254 300 361
#     4  11  24  36  67  91 123 156 210 250 302 354
#     4  10  23  37  66  89 124 160 204 248 310 352
#     4  11  20  43  62  89 119 168 204 242 298 380
#     4  11  22  40  59  95 123 157 201 257 303 357
#     4  11  18  37  60  93 113 159 207 248 292 359
#     4  11  24  37  67  85 127 163 201 245 310 359
#
# _framework density 23.666248
#
# number of rings (size 3 to 8) (size 9 to 14) (size 15 to 20)
#    0.000    1.143    7.143    1.286    2.000    2.857 
#    0.000    0.000    0.000    1.714    0.000    0.000 
#    0.000    0.000    0.000    0.000    0.000    0.000 
#
# Total GULP energy -173460.391206 kJ/mol
# GULP energy per Si atom -12390.027943 kJ/mol
# Density = 2.361238 g / cm^3
# Si number density = 23.666248 Si / 1000 Ang^3
#
#
#
# Elastic Constant Matrix: (Units=GPa)
#
#
# Indices 1 2 3 4 5 6 
#
# 1 85.9821 23.4899 33.8437 -2.6276 -13.9362 -27.4390
# 2 23.4899 41.4057 36.2800 -7.8464 -2.8305 -29.6613
# 3 33.8437 36.2800 192.2385 -20.4052 -7.2037 -21.0889
# 4 -2.6276 -7.8464 -20.4052 49.3850 -6.9177 -0.9843
# 5 -13.9362 -2.8305 -7.2037 -6.9177 44.7801 1.0396
# 6 -27.4390 -29.6613 -21.0889 -0.9843 1.0396 32.2850
#
#
#
# Elastic Compliance Matrix: (Units=1/GPa)
#
#
# Indices 1 2 3 4 5 6 
#
# 1 0.017877 0.006480 -0.001714 0.002456 0.005614 0.019922
# 2 0.006480 0.089680 -0.007143 0.014258 0.006801 0.083449
# 3 -0.001714 -0.007143 0.006623 0.001493 0.000396 -0.003659
# 4 0.002456 0.014258 0.001493 0.024335 0.005277 0.016734
# 5 0.005614 0.006801 0.000396 0.005277 0.025141 0.010631
# 6 0.019922 0.083449 -0.003659 0.016734 0.010631 0.122351
#
#
# Mechanical properties :
#
#
# Convention : Reuss Voigt Hill
#
# Bulk Modulus (GPa) = 9.13842 56.31705 32.72773
# Shear Modulus (GPa) = 15.27951 40.35752 27.81852
#
# Velocity S-wave (km/s) = 2.54367 4.13398 3.43220
# Velocity P-wave (km/s) = 3.53508 6.82894 5.43743
#
# Compressibility (1/GPa) = 0.10942813
#
# Stress axis : x y z
#
# Youngs Moduli (GPa) = 55.93728 11.15076 150.97805
#
# Poissons Ratio (x) = -0.07226 0.25872
# Poissons Ratio (y) = -0.36248 1.07839
# Poissons Ratio (z) = 0.09586 0.07965
#
# Static dielectric constant tensor:
#      x y z
#    x 4.408700 -0.288070 -0.048900 
#    y -0.288070 4.081400 -0.358890 
#    z -0.048900 -0.358890 5.133390 
# 
# 
# High freq. dielectric constant tensor:
#      x y z
#    x 1.926630 -0.014440 -0.001230 
#    y -0.014440 1.883040 -0.018800 
#    z -0.001230 -0.018800 1.977810 
# 
# From -- ./inp_files/416339.got.cif
#   From: 2010.06.25/outbox.cif.g09.slc.cpg/sg2_209_cif.got.tgz:416339.got - 2010.06.27 13:26:56.
