data_PCOD8022486
_publ_section_title
;
Structure prediction by ZEFSAII (Michael W. Deem and Ramdas Pophale) SiO2 
 PCOD8022486
Probable space group: P -1
;
_chemical_formula_sum "Si O2"
_cell_formula_units_Z 16
_cell_length_a 11.259182
_cell_length_b 5.800246
_cell_length_c 12.741006
_cell_angle_alpha 94.305615
_cell_angle_beta 53.642143
_cell_angle_gamma 77.887368
_cell_volume 633.796864
_symmetry_space_group_name_H-M "P -1"
_symmetry_group_IT_number 2
_symmetry_cell_setting 'triclinic'
loop_
_space_group_symop_operation_xyz
x,y,z
-x,-y,-z
loop_
_atom_site_type_symbol
_atom_site_label
_atom_site_fract_x
_atom_site_fract_y
_atom_site_fract_z
Si Si1 0.615916 0.597392 0.375343
Si Si2 0.743168 0.158148 0.148578
Si Si3 0.818663 0.133085 0.587962
Si Si4 0.439537 0.273958 0.988916
Si Si5 0.515430 0.062233 0.724752
Si Si6 0.998174 0.051630 0.842604
Si Si7 0.864284 0.426069 0.754609
Si Si8 0.127458 0.593800 0.620498
O O1 0.500000 0.500000 0.500000
O O2 0.525382 0.843804 0.370126
O O3 0.741836 0.626566 0.395866
O O4 0.710465 0.416634 0.229240
O O5 0.571513 0.135925 0.218280
O O6 0.858968 0.947431 0.154954
O O7 0.831177 0.136425 0.991404
O O8 0.705472 0.962462 0.634971
O O9 0.770969 0.301039 0.722087
O O10 0.782815 0.295737 0.507890
O O11 0.000000 0.000000 0.500000
O O12 0.456803 0.264393 0.853511
O O13 0.500000 0.500000 0.000000
O O14 0.257675 0.353971 0.113934
O O15 0.500000 0.000000 0.000000
O O16 0.981390 0.243405 0.766554
O O17 0.036763 0.786403 0.762623
O O18 0.992378 0.516999 0.628730
#
# Coordination Sequence:
#
# PCOD8022486 Si02
#       8
#     2   2   2   2   2   2   2   2
#     4  11  24  45  69 105 144 185 253 313 387 451
#     4  10  24  42  75 104 142 187 241 314 384 456
#     4  12  26  45  67 104 147 198 257 309 377 467
#     4  12  30  50  78 114 155 206 260 321 390 463
#     4  12  26  46  74 105 149 196 251 320 381 464
#     4  10  22  46  70 108 139 183 247 310 380 459
#     4  12  25  44  75  98 147 195 249 313 387 449
#     4  11  24  45  70 100 143 190 247 318 376 462
#
# _framework density 25.244682000000001
#
# number of rings (size 3 to 8) (size 9 to 14) (size 15 to 20)
#    0.000    0.750    3.750    2.625    7.000    1.500 
#    0.000    5.000    0.000    0.000    0.000    0.000 
#    0.000    0.000    0.000    0.000    0.000    0.000 
#
# Total GULP energy -198220.695299 kJ/mol
# GULP energy per Si atom -12388.793456 kJ/mol
# Density = 2.518722 g / cm^3
# Si number density = 25.244682 Si / 1000 Ang^3
#
#
#
# Elastic Constant Matrix: (Units=GPa)
#
#
# Indices 1 2 3 4 5 6 
#
# 1 136.1009 21.3641 21.7927 -11.2234 -25.0931 7.5406
# 2 21.3641 54.6251 -7.1035 -5.0799 -8.4478 0.1979
# 3 21.7927 -7.1035 72.8356 -15.5692 -9.2398 -14.4102
# 4 -11.2234 -5.0799 -15.5692 30.9664 -0.4596 -9.2872
# 5 -25.0931 -8.4478 -9.2398 -0.4596 55.5089 -8.6175
# 6 7.5406 0.1979 -14.4102 -9.2872 -8.6175 33.5534
#
#
#
# Elastic Compliance Matrix: (Units=1/GPa)
#
#
# Indices 1 2 3 4 5 6 
#
# 1 0.009063 -0.003498 -0.003142 0.000398 0.002645 -0.002576
# 2 -0.003498 0.021842 0.006643 0.007710 0.003946 0.006658
# 3 -0.003142 0.006643 0.022941 0.016580 0.006137 0.016685
# 4 0.000398 0.007710 0.016580 0.048933 0.008026 0.022591
# 5 0.002645 0.003946 0.006137 0.008026 0.022453 0.010006
# 6 -0.002576 0.006658 0.016685 0.022591 0.010006 0.046331
#
#
# Mechanical properties :
#
#
# Convention : Reuss Voigt Hill
#
# Bulk Modulus (GPa) = 18.56949 37.29648 27.93298
# Shear Modulus (GPa) = 26.38430 39.17296 32.77863
#
# Velocity S-wave (km/s) = 3.23637 3.94348 3.60729
# Velocity P-wave (km/s) = 4.61923 5.96160 5.33282
#
# Compressibility (1/GPa) = 0.05385179
#
# Stress axis : x y z
#
# Youngs Moduli (GPa) = 110.34130 45.78436 43.58982
#
# Poissons Ratio (x) = 0.16014 0.13695
# Poissons Ratio (y) = 0.38594 -0.28955
# Poissons Ratio (z) = 0.34666 -0.30413
#
# Static dielectric constant tensor:
#      x y z
#    x 4.864970 -0.164040 0.136310 
#    y -0.164040 4.361740 -0.049060 
#    z 0.136310 -0.049060 4.859160 
# 
# 
# High freq. dielectric constant tensor:
#      x y z
#    x 2.023940 -0.004060 -0.004090 
#    y -0.004060 1.974690 -0.008030 
#    z -0.004090 -0.008030 2.026600 
# 
# From -- ./inp_files/428578.got.cif
#   From: 2010.06.25/outbox.cif.g09.slc.cpg/sg2_215_cif.got.tgz:428578.got - 2010.06.27 13:26:56.
