data_PCOD8022067
_publ_section_title
;
Structure prediction by ZEFSAII (Michael W. Deem and Ramdas Pophale) SiO2 
 PCOD8022067
Probable space group: P -1
;
_chemical_formula_sum "Si O2"
_cell_formula_units_Z 16
_cell_length_a 8.739395
_cell_length_b 8.923550
_cell_length_c 12.157503
_cell_angle_alpha 65.405527
_cell_angle_beta 79.136652
_cell_angle_gamma 59.702516
_cell_volume 744.076067
_symmetry_space_group_name_H-M "P -1"
_symmetry_group_IT_number 2
_symmetry_cell_setting 'triclinic'
loop_
_space_group_symop_operation_xyz
x,y,z
-x,-y,-z
loop_
_atom_site_type_symbol
_atom_site_label
_atom_site_fract_x
_atom_site_fract_y
_atom_site_fract_z
Si Si1 0.017667 0.858883 0.444421
Si Si2 0.148828 0.464445 0.223165
Si Si3 0.752818 0.625671 0.179690
Si Si4 0.402083 0.385198 0.015446
Si Si5 0.076858 0.864562 0.189022
Si Si6 0.661383 0.537364 0.441483
Si Si7 0.684634 0.815401 0.524862
Si Si8 0.262443 0.984116 0.952926
O O1 0.078466 0.908467 0.304987
O O2 0.156362 0.653664 0.528144
O O3 0.829684 0.868739 0.443108
O O4 0.000000 0.000000 0.500000
O O5 0.136976 0.645206 0.231995
O O6 0.261386 0.277803 0.334633
O O7 0.956376 0.484282 0.222708
O O8 0.240274 0.435299 0.102758
O O9 0.683809 0.547864 0.113430
O O10 0.633181 0.640575 0.296659
O O11 0.731305 0.825302 0.084989
O O12 0.500000 0.500000 0.000000
O O13 0.543603 0.166163 0.067712
O O14 0.214905 0.916312 0.094362
O O15 0.880879 0.991801 0.127649
O O16 0.500000 0.500000 0.500000
O O17 0.670065 0.670697 0.490751
O O18 0.500000 0.000000 0.500000
#
# Coordination Sequence:
#
# PCOD8022067 Si02
#       8
#     2   2   2   2   2   2   2   2
#     4  12  26  47  72 108 142 189 238 296 365 434
#     4  11  23  46  73 101 145 189 230 296 358 425
#     4  11  26  47  69 101 144 188 235 287 362 422
#     4  12  26  42  70 104 139 182 240 293 348 413
#     4  10  22  44  73  98 144 181 232 286 358 415
#     4  12  27  48  75 103 145 190 241 303 364 431
#     4  12  26  47  73 109 144 190 243 297 365 435
#     4  10  23  45  70 104 132 188 231 291 345 418
#
# _framework density 21.503177000000001
#
# number of rings (size 3 to 8) (size 9 to 14) (size 15 to 20)
#    0.000    0.750    3.750    3.375    7.000    2.000 
#    0.000    0.000    0.000    0.000    0.000    0.000 
#    0.000    0.000    0.000    0.000    0.000    0.000 
#
# Total GULP energy -198504.279965 kJ/mol
# GULP energy per Si atom -12406.517498 kJ/mol
# Density = 2.145423 g / cm^3
# Si number density = 21.503177 Si / 1000 Ang^3
#
#
#
# Elastic Constant Matrix: (Units=GPa)
#
#
# Indices 1 2 3 4 5 6 
#
# 1 129.1481 58.8436 38.8999 1.6334 -4.6173 6.0585
# 2 58.8436 125.8361 32.2411 -0.4730 18.0021 -7.2360
# 3 38.8999 32.2411 110.8491 -0.5967 6.5858 2.3090
# 4 1.6334 -0.4730 -0.5967 36.3685 -0.5536 6.4589
# 5 -4.6173 18.0021 6.5858 -0.5536 38.1499 3.3973
# 6 6.0585 -7.2360 2.3090 6.4589 3.3973 41.9141
#
#
#
# Elastic Compliance Matrix: (Units=1/GPa)
#
#
# Indices 1 2 3 4 5 6 
#
# 1 0.011304 -0.005444 -0.002601 -0.000054 0.004634 -0.002798
# 2 -0.005444 0.011926 -0.001253 -0.000337 -0.006385 0.003484
# 3 -0.002601 -0.001253 0.010395 0.000309 -0.001483 -0.000340
# 4 -0.000054 -0.000337 0.000309 0.028313 0.000911 -0.004504
# 5 0.004634 -0.006385 -0.001483 0.000911 0.030438 -0.004298
# 6 -0.002798 0.003484 -0.000340 -0.004504 -0.004298 0.025926
#
#
# Mechanical properties :
#
#
# Convention : Reuss Voigt Hill
#
# Bulk Modulus (GPa) = 66.53557 69.53361 68.03459
# Shear Modulus (GPa) = 35.23361 39.00974 37.12168
#
# Velocity S-wave (km/s) = 4.05227 4.26389 4.15943
# Velocity P-wave (km/s) = 7.27351 7.52646 7.40107
#
# Compressibility (1/GPa) = 0.01502955
#
# Stress axis : x y z
#
# Youngs Moduli (GPa) = 88.46037 83.84857 96.19569
#
# Poissons Ratio (x) = 0.45646 0.25021
# Poissons Ratio (y) = 0.48157 0.12058
# Poissons Ratio (z) = 0.23009 0.10510
#
# Static dielectric constant tensor:
#      x y z
#    x 3.866570 -0.088990 0.293520 
#    y -0.088990 3.748450 -0.148020 
#    z 0.293520 -0.148020 3.365210 
# 
# 
# High freq. dielectric constant tensor:
#      x y z
#    x 1.853720 -0.006780 -0.000530 
#    y -0.006780 1.844900 0.001220 
#    z -0.000530 0.001220 1.857900 
# 
# From -- ./inp_files/190404.got.cif
#   From: 2010.06.25/outbox.cif.g09.slc.cpg/sg2_96_cif.got.tgz:190404.got - 2010.06.27 13:26:56.
