data_PCOD8022021
_publ_section_title
;
Structure prediction by ZEFSAII (Michael W. Deem and Ramdas Pophale) SiO2 
 PCOD8022021
Probable space group: P -1
;
_chemical_formula_sum "Si O2"
_cell_formula_units_Z 16
_cell_length_a 23.893288
_cell_length_b 16.459898
_cell_length_c 5.621724
_cell_angle_alpha 123.161033
_cell_angle_beta 56.665532
_cell_angle_gamma 157.633848
_cell_volume 697.636341
_symmetry_space_group_name_H-M "P -1"
_symmetry_group_IT_number 2
_symmetry_cell_setting 'triclinic'
loop_
_space_group_symop_operation_xyz
x,y,z
-x,-y,-z
loop_
_atom_site_type_symbol
_atom_site_label
_atom_site_fract_x
_atom_site_fract_y
_atom_site_fract_z
Si Si1 0.338928 0.244713 0.455445
Si Si2 0.447225 0.193489 0.287113
Si Si3 0.891312 0.079666 0.898060
Si Si4 0.135106 0.122905 0.010618
Si Si5 0.980661 0.600527 0.579862
Si Si6 0.811501 0.281420 0.852767
Si Si7 0.840193 0.523399 0.408615
Si Si8 0.376992 0.590563 0.281897
O O1 0.500000 0.500000 0.500000
O O2 0.341163 0.151284 0.464141
O O3 0.221517 0.170511 0.696275
O O4 0.275910 0.136354 0.167515
O O5 0.535001 0.310825 0.519169
O O6 0.354353 0.974397 0.157849
O O7 0.538395 0.315876 0.018638
O O8 0.026598 0.249961 0.669640
O O9 0.901642 0.197407 0.193009
O O10 0.920312 0.020048 0.883683
O O11 0.242678 0.342392 0.219443
O O12 0.000000 0.000000 0.000000
O O13 0.857908 0.372750 0.623950
O O14 0.893327 0.580797 0.647860
O O15 0.070942 0.653583 0.256283
O O16 0.816204 0.380309 0.166224
O O17 0.686819 0.382658 0.524027
#
# Coordination Sequence:
#
# PCOD8022021 Si02
#       8
#     2   2   2   2   2   2   2   2
#     4  12  26  46  73 106 148 197 247 305 376 448
#     4  12  29  49  74 110 148 203 245 309 369 453
#     4  11  24  42  76 105 144 189 249 309 376 435
#     4  12  27  46  76 109 148 199 249 310 373 444
#     4  10  22  44  72 111 138 187 250 313 374 443
#     4  10  24  42  76 102 147 188 249 306 377 441
#     4  11  25  46  71 104 146 191 253 311 372 441
#     4  12  30  48  74 106 155 196 253 301 378 447
#
# _framework density 22.934583
#
# number of rings (size 3 to 8) (size 9 to 14) (size 15 to 20)
#    0.000    0.750    1.250    4.875   10.500    4.000 
#    0.000    0.000    0.000    0.000    0.000    0.000 
#    0.000    0.000    0.000    0.000    0.000    0.000 
#
# Total GULP energy -198279.986569 kJ/mol
# GULP energy per Si atom -12392.499161 kJ/mol
# Density = 2.288238 g / cm^3
# Si number density = 22.934583 Si / 1000 Ang^3
#
#
#
# Elastic Constant Matrix: (Units=GPa)
#
#
# Indices 1 2 3 4 5 6 
#
# 1 170.5556 69.5192 55.0487 13.1196 -0.7820 13.2282
# 2 69.5192 144.0072 43.1443 22.0397 4.5596 -14.5559
# 3 55.0487 43.1443 96.6962 7.7709 -2.9695 10.1666
# 4 13.1196 22.0397 7.7709 37.2719 2.3325 -1.4335
# 5 -0.7820 4.5596 -2.9695 2.3325 42.9288 -2.9983
# 6 13.2282 -14.5559 10.1666 -1.4335 -2.9983 47.3145
#
#
#
# Elastic Compliance Matrix: (Units=1/GPa)
#
#
# Indices 1 2 3 4 5 6 
#
# 1 0.008462 -0.003414 -0.002960 -0.000459 0.000142 -0.002785
# 2 -0.003414 0.010632 -0.002979 -0.004232 -0.000840 0.004684
# 3 -0.002960 -0.002979 0.013719 -0.000235 0.001016 -0.002979
# 4 -0.000459 -0.004232 -0.000235 0.029606 -0.001205 -0.000302
# 5 0.000142 -0.000840 0.001016 -0.001205 0.023588 0.000942
# 6 -0.002785 0.004684 -0.002979 -0.000302 0.000942 0.024045
#
#
# Mechanical properties :
#
#
# Convention : Reuss Voigt Hill
#
# Bulk Modulus (GPa) = 70.88094 82.96482 76.92288
# Shear Modulus (GPa) = 37.46403 41.73950 39.60177
#
# Velocity S-wave (km/s) = 4.04606 4.27070 4.15990
# Velocity P-wave (km/s) = 7.26638 7.78277 7.52901
#
# Compressibility (1/GPa) = 0.01410817
#
# Stress axis : x y z
#
# Youngs Moduli (GPa) = 118.17389 94.05329 72.89063
#
# Poissons Ratio (x) = 0.32110 0.21576
# Poissons Ratio (y) = 0.40345 0.21711
# Poissons Ratio (z) = 0.34981 0.28014
#
# Static dielectric constant tensor:
#      x y z
#    x 4.395760 0.001850 -0.094880 
#    y 0.001850 3.974970 0.174910 
#    z -0.094880 0.174910 4.183880 
# 
# 
# High freq. dielectric constant tensor:
#      x y z
#    x 1.922180 -0.010440 -0.006510 
#    y -0.010440 1.908670 0.012040 
#    z -0.006510 0.012040 1.909840 
# 
# From -- ./inp_files/124882.got.cif
#   From: 2010.06.25/outbox.cif.g09.slc.cpg/sg2_63_cif.got.tgz:124882.got - 2010.06.27 13:26:56.
