data_PCOD8022393
_publ_section_title
;
Structure prediction by ZEFSAII (Michael W. Deem and Ramdas Pophale) SiO2 
 PCOD8022393
Probable space group: P -1
;
_chemical_formula_sum "Si O2"
_cell_formula_units_Z 16
_cell_length_a 7.932943
_cell_length_b 20.080517
_cell_length_c 16.713779
_cell_angle_alpha 159.412959
_cell_angle_beta 42.434563
_cell_angle_gamma 134.858655
_cell_volume 630.528671
_symmetry_space_group_name_H-M "P -1"
_symmetry_group_IT_number 2
_symmetry_cell_setting 'triclinic'
loop_
_space_group_symop_operation_xyz
x,y,z
-x,-y,-z
loop_
_atom_site_type_symbol
_atom_site_label
_atom_site_fract_x
_atom_site_fract_y
_atom_site_fract_z
Si Si1 0.994407 0.332167 0.253664
Si Si2 0.636885 0.203152 0.681047
Si Si3 0.233014 0.401694 0.484777
Si Si4 0.455226 0.683854 0.987846
Si Si5 0.606726 0.995823 0.046644
Si Si6 0.899059 0.586621 0.276323
Si Si7 0.238256 0.243581 0.747353
Si Si8 0.209562 0.007019 0.341705
O O1 0.935524 0.436131 0.308074
O O2 0.806975 0.171827 0.176662
O O3 0.000000 0.500000 0.500000
O O4 0.264414 0.250738 0.061457
O O5 0.559363 0.324672 0.921198
O O6 0.517869 0.283714 0.731219
O O7 0.948632 0.217433 0.587442
O O8 0.500000 0.000000 0.500000
O O9 0.500000 0.500000 0.500000
O O10 0.157172 0.361142 0.555591
O O11 0.250909 0.198383 0.204227
O O12 0.289051 0.839847 0.184425
O O13 0.354784 0.477666 0.754841
O O14 0.379973 0.022481 0.219091
O O15 0.500000 0.000000 0.000000
O O16 0.106403 0.436956 0.024498
O O17 0.248917 0.197694 0.596349
O O18 0.084436 0.067352 0.651103
#
# Coordination Sequence:
#
# PCOD8022393 Si02
#       8
#     2   2   2   2   2   2   2   2
#     4  12  28  48  74 114 150 201 254 318 377 459
#     4  12  25  43  70 109 143 186 254 304 372 451
#     4  12  25  51  77 112 155 197 260 315 376 458
#     4  11  25  46  71 108 155 197 247 309 382 452
#     4  12  28  46  81 111 149 206 256 310 388 441
#     4  11  26  46  73 105 153 203 242 310 386 441
#     4  10  22  45  74 107 146 197 246 311 379 447
#     4  10  23  46  74 108 155 194 249 316 377 448
#
# _framework density 25.375530999999999
#
# number of rings (size 3 to 8) (size 9 to 14) (size 15 to 20)
#    0.000    0.750    2.500    4.500    3.500    4.000 
#    0.000    0.000    0.000    0.000    0.000    0.000 
#    0.000    0.000    0.000    0.000    0.000    0.000 
#
# Total GULP energy -198245.017797 kJ/mol
# GULP energy per Si atom -12390.313612 kJ/mol
# Density = 2.531777 g / cm^3
# Si number density = 25.375531 Si / 1000 Ang^3
#
#
#
# Elastic Constant Matrix: (Units=GPa)
#
#
# Indices 1 2 3 4 5 6 
#
# 1 81.0217 35.8808 -3.5712 -2.2731 33.7835 17.3872
# 2 35.8808 179.9009 54.4217 -8.6176 28.1967 16.1889
# 3 -3.5712 54.4217 85.5825 -1.9498 26.6031 3.5703
# 4 -2.2731 -8.6176 -1.9498 56.1540 -8.3405 5.9877
# 5 33.7835 28.1967 26.6031 -8.3405 33.7756 0.5155
# 6 17.3872 16.1889 3.5703 5.9877 0.5155 46.9277
#
#
#
# Elastic Compliance Matrix: (Units=1/GPa)
#
#
# Indices 1 2 3 4 5 6 
#
# 1 0.043597 -0.005731 0.024327 -0.005485 -0.059114 -0.014678
# 2 -0.005731 0.008140 -0.006822 0.001521 0.004692 -0.000411
# 3 0.024327 -0.006822 0.030957 -0.004685 -0.044056 -0.007933
# 4 -0.005485 0.001521 -0.004685 0.019637 0.012768 -0.000782
# 5 -0.059114 0.004692 -0.044056 0.012768 0.122356 0.020663
# 6 -0.014678 -0.000411 -0.007933 -0.000782 0.020663 0.027366
#
#
# Mechanical properties :
#
#
# Convention : Reuss Voigt Hill
#
# Bulk Modulus (GPa) = 9.41255 57.77417 33.59336
# Shear Modulus (GPa) = 18.94519 44.68972 31.81746
#
# Velocity S-wave (km/s) = 2.73535 4.20114 3.54484
# Velocity P-wave (km/s) = 3.70048 6.80807 5.47921
#
# Compressibility (1/GPa) = 0.10624108
#
# Stress axis : x y z
#
# Youngs Moduli (GPa) = 22.93711 122.85298 32.30312
#
# Poissons Ratio (x) = 0.70408 -0.78583
# Poissons Ratio (y) = 0.13145 0.22037
# Poissons Ratio (z) = -0.55798 0.83811
#
# Static dielectric constant tensor:
#      x y z
#    x -3.285960 1.697980 1.153860 
#    y 1.697980 4.515660 0.141210 
#    z 1.153860 0.141210 4.669110 
# 
# 
# High freq. dielectric constant tensor:
#      x y z
#    x 2.025690 0.002780 -0.000560 
#    y 0.002780 2.026760 0.010060 
#    z -0.000560 0.010060 2.025570 
# 
# From -- ./inp_files/562972.got.cif
#   From: 2010.06.25/outbox.cif.g09.slc.cpg/sg2_282_cif.got.tgz:562972.got - 2010.06.27 13:26:56.
