data_PCOD8022033
_publ_section_title
;
Structure prediction by ZEFSAII (Michael W. Deem and Ramdas Pophale) SiO2 
 PCOD8022033
Probable space group: P -1
;
_chemical_formula_sum "Si O2"
_cell_formula_units_Z 12
_cell_length_a 9.136378
_cell_length_b 8.576902
_cell_length_c 13.112193
_cell_angle_alpha 68.938455
_cell_angle_beta 33.939455
_cell_angle_gamma 85.942848
_cell_volume 481.666995
_symmetry_space_group_name_H-M "P -1"
_symmetry_group_IT_number 2
_symmetry_cell_setting 'triclinic'
loop_
_space_group_symop_operation_xyz
x,y,z
-x,-y,-z
loop_
_atom_site_type_symbol
_atom_site_label
_atom_site_fract_x
_atom_site_fract_y
_atom_site_fract_z
Si Si1 0.384425 0.789238 0.666438
Si Si2 0.808910 0.869555 0.231703
Si Si3 0.685673 0.144684 0.944412
Si Si4 0.293043 0.533967 0.267099
Si Si5 0.236739 0.364496 0.861711
Si Si6 0.297379 0.151973 0.332884
O O1 0.536035 0.891608 0.444765
O O2 0.254734 0.566497 0.785519
O O3 0.649746 0.864707 0.575028
O O4 0.087217 0.799901 0.875047
O O5 0.663384 0.678971 0.295784
O O6 0.000430 0.852179 0.219889
O O7 0.000000 0.000000 0.000000
O O8 0.695679 0.341925 0.864783
O O9 0.538756 0.106381 0.148726
O O10 0.500000 0.000000 0.000000
O O11 0.555280 0.642992 0.167715
O O12 0.304396 0.351006 0.259355
O O13 0.000000 0.500000 0.500000
O O14 0.000000 0.000000 0.500000
#
# Coordination Sequence:
#
# PCOD8022033 Si02
#       6
#     2   2   2   2   2   2
#     4  10  22  44  72  99 140 183 236 297 356 428
#     4  12  25  43  71 104 141 188 238 298 362 429
#     4  12  24  45  69 103 147 186 241 298 355 435
#     4  11  24  45  72 105 143 189 240 297 366 432
#     4  10  22  45  69 103 137 180 238 292 362 431
#     4  11  23  44  71 107 143 188 239 297 362 431
#
# _framework density 24.913478999999999
#
# number of rings (size 3 to 8) (size 9 to 14) (size 15 to 20)
#    0.000    1.000    1.667    6.000    0.000    0.667 
#    6.000    0.000    0.000    0.000    0.000    0.000 
#    0.000    0.000    0.000    0.000    0.000    0.000 
#
# Total GULP energy -148694.262113 kJ/mol
# GULP energy per Si atom -12391.188509 kJ/mol
# Density = 2.485678 g / cm^3
# Si number density = 24.913479 Si / 1000 Ang^3
#
#
#
# Elastic Constant Matrix: (Units=GPa)
#
#
# Indices 1 2 3 4 5 6 
#
# 1 124.7993 47.1022 41.9461 -6.7994 -8.2750 9.8425
# 2 47.1022 100.8184 49.0808 29.4473 2.2105 18.4863
# 3 41.9461 49.0808 156.4856 20.4965 6.2612 14.8623
# 4 -6.7994 29.4473 20.4965 53.9036 0.1685 1.9492
# 5 -8.2750 2.2105 6.2612 0.1685 41.3671 -2.1833
# 6 9.8425 18.4863 14.8623 1.9492 -2.1833 47.6535
#
#
#
# Elastic Compliance Matrix: (Units=1/GPa)
#
#
# Indices 1 2 3 4 5 6 
#
# 1 0.011478 -0.006159 -0.002044 0.005560 0.002942 0.000564
# 2 -0.006159 0.017409 -0.002074 -0.009328 -0.002051 -0.004547
# 3 -0.002044 -0.002074 0.008052 -0.002136 -0.001575 -0.001269
# 4 0.005560 -0.009328 -0.002136 0.025076 0.001948 0.002200
# 5 0.002942 -0.002051 -0.001575 0.001948 0.025195 0.001754
# 6 0.000564 -0.004547 -0.001269 0.002200 0.001754 0.023019
#
#
# Mechanical properties :
#
#
# Convention : Reuss Voigt Hill
#
# Bulk Modulus (GPa) = 61.03172 73.15128 67.09150
# Shear Modulus (GPa) = 36.69859 44.84979 40.77419
#
# Velocity S-wave (km/s) = 3.84219 4.24751 4.04992
# Velocity P-wave (km/s) = 6.65085 7.31307 6.98981
#
# Compressibility (1/GPa) = 0.01638492
#
# Stress axis : x y z
#
# Youngs Moduli (GPa) = 87.12133 57.44077 124.19081
#
# Poissons Ratio (x) = 0.35379 0.25390
# Poissons Ratio (y) = 0.53660 0.25752
# Poissons Ratio (z) = 0.17812 0.11911
#
# Static dielectric constant tensor:
#      x y z
#    x 4.636050 -0.615490 -0.195900 
#    y -0.615490 6.172970 -0.095830 
#    z -0.195900 -0.095830 4.433680 
# 
# 
# High freq. dielectric constant tensor:
#      x y z
#    x 1.986330 0.003520 0.000990 
#    y 0.003520 2.033230 0.005490 
#    z 0.000990 0.005490 2.002790 
# 
# From -- ./inp_files/173583.got.cif
#   From: 2010.06.25/outbox.cif.g09.slc.cpg/sg2_87_cif.got.tgz:173583.got - 2010.06.27 13:26:56.
