data_PCOD8022068
_publ_section_title
;
Structure prediction by ZEFSAII (Michael W. Deem and Ramdas Pophale) SiO2 
 PCOD8022068
Probable space group: P -1
;
_chemical_formula_sum "Si O2"
_cell_formula_units_Z 16
_cell_length_a 13.843534
_cell_length_b 14.519591
_cell_length_c 8.469922
_cell_angle_alpha 91.870842
_cell_angle_beta 117.744217
_cell_angle_gamma 139.168674
_cell_volume 735.661250
_symmetry_space_group_name_H-M "P -1"
_symmetry_group_IT_number 2
_symmetry_cell_setting 'triclinic'
loop_
_space_group_symop_operation_xyz
x,y,z
-x,-y,-z
loop_
_atom_site_type_symbol
_atom_site_label
_atom_site_fract_x
_atom_site_fract_y
_atom_site_fract_z
Si Si1 0.912578 0.651722 0.828690
Si Si2 0.186923 0.213894 0.171103
Si Si3 0.192735 0.715702 0.197096
Si Si4 0.427430 0.934869 0.697343
Si Si5 0.105356 0.977518 0.532625
Si Si6 0.227183 0.902328 0.813821
Si Si7 0.519958 0.675068 0.369116
Si Si8 0.685102 0.611249 0.025213
O O1 0.917460 0.763648 0.874195
O O2 0.665544 0.421848 0.653528
O O3 0.002300 0.701669 0.721587
O O4 0.083727 0.735578 0.090300
O O5 0.355517 0.316465 0.446875
O O6 0.311648 0.307615 0.102686
O O7 0.000000 0.000000 0.000000
O O8 0.281413 0.772810 0.446647
O O9 0.403597 0.866351 0.244774
O O10 0.000000 0.500000 0.000000
O O11 0.258459 0.866184 0.677155
O O12 0.560284 0.955646 0.901269
O O13 0.200995 0.992356 0.757288
O O14 0.297867 0.122394 0.552901
O O15 0.000000 0.000000 0.500000
O O16 0.918265 0.775296 0.302390
O O17 0.374074 0.530252 0.103961
O O18 0.500000 0.500000 0.000000
#
# Coordination Sequence:
#
# PCOD8022068 Si02
#       8
#     2   2   2   2   2   2   2   2
#     4  10  23  41  64  98 132 174 220 278 327 393
#     4  11  23  42  64  92 135 182 222 263 322 398
#     4  10  22  44  73  99 130 165 228 277 337 401
#     4   9  22  47  69  95 130 178 213 282 337 388
#     4  12  24  40  65  99 133 172 220 267 330 397
#     4  10  23  43  70  94 137 172 220 276 336 393
#     4  11  24  42  60  91 135 174 219 267 324 397
#     4  11  23  38  61  89 127 176 217 271 320 374
#
# _framework density 21.749141000000002
#
# number of rings (size 3 to 8) (size 9 to 14) (size 15 to 20)
#    0.000    1.500    2.500    2.250    7.000    0.000 
#    4.500    9.375    0.000    0.000    0.000    0.000 
#    0.000    0.000    0.000    0.000    0.000    0.000 
#
# Total GULP energy -198277.683216 kJ/mol
# GULP energy per Si atom -12392.355201 kJ/mol
# Density = 2.169964 g / cm^3
# Si number density = 21.749141 Si / 1000 Ang^3
#
#
#
# Elastic Constant Matrix: (Units=GPa)
#
#
# Indices 1 2 3 4 5 6 
#
# 1 109.1181 60.8150 55.0688 -2.5076 9.2184 27.9869
# 2 60.8150 142.7348 59.8149 1.1955 8.5015 37.9711
# 3 55.0688 59.8149 130.3029 -3.9013 -3.5839 5.9285
# 4 -2.5076 1.1955 -3.9013 47.0990 -1.3857 10.0214
# 5 9.2184 8.5015 -3.5839 -1.3857 30.7570 -1.2359
# 6 27.9869 37.9711 5.9285 10.0214 -1.2359 41.7233
#
#
#
# Elastic Compliance Matrix: (Units=1/GPa)
#
#
# Indices 1 2 3 4 5 6 
#
# 1 0.015638 -0.001738 -0.005487 0.002143 -0.005103 -0.008794
# 2 -0.001738 0.012586 -0.004656 0.001224 -0.003849 -0.010035
# 3 -0.005487 -0.004656 0.011950 -0.000424 0.004564 0.006457
# 4 0.002143 0.001224 -0.000424 0.022977 -0.000317 -0.008020
# 5 -0.005103 -0.003849 0.004564 -0.000317 0.035922 0.007417
# 6 -0.008794 -0.010035 0.006457 -0.008020 0.007417 0.040227
#
#
# Mechanical properties :
#
#
# Convention : Reuss Voigt Hill
#
# Bulk Modulus (GPa) = 60.93074 81.50591 71.21833
# Shear Modulus (GPa) = 29.66786 37.67967 33.67376
#
# Velocity S-wave (km/s) = 3.69737 4.16681 3.93909
# Velocity P-wave (km/s) = 6.80466 7.79144 7.31471
#
# Compressibility (1/GPa) = 0.01641208
#
# Stress axis : x y z
#
# Youngs Moduli (GPa) = 63.94584 79.45317 83.68380
#
# Poissons Ratio (x) = 0.13809 0.45920
# Poissons Ratio (y) = 0.11114 0.38961
# Poissons Ratio (z) = 0.35089 0.36991
#
# Static dielectric constant tensor:
#      x y z
#    x 2.857600 0.742140 0.307910 
#    y 0.742140 4.038360 -0.093780 
#    z 0.307910 -0.093780 4.041460 
# 
# 
# High freq. dielectric constant tensor:
#      x y z
#    x 1.838830 0.025260 0.016990 
#    y 0.025260 1.865800 -0.009800 
#    z 0.016990 -0.009800 1.854810 
# 
# From -- ./inp_files/313434.got.cif
#   From: 2010.06.25/outbox.cif.g09.slc.cpg/sg2_157_cif.got.tgz:313434.got - 2010.06.27 13:26:56.
