data_PCOD8022057
_publ_section_title
;
Structure prediction by ZEFSAII (Michael W. Deem and Ramdas Pophale) SiO2 
 PCOD8022057
Probable space group: P -1
;
_chemical_formula_sum "Si O2"
_cell_formula_units_Z 16
_cell_length_a 19.834860
_cell_length_b 10.984213
_cell_length_c 17.224104
_cell_angle_alpha 28.688058
_cell_angle_beta 21.739765
_cell_angle_gamma 39.325013
_cell_volume 648.987729
_symmetry_space_group_name_H-M "P -1"
_symmetry_group_IT_number 2
_symmetry_cell_setting 'triclinic'
loop_
_space_group_symop_operation_xyz
x,y,z
-x,-y,-z
loop_
_atom_site_type_symbol
_atom_site_label
_atom_site_fract_x
_atom_site_fract_y
_atom_site_fract_z
Si Si1 0.357605 0.215300 0.625056
Si Si2 0.489099 0.256360 0.919630
Si Si3 0.734440 0.105176 0.351330
Si Si4 0.924286 0.527423 0.149787
Si Si5 0.988911 0.210548 0.775327
Si Si6 0.096175 0.003572 0.476238
Si Si7 0.914946 0.215960 0.679077
Si Si8 0.517983 0.242876 0.078210
O O1 0.392865 0.466677 0.391401
O O2 0.557756 0.156478 0.463766
O O3 0.228613 0.292134 0.790193
O O4 0.217040 0.957288 0.882649
O O5 0.549604 0.251934 0.947154
O O6 0.500000 0.000000 0.000000
O O7 0.269015 0.254991 0.156003
O O8 0.657359 0.989428 0.582471
O O9 0.840042 0.902502 0.308044
O O10 0.895979 0.361402 0.049628
O O11 0.825647 0.254962 0.448360
O O12 0.000000 0.500000 0.000000
O O13 0.027589 0.203277 0.644618
O O14 0.012962 0.513874 0.598643
O O15 0.000000 0.000000 0.500000
O O16 0.945413 0.998186 0.708520
O O17 0.700395 0.168873 0.960911
O O18 0.500000 0.500000 0.000000
#
# Coordination Sequence:
#
# PCOD8022057 Si02
#       8
#     2   2   2   2   2   2   2   2
#     4  11  24  45  70 105 145 189 236 303 372 427
#     4  12  26  48  71 106 150 191 243 305 366 441
#     4  11  23  42  71 106 138 186 243 301 358 433
#     4  11  24  43  65 100 144 182 239 299 357 430
#     4  10  22  44  73 106 143 178 244 303 356 428
#     4  12  25  45  70 101 144 192 238 296 370 434
#     4  11  23  43  75 104 139 191 243 301 363 426
#     4  12  25  46  76 107 143 196 252 296 361 448
#
# _framework density 24.653779
#
# number of rings (size 3 to 8) (size 9 to 14) (size 15 to 20)
#    0.000    0.750    3.750    4.500    1.750    0.500 
#    0.000    4.375    0.000    0.000    0.000    0.000 
#    0.000    0.000    0.000    0.000    0.000    0.000 
#
# Total GULP energy -198231.334926 kJ/mol
# GULP energy per Si atom -12389.458433 kJ/mol
# Density = 2.459767 g / cm^3
# Si number density = 24.653779 Si / 1000 Ang^3
#
#
#
# Elastic Constant Matrix: (Units=GPa)
#
#
# Indices 1 2 3 4 5 6 
#
# 1 71.5205 24.3207 0.7674 9.9406 -4.1393 -6.8601
# 2 24.3207 98.8274 18.7998 13.5564 -12.2278 -17.9342
# 3 0.7674 18.7998 129.3279 -5.7838 -12.9862 -14.9099
# 4 9.9406 13.5564 -5.7838 47.4770 -11.8682 -5.9691
# 5 -4.1393 -12.2278 -12.9862 -11.8682 34.9429 8.3012
# 6 -6.8601 -17.9342 -14.9099 -5.9691 8.3012 39.2014
#
#
#
# Elastic Compliance Matrix: (Units=1/GPa)
#
#
# Indices 1 2 3 4 5 6 
#
# 1 0.015533 -0.003447 0.000412 -0.002135 -0.000178 0.001011
# 2 -0.003447 0.012418 -0.001238 -0.002018 0.001864 0.003905
# 3 0.000412 -0.001238 0.008609 0.002389 0.003032 0.002502
# 4 -0.002135 -0.002018 0.002389 0.024556 0.007869 0.001684
# 5 -0.000178 0.001864 0.003032 0.007869 0.034006 -0.004028
# 6 0.001011 0.003905 0.002502 0.001684 -0.004028 0.029534
#
#
# Mechanical properties :
#
#
# Convention : Reuss Voigt Hill
#
# Bulk Modulus (GPa) = 35.69330 43.05017 39.37174
# Shear Modulus (GPa) = 35.07792 41.37680 38.22736
#
# Velocity S-wave (km/s) = 3.77612 4.10117 3.94200
# Velocity P-wave (km/s) = 5.78977 6.31870 6.06000
#
# Compressibility (1/GPa) = 0.02801646
#
# Stress axis : x y z
#
# Youngs Moduli (GPa) = 64.37883 80.52526 116.15093
#
# Poissons Ratio (x) = 0.27754 -0.04785
# Poissons Ratio (y) = 0.22189 0.14374
# Poissons Ratio (z) = -0.02652 0.09966
#
# Static dielectric constant tensor:
#      x y z
#    x 4.005920 -0.071050 -0.138160 
#    y -0.071050 4.571720 -0.088360 
#    z -0.138160 -0.088360 4.910860 
# 
# 
# High freq. dielectric constant tensor:
#      x y z
#    x 1.953310 -0.012700 0.001130 
#    y -0.012700 1.989730 0.001450 
#    z 0.001130 0.001450 2.008230 
# 
# From -- ./inp_files/577909.got.cif
#   From: 2010.06.25/outbox.cif.g09.slc.cpg/sg2_289_cif.got.tgz:577909.got - 2010.06.27 13:26:56.
