data_PCOD8022406
_publ_section_title
;
Structure prediction by ZEFSAII (Michael W. Deem and Ramdas Pophale) SiO2 
 PCOD8022406
Probable space group: P -1
;
_chemical_formula_sum "Si O2"
_cell_formula_units_Z 16
_cell_length_a 9.264821
_cell_length_b 8.905478
_cell_length_c 14.160474
_cell_angle_alpha 65.598126
_cell_angle_beta 91.253081
_cell_angle_gamma 49.122232
_cell_volume 728.429739
_symmetry_space_group_name_H-M "P -1"
_symmetry_group_IT_number 2
_symmetry_cell_setting 'triclinic'
loop_
_space_group_symop_operation_xyz
x,y,z
-x,-y,-z
loop_
_atom_site_type_symbol
_atom_site_label
_atom_site_fract_x
_atom_site_fract_y
_atom_site_fract_z
Si Si1 0.713918 0.019542 0.832669
Si Si2 0.735133 0.593718 0.341630
Si Si3 0.444773 0.378607 0.480875
Si Si4 0.756022 0.906169 0.342866
Si Si5 0.958231 0.845394 0.058865
Si Si6 0.818158 0.834694 0.574897
Si Si7 0.283482 0.296968 0.217816
Si Si8 0.070711 0.828212 0.261488
O O1 0.750790 0.824048 0.824542
O O2 0.469143 0.277873 0.758002
O O3 0.870422 0.028352 0.788841
O O4 0.763171 0.950644 0.962755
O O5 0.678387 0.624281 0.443077
O O6 0.804295 0.728166 0.309165
O O7 0.932302 0.322948 0.375123
O O8 0.500000 0.500000 0.500000
O O9 0.290923 0.542893 0.347367
O O10 0.665924 0.114264 0.522587
O O11 0.775608 0.813840 0.472492
O O12 0.922306 0.919514 0.327350
O O13 0.520264 0.167450 0.255810
O O14 0.149024 0.563320 0.110383
O O15 0.927929 0.868727 0.164985
O O16 0.000000 0.000000 0.000000
O O17 0.774571 0.718911 0.674144
#
# Coordination Sequence:
#
# PCOD8022406 Si02
#       8
#     2   2   2   2   2   2   2   2
#     4  10  22  46  63  92 134 174 223 279 319 390
#     4  11  23  40  64  96 136 170 223 267 329 396
#     4  12  23  42  62  96 142 174 213 276 326 398
#     4  11  23  39  66 102 135 169 218 273 331 407
#     4  10  23  42  69  91 125 178 221 278 333 377
#     4  12  23  38  67 100 135 179 214 263 343 392
#     4  11  22  42  65  95 130 173 224 270 331 395
#     4  11  22  42  66  96 136 171 217 276 326 387
#
# _framework density 21.965056000000001
#
# number of rings (size 3 to 8) (size 9 to 14) (size 15 to 20)
#    0.000    1.000    5.000    2.625    1.750    0.500 
#    2.250    9.375    0.000    0.000    0.000    0.000 
#    0.000    0.000    0.000    0.000    0.000    0.000 
#
# Total GULP energy -198235.166309 kJ/mol
# GULP energy per Si atom -12389.697894 kJ/mol
# Density = 2.191506 g / cm^3
# Si number density = 21.965056 Si / 1000 Ang^3
#
#
#
# Elastic Constant Matrix: (Units=GPa)
#
#
# Indices 1 2 3 4 5 6 
#
# 1 106.8011 60.3342 48.3375 -11.2326 13.8521 -4.7360
# 2 60.3342 120.2483 49.7695 -20.3811 2.6076 -13.7363
# 3 48.3375 49.7695 149.5055 -10.7993 10.5175 1.5749
# 4 -11.2326 -20.3811 -10.7993 30.5126 1.5989 2.4547
# 5 13.8521 2.6076 10.5175 1.5989 20.6309 -3.3137
# 6 -4.7360 -13.7363 1.5749 2.4547 -3.3137 29.2542
#
#
#
# Elastic Compliance Matrix: (Units=1/GPa)
#
#
# Indices 1 2 3 4 5 6 
#
# 1 0.015157 -0.006593 -0.002004 0.001050 -0.008661 -0.001603
# 2 -0.006593 0.014170 -0.002567 0.005432 0.004451 0.005773
# 3 -0.002004 -0.002567 0.008502 0.000915 -0.003124 -0.002418
# 4 0.001050 0.005432 0.000915 0.037453 -0.004926 -0.001029
# 5 -0.008661 0.004451 -0.003124 -0.004926 0.056938 0.007719
# 6 -0.001603 0.005773 -0.002418 -0.001029 0.007719 0.037725
#
#
# Mechanical properties :
#
#
# Convention : Reuss Voigt Hill
#
# Bulk Modulus (GPa) = 64.50794 77.04859 70.77827
# Shear Modulus (GPa) = 25.32398 30.62046 27.97222
#
# Velocity S-wave (km/s) = 3.39915 3.73775 3.57247
# Velocity P-wave (km/s) = 6.69611 7.33360 7.02209
#
# Compressibility (1/GPa) = 0.01550197
#
# Stress axis : x y z
#
# Youngs Moduli (GPa) = 65.97433 70.56999 117.61282
#
# Poissons Ratio (x) = 0.46529 0.23567
# Poissons Ratio (y) = 0.43499 0.30192
# Poissons Ratio (z) = 0.13220 0.18116
#
# Static dielectric constant tensor:
#      x y z
#    x 3.335280 -0.002720 0.593580 
#    y -0.002720 3.869850 -0.061330 
#    z 0.593580 -0.061330 4.297180 
# 
# 
# High freq. dielectric constant tensor:
#      x y z
#    x 1.860330 0.004710 0.008370 
#    y 0.004710 1.850020 -0.006350 
#    z 0.008370 -0.006350 1.874640 
# 
# From -- ./inp_files/307344.got.cif
#   From: 2010.06.25/outbox.cif.g09.slc.cpg/sg2_154_cif.got.tgz:307344.got - 2010.06.27 13:26:56.
