data_PCOD8022557
_publ_section_title
;
Structure prediction by ZEFSAII (Michael W. Deem and Ramdas Pophale) SiO2 
 PCOD8022557
Probable space group: P -1
;
_chemical_formula_sum "Si O2"
_cell_formula_units_Z 16
_cell_length_a 10.968769
_cell_length_b 8.101205
_cell_length_c 14.539924
_cell_angle_alpha 112.215142
_cell_angle_beta 63.449257
_cell_angle_gamma 63.697834
_cell_volume 720.687368
_symmetry_space_group_name_H-M "P -1"
_symmetry_group_IT_number 2
_symmetry_cell_setting 'triclinic'
loop_
_space_group_symop_operation_xyz
x,y,z
-x,-y,-z
loop_
_atom_site_type_symbol
_atom_site_label
_atom_site_fract_x
_atom_site_fract_y
_atom_site_fract_z
Si Si1 0.589040 0.929732 0.056253
Si Si2 0.784196 0.294080 0.119157
Si Si3 0.819030 0.868281 0.574702
Si Si4 0.249548 0.428667 0.374495
Si Si5 0.473623 0.391531 0.899931
Si Si6 0.971248 0.479587 0.112369
Si Si7 0.695005 0.931204 0.435189
Si Si8 0.553479 0.457125 0.577026
O O1 0.586866 0.743732 0.070849
O O2 0.451913 0.223835 0.202299
O O3 0.820811 0.771899 0.957042
O O4 0.500000 0.000000 0.000000
O O5 0.700337 0.360867 0.056446
O O6 0.809004 0.477823 0.174280
O O7 0.640560 0.335428 0.248823
O O8 0.000000 0.000000 0.000000
O O9 0.801963 0.727665 0.624761
O O10 0.767558 0.812981 0.487368
O O11 0.051376 0.710515 0.454422
O O12 0.675187 0.170748 0.721407
O O13 0.303749 0.507258 0.456523
O O14 0.500000 0.500000 0.000000
O O15 0.863446 0.743496 0.259736
O O16 0.000000 0.500000 0.000000
O O17 0.500000 0.000000 0.500000
O O18 0.666526 0.168826 0.505047
O O19 0.500000 0.500000 0.500000
#
# Coordination Sequence:
#
# PCOD8022557 Si02
#       8
#     2   2   2   2   2   2   2   2
#     4  11  25  44  70 104 140 185 235 290 357 424
#     4  12  27  48  69 104 144 189 237 298 356 419
#     4  10  22  47  69 100 136 189 231 289 357 418
#     4  10  24  43  70  99 140 178 237 290 345 427
#     4  11  25  45  70 102 147 186 236 295 355 427
#     4  12  26  46  74 102 140 189 238 292 361 428
#     4  12  24  44  72  98 141 182 234 286 355 416
#     4  12  27  43  70 104 137 185 236 292 350 419
#
# _framework density 22.201027
#
# number of rings (size 3 to 8) (size 9 to 14) (size 15 to 20)
#    0.000    0.750    3.750    2.250    8.750    2.500 
#    0.000    0.000    0.000    0.000    0.000    0.000 
#    0.000    0.000    0.000    0.000    0.000    0.000 
#
# Total GULP energy -198266.996801 kJ/mol
# GULP energy per Si atom -12391.687300 kJ/mol
# Density = 2.215050 g / cm^3
# Si number density = 22.201027 Si / 1000 Ang^3
#
#
#
# Elastic Constant Matrix: (Units=GPa)
#
#
# Indices 1 2 3 4 5 6 
#
# 1 146.1019 30.6394 53.5687 9.3768 7.6486 -32.8124
# 2 30.6394 85.9904 39.3392 5.2654 -0.8053 -32.9645
# 3 53.5687 39.3392 151.4112 18.3049 10.4816 -25.2595
# 4 9.3768 5.2654 18.3049 39.3739 -5.7664 2.5045
# 5 7.6486 -0.8053 10.4816 -5.7664 37.3527 0.8311
# 6 -32.8124 -32.9645 -25.2595 2.5045 0.8311 51.5457
#
#
#
# Elastic Compliance Matrix: (Units=1/GPa)
#
#
# Indices 1 2 3 4 5 6 
#
# 1 0.008858 -0.000451 -0.001951 -0.001668 -0.001634 0.004502
# 2 -0.000451 0.016516 -0.002490 -0.001417 0.000726 0.009112
# 3 -0.001951 -0.002490 0.008894 -0.003857 -0.002784 0.001756
# 4 -0.001668 -0.001417 -0.003857 0.028995 0.005989 -0.005363
# 5 -0.001634 0.000726 -0.002784 0.005989 0.028888 -0.002697
# 6 0.004502 0.009112 0.001756 -0.005363 -0.002697 0.029257
#
#
# Mechanical properties :
#
#
# Convention : Reuss Voigt Hill
#
# Bulk Modulus (GPa) = 40.84557 70.06646 55.45602
# Shear Modulus (GPa) = 35.87983 42.98487 39.43235
#
# Velocity S-wave (km/s) = 4.02448 4.40496 4.21901
# Velocity P-wave (km/s) = 6.32718 7.58288 6.98331
#
# Compressibility (1/GPa) = 0.02448246
#
# Stress axis : x y z
#
# Youngs Moduli (GPa) = 112.89177 60.54814 112.43849
#
# Poissons Ratio (x) = 0.02732 0.21937
# Poissons Ratio (y) = 0.05094 0.28001
# Poissons Ratio (z) = 0.22025 0.15079
#
# Static dielectric constant tensor:
#      x y z
#    x 4.094750 -0.172660 -0.051640 
#    y -0.172660 3.847920 0.140950 
#    z -0.051640 0.140950 4.301440 
# 
# 
# High freq. dielectric constant tensor:
#      x y z
#    x 1.887810 -0.008060 0.002310 
#    y -0.008060 1.871200 0.009860 
#    z 0.002310 0.009860 1.880360 
# 
# From -- ./inp_files/515904.got.cif
#   From: 2010.06.25/outbox.cif.g09.slc.cpg/sg2_258_cif.got.tgz:515904.got - 2010.06.27 13:26:56.
