data_PCOD8022251
_publ_section_title
;
Structure prediction by ZEFSAII (Michael W. Deem and Ramdas Pophale) SiO2 
 PCOD8022251
Probable space group: P -1
;
_chemical_formula_sum "Si O2"
_cell_formula_units_Z 16
_cell_length_a 13.743358
_cell_length_b 9.315579
_cell_length_c 8.665077
_cell_angle_alpha 69.852547
_cell_angle_beta 57.831655
_cell_angle_gamma 106.234772
_cell_volume 716.555653
_symmetry_space_group_name_H-M "P -1"
_symmetry_group_IT_number 2
_symmetry_cell_setting 'triclinic'
loop_
_space_group_symop_operation_xyz
x,y,z
-x,-y,-z
loop_
_atom_site_type_symbol
_atom_site_label
_atom_site_fract_x
_atom_site_fract_y
_atom_site_fract_z
Si Si1 0.308367 0.040476 0.515278
Si Si2 0.858708 0.856952 0.577109
Si Si3 0.484271 0.659103 0.518414
Si Si4 0.982640 0.312729 0.038991
Si Si5 0.492396 0.031916 0.813050
Si Si6 0.806961 0.325678 0.812128
Si Si7 0.203187 0.428050 0.032902
Si Si8 0.922858 0.645194 0.387910
O O1 0.239456 0.079837 0.416364
O O2 0.395169 0.208193 0.504448
O O3 0.404638 0.989861 0.370109
O O4 0.180515 0.859291 0.781814
O O5 0.759581 0.675956 0.838576
O O6 0.897567 0.796476 0.411288
O O7 0.000000 0.000000 0.500000
O O8 0.500000 0.500000 0.500000
O O9 0.486533 0.774707 0.325570
O O10 0.334159 0.561022 0.762880
O O11 0.061434 0.270223 0.116905
O O12 0.075429 0.350069 0.797257
O O13 0.000000 0.500000 0.000000
O O14 0.500000 0.000000 0.000000
O O15 0.335288 0.870499 0.956629
O O16 0.843379 0.452923 0.885151
O O17 0.799650 0.432938 0.629422
O O18 0.928116 0.295501 0.689274
#
# Coordination Sequence:
#
# PCOD8022251 Si02
#       8
#     2   2   2   2   2   2   2   2
#     4  12  28  51  78 107 156 202 252 311 384 452
#     4  11  26  47  70 109 148 199 251 316 379 443
#     4  12  30  51  75 112 155 204 253 312 384 453
#     4  12  24  42  75 111 143 194 248 313 375 447
#     4  12  29  47  79 111 150 197 258 308 378 454
#     4  10  22  45  69 105 142 196 241 315 361 450
#     4  11  24  45  72 103 154 192 251 313 373 448
#     4  10  24  40  71 102 149 184 253 300 380 434
#
# _framework density 22.329042000000001
#
# number of rings (size 3 to 8) (size 9 to 14) (size 15 to 20)
#    0.000    0.750    3.750    1.875    8.750    3.000 
#    0.000    0.000    0.000    0.000    0.000    0.000 
#    0.000    0.000    0.000    0.000    0.000    0.000 
#
# Total GULP energy -198350.680281 kJ/mol
# GULP energy per Si atom -12396.917518 kJ/mol
# Density = 2.227822 g / cm^3
# Si number density = 22.329042 Si / 1000 Ang^3
#
#
#
# Elastic Constant Matrix: (Units=GPa)
#
#
# Indices 1 2 3 4 5 6 
#
# 1 106.5296 41.9918 33.8152 -7.2777 11.4742 1.7938
# 2 41.9918 116.3473 51.8853 1.0257 8.4957 -4.5486
# 3 33.8152 51.8853 141.5773 3.6105 3.0728 0.8670
# 4 -7.2777 1.0257 3.6105 33.7593 7.2886 0.6885
# 5 11.4742 8.4957 3.0728 7.2886 43.1599 0.4242
# 6 1.7938 -4.5486 0.8670 0.6885 0.4242 39.7765
#
#
#
# Elastic Compliance Matrix: (Units=1/GPa)
#
#
# Indices 1 2 3 4 5 6 
#
# 1 0.011801 -0.003402 -0.001591 0.003469 -0.002931 -0.000915
# 2 -0.003402 0.011464 -0.003362 -0.000530 -0.001039 0.001558
# 3 -0.001591 -0.003362 0.008697 -0.001310 0.000692 -0.000487
# 4 0.003469 -0.000530 -0.001310 0.031856 -0.006098 -0.000675
# 5 -0.002931 -0.001039 0.000692 -0.006098 0.025136 -0.000164
# 6 -0.000915 0.001558 -0.000487 -0.000675 -0.000164 0.025384
#
#
# Mechanical properties :
#
#
# Convention : Reuss Voigt Hill
#
# Bulk Modulus (GPa) = 65.56898 68.87098 67.21998
# Shear Modulus (GPa) = 36.72926 39.12325 37.92625
#
# Velocity S-wave (km/s) = 4.06015 4.19038 4.12578
# Velocity P-wave (km/s) = 7.16996 7.37041 7.27088
#
# Compressibility (1/GPa) = 0.01525111
#
# Stress axis : x y z
#
# Youngs Moduli (GPa) = 84.73653 87.23295 114.98415
#
# Poissons Ratio (x) = 0.29677 0.18296
# Poissons Ratio (y) = 0.28828 0.38659
# Poissons Ratio (z) = 0.13483 0.29329
#
# Static dielectric constant tensor:
#      x y z
#    x 4.217470 -0.048760 0.210350 
#    y -0.048760 4.102690 -0.156980 
#    z 0.210350 -0.156980 4.318370 
# 
# 
# High freq. dielectric constant tensor:
#      x y z
#    x 1.884090 0.000340 0.009360 
#    y 0.000340 1.876660 -0.001440 
#    z 0.009360 -0.001440 1.899730 
# 
# From -- ./inp_files/297806.got.cif
#   From: 2010.06.25/outbox.cif.g09.slc.cpg/sg2_149_cif.got.tgz:297806.got - 2010.06.27 13:26:56.
