data_PCOD8022243
_publ_section_title
;
Structure prediction by ZEFSAII (Michael W. Deem and Ramdas Pophale) SiO2 
 PCOD8022243
Probable space group: P -1
;
_chemical_formula_sum "Si O2"
_cell_formula_units_Z 16
_cell_length_a 18.248952
_cell_length_b 5.407269
_cell_length_c 15.723882
_cell_angle_alpha 111.728517
_cell_angle_beta 147.224533
_cell_angle_gamma 54.394295
_cell_volume 657.345825
_symmetry_space_group_name_H-M "P -1"
_symmetry_group_IT_number 2
_symmetry_cell_setting 'triclinic'
loop_
_space_group_symop_operation_xyz
x,y,z
-x,-y,-z
loop_
_atom_site_type_symbol
_atom_site_label
_atom_site_fract_x
_atom_site_fract_y
_atom_site_fract_z
Si Si1 0.725318 0.375147 0.465351
Si Si2 0.420219 0.438069 0.222392
Si Si3 0.133048 0.634643 0.081969
Si Si4 0.165536 0.173698 0.607523
Si Si5 0.163476 0.711783 0.874932
Si Si6 0.942371 0.356393 0.806204
Si Si7 0.235349 0.019439 0.838477
Si Si8 0.565997 0.784507 0.204722
O O1 0.573536 0.466285 0.389409
O O2 0.822403 0.501583 0.626262
O O3 0.667980 0.491807 0.329049
O O4 0.840756 0.997846 0.507497
O O5 0.300877 0.572898 0.203770
O O6 0.484974 0.073768 0.228208
O O7 0.331014 0.618511 0.071260
O O8 0.157277 0.505811 0.185889
O O9 0.075797 0.448938 0.942491
O O10 0.000000 0.000000 0.000000
O O11 0.203854 0.963865 0.703852
O O12 0.313778 0.221141 0.748507
O O13 0.000000 0.500000 0.500000
O O14 0.158012 0.398026 0.821491
O O15 0.145070 0.896595 0.792703
O O16 0.024406 0.975044 0.835263
O O17 0.424813 0.796085 0.014410
#
# Coordination Sequence:
#
# PCOD8022243 Si02
#       8
#     2   2   2   2   2   2   2   2
#     4  11  25  44  70 100 146 187 234 302 368 424
#     4  10  22  45  69 102 139 185 235 294 360 433
#     4  11  24  44  74 103 140 180 244 298 352 453
#     4  11  26  43  65 102 143 187 241 304 356 418
#     4  11  22  42  73 103 142 195 243 294 355 435
#     4  11  25  42  69 108 139 187 239 295 372 426
#     4  11  24  42  72 103 140 199 248 293 352 433
#     4  10  23  43  66  96 142 190 234 293 359 433
#
# _framework density 24.340309999999999
#
# number of rings (size 3 to 8) (size 9 to 14) (size 15 to 20)
#    0.000    1.250    2.500    2.625    3.500    3.500 
#    0.000    1.250    0.000    0.000    0.000    0.000 
#    0.000    0.000    0.000    0.000    0.000    0.000 
#
# Total GULP energy -198328.642497 kJ/mol
# GULP energy per Si atom -12395.540156 kJ/mol
# Density = 2.428491 g / cm^3
# Si number density = 24.340310 Si / 1000 Ang^3
#
#
#
# Elastic Constant Matrix: (Units=GPa)
#
#
# Indices 1 2 3 4 5 6 
#
# 1 140.7754 39.4007 34.5105 -3.0864 5.5845 -13.9730
# 2 39.4007 95.8450 27.5264 -3.2827 1.0664 -10.3112
# 3 34.5105 27.5264 108.1104 12.1571 -9.3974 -13.8453
# 4 -3.0864 -3.2827 12.1571 32.7538 -4.2346 1.1537
# 5 5.5845 1.0664 -9.3974 -4.2346 32.2417 -8.1320
# 6 -13.9730 -10.3112 -13.8453 1.1537 -8.1320 37.4282
#
#
#
# Elastic Compliance Matrix: (Units=1/GPa)
#
#
# Indices 1 2 3 4 5 6 
#
# 1 0.008607 -0.002728 -0.002144 0.001087 -0.001556 0.001297
# 2 -0.002728 0.012440 -0.002306 0.001793 0.000003 0.001501
# 3 -0.002144 -0.002306 0.011919 -0.004436 0.004363 0.004058
# 4 0.001087 0.001793 -0.004436 0.032821 0.002463 -0.001218
# 5 -0.001556 0.000003 0.004363 0.002463 0.035042 0.008572
# 6 0.001297 0.001501 0.004058 -0.001218 0.008572 0.031017
#
#
# Mechanical properties :
#
#
# Convention : Reuss Voigt Hill
#
# Bulk Modulus (GPa) = 53.73465 60.84510 57.28988
# Shear Modulus (GPa) = 32.80733 36.70429 34.75581
#
# Velocity S-wave (km/s) = 3.67530 3.88746 3.78287
# Velocity P-wave (km/s) = 6.33520 6.72323 6.53210
#
# Compressibility (1/GPa) = 0.01860996
#
# Stress axis : x y z
#
# Youngs Moduli (GPa) = 116.18390 80.38479 83.89967
#
# Poissons Ratio (x) = 0.21932 0.17989
# Poissons Ratio (y) = 0.31700 0.19344
# Poissons Ratio (z) = 0.24911 0.18533
#
# Static dielectric constant tensor:
#      x y z
#    x 4.373980 -0.154150 0.004840 
#    y -0.154150 4.363180 -0.192350 
#    z 0.004840 -0.192350 4.466850 
# 
# 
# High freq. dielectric constant tensor:
#      x y z
#    x 1.968680 -0.009290 0.000540 
#    y -0.009290 1.965500 -0.009560 
#    z 0.000540 -0.009560 1.960700 
# 
# From -- ./inp_files/536413.got.cif
#   From: 2010.06.25/outbox.cif.g09.slc.cpg/sg2_269_cif.got.tgz:536413.got - 2010.06.27 13:26:56.
