data_PCOD8022119
_publ_section_title
;
Structure prediction by ZEFSAII (Michael W. Deem and Ramdas Pophale) SiO2 
 PCOD8022119
Probable space group: P -1
;
_chemical_formula_sum "Si O2"
_cell_formula_units_Z 16
_cell_length_a 15.164282
_cell_length_b 13.684394
_cell_length_c 5.176457
_cell_angle_alpha 113.162171
_cell_angle_beta 110.907644
_cell_angle_gamma 41.873999
_cell_volume 655.627332
_symmetry_space_group_name_H-M "P -1"
_symmetry_group_IT_number 2
_symmetry_cell_setting 'triclinic'
loop_
_space_group_symop_operation_xyz
x,y,z
-x,-y,-z
loop_
_atom_site_type_symbol
_atom_site_label
_atom_site_fract_x
_atom_site_fract_y
_atom_site_fract_z
Si Si1 0.798985 0.739072 0.576246
Si Si2 0.459944 0.097228 0.304243
Si Si3 0.070281 0.517371 0.889883
Si Si4 0.576754 0.315329 0.172037
Si Si5 0.931278 0.248374 0.790265
Si Si6 0.669413 0.067430 0.677824
Si Si7 0.057726 0.066838 0.210326
Si Si8 0.666540 0.357028 0.806026
O O1 0.701555 0.763650 0.717704
O O2 0.802389 0.646340 0.259008
O O3 0.952892 0.636676 0.690257
O O4 0.740561 0.897888 0.598233
O O5 0.540421 0.146658 0.441390
O O6 0.500000 0.000000 0.500000
O O7 0.500000 0.000000 0.000000
O O8 0.118555 0.591348 0.133920
O O9 0.000000 0.500000 0.000000
O O10 0.617022 0.305859 0.499837
O O11 0.421301 0.466372 0.133846
O O12 0.609501 0.166159 0.982184
O O13 0.657122 0.324738 0.058223
O O14 0.977814 0.170982 0.481617
O O15 0.816685 0.264370 0.798201
O O16 0.045251 0.151399 0.029603
O O17 0.783823 0.058169 0.680162
O O18 0.000000 0.000000 0.000000
#
# Coordination Sequence:
#
# PCOD8022119 Si02
#       8
#     2   2   2   2   2   2   2   2
#     4  10  24  46  65  99 137 173 241 286 347 415
#     4  10  25  42  68  97 135 175 224 285 343 415
#     4  11  25  44  71  97 138 189 231 297 345 420
#     4  10  23  42  71  98 138 180 220 288 342 422
#     4  12  25  43  71  97 138 184 230 284 349 416
#     4  11  23  45  70  99 140 181 227 284 358 400
#     4  12  26  43  70 106 138 180 231 290 347 421
#     4  10  22  45  65 102 137 174 234 277 344 418
#
# _framework density 24.404108000000001
#
# number of rings (size 3 to 8) (size 9 to 14) (size 15 to 20)
#    0.000    1.250    1.250    3.375    8.750    3.000 
#    0.000    1.250    0.000    0.000    0.000    0.000 
#    0.000    0.000    0.000    0.000    0.000    0.000 
#
# Total GULP energy -198224.350414 kJ/mol
# GULP energy per Si atom -12389.021901 kJ/mol
# Density = 2.434856 g / cm^3
# Si number density = 24.404108 Si / 1000 Ang^3
#
#
#
# Elastic Constant Matrix: (Units=GPa)
#
#
# Indices 1 2 3 4 5 6 
#
# 1 98.0046 0.1136 42.1262 9.6919 17.0419 -24.6485
# 2 0.1136 72.9010 34.4720 32.3037 3.8197 -7.1788
# 3 42.1262 34.4720 166.0404 41.1537 -8.7764 -3.6257
# 4 9.6919 32.3037 41.1537 48.2780 2.2257 -7.1765
# 5 17.0419 3.8197 -8.7764 2.2257 40.8099 -0.5934
# 6 -24.6485 -7.1788 -3.6257 -7.1765 -0.5934 42.9651
#
#
#
# Elastic Compliance Matrix: (Units=1/GPa)
#
#
# Indices 1 2 3 4 5 6 
#
# 1 0.016143 0.003511 -0.005198 0.000611 -0.008085 0.009400
# 2 0.003511 0.020543 -0.002318 -0.011848 -0.003194 0.003228
# 3 -0.005198 -0.002318 0.009556 -0.006298 0.004735 -0.003549
# 4 0.000611 -0.011848 -0.006298 0.034525 -0.002331 0.003574
# 5 -0.008085 -0.003194 0.004735 -0.002331 0.029255 -0.004758
# 6 0.009400 0.003228 -0.003549 0.003574 -0.004758 0.029438
#
#
# Mechanical properties :
#
#
# Convention : Reuss Voigt Hill
#
# Bulk Modulus (GPa) = 26.15490 54.48550 40.32020
# Shear Modulus (GPa) = 31.20810 43.75954 37.48382
#
# Velocity S-wave (km/s) = 3.57992 4.23912 3.92339
# Velocity P-wave (km/s) = 5.27527 6.80698 6.08948
#
# Compressibility (1/GPa) = 0.03823376
#
# Stress axis : x y z
#
# Youngs Moduli (GPa) = 61.94494 48.67847 104.64313
#
# Poissons Ratio (x) = -0.17093 0.54396
# Poissons Ratio (y) = -0.21752 0.24253
# Poissons Ratio (z) = 0.32200 0.11282
#
# Static dielectric constant tensor:
#      x y z
#    x 5.165590 -0.561520 0.303530 
#    y -0.561520 4.625060 0.292690 
#    z 0.303530 0.292690 4.398370 
# 
# 
# High freq. dielectric constant tensor:
#      x y z
#    x 1.967260 -0.011130 0.006330 
#    y -0.011130 1.974480 0.019430 
#    z 0.006330 0.019430 1.976800 
# 
# From -- ./inp_files/98613.got.cif
#   From: 2010.06.25/outbox.cif.g09.slc.cpg/sg2_50_cif.got.tgz:98613.got - 2010.06.27 13:26:56.
