data_PCOD8022433
_publ_section_title
;
Structure prediction by ZEFSAII (Michael W. Deem and Ramdas Pophale) SiO2 
 PCOD8022433
Probable space group: P -1
;
_chemical_formula_sum "Si O2"
_cell_formula_units_Z 16
_cell_length_a 13.169780
_cell_length_b 11.829721
_cell_length_c 11.536707
_cell_angle_alpha 86.988205
_cell_angle_beta 33.223348
_cell_angle_gamma 110.946594
_cell_volume 668.191183
_symmetry_space_group_name_H-M "P -1"
_symmetry_group_IT_number 2
_symmetry_cell_setting 'triclinic'
loop_
_space_group_symop_operation_xyz
x,y,z
-x,-y,-z
loop_
_atom_site_type_symbol
_atom_site_label
_atom_site_fract_x
_atom_site_fract_y
_atom_site_fract_z
Si Si1 0.276754 0.808687 0.103749
Si Si2 0.381309 0.405510 0.996695
Si Si3 0.191147 0.319334 0.823557
Si Si4 0.007730 0.135470 0.768699
Si Si5 0.919447 0.379780 0.220395
Si Si6 0.792863 0.172185 0.570754
Si Si7 0.588362 0.339898 0.150309
Si Si8 0.406812 0.247033 0.793389
O O1 0.027615 0.773070 0.291042
O O2 0.284664 0.806583 0.233833
O O3 0.279401 0.678022 0.074421
O O4 0.552580 0.980793 0.773348
O O5 0.069893 0.225528 0.322726
O O6 0.500000 0.500000 0.000000
O O7 0.389129 0.516351 0.900235
O O8 0.516200 0.359672 0.801132
O O9 0.500000 0.500000 0.500000
O O10 0.189835 0.229083 0.935362
O O11 0.056663 0.203973 0.846149
O O12 0.969931 0.315294 0.071687
O O13 0.269214 0.173924 0.485795
O O14 0.738801 0.937192 0.026867
O O15 0.835689 0.288310 0.429336
O O16 0.656220 0.342498 0.457247
O O17 0.200212 0.579869 0.948242
#
# Coordination Sequence:
#
# PCOD8022433 Si02
#       8
#     2   2   2   2   2   2   2   2
#     4  11  25  43  72 106 145 184 243 289 359 430
#     4  11  24  42  70 103 145 195 236 287 355 421
#     4  12  26  50  73 105 144 182 247 301 355 424
#     4  12  26  47  73 107 141 193 237 296 362 419
#     4  11  25  45  71 103 139 191 230 295 355 421
#     4  10  22  46  67 104 147 184 232 299 350 429
#     4  11  25  41  70 102 141 183 235 294 347 421
#     4  12  26  46  73 103 147 182 241 293 361 425
#
# _framework density 23.945242
#
# number of rings (size 3 to 8) (size 9 to 14) (size 15 to 20)
#    0.000    0.750    5.000    1.875    7.000    3.000 
#    0.000    3.125    0.000    0.000    0.000    0.000 
#    0.000    0.000    0.000    0.000    0.000    0.000 
#
# Total GULP energy -198259.251442 kJ/mol
# GULP energy per Si atom -12391.203215 kJ/mol
# Density = 2.389074 g / cm^3
# Si number density = 23.945242 Si / 1000 Ang^3
#
#
#
# Elastic Constant Matrix: (Units=GPa)
#
#
# Indices 1 2 3 4 5 6 
#
# 1 53.7734 25.0198 6.3774 2.8362 9.6934 10.6090
# 2 25.0198 135.8620 34.0129 25.7668 0.5321 10.3226
# 3 6.3774 34.0129 107.5646 12.6662 -13.2897 -8.2355
# 4 2.8362 25.7668 12.6662 44.2380 2.3200 -1.9240
# 5 9.6934 0.5321 -13.2897 2.3200 38.3657 3.7449
# 6 10.6090 10.3226 -8.2355 -1.9240 3.7449 26.7521
#
#
#
# Elastic Compliance Matrix: (Units=1/GPa)
#
#
# Indices 1 2 3 4 5 6 
#
# 1 0.022785 -0.003380 -0.001654 0.000955 -0.005620 -0.007386
# 2 -0.003380 0.009839 -0.002545 -0.004971 0.000494 -0.003667
# 3 -0.001654 -0.002545 0.011227 -0.001644 0.004011 0.004415
# 4 0.000955 -0.004971 -0.001644 0.026192 -0.002647 0.003287
# 5 -0.005620 0.000494 0.004011 -0.002647 0.029124 -0.000995
# 6 -0.007386 -0.003667 0.004415 0.003287 -0.000995 0.043459
#
#
# Mechanical properties :
#
#
# Convention : Reuss Voigt Hill
#
# Bulk Modulus (GPa) = 34.85240 47.55780 41.20510
# Shear Modulus (GPa) = 29.87762 37.32380 33.60071
#
# Velocity S-wave (km/s) = 3.53618 3.95234 3.75004
# Velocity P-wave (km/s) = 5.59101 6.38218 5.99965
#
# Compressibility (1/GPa) = 0.02869243
#
# Stress axis : x y z
#
# Youngs Moduli (GPa) = 43.88823 101.63175 89.07257
#
# Poissons Ratio (x) = 0.34349 0.14737
# Poissons Ratio (y) = 0.14833 0.22671
# Poissons Ratio (z) = 0.07261 0.25868
#
# Static dielectric constant tensor:
#      x y z
#    x 4.525500 -0.015910 -0.520700 
#    y -0.015910 4.232980 0.028000 
#    z -0.520700 0.028000 4.895880 
# 
# 
# High freq. dielectric constant tensor:
#      x y z
#    x 1.938830 0.006650 -0.011000 
#    y 0.006650 1.950460 0.008810 
#    z -0.011000 0.008810 1.964120 
# 
# From -- ./inp_files/452447.got.cif
#   From: 2010.06.25/outbox.cif.g09.slc.cpg/sg2_227_cif.got.tgz:452447.got - 2010.06.27 13:26:56.
