data_PCOD8022459
_publ_section_title
;
Structure prediction by ZEFSAII (Michael W. Deem and Ramdas Pophale) SiO2 
 PCOD8022459
Probable space group: P -1
;
_chemical_formula_sum "Si O2"
_cell_formula_units_Z 14
_cell_length_a 9.665402
_cell_length_b 10.933931
_cell_length_c 17.653049
_cell_angle_alpha 147.640738
_cell_angle_beta 37.641795
_cell_angle_gamma 125.556940
_cell_volume 587.629255
_symmetry_space_group_name_H-M "P -1"
_symmetry_group_IT_number 2
_symmetry_cell_setting 'triclinic'
loop_
_space_group_symop_operation_xyz
x,y,z
-x,-y,-z
loop_
_atom_site_type_symbol
_atom_site_label
_atom_site_fract_x
_atom_site_fract_y
_atom_site_fract_z
Si Si1 0.965558 0.986527 0.669363
Si Si2 0.654438 0.637942 0.604683
Si Si3 0.637183 0.308441 0.569105
Si Si4 0.666884 0.779257 0.070489
Si Si5 0.315689 0.157574 0.512242
Si Si6 0.410943 0.557872 0.945826
Si Si7 0.182816 0.659392 0.760415
O O1 0.129989 0.013406 0.541278
O O2 0.811319 0.816851 0.618403
O O3 0.798397 0.242348 0.897764
O O4 0.111038 0.881593 0.626627
O O5 0.668860 0.539853 0.632710
O O6 0.380861 0.768641 0.770313
O O7 0.747326 0.401797 0.389478
O O8 0.468046 0.179211 0.531552
O O9 0.542177 0.383468 0.733129
O O10 0.698057 0.589223 0.024626
O O11 0.478126 0.021081 0.302356
O O12 0.592063 0.677089 0.971850
O O13 0.919965 0.833829 0.974881
O O14 0.181621 0.413934 0.673882
#
# Coordination Sequence:
#
# PCOD8022459 Si02
#       7
#     2   2   2   2   2   2   2
#     4  12  23  42  67  99 135 172 218 277 324 398
#     4  10  24  43  68  95 139 182 214 262 343 393
#     4  11  25  46  63 100 139 178 214 269 332 405
#     4  11  23  42  69 104 128 169 223 286 323 384
#     4  11  24  42  73 101 129 172 228 273 334 378
#     4  11  25  39  69 103 131 168 225 274 336 379
#     4  10  22  46  68  98 134 174 222 278 321 396
#
# _framework density 23.824546000000002
#
# number of rings (size 3 to 8) (size 9 to 14) (size 15 to 20)
#    0.000    1.143    2.857    2.571    2.000    4.571 
#    0.000   15.714    0.000    0.000    0.000    0.000 
#    0.000    0.000    0.000    0.000    0.000    0.000 
#
# Total GULP energy -173678.648330 kJ/mol
# GULP energy per Si atom -12405.617738 kJ/mol
# Density = 2.377032 g / cm^3
# Si number density = 23.824546 Si / 1000 Ang^3
#
#
#
# Elastic Constant Matrix: (Units=GPa)
#
#
# Indices 1 2 3 4 5 6 
#
# 1 97.4514 27.3925 25.3243 -17.2116 1.8538 1.7837
# 2 27.3925 113.7087 13.9594 -18.4429 -2.8969 36.4239
# 3 25.3243 13.9594 68.9056 -16.9617 -3.8323 11.6025
# 4 -17.2116 -18.4429 -16.9617 31.5130 7.6359 -2.2062
# 5 1.8538 -2.8969 -3.8323 7.6359 37.6081 0.6090
# 6 1.7837 36.4239 11.6025 -2.2062 0.6090 28.6037
#
#
#
# Elastic Compliance Matrix: (Units=1/GPa)
#
#
# Indices 1 2 3 4 5 6 
#
# 1 0.013112 -0.004304 -0.004398 0.003281 -0.002201 0.006747
# 2 -0.004304 0.018614 0.004157 0.008910 0.000656 -0.024448
# 3 -0.004398 0.004157 0.019772 0.009618 0.000798 -0.012315
# 4 0.003281 0.008910 0.009618 0.044885 -0.007417 -0.011832
# 5 -0.002201 0.000656 0.000798 -0.007417 0.028372 -0.002199
# 6 0.006747 -0.024448 -0.012315 -0.011832 -0.002199 0.069801
#
#
# Mechanical properties :
#
#
# Convention : Reuss Voigt Hill
#
# Bulk Modulus (GPa) = 23.57979 45.93535 34.75757
# Shear Modulus (GPa) = 22.95881 33.77093 28.36487
#
# Velocity S-wave (km/s) = 3.10766 3.76903 3.45421
# Velocity P-wave (km/s) = 4.77446 6.18574 5.52534
#
# Compressibility (1/GPa) = 0.04240920
#
# Stress axis : x y z
#
# Youngs Moduli (GPa) = 76.26575 53.72321 50.57614
#
# Poissons Ratio (x) = 0.23121 0.22242
# Poissons Ratio (y) = 0.32823 -0.21025
# Poissons Ratio (z) = 0.33540 -0.22333
#
# Static dielectric constant tensor:
#      x y z
#    x 4.345450 0.003150 -0.241610 
#    y 0.003150 4.377010 -0.017260 
#    z -0.241610 -0.017260 4.058850 
# 
# 
# High freq. dielectric constant tensor:
#      x y z
#    x 1.949320 -0.006390 -0.019480 
#    y -0.006390 1.964360 0.001650 
#    z -0.019480 0.001650 1.929250 
# 
# From -- ./inp_files/226604.got.cif
#   From: 2010.06.25/outbox.cif.g09.slc.cpg/sg2_114_cif.got.tgz:226604.got - 2010.06.27 13:26:56.
