data_PCOD8022077
_publ_section_title
;
Structure prediction by ZEFSAII (Michael W. Deem and Ramdas Pophale) SiO2 
 PCOD8022077
Probable space group: P -1
;
_chemical_formula_sum "Si O2"
_cell_formula_units_Z 16
_cell_length_a 24.407165
_cell_length_b 5.288504
_cell_length_c 17.865761
_cell_angle_alpha 102.761442
_cell_angle_beta 161.270049
_cell_angle_gamma 86.242226
_cell_volume 641.742587
_symmetry_space_group_name_H-M "P -1"
_symmetry_group_IT_number 2
_symmetry_cell_setting 'triclinic'
loop_
_space_group_symop_operation_xyz
x,y,z
-x,-y,-z
loop_
_atom_site_type_symbol
_atom_site_label
_atom_site_fract_x
_atom_site_fract_y
_atom_site_fract_z
Si Si1 0.899668 0.126186 0.633076
Si Si2 0.301127 0.091674 0.904644
Si Si3 0.981162 0.724948 0.365005
Si Si4 0.702842 0.545399 0.419394
Si Si5 0.898095 0.659202 0.941884
Si Si6 0.747058 0.913325 0.641422
Si Si7 0.518588 0.227579 0.475374
Si Si8 0.653471 0.122938 0.899515
O O1 0.992470 0.134208 0.673201
O O2 0.796124 0.332312 0.510593
O O3 0.063300 0.236475 0.915277
O O4 0.752045 0.788971 0.434935
O O5 0.154834 0.190455 0.756818
O O6 0.185259 0.831368 0.678388
O O7 0.472727 0.360178 0.103517
O O8 0.395832 0.994179 0.087763
O O9 0.870457 0.376774 0.192342
O O10 0.777403 0.703793 0.606205
O O11 0.809240 0.849671 0.798374
O O12 0.725947 0.323572 0.706243
O O13 0.104120 0.745266 0.171153
O O14 0.519707 0.805010 0.342488
O O15 0.500000 0.500000 0.500000
O O16 0.500000 0.000000 0.500000
O O17 0.354880 0.099149 0.190967
#
# Coordination Sequence:
#
# PCOD8022077 Si02
#       8
#     2   2   2   2   2   2   2   2
#     4  11  27  45  74 108 157 191 249 314 380 432
#     4  11  25  47  80 104 148 196 263 304 383 452
#     4  11  27  48  74 113 143 201 251 323 375 454
#     4  11  24  47  73 109 149 202 244 312 375 448
#     4  10  23  42  70 103 146 190 247 296 362 439
#     4  10  22  44  74 107 145 198 253 301 366 449
#     4  12  28  44  69 104 148 195 237 296 372 439
#     4  12  25  46  76 103 150 194 252 310 367 448
#
# _framework density 24.932116000000001
#
# number of rings (size 3 to 8) (size 9 to 14) (size 15 to 20)
#    0.000    1.000    1.250    4.125    5.250    8.000 
#    0.000    0.000    0.000    0.000    0.000    0.000 
#    0.000    0.000    0.000    0.000    0.000    0.000 
#
# Total GULP energy -198353.091485 kJ/mol
# GULP energy per Si atom -12397.068218 kJ/mol
# Density = 2.487537 g / cm^3
# Si number density = 24.932116 Si / 1000 Ang^3
#
#
#
# Elastic Constant Matrix: (Units=GPa)
#
#
# Indices 1 2 3 4 5 6 
#
# 1 99.0020 23.0800 -10.0625 8.4518 4.3673 20.0115
# 2 23.0800 124.4506 27.3011 27.2940 5.9349 19.6869
# 3 -10.0625 27.3011 118.1972 42.7437 -15.2725 11.5964
# 4 8.4518 27.2940 42.7437 52.4610 4.8230 9.7131
# 5 4.3673 5.9349 -15.2725 4.8230 43.6173 -0.6733
# 6 20.0115 19.6869 11.5964 9.7131 -0.6733 40.3078
#
#
#
# Elastic Compliance Matrix: (Units=1/GPa)
#
#
# Indices 1 2 3 4 5 6 
#
# 1 0.012036 -0.001447 0.002815 -0.002481 0.000167 -0.005478
# 2 -0.001447 0.009797 -0.001040 -0.003352 -0.001228 -0.002980
# 3 0.002815 -0.001040 0.014115 -0.011588 0.006052 -0.002057
# 4 -0.002481 -0.003352 -0.011588 0.031559 -0.006866 -0.001517
# 5 0.000167 -0.001228 0.006052 -0.006866 0.025968 0.000864
# 6 -0.005478 -0.002980 -0.002057 -0.001517 0.000864 0.029956
#
#
# Mechanical properties :
#
#
# Convention : Reuss Voigt Hill
#
# Bulk Modulus (GPa) = 27.31966 46.92076 37.12021
# Shear Modulus (GPa) = 37.04348 47.36596 42.20472
#
# Velocity S-wave (km/s) = 3.85876 4.36339 4.11881
# Velocity P-wave (km/s) = 5.55290 6.65176 6.12701
#
# Compressibility (1/GPa) = 0.03660367
#
# Stress axis : x y z
#
# Youngs Moduli (GPa) = 83.08419 102.07264 70.84789
#
# Poissons Ratio (x) = 0.14770 -0.19945
# Poissons Ratio (y) = 0.12022 0.07370
# Poissons Ratio (z) = -0.23390 0.10618
#
# Static dielectric constant tensor:
#      x y z
#    x 5.096850 0.323510 -0.211320 
#    y 0.323510 4.578260 0.326650 
#    z -0.211320 0.326650 5.133460 
# 
# 
# High freq. dielectric constant tensor:
#      x y z
#    x 2.005640 0.005640 0.003740 
#    y 0.005640 1.986630 0.018290 
#    z 0.003740 0.018290 2.005500 
# 
# From -- ./inp_files/579543.got.cif
#   From: 2010.06.25/outbox.cif.g09.slc.cpg/sg2_290_cif.got.tgz:579543.got - 2010.06.27 13:26:56.
