data_PCOD8022095
_publ_section_title
;
Structure prediction by ZEFSAII (Michael W. Deem and Ramdas Pophale) SiO2 
 PCOD8022095
Probable space group: P -1
;
_chemical_formula_sum "Si O2"
_cell_formula_units_Z 16
_cell_length_a 8.580356
_cell_length_b 8.640901
_cell_length_c 12.116220
_cell_angle_alpha 70.287595
_cell_angle_beta 105.090769
_cell_angle_gamma 68.012202
_cell_volume 703.051718
_symmetry_space_group_name_H-M "P -1"
_symmetry_group_IT_number 2
_symmetry_cell_setting 'triclinic'
loop_
_space_group_symop_operation_xyz
x,y,z
-x,-y,-z
loop_
_atom_site_type_symbol
_atom_site_label
_atom_site_fract_x
_atom_site_fract_y
_atom_site_fract_z
Si Si1 0.040262 0.646879 0.536254
Si Si2 0.538847 0.468647 0.386891
Si Si3 0.253572 0.009068 0.727580
Si Si4 0.716409 0.340643 0.067789
Si Si5 0.884834 0.835506 0.108007
Si Si6 0.244228 0.820944 0.125458
Si Si7 0.555435 0.844930 0.644481
Si Si8 0.018161 0.406729 0.212286
O O1 0.248931 0.601020 0.578897
O O2 0.000000 0.500000 0.500000
O O3 0.918797 0.857797 0.414678
O O4 0.988299 0.648548 0.651298
O O5 0.500000 0.500000 0.500000
O O6 0.427627 0.676096 0.260306
O O7 0.483839 0.320021 0.364383
O O8 0.237304 0.120614 0.812626
O O9 0.242562 0.823433 0.797704
O O10 0.442517 0.950372 0.709099
O O11 0.858678 0.411582 0.106007
O O12 0.500000 0.500000 0.000000
O O13 0.761512 0.271833 0.968489
O O14 0.059745 0.870750 0.151378
O O15 0.976083 0.619828 0.140121
O O16 0.756216 0.983133 0.951550
O O17 0.770455 0.745849 0.748408
O O18 0.500000 0.000000 0.500000
#
# Coordination Sequence:
#
# PCOD8022095 Si02
#       8
#     2   2   2   2   2   2   2   2
#     4  12  24  43  71 105 143 187 243 298 359 427
#     4  12  26  46  76 104 144 186 236 305 365 428
#     4  11  24  46  71 100 148 186 237 296 359 425
#     4  11  26  47  70 102 147 193 238 297 360 430
#     4  10  22  44  75  98 140 188 237 291 349 434
#     4  10  22  48  68 104 140 185 238 290 365 430
#     4  12  26  45  69 113 149 184 241 301 364 427
#     4  12  24  45  75 105 140 193 241 296 360 421
#
# _framework density 22.757926000000001
#
# number of rings (size 3 to 8) (size 9 to 14) (size 15 to 20)
#    0.000    0.750    3.750    3.750    1.750    1.500 
#    2.250    1.875    0.000    0.000    0.000    0.000 
#    0.000    0.000    0.000    0.000    0.000    0.000 
#
# Total GULP energy -198387.174592 kJ/mol
# GULP energy per Si atom -12399.198412 kJ/mol
# Density = 2.270613 g / cm^3
# Si number density = 22.757926 Si / 1000 Ang^3
#
#
#
# Elastic Constant Matrix: (Units=GPa)
#
#
# Indices 1 2 3 4 5 6 
#
# 1 137.4811 39.5056 63.4826 -9.3572 13.9943 -29.0632
# 2 39.5056 75.9901 58.9918 -29.2158 4.3233 -23.9224
# 3 63.4826 58.9918 169.4382 -35.7089 0.6419 -11.9963
# 4 -9.3572 -29.2158 -35.7089 48.2831 -6.2243 -2.1534
# 5 13.9943 4.3233 0.6419 -6.2243 47.8648 0.1559
# 6 -29.0632 -23.9224 -11.9963 -2.1534 0.1559 39.1916
#
#
#
# Elastic Compliance Matrix: (Units=1/GPa)
#
#
# Indices 1 2 3 4 5 6 
#
# 1 0.010744 -0.001444 -0.003391 -0.001441 -0.003172 0.005981
# 2 -0.001444 0.027911 -0.005302 0.013316 -0.000345 0.015077
# 3 -0.003391 -0.005302 0.009514 0.003282 0.001778 -0.002665
# 4 -0.001441 0.013316 0.003282 0.031776 0.003275 0.009797
# 5 -0.003172 -0.000345 0.001778 0.003275 0.022259 -0.001927
# 6 0.005981 0.015077 -0.002665 0.009797 -0.001927 0.038884
#
#
# Mechanical properties :
#
#
# Convention : Reuss Voigt Hill
#
# Bulk Modulus (GPa) = 35.84643 78.54105 57.19374
# Shear Modulus (GPa) = 29.29811 41.79653 35.54732
#
# Velocity S-wave (km/s) = 3.59190 4.29017 3.95647
# Velocity P-wave (km/s) = 5.74349 7.68942 6.78656
#
# Compressibility (1/GPa) = 0.02789678
#
# Stress axis : x y z
#
# Youngs Moduli (GPa) = 93.07894 35.82759 105.10463
#
# Poissons Ratio (x) = 0.05173 0.35640
# Poissons Ratio (y) = 0.13438 0.55723
# Poissons Ratio (z) = 0.31562 0.18995
#
# Static dielectric constant tensor:
#      x y z
#    x 3.736850 -0.714480 -0.321240 
#    y -0.714480 3.671020 -0.549340 
#    z -0.321240 -0.549340 4.463590 
# 
# 
# High freq. dielectric constant tensor:
#      x y z
#    x 1.903640 -0.019360 -0.014950 
#    y -0.019360 1.903190 -0.020800 
#    z -0.014950 -0.020800 1.915970 
# 
# From -- ./inp_files/297941.got.cif
#   From: 2010.06.25/outbox.cif.g09.slc.cpg/sg2_149_cif.got.tgz:297941.got - 2010.06.27 13:26:56.
