data_PCOD8022080
_publ_section_title
;
Structure prediction by ZEFSAII (Michael W. Deem and Ramdas Pophale) SiO2 
 PCOD8022080
Probable space group: P -1
;
_chemical_formula_sum "Si O2"
_cell_formula_units_Z 16
_cell_length_a 11.498106
_cell_length_b 15.103139
_cell_length_c 9.047669
_cell_angle_alpha 113.455575
_cell_angle_beta 130.858386
_cell_angle_gamma 107.021679
_cell_volume 658.131445
_symmetry_space_group_name_H-M "P -1"
_symmetry_group_IT_number 2
_symmetry_cell_setting 'triclinic'
loop_
_space_group_symop_operation_xyz
x,y,z
-x,-y,-z
loop_
_atom_site_type_symbol
_atom_site_label
_atom_site_fract_x
_atom_site_fract_y
_atom_site_fract_z
Si Si1 0.183002 0.907382 0.115798
Si Si2 0.954588 0.525706 0.134204
Si Si3 0.999424 0.772543 0.324773
Si Si4 0.270856 0.638741 0.740694
Si Si5 0.481554 0.044931 0.750884
Si Si6 0.366439 0.334505 0.820714
Si Si7 0.398288 0.222835 0.499477
Si Si8 0.285659 0.318844 0.250157
O O1 0.265753 0.894642 0.023630
O O2 0.332509 0.948171 0.412420
O O3 0.222196 0.041404 0.218432
O O4 0.888385 0.732839 0.789303
O O5 0.903021 0.614228 0.134922
O O6 0.204665 0.628638 0.508308
O O7 0.695578 0.349705 0.871987
O O8 0.000000 0.500000 0.000000
O O9 0.898259 0.774374 0.388417
O O10 0.893892 0.784947 0.109995
O O11 0.308001 0.926603 0.668983
O O12 0.000000 0.500000 0.500000
O O13 0.444501 0.807650 0.070426
O O14 0.432832 0.621866 0.878201
O O15 0.284462 0.232912 0.541425
O O16 0.500000 0.500000 0.000000
O O17 0.404981 0.278304 0.380713
O O18 0.500000 0.500000 0.500000
#
# Coordination Sequence:
#
# PCOD8022080 Si02
#       8
#     2   2   2   2   2   2   2   2
#     4  10  22  44  74 108 147 188 241 307 364 436
#     4  12  26  44  71 105 148 186 246 302 355 435
#     4  11  25  46  70 107 143 190 242 303 366 431
#     4  12  25  46  73 106 139 196 242 290 369 434
#     4  10  23  46  74 102 146 188 244 301 367 436
#     4  12  24  45  71 104 150 189 240 300 362 437
#     4  12  23  46  70 109 145 193 244 298 370 435
#     4  11  23  42  70 106 145 187 240 294 369 434
#
# _framework density 24.311254999999999
#
# number of rings (size 3 to 8) (size 9 to 14) (size 15 to 20)
#    0.000    0.750    5.000    1.125    1.750    7.000 
#    0.000    1.250    0.000    0.000    0.000    0.000 
#    0.000    0.000    0.000    0.000    0.000    0.000 
#
# Total GULP energy -198339.602731 kJ/mol
# GULP energy per Si atom -12396.225171 kJ/mol
# Density = 2.425592 g / cm^3
# Si number density = 24.311255 Si / 1000 Ang^3
#
#
#
# Elastic Constant Matrix: (Units=GPa)
#
#
# Indices 1 2 3 4 5 6 
#
# 1 188.7499 62.7553 37.6479 29.2593 14.7936 12.2585
# 2 62.7553 128.9808 34.3754 14.1611 10.4756 -1.1736
# 3 37.6479 34.3754 70.0110 10.1580 13.9819 6.2222
# 4 29.2593 14.1611 10.1580 56.5335 10.5021 13.3866
# 5 14.7936 10.4756 13.9819 10.5021 31.8385 11.3886
# 6 12.2585 -1.1736 6.2222 13.3866 11.3886 41.5054
#
#
#
# Elastic Compliance Matrix: (Units=1/GPa)
#
#
# Indices 1 2 3 4 5 6 
#
# 1 0.007015 -0.002605 -0.001988 -0.002310 -0.000414 -0.000989
# 2 -0.002605 0.010138 -0.003420 -0.000882 -0.001104 0.002156
# 3 -0.001988 -0.003420 0.018249 -0.000191 -0.005678 -0.000626
# 4 -0.002310 -0.000882 -0.000191 0.021026 -0.003668 -0.005089
# 5 -0.000414 -0.001104 -0.005678 -0.003668 0.038706 -0.008495
# 6 -0.000989 0.002156 -0.000626 -0.005089 -0.008495 0.028513
#
#
# Mechanical properties :
#
#
# Convention : Reuss Voigt Hill
#
# Bulk Modulus (GPa) = 51.60895 73.03322 62.32108
# Shear Modulus (GPa) = 34.21557 42.83969 38.52763
#
# Velocity S-wave (km/s) = 3.75560 4.20233 3.98523
# Velocity P-wave (km/s) = 6.33092 7.32477 6.84590
#
# Compressibility (1/GPa) = 0.01937649
#
# Stress axis : x y z
#
# Youngs Moduli (GPa) = 142.54234 98.63520 54.79794
#
# Poissons Ratio (x) = 0.25698 0.10891
# Poissons Ratio (y) = 0.37138 0.18742
# Poissons Ratio (z) = 0.28331 0.33735
#
# Static dielectric constant tensor:
#      x y z
#    x 4.622730 0.221320 0.486030 
#    y 0.221320 4.769400 -0.191420 
#    z 0.486030 -0.191420 4.725190 
# 
# 
# High freq. dielectric constant tensor:
#      x y z
#    x 1.965590 0.009830 0.017940 
#    y 0.009830 1.971420 -0.005150 
#    z 0.017940 -0.005150 1.964440 
# 
# From -- ./inp_files/273911.got.cif
#   From: 2010.06.25/outbox.cif.g09.slc.cpg/sg2_137_cif.got.tgz:273911.got - 2010.06.27 13:26:56.
