data_PCOD8022275
_publ_section_title
;
Structure prediction by ZEFSAII (Michael W. Deem and Ramdas Pophale) SiO2 
 PCOD8022275
Probable space group: P -1
;
_chemical_formula_sum "Si O2"
_cell_formula_units_Z 16
_cell_length_a 8.378273
_cell_length_b 8.016969
_cell_length_c 14.375764
_cell_angle_alpha 45.177964
_cell_angle_beta 101.568933
_cell_angle_gamma 98.706457
_cell_volume 670.913395
_symmetry_space_group_name_H-M "P -1"
_symmetry_group_IT_number 2
_symmetry_cell_setting 'triclinic'
loop_
_space_group_symop_operation_xyz
x,y,z
-x,-y,-z
loop_
_atom_site_type_symbol
_atom_site_label
_atom_site_fract_x
_atom_site_fract_y
_atom_site_fract_z
Si Si1 0.406071 0.331999 0.338346
Si Si2 0.737389 0.164342 0.499821
Si Si3 0.143492 0.984395 0.238589
Si Si4 0.320519 0.074141 0.921475
Si Si5 0.380800 0.388723 0.106198
Si Si6 0.824228 0.446055 0.230520
Si Si7 0.188206 0.788390 0.867876
Si Si8 0.853006 0.290761 0.831629
O O1 0.565626 0.300615 0.432104
O O2 0.466601 0.353814 0.229451
O O3 0.309716 0.562591 0.265662
O O4 0.287451 0.107499 0.423986
O O5 0.822239 0.179580 0.603794
O O6 0.851340 0.281771 0.388124
O O7 0.086129 0.812028 0.218633
O O8 0.302574 0.137634 0.164421
O O9 0.002732 0.166141 0.175460
O O10 0.300190 0.346867 0.837469
O O11 0.288235 0.018689 0.829104
O O12 0.500000 0.000000 0.000000
O O13 0.181938 0.923740 0.018557
O O14 0.500000 0.500000 0.000000
O O15 0.233174 0.574885 0.028009
O O16 0.751904 0.289165 0.198077
O O17 0.997966 0.549993 0.175500
#
# Coordination Sequence:
#
# PCOD8022275 Si02
#       8
#     2   2   2   2   2   2   2   2
#     4  10  22  45  69  98 142 184 235 295 348 418
#     4  10  24  48  68  97 141 190 246 284 340 433
#     4  11  26  45  68 103 144 193 237 292 358 421
#     4  12  28  47  69 110 149 176 237 306 362 433
#     4  11  23  41  71 106 139 184 241 291 359 428
#     4  12  26  46  74 105 141 193 236 292 359 428
#     4  12  26  44  74 104 141 189 231 294 368 418
#     4  12  25  44  70 106 144 181 234 302 364 417
#
# _framework density 23.848085999999999
#
# number of rings (size 3 to 8) (size 9 to 14) (size 15 to 20)
#    0.000    0.750    2.500    4.500    5.250    3.000 
#    2.250    0.000    0.000    0.000    0.000    0.000 
#    0.000    0.000    0.000    0.000    0.000    0.000 
#
# Total GULP energy -198424.064949 kJ/mol
# GULP energy per Si atom -12401.504059 kJ/mol
# Density = 2.379381 g / cm^3
# Si number density = 23.848086 Si / 1000 Ang^3
#
#
#
# Elastic Constant Matrix: (Units=GPa)
#
#
# Indices 1 2 3 4 5 6 
#
# 1 79.4715 40.4174 44.2374 6.7327 -0.5055 -4.1869
# 2 40.4174 139.8247 39.4719 11.4118 -2.1410 -15.5955
# 3 44.2374 39.4719 138.4092 3.9973 -3.6710 1.7434
# 4 6.7327 11.4118 3.9973 32.9081 6.5458 7.5834
# 5 -0.5055 -2.1410 -3.6710 6.5458 46.8829 -7.1509
# 6 -4.1869 -15.5955 1.7434 7.5834 -7.1509 35.4007
#
#
#
# Elastic Compliance Matrix: (Units=1/GPa)
#
#
# Indices 1 2 3 4 5 6 
#
# 1 0.016995 -0.003352 -0.004427 -0.002094 0.000164 0.001233
# 2 -0.003352 0.009450 -0.001533 -0.003868 0.001576 0.004989
# 3 -0.004427 -0.001533 0.009085 0.000691 0.000231 -0.001748
# 4 -0.002094 -0.003868 0.000691 0.035992 -0.006861 -0.011082
# 5 0.000164 0.001576 0.000231 -0.006861 0.023433 0.006906
# 6 0.001233 0.004989 -0.001748 -0.011082 0.006906 0.034447
#
#
# Mechanical properties :
#
#
# Convention : Reuss Voigt Hill
#
# Bulk Modulus (GPa) = 59.14713 67.32875 63.23794
# Shear Modulus (GPa) = 32.53923 38.61024 35.57474
#
# Velocity S-wave (km/s) = 3.69784 4.02805 3.86647
# Velocity P-wave (km/s) = 6.56410 7.06592 6.81963
#
# Compressibility (1/GPa) = 0.01690699
#
# Stress axis : x y z
#
# Youngs Moduli (GPa) = 58.83939 105.82235 110.07007
#
# Poissons Ratio (x) = 0.35473 0.48725
# Poissons Ratio (y) = 0.19724 0.16872
# Poissons Ratio (z) = 0.26047 0.16221
#
# Static dielectric constant tensor:
#      x y z
#    x 4.135840 0.016120 0.215720 
#    y 0.016120 4.360250 -0.057370 
#    z 0.215720 -0.057370 4.455790 
# 
# 
# High freq. dielectric constant tensor:
#      x y z
#    x 1.949640 0.004760 0.014440 
#    y 0.004760 1.945840 -0.000320 
#    z 0.014440 -0.000320 1.940870 
# 
# From -- ./inp_files/494339.got.cif
#   From: 2010.06.25/outbox.cif.g09.slc.cpg/sg2_248_cif.got.tgz:494339.got - 2010.06.27 13:26:56.
