data_PCOD8022544
_publ_section_title
;
Structure prediction by ZEFSAII (Michael W. Deem and Ramdas Pophale) SiO2 
 PCOD8022544
Probable space group: P -1
;
_chemical_formula_sum "Si O2"
_cell_formula_units_Z 14
_cell_length_a 12.811171
_cell_length_b 5.295759
_cell_length_c 12.142787
_cell_angle_alpha 55.978413
_cell_angle_beta 89.926100
_cell_angle_gamma 82.111940
_cell_volume 673.482561
_symmetry_space_group_name_H-M "P -1"
_symmetry_group_IT_number 2
_symmetry_cell_setting 'triclinic'
loop_
_space_group_symop_operation_xyz
x,y,z
-x,-y,-z
loop_
_atom_site_type_symbol
_atom_site_label
_atom_site_fract_x
_atom_site_fract_y
_atom_site_fract_z
Si Si1 0.128928 0.127995 0.072552
Si Si2 0.701307 0.284920 0.451771
Si Si3 0.508567 0.246475 0.157074
Si Si4 0.517804 0.648739 0.622915
Si Si5 0.733413 0.938838 0.305171
Si Si6 0.680161 0.116161 0.721518
Si Si7 0.109521 0.847417 0.908926
O O1 0.016171 0.058949 0.131602
O O2 0.220154 0.918818 0.191095
O O3 0.140401 0.479546 0.011973
O O4 0.145481 0.030407 0.969101
O O5 0.580728 0.475921 0.402926
O O6 0.767447 0.565271 0.397125
O O7 0.716807 0.037893 0.614179
O O8 0.725962 0.081908 0.392034
O O9 0.486957 0.415443 0.231714
O O10 0.626486 0.046045 0.207544
O O11 0.414247 0.046376 0.189864
O O12 0.500000 0.500000 0.000000
O O13 0.631297 0.479896 0.622704
O O14 0.500000 0.000000 0.500000
O O15 0.832197 0.058624 0.220742
#
# Coordination Sequence:
#
# PCOD8022544 Si02
#       7
#     2   2   2   2   2   2   2
#     4  10  24  40  72  90 124 168 213 266 325 382
#     4  11  23  39  61  92 122 179 205 255 314 392
#     4  11  24  36  58  94 128 166 209 271 316 380
#     4  11  22  40  61  86 134 175 211 254 317 392
#     4  11  23  40  63  87 131 166 210 256 329 371
#     4  12  23  39  63  93 127 164 224 258 315 385
#     4  10  22  47  63  94 124 168 212 264 333 383
#
# _framework density 20.787474
#
# number of rings (size 3 to 8) (size 9 to 14) (size 15 to 20)
#    0.000    1.143    2.857    3.857    4.000    1.714 
#    0.000    1.429    0.000    0.000    0.000    0.000 
#    0.000    0.000    0.000    0.000    0.000    0.000 
#
# Total GULP energy -173524.959281 kJ/mol
# GULP energy per Si atom -12394.639949 kJ/mol
# Density = 2.074016 g / cm^3
# Si number density = 20.787474 Si / 1000 Ang^3
#
#
#
# Elastic Constant Matrix: (Units=GPa)
#
#
# Indices 1 2 3 4 5 6 
#
# 1 106.8938 37.5621 58.5184 7.5244 -3.5305 1.1664
# 2 37.5621 84.3434 34.5423 -6.1687 1.9563 6.7939
# 3 58.5184 34.5423 131.5367 8.6728 -13.0598 2.9786
# 4 7.5244 -6.1687 8.6728 26.7080 1.6986 -3.0161
# 5 -3.5305 1.9563 -13.0598 1.6986 32.5771 1.8463
# 6 1.1664 6.7939 2.9786 -3.0161 1.8463 22.2510
#
#
#
# Elastic Compliance Matrix: (Units=1/GPa)
#
#
# Indices 1 2 3 4 5 6 
#
# 1 0.013749 -0.004487 -0.004744 -0.003273 -0.000019 0.000842
# 2 -0.004487 0.015675 -0.002672 0.005554 -0.002606 -0.003224
# 3 -0.004744 -0.002672 0.011090 -0.003296 0.004334 -0.001226
# 4 -0.003273 0.005554 -0.003296 0.041556 -0.004455 0.004920
# 5 -0.000019 -0.002606 0.004334 -0.004455 0.032997 -0.003125
# 6 0.000842 -0.003224 -0.001226 0.004920 -0.003125 0.046972
#
#
# Mechanical properties :
#
#
# Convention : Reuss Voigt Hill
#
# Bulk Modulus (GPa) = 59.84914 64.89104 62.37009
# Shear Modulus (GPa) = 26.12110 29.11729 27.61920
#
# Velocity S-wave (km/s) = 3.54867 3.74667 3.64901
# Velocity P-wave (km/s) = 6.75605 7.07113 6.91539
#
# Compressibility (1/GPa) = 0.01670868
#
# Stress axis : x y z
#
# Youngs Moduli (GPa) = 72.73066 63.79436 90.17272
#
# Poissons Ratio (x) = 0.28627 0.42774
# Poissons Ratio (y) = 0.32637 0.24094
# Poissons Ratio (z) = 0.34501 0.17046
#
# Static dielectric constant tensor:
#      x y z
#    x 4.046150 0.095770 -0.145360 
#    y 0.095770 4.273780 0.347850 
#    z -0.145360 0.347850 3.834580 
# 
# 
# High freq. dielectric constant tensor:
#      x y z
#    x 1.801950 0.008920 -0.012560 
#    y 0.008920 1.824120 0.007740 
#    z -0.012560 0.007740 1.812090 
# 
# From -- ./inp_files/27475.got.cif
#   From: 2010.06.25/outbox.cif.g09.slc.cpg/sg2_14_cif.got.tgz:27475.got - 2010.06.27 13:26:56.
