data_PCOD8022183
_publ_section_title
;
Structure prediction by ZEFSAII (Michael W. Deem and Ramdas Pophale) SiO2 
 PCOD8022183
Probable space group: P -1
;
_chemical_formula_sum "Si O2"
_cell_formula_units_Z 10
_cell_length_a 11.961271
_cell_length_b 8.822278
_cell_length_c 7.087395
_cell_angle_alpha 56.880594
_cell_angle_beta 115.266774
_cell_angle_gamma 128.563313
_cell_volume 485.524947
_symmetry_space_group_name_H-M "P -1"
_symmetry_group_IT_number 2
_symmetry_cell_setting 'triclinic'
loop_
_space_group_symop_operation_xyz
x,y,z
-x,-y,-z
loop_
_atom_site_type_symbol
_atom_site_label
_atom_site_fract_x
_atom_site_fract_y
_atom_site_fract_z
Si Si1 0.044618 0.145954 0.113421
Si Si2 0.740481 0.033796 0.097004
Si Si3 0.711745 0.410122 0.986661
Si Si4 0.317151 0.253166 0.418248
Si Si5 0.535845 0.843395 0.734662
O O1 0.135453 0.396997 0.954877
O O2 0.148301 0.093774 0.348577
O O3 0.906087 0.101372 0.162178
O O4 0.000000 0.000000 0.000000
O O5 0.653662 0.829782 0.309743
O O6 0.726588 0.223317 0.040727
O O7 0.669842 0.973958 0.882458
O O8 0.656681 0.508374 0.714173
O O9 0.603627 0.332457 0.136903
O O10 0.421786 0.268135 0.316904
O O11 0.500000 0.000000 0.500000
#
# Coordination Sequence:
#
# PCOD8022183 Si02
#       5
#     2   2   2   2   2
#     4  10  22  45  67  98 130 171 216 270 322 386
#     4  12  22  46  68  93 137 167 217 274 316 387
#     4  10  24  41  67 100 129 172 218 261 331 380
#     4  10  24  42  69  94 133 167 221 261 326 384
#     4  12  24  45  66  97 136 170 218 267 323 388
#
# _framework density 20.596266
#
# number of rings (size 3 to 8) (size 9 to 14) (size 15 to 20)
#    1.200    0.000    4.000    2.400    0.000    0.800 
#    7.200    2.000    0.000    0.000    0.000    0.000 
#    0.000    0.000    0.000    0.000    0.000    0.000 
#
# Total GULP energy -123928.153013 kJ/mol
# GULP energy per Si atom -12392.815301 kJ/mol
# Density = 2.054939 g / cm^3
# Si number density = 20.596266 Si / 1000 Ang^3
#
#
#
# Elastic Constant Matrix: (Units=GPa)
#
#
# Indices 1 2 3 4 5 6 
#
# 1 127.4255 25.0433 25.6576 -13.7790 -23.8812 -14.6695
# 2 25.0433 71.4416 31.7817 -23.0458 -5.4338 6.2948
# 3 25.6576 31.7817 103.7717 -25.8306 3.2833 -14.1696
# 4 -13.7790 -23.0458 -25.8306 33.5245 3.2802 10.3074
# 5 -23.8812 -5.4338 3.2833 3.2802 23.0906 -17.3352
# 6 -14.6695 6.2948 -14.1696 10.3074 -17.3352 26.8838
#
#
#
# Elastic Compliance Matrix: (Units=1/GPa)
#
#
# Indices 1 2 3 4 5 6 
#
# 1 -0.022379 0.025363 -0.000843 0.048957 -0.100917 -0.102438
# 2 0.025363 -0.002875 -0.004309 -0.029791 0.093360 0.083865
# 3 -0.000843 -0.004309 0.013217 0.005488 -0.000935 0.004808
# 4 0.048957 -0.029791 0.005488 -0.028171 0.159754 0.150396
# 5 -0.100917 0.093360 -0.000935 0.159754 -0.321305 -0.345853
# 6 -0.102438 0.083865 0.004808 0.150396 -0.345853 -0.316478
#
#
# Mechanical properties :
#
#
# Convention : Reuss Voigt Hill
#
# Bulk Modulus (GPa) = 35.22940 51.95601 43.59270
# Shear Modulus (GPa) = -7.05266 31.37684 12.16209
#
# Velocity S-wave (km/s) = -1.85248 3.90734 2.43266
# Velocity P-wave (km/s) = 3.54490 6.75552 5.39460
#
# Compressibility (1/GPa) = 0.02838538
#
# Stress axis : x y z
#
# Youngs Moduli (GPa) = -44.68407 -347.81061 75.66175
#
# Poissons Ratio (x) = 8.82141 0.06375
# Poissons Ratio (y) = 1.13331 0.32599
# Poissons Ratio (z) = -0.03765 -1.49854
#
# Static dielectric constant tensor:
#      x y z
#    x 4.387100 0.177190 0.115410 
#    y 0.177190 3.627020 -0.125150 
#    z 0.115410 -0.125150 3.651520 
# 
# 
# High freq. dielectric constant tensor:
#      x y z
#    x 1.827600 0.003010 0.002330 
#    y 0.003010 1.802050 -0.008810 
#    z 0.002330 -0.008810 1.797110 
# 
# From -- ./inp_files/18022.got.cif
#   From: 2010.06.25/outbox.cif.g09.slc.cpg/sg2_10_cif.got.tgz:18022.got - 2010.06.27 13:26:56.
