data_PCOD8022272
_publ_section_title
;
Structure prediction by ZEFSAII (Michael W. Deem and Ramdas Pophale) SiO2 
 PCOD8022272
Probable space group: P -1
;
_chemical_formula_sum "Si O2"
_cell_formula_units_Z 14
_cell_length_a 7.012102
_cell_length_b 9.014226
_cell_length_c 13.297096
_cell_angle_alpha 135.885937
_cell_angle_beta 94.166420
_cell_angle_gamma 67.239707
_cell_volume 511.215586
_symmetry_space_group_name_H-M "P -1"
_symmetry_group_IT_number 2
_symmetry_cell_setting 'triclinic'
loop_
_space_group_symop_operation_xyz
x,y,z
-x,-y,-z
loop_
_atom_site_type_symbol
_atom_site_label
_atom_site_fract_x
_atom_site_fract_y
_atom_site_fract_z
Si Si1 0.717883 0.341758 0.725591
Si Si2 0.064832 0.165708 0.017849
Si Si3 0.944018 0.639860 0.368019
Si Si4 0.552276 0.286791 0.256077
Si Si5 0.717126 0.600609 0.517195
Si Si6 0.266480 0.519367 0.999844
Si Si7 0.446942 0.102766 0.663879
O O1 0.500891 0.562665 0.776687
O O2 0.809328 0.448168 0.870758
O O3 0.660135 0.141672 0.671939
O O4 0.906327 0.236698 0.595030
O O5 0.906067 0.253223 0.959005
O O6 0.312413 0.998325 0.904566
O O7 0.052025 0.379741 0.191071
O O8 0.000000 0.000000 0.000000
O O9 0.931075 0.600955 0.471395
O O10 0.695279 0.822124 0.408547
O O11 0.701983 0.362793 0.367376
O O12 0.324855 0.353043 0.340921
O O13 0.511794 0.833238 0.571030
O O14 0.500000 0.500000 0.000000
O O15 0.292599 0.273793 0.830790
#
# Coordination Sequence:
#
# PCOD8022272 Si02
#       7
#     2   2   2   2   2   2   2
#     4  11  24  45  69 107 134 178 237 288 335 409
#     4  11  21  43  72 102 139 184 227 283 344 408
#     4  11  24  41  73 103 134 182 235 279 349 403
#     4  11  25  45  70 100 143 183 226 281 353 405
#     4  11  24  46  68  97 142 190 220 280 351 417
#     4   9  21  41  69 104 135 171 234 288 333 393
#     4  10  22  45  69  97 143 179 223 288 345 407
#
# _framework density 27.385705000000002
#
# number of rings (size 3 to 8) (size 9 to 14) (size 15 to 20)
#    0.000    1.429    2.857    2.143    4.000    2.857 
#    5.143    1.429    0.000    0.000    0.000    0.000 
#    0.000    0.000    0.000    0.000    0.000    0.000 
#
# Total GULP energy -173550.012013 kJ/mol
# GULP energy per Si atom -12396.429430 kJ/mol
# Density = 2.732337 g / cm^3
# Si number density = 27.385705 Si / 1000 Ang^3
#
#
#
# Elastic Constant Matrix: (Units=GPa)
#
#
# Indices 1 2 3 4 5 6 
#
# 1 81.7551 -0.5671 15.3172 -5.8049 -27.6266 21.1409
# 2 -0.5671 106.0203 45.4701 -23.0417 -1.8477 12.5483
# 3 15.3172 45.4701 118.8743 -6.5269 -7.1671 11.7981
# 4 -5.8049 -23.0417 -6.5269 54.3312 -0.6603 0.5244
# 5 -27.6266 -1.8477 -7.1671 -0.6603 37.8847 -10.7069
# 6 21.1409 12.5483 11.7981 0.5244 -10.7069 29.6760
#
#
#
# Elastic Compliance Matrix: (Units=1/GPa)
#
#
# Indices 1 2 3 4 5 6 
#
# 1 0.019193 0.002995 -0.001748 0.003344 0.010943 -0.010356
# 2 0.002995 0.013300 -0.004563 0.005474 0.000399 -0.005896
# 3 -0.001748 -0.004563 0.010436 -0.000857 0.000213 -0.000883
# 4 0.003344 0.005474 -0.000857 0.021042 0.001753 -0.004096
# 5 0.010943 0.000399 0.000213 0.001753 0.035837 0.004850
# 6 -0.010356 -0.005896 -0.000883 -0.004096 0.004850 0.045741
#
#
# Mechanical properties :
#
#
# Convention : Reuss Voigt Hill
#
# Bulk Modulus (GPa) = 27.54997 47.45444 37.50220
# Shear Modulus (GPa) = 30.43590 40.80701 35.62145
#
# Velocity S-wave (km/s) = 3.33735 3.86435 3.61048
# Velocity P-wave (km/s) = 4.99323 6.10547 5.57715
#
# Compressibility (1/GPa) = 0.03629769
#
# Stress axis : x y z
#
# Youngs Moduli (GPa) = 52.10234 75.18889 95.81904
#
# Poissons Ratio (x) = -0.22521 0.16745
# Poissons Ratio (y) = -0.15606 0.43726
# Poissons Ratio (z) = 0.09105 0.34312
#
# Static dielectric constant tensor:
#      x y z
#    x 4.706610 0.036970 -0.332440 
#    y 0.036970 5.573300 -0.631020 
#    z -0.332440 -0.631020 6.109350 
# 
# 
# High freq. dielectric constant tensor:
#      x y z
#    x 2.093150 0.002040 -0.023910 
#    y 0.002040 2.120440 -0.013250 
#    z -0.023910 -0.013250 2.120540 
# 
# From -- ./inp_files/493850.got.cif
#   From: 2010.06.25/outbox.cif.g09.slc.cpg/sg2_247_cif.got.tgz:493850.got - 2010.06.27 13:26:56.
