data_PCOD8022019
_publ_section_title
;
Structure prediction by ZEFSAII (Michael W. Deem and Ramdas Pophale) SiO2 
 PCOD8022019
Probable space group: P -1
;
_chemical_formula_sum "Si O2"
_cell_formula_units_Z 14
_cell_length_a 15.133698
_cell_length_b 9.393381
_cell_length_c 14.990769
_cell_angle_alpha 142.012152
_cell_angle_beta 36.848188
_cell_angle_gamma 151.319151
_cell_volume 585.253847
_symmetry_space_group_name_H-M "P -1"
_symmetry_group_IT_number 2
_symmetry_cell_setting 'triclinic'
loop_
_space_group_symop_operation_xyz
x,y,z
-x,-y,-z
loop_
_atom_site_type_symbol
_atom_site_label
_atom_site_fract_x
_atom_site_fract_y
_atom_site_fract_z
Si Si1 0.400532 0.628895 0.106700
Si Si2 0.682188 0.351891 0.507575
Si Si3 0.655785 0.293312 0.304907
Si Si4 0.386334 0.238082 0.179290
Si Si5 0.949057 0.473248 0.925693
Si Si6 0.966146 0.322286 0.350875
Si Si7 0.291609 0.380600 0.755440
O O1 0.161596 0.390382 0.191194
O O2 0.475261 0.937025 0.249192
O O3 0.500000 0.500000 0.000000
O O4 0.468351 0.707629 0.987830
O O5 0.635926 0.401623 0.469232
O O6 0.685064 0.570367 0.683179
O O7 0.885207 0.416986 0.387954
O O8 0.500000 0.000000 0.500000
O O9 0.699072 0.530390 0.311470
O O10 0.842024 0.321498 0.190893
O O11 0.494059 0.352350 0.243753
O O12 0.194417 0.879454 0.166010
O O13 0.854068 0.623546 0.065650
O O14 0.000000 0.500000 0.000000
O O15 0.000000 0.500000 0.500000
O O16 0.788176 0.961388 0.341218
#
# Coordination Sequence:
#
# PCOD8022019 Si02
#       7
#     2   2   2   2   2   2   2
#     4  12  26  46  79 110 150 203 252 303 383 444
#     4  12  27  51  71 112 156 195 247 313 382 451
#     4  11  26  47  75 106 152 197 248 309 381 445
#     4  12  25  46  77 107 151 194 253 314 364 450
#     4  10  22  44  72 107 143 189 249 311 365 430
#     4  12  28  48  79 110 156 198 250 309 382 449
#     4  11  25  46  74 110 147 193 254 312 367 446
#
# _framework density 23.921244999999999
#
# number of rings (size 3 to 8) (size 9 to 14) (size 15 to 20)
#    0.000    0.571    4.286    3.857    8.000    1.714 
#    0.000    0.000    0.000    0.000    0.000    0.000 
#    0.000    0.000    0.000    0.000    0.000    0.000 
#
# Total GULP energy -173500.160598 kJ/mol
# GULP energy per Si atom -12392.868614 kJ/mol
# Density = 2.386680 g / cm^3
# Si number density = 23.921245 Si / 1000 Ang^3
#
#
#
# Elastic Constant Matrix: (Units=GPa)
#
#
# Indices 1 2 3 4 5 6 
#
# 1 121.8000 31.8371 34.0101 -0.2905 2.3934 12.5401
# 2 31.8371 81.1346 15.8485 11.7850 10.3877 20.3599
# 3 34.0101 15.8485 106.6384 10.8545 1.4291 12.5960
# 4 -0.2905 11.7850 10.8545 47.5742 5.3687 -0.0966
# 5 2.3934 10.3877 1.4291 5.3687 41.3339 -1.8035
# 6 12.5401 20.3599 12.5960 -0.0966 -1.8035 38.0988
#
#
#
# Elastic Compliance Matrix: (Units=1/GPa)
#
#
# Indices 1 2 3 4 5 6 
#
# 1 0.009940 -0.003486 -0.002753 0.001531 0.000175 -0.000487
# 2 -0.003486 0.016737 0.000001 -0.003748 -0.003866 -0.007990
# 3 -0.002753 0.000001 0.010826 -0.002492 -0.000009 -0.002680
# 4 0.001531 -0.003748 -0.002492 0.022747 -0.001915 0.002289
# 5 0.000175 -0.003866 -0.000009 -0.001915 0.025544 0.003216
# 6 -0.000487 -0.007990 -0.002680 0.002289 0.003216 0.031722
#
#
# Mechanical properties :
#
#
# Convention : Reuss Voigt Hill
#
# Bulk Modulus (GPa) = 39.95472 52.55160 46.25316
# Shear Modulus (GPa) = 36.14471 40.59320 38.36896
#
# Velocity S-wave (km/s) = 3.89136 4.12388 4.00930
# Velocity P-wave (km/s) = 6.07693 6.68516 6.38829
#
# Compressibility (1/GPa) = 0.02502833
#
# Stress axis : x y z
#
# Youngs Moduli (GPa) = 100.60061 59.74785 92.37340
#
# Poissons Ratio (x) = 0.20825 0.25430
# Poissons Ratio (y) = 0.35065 -0.00011
# Poissons Ratio (z) = 0.27695 -0.00007
#
# Static dielectric constant tensor:
#      x y z
#    x 3.255770 -1.240030 2.755170 
#    y -1.240030 2.496520 3.184170 
#    z 2.755170 3.184170 -1.232700 
# 
# 
# High freq. dielectric constant tensor:
#      x y z
#    x 1.955790 0.016380 -0.006260 
#    y 0.016380 1.939790 0.002170 
#    z -0.006260 0.002170 1.967210 
# 
# From -- ./inp_files/530233.got.cif
#   From: 2010.06.25/outbox.cif.g09.slc.cpg/sg2_266_cif.got.tgz:530233.got - 2010.06.27 13:26:56.
