data_PCOD8022758
_publ_section_title
;
Structure prediction by ZEFSAII (Michael W. Deem and Ramdas Pophale) SiO2 
 PCOD8022758
Probable space group: P -1
;
_chemical_formula_sum "Si O2"
_cell_formula_units_Z 14
_cell_length_a 23.741863
_cell_length_b 15.426355
_cell_length_c 12.606266
_cell_angle_alpha 27.511006
_cell_angle_beta 150.140059
_cell_angle_gamma 161.491890
_cell_volume 666.111704
_symmetry_space_group_name_H-M "P -1"
_symmetry_group_IT_number 2
_symmetry_cell_setting 'triclinic'
loop_
_space_group_symop_operation_xyz
x,y,z
-x,-y,-z
loop_
_atom_site_type_symbol
_atom_site_label
_atom_site_fract_x
_atom_site_fract_y
_atom_site_fract_z
Si Si1 0.688001 0.059169 0.893572
Si Si2 0.589472 0.840541 0.388346
Si Si3 0.534475 0.180211 0.009455
Si Si4 0.238285 0.237454 0.577543
Si Si5 0.123816 0.331151 0.477741
Si Si6 0.794598 0.795317 0.872520
Si Si7 0.391400 0.504715 0.888902
O O1 0.849492 0.409478 0.746550
O O2 0.614252 0.039797 0.905260
O O3 0.528435 0.849137 0.772934
O O4 0.759466 0.939697 0.149190
O O5 0.424717 0.507929 0.528682
O O6 0.769574 0.955334 0.589113
O O7 0.605933 0.070619 0.210007
O O8 0.560489 0.820555 0.237140
O O9 0.707734 0.511553 0.975506
O O10 0.197528 0.363379 0.447889
O O11 0.084485 0.000758 0.494636
O O12 0.226101 0.370301 0.699167
O O13 0.692873 0.700375 0.921343
O O14 0.000000 0.000000 0.000000
O O15 0.500000 0.500000 0.000000
#
# Coordination Sequence:
#
# PCOD8022758 Si02
#       7
#     2   2   2   2   2   2   2
#     4  11  21  40  62  94 124 164 214 259 317 380
#     4  11  21  43  65  89 128 166 213 262 322 379
#     4  10  23  38  68  91 120 172 213 261 324 373
#     4  11  22  38  64  90 127 161 210 274 304 378
#     4  11  23  38  60  95 127 161 215 259 316 373
#     4  11  25  42  67  95 128 167 216 268 313 387
#     4  11  22  42  65  91 127 175 205 254 326 373
#
# _framework density 21.017496999999999
#
# number of rings (size 3 to 8) (size 9 to 14) (size 15 to 20)
#    0.000    1.143    5.714    1.286    2.000    0.571 
#    0.000    0.000    0.000    0.000    0.000    0.000 
#    0.000    0.000    0.000    0.000    0.000    0.000 
#
# Total GULP energy -173581.320000 kJ/mol
# GULP energy per Si atom -12398.665714 kJ/mol
# Density = 2.096966 g / cm^3
# Si number density = 21.017497 Si / 1000 Ang^3
#
#
#
# Elastic Constant Matrix: (Units=GPa)
#
#
# Indices 1 2 3 4 5 6 
#
# 1 80.9659 39.3947 25.3998 6.7334 -3.9844 -9.5540
# 2 39.3947 108.0668 68.2306 20.9949 -1.9022 -18.4156
# 3 25.3998 68.2306 136.8546 15.6458 4.6844 -12.0135
# 4 6.7334 20.9949 15.6458 37.9389 -2.9414 1.9794
# 5 -3.9844 -1.9022 4.6844 -2.9414 25.4626 10.3735
# 6 -9.5540 -18.4156 -12.0135 1.9794 10.3735 24.1997
#
#
#
# Elastic Compliance Matrix: (Units=1/GPa)
#
#
# Indices 1 2 3 4 5 6 
#
# 1 0.015149 -0.005239 -0.000187 0.000346 0.001564 0.001202
# 2 -0.005239 0.018372 -0.006237 -0.007521 -0.003648 0.010995
# 3 -0.000187 -0.006237 0.010936 -0.001422 -0.003594 0.002266
# 4 0.000346 -0.007521 -0.001422 0.032376 0.008646 -0.012647
# 5 0.001564 -0.003648 -0.003594 0.008646 0.051856 -0.026879
# 6 0.001202 0.010995 0.002266 -0.012647 -0.026879 0.063846
#
#
# Mechanical properties :
#
#
# Convention : Reuss Voigt Hill
#
# Bulk Modulus (GPa) = 47.32667 65.77083 56.54875
# Shear Modulus (GPa) = 22.43106 30.37772 26.40439
#
# Velocity S-wave (km/s) = 3.27043 3.80591 3.54828
# Velocity P-wave (km/s) = 6.06858 7.11860 6.61446
#
# Compressibility (1/GPa) = 0.02112974
#
# Stress axis : x y z
#
# Youngs Moduli (GPa) = 66.01226 54.43007 91.44134
#
# Poissons Ratio (x) = 0.28516 0.01711
# Poissons Ratio (y) = 0.34584 0.57036
# Poissons Ratio (z) = 0.01235 0.33950
#
# Static dielectric constant tensor:
#      x y z
#    x 3.722090 -0.255010 -0.016270 
#    y -0.255010 3.910570 0.109720 
#    z -0.016270 0.109720 3.960050 
# 
# 
# High freq. dielectric constant tensor:
#      x y z
#    x 1.817670 -0.021760 0.002830 
#    y -0.021760 1.825440 0.007190 
#    z 0.002830 0.007190 1.828240 
# 
# From -- ./inp_files/302846.got.cif
#   From: 2010.06.25/outbox.cif.g09.slc.cpg/sg2_152_cif.got.tgz:302846.got - 2010.06.27 13:26:56.
