data_PCOD8022830
_publ_section_title
;
Structure prediction by ZEFSAII (Michael W. Deem and Ramdas Pophale) SiO2 
 PCOD8022830
Probable space group: P -1
;
_chemical_formula_sum "Si O2"
_cell_formula_units_Z 16
_cell_length_a 8.671538
_cell_length_b 17.278425
_cell_length_c 9.334665
_cell_angle_alpha 111.214480
_cell_angle_beta 132.993802
_cell_angle_gamma 45.684796
_cell_volume 714.211740
_symmetry_space_group_name_H-M "P -1"
_symmetry_group_IT_number 2
_symmetry_cell_setting 'triclinic'
loop_
_space_group_symop_operation_xyz
x,y,z
-x,-y,-z
loop_
_atom_site_type_symbol
_atom_site_label
_atom_site_fract_x
_atom_site_fract_y
_atom_site_fract_z
Si Si1 0.999488 0.631432 0.084938
Si Si2 0.232586 0.766733 0.968843
Si Si3 0.035371 0.021892 0.199507
Si Si4 0.976044 0.227887 0.588435
Si Si5 0.758044 0.782151 0.777844
Si Si6 0.282823 0.000742 0.779050
Si Si7 0.404618 0.193684 0.613717
Si Si8 0.453442 0.383828 0.169436
O O1 0.308353 0.509556 0.195847
O O2 0.016607 0.714676 0.230812
O O3 0.887915 0.676033 0.884898
O O4 0.778413 0.626780 0.013853
O O5 0.442405 0.765124 0.198913
O O6 0.107265 0.850432 0.806860
O O7 0.389590 0.650559 0.908490
O O8 0.977059 0.802332 0.929319
O O9 0.896307 0.001584 0.218771
O O10 0.370689 0.936297 0.376421
O O11 0.000000 0.000000 0.000000
O O12 0.185756 0.212477 0.596593
O O13 0.660449 0.306996 0.380353
O O14 0.077635 0.109322 0.620645
O O15 0.453878 0.891886 0.715278
O O16 0.745157 0.743390 0.587242
O O17 0.500000 0.000000 0.000000
#
# Coordination Sequence:
#
# PCOD8022830 Si02
#       8
#     2   2   2   2   2   2   2   2
#     4  11  26  47  70 101 134 176 235 292 332 402
#     4  11  22  45  66  97 140 183 221 279 337 402
#     4  10  23  39  64  97 141 179 213 271 343 402
#     4  12  24  45  73 100 138 181 230 276 344 408
#     4  12  26  42  71 103 138 179 228 275 343 411
#     4  12  23  41  68 106 139 179 221 282 337 410
#     4  11  24  42  65 100 141 179 221 275 341 403
#     4  11  25  46  74  96 133 183 233 284 343 393
#
# _framework density 22.402321000000001
#
# number of rings (size 3 to 8) (size 9 to 14) (size 15 to 20)
#    0.000    0.750    3.750    4.875    3.500    2.000 
#    0.000    0.625    0.000    0.000    0.000    0.000 
#    0.000    0.000    0.000    0.000    0.000    0.000 
#
# Total GULP energy -198384.284046 kJ/mol
# GULP energy per Si atom -12399.017753 kJ/mol
# Density = 2.235133 g / cm^3
# Si number density = 22.402321 Si / 1000 Ang^3
#
#
#
# Elastic Constant Matrix: (Units=GPa)
#
#
# Indices 1 2 3 4 5 6 
#
# 1 103.8374 49.1415 25.8596 -5.4972 -16.9791 -18.3036
# 2 49.1415 107.4685 37.7362 -30.8609 -6.5567 -9.1824
# 3 25.8596 37.7362 91.2875 -12.7333 -9.1974 -9.6522
# 4 -5.4972 -30.8609 -12.7333 28.7319 2.5420 0.1041
# 5 -16.9791 -6.5567 -9.1974 2.5420 37.8615 -3.7909
# 6 -18.3036 -9.1824 -9.6522 0.1041 -3.7909 27.4251
#
#
#
# Elastic Compliance Matrix: (Units=1/GPa)
#
#
# Indices 1 2 3 4 5 6 
#
# 1 0.015670 -0.007521 -0.000548 -0.005962 0.006865 0.008719
# 2 -0.007521 0.018803 -0.003463 0.017415 -0.002158 -0.000307
# 3 -0.000548 -0.003463 0.013449 0.001888 0.002652 0.003568
# 4 -0.005962 0.017415 0.001888 0.053428 -0.002591 0.001955
# 5 0.006865 -0.002158 0.002652 -0.002591 0.030843 0.009066
# 6 0.008719 -0.000307 0.003568 0.001955 0.009066 0.044680
#
#
# Mechanical properties :
#
#
# Convention : Reuss Voigt Hill
#
# Bulk Modulus (GPa) = 40.22903 58.67424 49.45164
# Shear Modulus (GPa) = 24.01258 31.46078 27.73668
#
# Velocity S-wave (km/s) = 3.27751 3.75154 3.52250
# Velocity P-wave (km/s) = 5.68500 6.70920 6.21822
#
# Compressibility (1/GPa) = 0.02485767
#
# Stress axis : x y z
#
# Youngs Moduli (GPa) = 63.81540 53.18213 74.35529
#
# Poissons Ratio (x) = 0.40000 0.04074
# Poissons Ratio (y) = 0.47998 0.25749
# Poissons Ratio (z) = 0.03497 0.18417
#
# Static dielectric constant tensor:
#      x y z
#    x 6.253870 -1.312370 1.401120 
#    y -1.312370 4.874340 -0.911310 
#    z 1.401120 -0.911310 5.113150 
# 
# 
# High freq. dielectric constant tensor:
#      x y z
#    x 1.888980 -0.016850 -0.004040 
#    y -0.016850 1.870900 -0.001160 
#    z -0.004040 -0.001160 1.896250 
# 
# From -- ./inp_files/218096.got.cif
#   From: 2010.06.25/outbox.cif.g09.slc.cpg/sg2_110_cif.got.tgz:218096.got - 2010.06.27 13:26:56.
