data_PCOD8022270
_publ_section_title
;
Structure prediction by ZEFSAII (Michael W. Deem and Ramdas Pophale) SiO2 
 PCOD8022270
Probable space group: P -1
;
_chemical_formula_sum "Si O2"
_cell_formula_units_Z 16
_cell_length_a 11.735979
_cell_length_b 8.567185
_cell_length_c 11.246647
_cell_angle_alpha 61.606423
_cell_angle_beta 50.347849
_cell_angle_gamma 62.472941
_cell_volume 744.567330
_symmetry_space_group_name_H-M "P -1"
_symmetry_group_IT_number 2
_symmetry_cell_setting 'triclinic'
loop_
_space_group_symop_operation_xyz
x,y,z
-x,-y,-z
loop_
_atom_site_type_symbol
_atom_site_label
_atom_site_fract_x
_atom_site_fract_y
_atom_site_fract_z
Si Si1 0.595964 0.120693 0.330476
Si Si2 0.180882 0.952519 0.168531
Si Si3 0.318997 0.290882 0.010196
Si Si4 0.453251 0.720749 0.944923
Si Si5 0.935019 0.923915 0.182251
Si Si6 0.814033 0.383069 0.586158
Si Si7 0.083070 0.515190 0.267273
Si Si8 0.487430 0.506627 0.646553
O O1 0.516295 0.200861 0.230974
O O2 0.611688 0.291749 0.336185
O O3 0.500000 0.000000 0.500000
O O4 0.757040 0.984005 0.265707
O O5 0.188266 0.832162 0.326755
O O6 0.006093 0.003149 0.221696
O O7 0.240828 0.133788 0.074724
O O8 0.276115 0.807269 0.060789
O O9 0.451771 0.200527 0.046679
O O10 0.198150 0.445380 0.106871
O O11 0.393624 0.370023 0.818362
O O12 0.500000 0.500000 0.000000
O O13 0.976599 0.706973 0.233683
O O14 0.000000 0.000000 0.000000
O O15 0.824820 0.477703 0.673771
O O16 0.655837 0.484843 0.595786
O O17 0.963751 0.386768 0.408243
O O18 0.500000 0.500000 0.500000
#
# Coordination Sequence:
#
# PCOD8022270 Si02
#       8
#     2   2   2   2   2   2   2   2
#     4  12  26  43  72 105 132 180 235 290 340 401
#     4  11  24  40  69 101 136 178 226 285 340 412
#     4  12  25  42  72 103 136 183 233 281 352 412
#     4  12  22  44  75  96 132 180 238 278 331 416
#     4  11  22  42  68  94 136 175 230 276 334 411
#     4  10  22  45  69  97 133 177 232 283 340 409
#     4  10  23  43  72  98 131 177 229 287 342 408
#     4  12  27  43  65  98 144 179 222 288 354 404
#
# _framework density 21.488990000000001
#
# number of rings (size 3 to 8) (size 9 to 14) (size 15 to 20)
#    0.000    0.750    3.750    4.125    1.750    4.500 
#    0.000    1.875    0.000    0.000    0.000    0.000 
#    0.000    0.000    0.000    0.000    0.000    0.000 
#
# Total GULP energy -198323.628642 kJ/mol
# GULP energy per Si atom -12395.226790 kJ/mol
# Density = 2.144008 g / cm^3
# Si number density = 21.488990 Si / 1000 Ang^3
#
#
#
# Elastic Constant Matrix: (Units=GPa)
#
#
# Indices 1 2 3 4 5 6 
#
# 1 92.1713 53.7230 66.6908 -11.2149 1.8595 -13.1564
# 2 53.7230 91.4786 50.7700 -15.5564 6.4422 -6.8795
# 3 66.6908 50.7700 178.0803 -15.3641 2.5404 -4.2924
# 4 -11.2149 -15.5564 -15.3641 38.8534 1.5302 -5.2156
# 5 1.8595 6.4422 2.5404 1.5302 40.8332 -3.1709
# 6 -13.1564 -6.8795 -4.2924 -5.2156 -3.1709 34.6354
#
#
#
# Elastic Compliance Matrix: (Units=1/GPa)
#
#
# Indices 1 2 3 4 5 6 
#
# 1 0.020441 -0.008710 -0.004950 0.001176 0.001150 0.005704
# 2 -0.008710 0.017735 -0.001387 0.004195 -0.002437 0.000451
# 3 -0.004950 -0.001387 0.007930 0.001020 -0.000168 -0.001035
# 4 0.001176 0.004195 0.001020 0.028973 -0.001427 0.005639
# 5 0.001150 -0.002437 -0.000168 -0.001427 0.025042 0.002010
# 6 0.005704 0.000451 -0.001035 0.005639 0.002010 0.032033
#
#
# Mechanical properties :
#
#
# Convention : Reuss Voigt Hill
#
# Bulk Modulus (GPa) = 62.44548 78.23309 70.33928
# Shear Modulus (GPa) = 29.83565 35.56748 32.70157
#
# Velocity S-wave (km/s) = 3.73019 4.07277 3.90524
# Velocity P-wave (km/s) = 6.90469 7.65518 7.28960
#
# Compressibility (1/GPa) = 0.01601397
#
# Stress axis : x y z
#
# Youngs Moduli (GPa) = 48.92091 56.38531 126.10563
#
# Poissons Ratio (x) = 0.49110 0.62417
# Poissons Ratio (y) = 0.42608 0.17489
# Poissons Ratio (z) = 0.24214 0.07820
#
# Static dielectric constant tensor:
#      x y z
#    x 3.915570 -0.143640 0.034020 
#    y -0.143640 3.844960 -0.135320 
#    z 0.034020 -0.135320 4.109810 
# 
# 
# High freq. dielectric constant tensor:
#      x y z
#    x 1.843690 -0.014520 -0.011860 
#    y -0.014520 1.838460 -0.011840 
#    z -0.011860 -0.011840 1.860300 
# 
# From -- ./inp_files/416443.got.cif
#   From: 2010.06.25/outbox.cif.g09.slc.cpg/sg2_209_cif.got.tgz:416443.got - 2010.06.27 13:26:56.
