data_PCOD8022914
_publ_section_title
;
Structure prediction by ZEFSAII (Michael W. Deem and Ramdas Pophale) SiO2 
 PCOD8022914
Probable space group: P -1
;
_chemical_formula_sum "Si O2"
_cell_formula_units_Z 16
_cell_length_a 20.136799
_cell_length_b 22.638537
_cell_length_c 9.726040
_cell_angle_alpha 129.102634
_cell_angle_beta 41.375194
_cell_angle_gamma 162.579399
_cell_volume 791.769533
_symmetry_space_group_name_H-M "P -1"
_symmetry_group_IT_number 2
_symmetry_cell_setting 'triclinic'
loop_
_space_group_symop_operation_xyz
x,y,z
-x,-y,-z
loop_
_atom_site_type_symbol
_atom_site_label
_atom_site_fract_x
_atom_site_fract_y
_atom_site_fract_z
Si Si1 0.125416 0.579580 0.770538
Si Si2 0.205130 0.949997 0.579353
Si Si3 0.314358 0.313639 0.423255
Si Si4 0.747534 0.872635 0.060754
Si Si5 0.737758 0.699984 0.821027
Si Si6 0.294284 0.129991 0.184274
Si Si7 0.930723 0.602521 0.592388
Si Si8 0.095639 0.499654 0.252886
O O1 0.984464 0.407844 0.655879
O O2 0.069072 0.611971 0.802651
O O3 0.460687 0.809551 0.619708
O O4 0.000000 0.500000 0.000000
O O5 0.999887 0.824154 0.583635
O O6 0.129319 0.814772 0.560721
O O7 0.119812 0.960041 0.824819
O O8 0.500000 0.500000 0.500000
O O9 0.410753 0.394282 0.234520
O O10 0.388196 0.280579 0.312258
O O11 0.971708 0.089953 0.635032
O O12 0.403303 0.620659 0.243253
O O13 0.864965 0.873125 0.926784
O O14 0.837266 0.951656 0.881638
O O15 0.500000 0.500000 0.000000
O O16 0.561326 0.260234 0.961677
O O17 0.984943 0.628657 0.711203
O O18 0.000000 0.500000 0.500000
#
# Coordination Sequence:
#
# PCOD8022914 Si02
#       8
#     2   2   2   2   2   2   2   2
#     4  10  23  40  59  86 122 160 200 250 303 356
#     4  11  22  37  63  88 121 160 200 250 305 349
#     4  10  23  41  58  91 123 160 198 243 305 367
#     4   9  19  37  61  89 118 157 196 246 297 359
#     4  11  22  38  61  92 124 157 199 247 299 366
#     4   9  20  39  64  85 123 157 199 250 300 359
#     4   9  19  39  60  86 119 149 208 250 288 361
#     4   9  19  40  64  88 115 159 207 254 295 352
#
# _framework density 20.207902000000001
#
# number of rings (size 3 to 8) (size 9 to 14) (size 15 to 20)
#    0.000    2.250    1.250    1.125    3.500    1.000 
#    4.500    2.500    0.000    0.000    0.000    0.000 
#    0.000    0.000    0.000    0.000    0.000    0.000 
#
# Total GULP energy -198215.130273 kJ/mol
# GULP energy per Si atom -12388.445642 kJ/mol
# Density = 2.016191 g / cm^3
# Si number density = 20.207902 Si / 1000 Ang^3
#
#
#
# Elastic Constant Matrix: (Units=GPa)
#
#
# Indices 1 2 3 4 5 6 
#
# 1 114.4652 40.5192 43.3065 -4.5855 -0.2749 -0.7705
# 2 40.5192 97.8564 36.9028 7.2809 3.3964 -11.2494
# 3 43.3065 36.9028 106.6810 -5.8661 0.3785 -0.2771
# 4 -4.5855 7.2809 -5.8661 25.3849 7.5379 -5.9799
# 5 -0.2749 3.3964 0.3785 7.5379 38.2096 -2.6873
# 6 -0.7705 -11.2494 -0.2771 -5.9799 -2.6873 23.5763
#
#
#
# Elastic Compliance Matrix: (Units=1/GPa)
#
#
# Indices 1 2 3 4 5 6 
#
# 1 0.011358 -0.003767 -0.003189 0.002195 -0.000049 -0.000912
# 2 -0.003767 0.014064 -0.003555 -0.004242 -0.000021 0.005468
# 3 -0.003189 -0.003555 0.012072 0.003171 -0.000516 -0.000913
# 4 0.002195 -0.004242 0.003171 0.046250 -0.008137 0.008888
# 5 -0.000049 -0.000021 -0.000516 -0.008137 0.027860 0.001094
# 6 -0.000912 0.005468 -0.000913 0.008888 0.001094 0.047363
#
#
# Mechanical properties :
#
#
# Convention : Reuss Voigt Hill
#
# Bulk Modulus (GPa) = 60.70800 62.27327 61.49064
# Shear Modulus (GPa) = 26.95719 30.65244 28.80481
#
# Velocity S-wave (km/s) = 3.65635 3.89891 3.77957
# Velocity P-wave (km/s) = 6.92330 7.15205 7.03861
#
# Compressibility (1/GPa) = 0.01647229
#
# Stress axis : x y z
#
# Youngs Moduli (GPa) = 88.04431 71.10255 82.83674
#
# Poissons Ratio (x) = 0.26783 0.26418
# Poissons Ratio (y) = 0.33164 0.29448
# Poissons Ratio (z) = 0.28079 0.25276
#
# Static dielectric constant tensor:
#      x y z
#    x 4.017290 0.018240 -0.166940 
#    y 0.018240 3.422580 0.077030 
#    z -0.166940 0.077030 3.766550 
# 
# 
# High freq. dielectric constant tensor:
#      x y z
#    x 1.797370 -0.000090 -0.005900 
#    y -0.000090 1.766050 -0.002670 
#    z -0.005900 -0.002670 1.790350 
# 
# From -- ./inp_files/94948.got.cif
#   From: 2010.06.25/outbox.cif.g09.slc.cpg/sg2_48_cif.got.tgz:94948.got - 2010.06.27 13:26:56.
