data_PCOD8022603
_publ_section_title
;
Structure prediction by ZEFSAII (Michael W. Deem and Ramdas Pophale) SiO2 
 PCOD8022603
Probable space group: P -1
;
_chemical_formula_sum "Si O2"
_cell_formula_units_Z 16
_cell_length_a 13.745859
_cell_length_b 11.851037
_cell_length_c 14.067500
_cell_angle_alpha 139.673180
_cell_angle_beta 149.547904
_cell_angle_gamma 61.647115
_cell_volume 624.828808
_symmetry_space_group_name_H-M "P -1"
_symmetry_group_IT_number 2
_symmetry_cell_setting 'triclinic'
loop_
_space_group_symop_operation_xyz
x,y,z
-x,-y,-z
loop_
_atom_site_type_symbol
_atom_site_label
_atom_site_fract_x
_atom_site_fract_y
_atom_site_fract_z
Si Si1 0.613551 0.388949 0.068669
Si Si2 0.372342 0.002506 0.753363
Si Si3 0.715685 0.918295 0.075990
Si Si4 0.274175 0.743513 0.341207
Si Si5 0.660851 0.106013 0.795538
Si Si6 0.040774 0.130863 0.912242
Si Si7 0.527629 0.553884 0.406496
Si Si8 0.859455 0.743289 0.639407
O O1 0.829062 0.561084 0.426798
O O2 0.500000 0.500000 0.000000
O O3 0.688725 0.316937 0.992926
O O4 0.431353 0.189894 0.851453
O O5 0.610767 0.035719 0.012085
O O6 0.224055 0.778698 0.429571
O O7 0.212746 0.989169 0.697308
O O8 0.517528 0.672153 0.764503
O O9 0.934011 0.952495 0.223116
O O10 0.283514 0.538410 0.204203
O O11 0.091650 0.749792 0.124198
O O12 0.539290 0.934065 0.665904
O O13 0.500000 0.000000 0.500000
O O14 0.923120 0.166489 0.046854
O O15 0.299894 0.296849 0.270004
O O16 0.885783 0.930550 0.719719
O O17 0.631802 0.649205 0.451597
#
# Coordination Sequence:
#
# PCOD8022603 Si02
#       8
#     2   2   2   2   2   2   2   2
#     4  11  24  44  73 110 149 190 248 309 370 447
#     4  10  22  48  71 101 142 199 235 308 367 436
#     4  11  24  46  77  97 149 192 248 297 372 444
#     4  11  25  42  72 101 149 182 247 300 364 440
#     4  11  24  42  69 106 149 196 238 308 373 440
#     4  12  25  44  74 109 141 199 239 308 379 431
#     4  12  25  46  72 107 145 192 247 304 365 444
#     4  12  24  45  76 109 149 195 251 304 379 442
#
# _framework density 25.607012999999998
#
# number of rings (size 3 to 8) (size 9 to 14) (size 15 to 20)
#    0.000    0.750    3.750    4.125    3.500    1.000 
#    0.000    0.000    0.000    0.000    0.000    0.000 
#    0.000    0.000    0.000    0.000    0.000    0.000 
#
# Total GULP energy -198342.600875 kJ/mol
# GULP energy per Si atom -12396.412555 kJ/mol
# Density = 2.554873 g / cm^3
# Si number density = 25.607013 Si / 1000 Ang^3
#
#
#
# Elastic Constant Matrix: (Units=GPa)
#
#
# Indices 1 2 3 4 5 6 
#
# 1 135.3729 63.8505 46.4117 -0.3501 -25.0841 -2.3934
# 2 63.8505 140.4715 23.7514 -12.1572 1.0363 -11.4144
# 3 46.4117 23.7514 81.7318 -6.2620 -16.9965 -1.4486
# 4 -0.3501 -12.1572 -6.2620 32.8790 2.8796 1.4359
# 5 -25.0841 1.0363 -16.9965 2.8796 44.3771 2.4221
# 6 -2.3934 -11.4144 -1.4486 1.4359 2.4221 41.5688
#
#
#
# Elastic Compliance Matrix: (Units=1/GPa)
#
#
# Indices 1 2 3 4 5 6 
#
# 1 0.012505 -0.005306 -0.004640 -0.003161 0.005682 -0.001121
# 2 -0.005306 0.010165 -0.000385 0.003847 -0.003774 0.002559
# 3 -0.004640 -0.000385 0.015862 0.002544 0.003302 -0.000100
# 4 -0.003161 0.003847 0.002544 0.032552 -0.003015 0.000014
# 5 0.005682 -0.003774 0.003302 -0.003015 0.027408 -0.002087
# 6 -0.001121 0.002559 -0.000100 0.000014 -0.002087 0.024812
#
#
# Mechanical properties :
#
#
# Convention : Reuss Voigt Hill
#
# Bulk Modulus (GPa) = 55.96271 69.51148 62.73710
# Shear Modulus (GPa) = 33.35061 38.66915 36.00988
#
# Velocity S-wave (km/s) = 3.61280 3.89022 3.75407
# Velocity P-wave (km/s) = 6.26937 6.88352 6.58361
#
# Compressibility (1/GPa) = 0.01786904
#
# Stress axis : x y z
#
# Youngs Moduli (GPa) = 79.96612 98.37947 63.04561
#
# Poissons Ratio (x) = 0.52203 0.29251
# Poissons Ratio (y) = 0.42432 0.02429
# Poissons Ratio (z) = 0.37102 0.03791
#
# Static dielectric constant tensor:
#      x y z
#    x 5.093600 -0.142630 -0.400590 
#    y -0.142630 4.648040 0.203310 
#    z -0.400590 0.203310 4.475270 
# 
# 
# High freq. dielectric constant tensor:
#      x y z
#    x 2.039280 -0.006000 -0.019910 
#    y -0.006000 2.032760 0.001590 
#    z -0.019910 0.001590 1.996400 
# 
# From -- ./inp_files/532742.got.cif
#   From: 2010.06.25/outbox.cif.g09.slc.cpg/sg2_267_cif.got.tgz:532742.got - 2010.06.27 13:26:56.
