data_PCOD8022293
_publ_section_title
;
Structure prediction by ZEFSAII (Michael W. Deem and Ramdas Pophale) SiO2 
 PCOD8022293
Probable space group: P -1
;
_chemical_formula_sum "Si O2"
_cell_formula_units_Z 16
_cell_length_a 9.606333
_cell_length_b 9.815421
_cell_length_c 11.364841
_cell_angle_alpha 91.348741
_cell_angle_beta 77.867363
_cell_angle_gamma 45.080408
_cell_volume 718.598285
_symmetry_space_group_name_H-M "P -1"
_symmetry_group_IT_number 2
_symmetry_cell_setting 'triclinic'
loop_
_space_group_symop_operation_xyz
x,y,z
-x,-y,-z
loop_
_atom_site_type_symbol
_atom_site_label
_atom_site_fract_x
_atom_site_fract_y
_atom_site_fract_z
Si Si1 0.138286 0.038839 0.468640
Si Si2 0.270520 0.035546 0.689369
Si Si3 0.602572 0.743358 0.308959
Si Si4 0.149435 0.519385 0.957026
Si Si5 0.464695 0.386923 0.074901
Si Si6 0.873419 0.952104 0.034647
Si Si7 0.205637 0.614910 0.597651
Si Si8 0.504447 0.388231 0.336112
O O1 0.133146 0.119994 0.597109
O O2 0.037148 0.201074 0.386266
O O3 0.373297 0.847907 0.381370
O O4 0.000000 0.000000 0.500000
O O5 0.377174 0.108810 0.681286
O O6 0.136042 0.093609 0.829657
O O7 0.454876 0.797408 0.641769
O O8 0.664008 0.646432 0.167525
O O9 0.759537 0.563425 0.369427
O O10 0.251974 0.473202 0.065143
O O11 0.000000 0.500000 0.000000
O O12 0.005673 0.744218 0.938728
O O13 0.434975 0.451472 0.215730
O O14 0.645921 0.144966 0.026470
O O15 0.500000 0.500000 0.000000
O O16 0.000000 0.000000 0.000000
O O17 0.321944 0.570457 0.453962
O O18 0.286248 0.668148 0.681279
#
# Coordination Sequence:
#
# PCOD8022293 Si02
#       8
#     2   2   2   2   2   2   2   2
#     4  12  25  45  78 109 142 195 242 297 371 435
#     4  11  24  48  70 105 151 186 238 309 362 435
#     4  12  27  48  70 106 158 183 240 310 366 442
#     4  12  27  50  71 107 151 196 242 309 373 428
#     4  11  24  44  76 106 141 194 245 303 362 439
#     4  11  25  47  77 106 141 198 252 299 362 450
#     4  11  23  42  72 107 140 189 236 301 363 432
#     4  10  22  45  70 104 144 181 249 297 357 441
#
# _framework density 22.265567999999998
#
# number of rings (size 3 to 8) (size 9 to 14) (size 15 to 20)
#    0.000    0.750    5.000    1.875    3.500    3.000 
#    4.500    0.000    0.000    0.000    0.000    0.000 
#    0.000    0.000    0.000    0.000    0.000    0.000 
#
# Total GULP energy -198368.167202 kJ/mol
# GULP energy per Si atom -12398.010450 kJ/mol
# Density = 2.221489 g / cm^3
# Si number density = 22.265568 Si / 1000 Ang^3
#
#
#
# Elastic Constant Matrix: (Units=GPa)
#
#
# Indices 1 2 3 4 5 6 
#
# 1 135.9959 57.2969 56.8608 -8.2678 2.3857 11.3829
# 2 57.2969 143.4314 36.0957 -11.3684 5.3243 5.3160
# 3 56.8608 36.0957 109.7046 -11.0610 11.5650 -2.2149
# 4 -8.2678 -11.3684 -11.0610 41.5173 -2.9004 4.9732
# 5 2.3857 5.3243 11.5650 -2.9004 37.8974 -6.8192
# 6 11.3829 5.3160 -2.2149 4.9732 -6.8192 43.7104
#
#
#
# Elastic Compliance Matrix: (Units=1/GPa)
#
#
# Indices 1 2 3 4 5 6 
#
# 1 0.010833 -0.003040 -0.004702 0.000438 0.000741 -0.002624
# 2 -0.003040 0.008616 -0.001047 0.001497 -0.000691 -0.000587
# 3 -0.004702 -0.001047 0.012410 0.001717 -0.002975 0.001321
# 4 0.000438 0.001497 0.001717 0.025446 0.000645 -0.003004
# 5 0.000741 -0.000691 -0.002975 0.000645 0.028124 0.004054
# 6 -0.002624 -0.000587 0.001321 -0.003004 0.004054 0.024674
#
#
# Mechanical properties :
#
#
# Convention : Reuss Voigt Hill
#
# Bulk Modulus (GPa) = 70.02020 76.62654 73.32337
# Shear Modulus (GPa) = 37.75266 40.55024 39.15145
#
# Velocity S-wave (km/s) = 4.12219 4.27219 4.19786
# Velocity P-wave (km/s) = 7.36020 7.66975 7.51657
#
# Compressibility (1/GPa) = 0.01428159
#
# Stress axis : x y z
#
# Youngs Moduli (GPa) = 92.31177 116.06400 80.57834
#
# Poissons Ratio (x) = 0.35281 0.37884
# Poissons Ratio (y) = 0.28061 0.08440
# Poissons Ratio (z) = 0.43400 0.12157
#
# Static dielectric constant tensor:
#      x y z
#    x 3.726670 0.116820 -0.168340 
#    y 0.116820 4.364120 0.239680 
#    z -0.168340 0.239680 3.530840 
# 
# 
# High freq. dielectric constant tensor:
#      x y z
#    x 1.863040 0.005490 0.000320 
#    y 0.005490 1.893760 -0.002260 
#    z 0.000320 -0.002260 1.882600 
# 
# From -- ./inp_files/382267.got.cif
#   From: 2010.06.25/outbox.cif.g09.slc.cpg/sg2_192_cif.got.tgz:382267.got - 2010.06.27 13:26:56.
