data_PCOD8022218
_publ_section_title
;
Structure prediction by ZEFSAII (Michael W. Deem and Ramdas Pophale) SiO2 
 PCOD8022218
Probable space group: P -1
;
_chemical_formula_sum "Si O2"
_cell_formula_units_Z 12
_cell_length_a 9.566109
_cell_length_b 18.225678
_cell_length_c 5.649123
_cell_angle_alpha 64.126252
_cell_angle_beta 83.936828
_cell_angle_gamma 41.300636
_cell_volume 542.400135
_symmetry_space_group_name_H-M "P -1"
_symmetry_group_IT_number 2
_symmetry_cell_setting 'triclinic'
loop_
_space_group_symop_operation_xyz
x,y,z
-x,-y,-z
loop_
_atom_site_type_symbol
_atom_site_label
_atom_site_fract_x
_atom_site_fract_y
_atom_site_fract_z
Si Si1 0.467645 0.639736 0.684125
Si Si2 0.423948 0.971207 0.255028
Si Si3 0.926478 0.444687 0.652978
Si Si4 0.835552 0.780296 0.761771
Si Si5 0.136320 0.942708 0.304052
Si Si6 0.712741 0.435605 0.295905
O O1 0.722034 0.554659 0.714464
O O2 0.299641 0.791194 0.504294
O O3 0.386214 0.608423 0.547147
O O4 0.495440 0.582844 0.014873
O O5 0.656281 0.830633 0.527853
O O6 0.280592 0.959028 0.214376
O O7 0.260160 0.091290 0.301242
O O8 0.500000 0.000000 0.000000
O O9 0.833184 0.433228 0.474160
O O10 0.000000 0.500000 0.500000
O O11 0.144673 0.299008 0.931048
O O12 0.089555 0.679615 0.763995
O O13 0.000000 0.000000 0.500000
O O14 0.000000 0.000000 0.000000
#
# Coordination Sequence:
#
# PCOD8022218 Si02
#       6
#     2   2   2   2   2   2
#     4  10  25  43  69  98 136 188 234 297 359 431
#     4  11  26  45  74 101 146 195 247 301 371 440
#     4  11  25  39  70 103 137 182 236 304 362 435
#     4  10  24  42  71  98 139 185 244 294 372 433
#     4  12  31  49  76 109 151 193 250 307 367 442
#     4  10  22  45  68  95 138 180 239 291 367 432
#
# _framework density 22.123888000000001
#
# number of rings (size 3 to 8) (size 9 to 14) (size 15 to 20)
#    0.000    1.333    0.000    2.500   18.667    1.333 
#    0.000    0.000    0.000    0.000    0.000    0.000 
#    0.000    0.000    0.000    0.000    0.000    0.000 
#
# Total GULP energy -148689.098006 kJ/mol
# GULP energy per Si atom -12390.758167 kJ/mol
# Density = 2.207353 g / cm^3
# Si number density = 22.123888 Si / 1000 Ang^3
#
#
#
# Elastic Constant Matrix: (Units=GPa)
#
#
# Indices 1 2 3 4 5 6 
#
# 1 188.4372 32.3581 85.7682 -8.6803 -6.0970 6.5747
# 2 32.3581 74.2107 53.0842 -24.8485 0.7627 6.7369
# 3 85.7682 53.0842 167.3190 -24.6046 13.1789 9.6152
# 4 -8.6803 -24.8485 -24.6046 44.9264 0.9137 -0.1697
# 5 -6.0970 0.7627 13.1789 0.9137 42.1033 -0.2442
# 6 6.5747 6.7369 9.6152 -0.1697 -0.2442 27.2484
#
#
#
# Elastic Compliance Matrix: (Units=1/GPa)
#
#
# Indices 1 2 3 4 5 6 
#
# 1 0.007187 -0.000850 -0.003756 -0.001185 0.002256 -0.000186
# 2 -0.000850 0.020274 -0.004629 0.008487 0.000756 -0.003114
# 3 -0.003756 -0.004629 0.010087 0.002308 -0.003676 -0.001527
# 4 -0.001185 0.008487 0.002308 0.028012 -0.001670 -0.002467
# 5 0.002256 0.000756 -0.003676 -0.001670 0.025256 0.000782
# 6 -0.000186 -0.003114 -0.001527 -0.002467 0.000782 0.038045
#
#
# Mechanical properties :
#
#
# Convention : Reuss Voigt Hill
#
# Bulk Modulus (GPa) = 52.41646 85.82087 69.11867
# Shear Modulus (GPa) = 32.53318 40.10605 36.31962
#
# Velocity S-wave (km/s) = 3.83887 4.26231 4.05612
# Velocity P-wave (km/s) = 6.58733 7.94344 7.29696
#
# Compressibility (1/GPa) = 0.01907798
#
# Stress axis : x y z
#
# Youngs Moduli (GPa) = 139.13710 49.32521 99.13796
#
# Poissons Ratio (x) = 0.04195 0.37233
# Poissons Ratio (y) = 0.11834 0.45888
# Poissons Ratio (z) = 0.52255 0.22831
#
# Static dielectric constant tensor:
#      x y z
#    x 4.194630 -0.178930 0.085220 
#    y -0.178930 4.186870 -0.039650 
#    z 0.085220 -0.039650 4.363420 
# 
# 
# High freq. dielectric constant tensor:
#      x y z
#    x 1.882800 -0.004470 0.002480 
#    y -0.004470 1.877080 -0.012130 
#    z 0.002480 -0.012130 1.879230 
# 
# From -- ./inp_files/20920.got.cif
#   From: 2010.06.25/outbox.cif.g09.slc.cpg/sg2_11_cif.got.tgz:20920.got - 2010.06.27 13:26:56.
