data_PCOD8022744
_publ_section_title
;
Structure prediction by ZEFSAII (Michael W. Deem and Ramdas Pophale) SiO2 
 PCOD8022744
Probable space group: P -1
;
_chemical_formula_sum "Si O2"
_cell_formula_units_Z 16
_cell_length_a 14.377202
_cell_length_b 14.281875
_cell_length_c 11.544414
_cell_angle_alpha 45.548270
_cell_angle_beta 149.969987
_cell_angle_gamma 115.165555
_cell_volume 730.001703
_symmetry_space_group_name_H-M "P -1"
_symmetry_group_IT_number 2
_symmetry_cell_setting 'triclinic'
loop_
_space_group_symop_operation_xyz
x,y,z
-x,-y,-z
loop_
_atom_site_type_symbol
_atom_site_label
_atom_site_fract_x
_atom_site_fract_y
_atom_site_fract_z
Si Si1 0.920607 0.034057 0.115641
Si Si2 0.655914 0.024923 0.485697
Si Si3 0.519112 0.816497 0.617556
Si Si4 0.804244 0.236147 0.205938
Si Si5 0.692241 0.542306 0.886362
Si Si6 0.524269 0.877450 0.037897
Si Si7 0.740281 0.330687 0.800076
Si Si8 0.106267 0.452998 0.277384
O O1 0.709805 0.068474 0.788825
O O2 0.897496 0.178145 0.033656
O O3 0.117361 0.983454 0.282314
O O4 0.974164 0.902309 0.383289
O O5 0.514328 0.169935 0.291776
O O6 0.684053 0.872887 0.708542
O O7 0.532353 0.044293 0.215837
O O8 0.612800 0.642237 0.831466
O O9 0.720624 0.376529 0.084700
O O10 0.639324 0.178565 0.055840
O O11 0.827646 0.304366 0.049350
O O12 0.508993 0.628713 0.513393
O O13 0.919766 0.523604 0.111663
O O14 0.761633 0.729942 0.413791
O O15 0.500000 0.000000 0.000000
O O16 0.746907 0.469118 0.622427
O O17 0.000000 0.500000 0.000000
#
# Coordination Sequence:
#
# PCOD8022744 Si02
#       8
#     2   2   2   2   2   2   2   2
#     4  10  23  38  66  91 123 163 211 260 315 366
#     4  10  23  44  65  93 125 160 220 258 306 379
#     4  10  23  43  70  87 122 171 210 262 311 367
#     4  11  22  39  59  95 133 161 207 261 311 380
#     4  11  23  39  62  90 126 166 215 251 315 368
#     4  11  27  41  65  95 132 165 206 262 319 372
#     4  11  22  39  59  92 132 165 207 254 312 382
#     4  12  24  37  63  91 128 171 202 257 312 377
#
# _framework density 21.917757000000002
#
# number of rings (size 3 to 8) (size 9 to 14) (size 15 to 20)
#    0.000    1.250    2.500    2.625   10.500    0.000 
#    0.000    3.125    2.750    0.000    0.000    0.000 
#    0.000    0.000    0.000    0.000    0.000    0.000 
#
# Total GULP energy -198379.116417 kJ/mol
# GULP energy per Si atom -12398.694776 kJ/mol
# Density = 2.186787 g / cm^3
# Si number density = 21.917757 Si / 1000 Ang^3
#
#
#
# Elastic Constant Matrix: (Units=GPa)
#
#
# Indices 1 2 3 4 5 6 
#
# 1 106.5152 49.7199 34.5124 -9.5808 8.3344 -9.7733
# 2 49.7199 129.8506 26.3132 -26.0834 4.6291 -18.1470
# 3 34.5124 26.3132 76.9120 -12.4594 12.7337 -10.2862
# 4 -9.5808 -26.0834 -12.4594 38.4563 -1.8409 5.0513
# 5 8.3344 4.6291 12.7337 -1.8409 25.0772 -0.1699
# 6 -9.7733 -18.1470 -10.2862 5.0513 -0.1699 43.1917
#
#
#
# Elastic Compliance Matrix: (Units=1/GPa)
#
#
# Indices 1 2 3 4 5 6 
#
# 1 0.012724 -0.004158 -0.004200 -0.001112 -0.001409 0.000256
# 2 -0.004158 0.010982 -0.000577 0.005855 0.000097 0.002851
# 3 -0.004200 -0.000577 0.017117 0.003455 -0.006919 0.002452
# 4 -0.001112 0.005855 0.003455 0.030884 -0.000202 -0.000581
# 5 -0.001409 0.000097 -0.006919 -0.000202 0.043814 -0.001730
# 6 0.000256 0.002851 0.002452 -0.000581 -0.001730 0.025054
#
#
# Mechanical properties :
#
#
# Convention : Reuss Voigt Hill
#
# Bulk Modulus (GPa) = 43.56910 59.37432 51.47171
# Shear Modulus (GPa) = 30.10331 34.86054 32.48192
#
# Velocity S-wave (km/s) = 3.71005 3.99245 3.85384
# Velocity P-wave (km/s) = 6.18662 6.95711 6.58314
#
# Compressibility (1/GPa) = 0.02295204
#
# Stress axis : x y z
#
# Youngs Moduli (GPa) = 78.59300 91.06182 58.42162
#
# Poissons Ratio (x) = 0.37866 0.24534
# Poissons Ratio (y) = 0.32681 0.03373
# Poissons Ratio (z) = 0.33005 0.05257
#
# Static dielectric constant tensor:
#      x y z
#    x 4.003130 0.255190 0.072010 
#    y 0.255190 4.391130 -0.153800 
#    z 0.072010 -0.153800 3.932130 
# 
# 
# High freq. dielectric constant tensor:
#      x y z
#    x 1.849230 0.004630 0.018940 
#    y 0.004630 1.875020 -0.004680 
#    z 0.018940 -0.004680 1.852300 
# 
# From -- ./inp_files/455508.got.cif
#   From: 2010.06.25/outbox.cif.g09.slc.cpg/sg2_228_cif.got.tgz:455508.got - 2010.06.27 13:26:56.
