data_PCOD8022837
_publ_section_title
;
Structure prediction by ZEFSAII (Michael W. Deem and Ramdas Pophale) SiO2 
 PCOD8022837
Probable space group: P -1
;
_chemical_formula_sum "Si O2"
_cell_formula_units_Z 16
_cell_length_a 8.499370
_cell_length_b 15.710294
_cell_length_c 18.578993
_cell_angle_alpha 23.186563
_cell_angle_beta 139.414948
_cell_angle_gamma 138.863084
_cell_volume 620.612965
_symmetry_space_group_name_H-M "P -1"
_symmetry_group_IT_number 2
_symmetry_cell_setting 'triclinic'
loop_
_space_group_symop_operation_xyz
x,y,z
-x,-y,-z
loop_
_atom_site_type_symbol
_atom_site_label
_atom_site_fract_x
_atom_site_fract_y
_atom_site_fract_z
Si Si1 0.778991 0.857356 0.984835
Si Si2 0.648020 0.362979 0.284596
Si Si3 0.194442 0.820516 0.379620
Si Si4 0.914490 0.702563 0.849526
Si Si5 0.295069 0.286434 0.630747
Si Si6 0.399794 0.855991 0.971402
Si Si7 0.483822 0.432377 0.400561
Si Si8 0.998430 0.178271 0.466663
O O1 0.798792 0.600354 0.182955
O O2 0.519010 0.871577 0.920871
O O3 0.765778 0.945368 0.830365
O O4 0.000000 0.000000 0.000000
O O5 0.660263 0.176276 0.495594
O O6 0.758039 0.287975 0.305370
O O7 0.365813 0.374214 0.160929
O O8 0.299216 0.660125 0.487035
O O9 0.902730 0.739534 0.351892
O O10 0.099639 0.781414 0.918873
O O11 0.931873 0.914020 0.637374
O O12 0.000000 0.500000 0.000000
O O13 0.467293 0.531624 0.522525
O O14 0.135956 0.258429 0.526104
O O15 0.458379 0.097713 0.840284
O O16 0.510548 0.683407 0.189305
O O17 0.209566 0.287738 0.396881
#
# Coordination Sequence:
#
# PCOD8022837 Si02
#       8
#     2   2   2   2   2   2   2   2
#     4  12  26  41  70 102 138 171 221 271 336 398
#     4  11  25  47  68  96 136 178 219 281 324 389
#     4  11  24  42  66 101 130 178 222 258 338 395
#     4  11  21  47  68  89 132 174 225 280 327 385
#     4  10  23  39  65  93 142 171 214 277 329 397
#     4  11  24  44  63 103 132 177 220 276 327 395
#     4  12  22  40  65 100 136 174 219 270 336 399
#     4  10  25  40  66  98 125 175 228 269 335 393
#
# _framework density 25.780961999999999
#
# number of rings (size 3 to 8) (size 9 to 14) (size 15 to 20)
#    0.000    1.000    2.500    3.750    7.000    0.000 
#    2.250    2.500    0.000    0.000    0.000    0.000 
#    0.000    0.000    0.000    0.000    0.000    0.000 
#
# Total GULP energy -198252.550930 kJ/mol
# GULP energy per Si atom -12390.784433 kJ/mol
# Density = 2.572228 g / cm^3
# Si number density = 25.780962 Si / 1000 Ang^3
#
#
#
# Elastic Constant Matrix: (Units=GPa)
#
#
# Indices 1 2 3 4 5 6 
#
# 1 80.4976 8.6827 33.8894 -13.0254 31.3889 9.3048
# 2 8.6827 74.8457 16.3771 -11.0421 7.9178 15.2791
# 3 33.8894 16.3771 104.7828 -14.2294 24.3316 13.3656
# 4 -13.0254 -11.0421 -14.2294 43.2337 -9.1447 1.7285
# 5 31.3889 7.9178 24.3316 -9.1447 45.6487 3.3969
# 6 9.3048 15.2791 13.3656 1.7285 3.3969 26.5880
#
#
#
# Elastic Compliance Matrix: (Units=1/GPa)
#
#
# Indices 1 2 3 4 5 6 
#
# 1 0.018579 0.000899 -0.002735 0.002872 -0.010565 -0.004481
# 2 0.000899 0.016084 -0.000701 0.004202 -0.001502 -0.009287
# 3 -0.002735 -0.000701 0.012312 0.002439 -0.003736 -0.004511
# 4 0.002872 0.004202 0.002439 0.026516 0.001799 -0.006600
# 5 -0.010565 -0.001502 -0.003736 0.001799 0.031614 0.002282
# 6 -0.004481 -0.009287 -0.004511 -0.006600 0.002282 0.046921
#
#
# Mechanical properties :
#
#
# Convention : Reuss Voigt Hill
#
# Bulk Modulus (GPa) = 23.86485 42.00272 32.93379
# Shear Modulus (GPa) = 29.22847 36.50589 32.86718
#
# Velocity S-wave (km/s) = 3.37073 3.76706 3.57440
# Velocity P-wave (km/s) = 4.94227 5.93705 5.46235
#
# Compressibility (1/GPa) = 0.04190263
#
# Stress axis : x y z
#
# Youngs Moduli (GPa) = 53.82311 62.17183 81.22354
#
# Poissons Ratio (x) = -0.05590 0.22212
# Poissons Ratio (y) = -0.04839 0.05692
# Poissons Ratio (z) = 0.14719 0.04357
#
# Static dielectric constant tensor:
#      x y z
#    x 5.384910 0.561660 0.058050 
#    y 0.561660 4.682960 -0.305810 
#    z 0.058050 -0.305810 4.821820 
# 
# 
# High freq. dielectric constant tensor:
#      x y z
#    x 2.043290 0.017390 0.016480 
#    y 0.017390 2.026900 -0.010750 
#    z 0.016480 -0.010750 2.029450 
# 
# From -- ./inp_files/405598.got.cif
#   From: 2010.06.25/outbox.cif.g09.slc.cpg/sg2_203_cif.got.tgz:405598.got - 2010.06.27 13:26:56.
