data_PCOD8022735
_publ_section_title
;
Structure prediction by ZEFSAII (Michael W. Deem and Ramdas Pophale) SiO2 
 PCOD8022735
Probable space group: P -1
;
_chemical_formula_sum "Si O2"
_cell_formula_units_Z 16
_cell_length_a 8.432778
_cell_length_b 13.527804
_cell_length_c 12.174211
_cell_angle_alpha 61.744749
_cell_angle_beta 123.269335
_cell_angle_gamma 73.452159
_cell_volume 688.689407
_symmetry_space_group_name_H-M "P -1"
_symmetry_group_IT_number 2
_symmetry_cell_setting 'triclinic'
loop_
_space_group_symop_operation_xyz
x,y,z
-x,-y,-z
loop_
_atom_site_type_symbol
_atom_site_label
_atom_site_fract_x
_atom_site_fract_y
_atom_site_fract_z
Si Si1 0.852938 0.938397 0.621570
Si Si2 0.283991 0.676298 0.766020
Si Si3 0.066210 0.701873 0.328077
Si Si4 0.768929 0.001979 0.917652
Si Si5 0.268906 0.162891 0.187244
Si Si6 0.092876 0.520708 0.250717
Si Si7 0.600306 0.264544 0.436658
Si Si8 0.113471 0.314952 0.512247
O O1 0.854656 0.818741 0.750391
O O2 0.146729 0.819148 0.729935
O O3 0.597930 0.045848 0.381495
O O4 0.811271 0.065284 0.618941
O O5 0.455711 0.672499 0.743150
O O6 0.015192 0.736503 0.571694
O O7 0.500000 0.500000 0.000000
O O8 0.194590 0.579899 0.335798
O O9 0.305363 0.670694 0.490831
O O10 0.954428 0.661459 0.396512
O O11 0.820651 0.896736 0.096413
O O12 0.450275 0.186283 0.700803
O O13 0.807671 0.911601 0.872621
O O14 0.000000 0.000000 0.000000
O O15 0.136611 0.333884 0.998661
O O16 0.317480 0.356706 0.345822
O O17 0.965739 0.485292 0.306066
#
# Coordination Sequence:
#
# PCOD8022735 Si02
#       8
#     2   2   2   2   2   2   2   2
#     4  11  22  43  65  96 139 170 233 273 335 396
#     4  11  25  44  66  99 140 176 221 278 338 402
#     4  10  23  42  64  99 136 178 224 283 334 399
#     4  11  21  41  69 100 131 178 229 274 341 400
#     4  10  23  38  65  99 129 180 218 285 328 397
#     4  11  23  41  66  95 136 174 233 270 346 393
#     4  11  24  41  68  99 130 185 223 280 333 402
#     4  11  23  42  66  98 136 177 223 281 342 396
#
# _framework density 23.232534000000001
#
# number of rings (size 3 to 8) (size 9 to 14) (size 15 to 20)
#    0.000    1.250    1.250    4.500    3.500    1.500 
#    0.000    3.750    0.000    0.000    0.000    0.000 
#    0.000    0.000    0.000    0.000    0.000    0.000 
#
# Total GULP energy -198266.663259 kJ/mol
# GULP energy per Si atom -12391.666454 kJ/mol
# Density = 2.317966 g / cm^3
# Si number density = 23.232534 Si / 1000 Ang^3
#
#
#
# Elastic Constant Matrix: (Units=GPa)
#
#
# Indices 1 2 3 4 5 6 
#
# 1 108.9064 35.6404 56.7177 -3.7547 -26.9474 -10.6784
# 2 35.6404 110.3411 32.5984 -13.8849 -0.3052 -13.7924
# 3 56.7177 32.5984 97.9116 -6.2457 -36.4218 -22.4114
# 4 -3.7547 -13.8849 -6.2457 29.0694 8.0038 4.1703
# 5 -26.9474 -0.3052 -36.4218 8.0038 54.5637 1.8611
# 6 -10.6784 -13.7924 -22.4114 4.1703 1.8611 36.5953
#
#
#
# Elastic Compliance Matrix: (Units=1/GPa)
#
#
# Indices 1 2 3 4 5 6 
#
# 1 0.014054 -0.002970 -0.006360 -0.001657 0.002952 -0.000875
# 2 -0.002970 0.011819 -0.003226 0.005613 -0.004418 0.001197
# 3 -0.006360 -0.003226 0.021067 -0.002204 0.010902 0.009527
# 4 -0.001657 0.005613 -0.002204 0.039101 -0.007865 -0.003774
# 5 0.002952 -0.004418 0.010902 -0.007865 0.028009 0.005344
# 6 -0.000875 0.001197 0.009527 -0.003774 0.005344 0.033514
#
#
# Mechanical properties :
#
#
# Convention : Reuss Voigt Hill
#
# Bulk Modulus (GPa) = 45.81420 63.00801 54.41110
# Shear Modulus (GPa) = 27.78518 36.85918 32.32218
#
# Velocity S-wave (km/s) = 3.46202 3.98745 3.73399
# Velocity P-wave (km/s) = 5.97858 6.95551 6.48547
#
# Compressibility (1/GPa) = 0.02182729
#
# Stress axis : x y z
#
# Youngs Moduli (GPa) = 71.15413 84.60958 47.46801
#
# Poissons Ratio (x) = 0.25131 0.30191
# Poissons Ratio (y) = 0.21134 0.15313
# Poissons Ratio (z) = 0.45255 0.27294
#
# Static dielectric constant tensor:
#      x y z
#    x 4.176930 -0.086270 -0.341280 
#    y -0.086270 4.180150 0.132610 
#    z -0.341280 0.132610 4.272420 
# 
# 
# High freq. dielectric constant tensor:
#      x y z
#    x 1.916140 0.000140 -0.027480 
#    y 0.000140 1.918730 0.009200 
#    z -0.027480 0.009200 1.918310 
# 
# From -- ./inp_files/398815.got.cif
#   From: 2010.06.25/outbox.cif.g09.slc.cpg/sg2_200_cif.got.tgz:398815.got - 2010.06.27 13:26:56.
