data_PCOD8022464
_publ_section_title
;
Structure prediction by ZEFSAII (Michael W. Deem and Ramdas Pophale) SiO2 
 PCOD8022464
Probable space group: P -1
;
_chemical_formula_sum "Si O2"
_cell_formula_units_Z 16
_cell_length_a 8.667257
_cell_length_b 11.995795
_cell_length_c 21.917723
_cell_angle_alpha 28.122691
_cell_angle_beta 39.425702
_cell_angle_gamma 46.606523
_cell_volume 682.034352
_symmetry_space_group_name_H-M "P -1"
_symmetry_group_IT_number 2
_symmetry_cell_setting 'triclinic'
loop_
_space_group_symop_operation_xyz
x,y,z
-x,-y,-z
loop_
_atom_site_type_symbol
_atom_site_label
_atom_site_fract_x
_atom_site_fract_y
_atom_site_fract_z
Si Si1 0.043385 0.055377 0.030667
Si Si2 0.528495 0.312548 0.744643
Si Si3 0.708216 0.391778 0.052313
Si Si4 0.571885 0.263655 0.280176
Si Si5 0.765968 0.794532 0.756923
Si Si6 0.696539 0.197149 0.409077
Si Si7 0.153398 0.600577 0.287832
Si Si8 0.320280 0.688542 0.431798
O O1 0.839271 0.221646 0.044564
O O2 0.033718 0.800606 0.186578
O O3 0.299508 0.176813 0.907385
O O4 0.000000 0.000000 0.000000
O O5 0.478436 0.592148 0.617715
O O6 0.765455 0.280631 0.730406
O O7 0.577831 0.217468 0.708395
O O8 0.766278 0.331603 0.134759
O O9 0.417306 0.351140 0.158604
O O10 0.760106 0.665511 0.888083
O O11 0.720122 0.191503 0.330647
O O12 0.395662 0.488205 0.238181
O O13 0.412069 0.041899 0.415538
O O14 0.037873 0.765364 0.661433
O O15 0.694655 0.070911 0.641535
O O16 0.948544 0.406031 0.452935
O O17 0.500000 0.500000 0.500000
#
# Coordination Sequence:
#
# PCOD8022464 Si02
#       8
#     2   2   2   2   2   2   2   2
#     4  12  26  47  67 101 141 178 223 280 335 408
#     4  11  25  45  70  97 136 180 226 279 340 404
#     4  11  26  43  67 100 132 179 224 271 337 401
#     4  10  24  43  71  99 135 172 224 278 333 401
#     4  11  24  44  65  97 133 175 225 273 336 393
#     4  10  22  46  68  99 134 174 223 281 331 393
#     4  11  25  45  69 100 134 179 226 279 344 397
#     4  12  26  45  68 103 135 179 226 283 340 403
#
# _framework density 23.459230000000002
#
# number of rings (size 3 to 8) (size 9 to 14) (size 15 to 20)
#    0.000    1.000    2.500    3.000    8.750    3.000 
#    0.000    0.000    0.000    0.000    0.000    0.000 
#    0.000    0.000    0.000    0.000    0.000    0.000 
#
# Total GULP energy -198397.204248 kJ/mol
# GULP energy per Si atom -12399.825265 kJ/mol
# Density = 2.340584 g / cm^3
# Si number density = 23.459230 Si / 1000 Ang^3
#
#
#
# Elastic Constant Matrix: (Units=GPa)
#
#
# Indices 1 2 3 4 5 6 
#
# 1 68.5951 15.2366 10.5127 4.1293 -6.8961 -8.1736
# 2 15.2366 62.3680 7.6909 1.2115 13.8151 -7.4754
# 3 10.5127 7.6909 89.8713 -11.1175 2.4700 -10.2249
# 4 4.1293 1.2115 -11.1175 40.0513 -0.8609 6.4200
# 5 -6.8961 13.8151 2.4700 -0.8609 49.6099 1.4412
# 6 -8.1736 -7.4754 -10.2249 6.4200 1.4412 28.8210
#
#
#
# Elastic Compliance Matrix: (Units=1/GPa)
#
#
# Indices 1 2 3 4 5 6 
#
# 1 0.016656 -0.004162 -0.001603 -0.002519 0.003410 0.003466
# 2 -0.004162 0.018958 -0.000647 -0.001101 -0.005963 0.004051
# 3 -0.001603 -0.000647 0.012110 0.003046 -0.000681 0.003029
# 4 -0.002519 -0.001101 0.003046 0.027074 0.000448 -0.005972
# 5 0.003410 -0.005963 -0.000681 0.000448 0.022393 -0.002041
# 6 0.003466 0.004051 0.003029 -0.005972 -0.002041 0.039238
#
#
# Mechanical properties :
#
#
# Convention : Reuss Voigt Hill
#
# Bulk Modulus (GPa) = 28.65381 31.96830 30.31106
# Shear Modulus (GPa) = 31.07788 36.18937 33.63363
#
# Velocity S-wave (km/s) = 3.64368 3.93192 3.79054
# Velocity P-wave (km/s) = 5.47199 5.85406 5.66625
#
# Compressibility (1/GPa) = 0.03489937
#
# Stress axis : x y z
#
# Youngs Moduli (GPa) = 60.03862 52.74760 82.57570
#
# Poissons Ratio (x) = 0.21955 0.13238
# Poissons Ratio (y) = 0.24990 0.05343
# Poissons Ratio (z) = 0.09625 0.03413
#
# Static dielectric constant tensor:
#      x y z
#    x 4.238410 -0.020900 0.032070 
#    y -0.020900 4.019380 -0.040430 
#    z 0.032070 -0.040430 4.390640 
# 
# 
# High freq. dielectric constant tensor:
#      x y z
#    x 1.930530 -0.004950 -0.001280 
#    y -0.004950 1.914400 -0.006660 
#    z -0.001280 -0.006660 1.943690 
# 
# From -- ./inp_files/186646.got.cif
#   From: 2010.06.25/outbox.cif.g09.slc.cpg/sg2_94_cif.got.tgz:186646.got - 2010.06.27 13:26:56.
