data_PCOD8022288
_publ_section_title
;
Structure prediction by ZEFSAII (Michael W. Deem and Ramdas Pophale) SiO2 
 PCOD8022288
Probable space group: P -1
;
_chemical_formula_sum "Si O2"
_cell_formula_units_Z 16
_cell_length_a 27.037622
_cell_length_b 13.052145
_cell_length_c 6.433806
_cell_angle_alpha 41.668109
_cell_angle_beta 49.995213
_cell_angle_gamma 27.280689
_cell_volume 690.201124
_symmetry_space_group_name_H-M "P -1"
_symmetry_group_IT_number 2
_symmetry_cell_setting 'triclinic'
loop_
_space_group_symop_operation_xyz
x,y,z
-x,-y,-z
loop_
_atom_site_type_symbol
_atom_site_label
_atom_site_fract_x
_atom_site_fract_y
_atom_site_fract_z
Si Si1 0.263519 0.549943 0.211272
Si Si2 0.238107 0.098238 0.381704
Si Si3 0.115903 0.042099 0.636610
Si Si4 0.931780 0.312759 0.988495
Si Si5 0.340197 0.096325 0.787647
Si Si6 0.512666 0.844526 0.028325
Si Si7 0.122713 0.920587 0.380218
Si Si8 0.567332 0.243953 0.327494
O O1 0.246513 0.399575 0.524765
O O2 0.232680 0.699658 0.281455
O O3 0.178419 0.764992 0.943899
O O4 0.382058 0.356493 0.095651
O O5 0.161629 0.097976 0.560675
O O6 0.324656 0.897627 0.635331
O O7 0.172043 0.379566 0.181794
O O8 0.296852 0.021265 0.119513
O O9 0.134276 0.030763 0.357880
O O10 0.989862 0.252178 0.708026
O O11 0.897261 0.201640 0.259707
O O12 0.020795 0.170430 0.142408
O O13 0.401955 0.943803 0.639104
O O14 0.414128 0.046652 0.828085
O O15 0.508713 0.688107 0.395309
O O16 0.500000 0.000000 0.000000
O O17 0.500000 0.500000 0.000000
#
# Coordination Sequence:
#
# PCOD8022288 Si02
#       8
#     2   2   2   2   2   2   2   2
#     4  11  24  41  68 102 137 178 233 284 346 412
#     4  11  26  46  70 103 143 185 235 284 351 422
#     4  11  26  40  72 106 141 182 236 291 339 419
#     4  10  22  45  70 103 141 179 237 284 354 416
#     4  11  25  43  67 100 136 190 229 285 353 413
#     4  11  25  42  69 100 130 177 240 290 334 417
#     4  10  23  43  71 104 141 182 228 294 345 415
#     4  11  28  46  70  99 143 188 228 290 354 411
#
# _framework density 23.181650000000001
#
# number of rings (size 3 to 8) (size 9 to 14) (size 15 to 20)
#    0.000    1.250    2.500    1.125    7.000    4.500 
#    0.000    0.000    0.000    0.000    0.000    0.000 
#    0.000    0.000    0.000    0.000    0.000    0.000 
#
# Total GULP energy -198321.688882 kJ/mol
# GULP energy per Si atom -12395.105555 kJ/mol
# Density = 2.312889 g / cm^3
# Si number density = 23.181650 Si / 1000 Ang^3
#
#
#
# Elastic Constant Matrix: (Units=GPa)
#
#
# Indices 1 2 3 4 5 6 
#
# 1 79.2720 30.1597 19.8259 9.2694 5.2742 5.6823
# 2 30.1597 105.7571 36.5823 17.6822 7.2051 -4.7291
# 3 19.8259 36.5823 101.7389 -1.8076 3.6287 -2.4300
# 4 9.2694 17.6822 -1.8076 51.0666 -0.5693 1.8745
# 5 5.2742 7.2051 3.6287 -0.5693 21.7999 10.1973
# 6 5.6823 -4.7291 -2.4300 1.8745 10.1973 30.8865
#
#
#
# Elastic Compliance Matrix: (Units=1/GPa)
#
#
# Indices 1 2 3 4 5 6 
#
# 1 0.014801 -0.003475 -0.001706 -0.001440 -0.000759 -0.003051
# 2 -0.003475 0.012983 -0.003791 -0.004207 -0.004894 0.004200
# 3 -0.001706 -0.003791 0.011596 0.002001 -0.000541 0.000703
# 4 -0.001440 -0.004207 0.002001 0.021501 0.003171 -0.002574
# 5 -0.000759 -0.004894 -0.000541 0.003171 0.057051 -0.019680
# 6 -0.003051 0.004200 0.000703 -0.002574 -0.019680 0.040290
#
#
# Mechanical properties :
#
#
# Convention : Reuss Voigt Hill
#
# Bulk Modulus (GPa) = 46.65013 51.10042 48.87528
# Shear Modulus (GPa) = 27.27589 34.09726 30.68658
#
# Velocity S-wave (km/s) = 3.43390 3.83936 3.64228
# Velocity P-wave (km/s) = 5.99080 6.46108 6.23038
#
# Compressibility (1/GPa) = 0.02143617
#
# Stress axis : x y z
#
# Youngs Moduli (GPa) = 67.56233 77.02665 86.23403
#
# Poissons Ratio (x) = 0.26764 0.14714
# Poissons Ratio (y) = 0.23476 0.32691
# Poissons Ratio (z) = 0.11528 0.29200
#
# Static dielectric constant tensor:
#      x y z
#    x 3.852760 0.015060 0.090440 
#    y 0.015060 4.376660 0.213940 
#    z 0.090440 0.213940 4.464940 
# 
# 
# High freq. dielectric constant tensor:
#      x y z
#    x 1.896700 0.002910 0.007440 
#    y 0.002910 1.923400 0.011410 
#    z 0.007440 0.011410 1.932520 
# 
# From -- ./inp_files/126808.got.cif
#   From: 2010.06.25/outbox.cif.g09.slc.cpg/sg2_64_cif.got.tgz:126808.got - 2010.06.27 13:26:56.
