data_PCOD8022178
_publ_section_title
;
Structure prediction by ZEFSAII (Michael W. Deem and Ramdas Pophale) SiO2 
 PCOD8022178
Probable space group: P -1
;
_chemical_formula_sum "Si O2"
_cell_formula_units_Z 16
_cell_length_a 8.554321
_cell_length_b 16.051933
_cell_length_c 19.662878
_cell_angle_alpha 159.300049
_cell_angle_beta 56.755895
_cell_angle_gamma 129.591238
_cell_volume 723.960779
_symmetry_space_group_name_H-M "P -1"
_symmetry_group_IT_number 2
_symmetry_cell_setting 'triclinic'
loop_
_space_group_symop_operation_xyz
x,y,z
-x,-y,-z
loop_
_atom_site_type_symbol
_atom_site_label
_atom_site_fract_x
_atom_site_fract_y
_atom_site_fract_z
Si Si1 0.417828 0.563573 0.340850
Si Si2 0.666541 0.306798 0.335450
Si Si3 0.339885 0.544764 0.021195
Si Si4 0.645119 0.560357 0.408319
Si Si5 0.910733 0.036754 0.390866
Si Si6 0.094360 0.752464 0.592728
Si Si7 0.200872 0.944665 0.425774
Si Si8 0.663068 0.836836 0.053769
O O1 0.519955 0.438630 0.276104
O O2 0.262820 0.639485 0.480437
O O3 0.593481 0.814828 0.459350
O O4 0.298621 0.373602 0.162110
O O5 0.686170 0.342259 0.275117
O O6 0.467566 0.331154 0.428949
O O7 0.870226 0.530940 0.491791
O O8 0.637025 0.021703 0.144018
O O9 0.210484 0.692065 0.196500
O O10 0.461713 0.701404 0.045384
O O11 0.500000 0.500000 0.000000
O O12 0.160608 0.271565 0.832593
O O13 0.848566 0.816059 0.535783
O O14 0.863247 0.147186 0.417479
O O15 0.788689 0.096130 0.526871
O O16 0.138898 0.996207 0.818954
O O17 0.000000 0.000000 0.500000
#
# Coordination Sequence:
#
# PCOD8022178 Si02
#       8
#     2   2   2   2   2   2   2   2
#     4  12  24  41  68  99 137 175 229 282 342 407
#     4  10  23  45  70  91 132 180 225 287 343 396
#     4  12  25  44  70 103 141 181 230 277 341 418
#     4  10  22  45  67  96 132 176 226 283 345 406
#     4  11  24  42  72 101 137 182 224 280 347 413
#     4  11  24  45  68  98 135 176 232 285 338 403
#     4  12  25  42  66 103 146 180 220 282 348 410
#     4  12  24  40  70  97 131 177 225 278 339 404
#
# _framework density 22.100643999999999
#
# number of rings (size 3 to 8) (size 9 to 14) (size 15 to 20)
#    0.000    0.750    6.250    0.375    1.750    3.500 
#    0.000    0.000    0.000    0.000    0.000    0.000 
#    0.000    0.000    0.000    0.000    0.000    0.000 
#
# Total GULP energy -198324.063077 kJ/mol
# GULP energy per Si atom -12395.253942 kJ/mol
# Density = 2.205034 g / cm^3
# Si number density = 22.100644 Si / 1000 Ang^3
#
#
#
# Elastic Constant Matrix: (Units=GPa)
#
#
# Indices 1 2 3 4 5 6 
#
# 1 84.1050 22.4425 23.4187 0.7858 8.3874 -8.1450
# 2 22.4425 107.4775 35.1537 10.9018 -0.4941 -15.2869
# 3 23.4187 35.1537 105.9645 -7.6570 3.0061 -9.7457
# 4 0.7858 10.9018 -7.6570 31.8927 -11.2352 -4.5283
# 5 8.3874 -0.4941 3.0061 -11.2352 27.8903 -6.9087
# 6 -8.1450 -15.2869 -9.7457 -4.5283 -6.9087 32.5016
#
#
#
# Elastic Compliance Matrix: (Units=1/GPa)
#
#
# Indices 1 2 3 4 5 6 
#
# 1 0.013541 -0.001816 -0.002328 -0.001720 -0.004380 0.000670
# 2 -0.001816 0.011750 -0.003487 -0.004204 0.000305 0.003505
# 3 -0.002328 -0.003487 0.011641 0.005104 0.002037 0.002411
# 4 -0.001720 -0.004204 0.005104 0.042063 0.019076 0.009038
# 5 -0.004380 0.000305 0.002037 0.019076 0.047729 0.012460
# 6 0.000670 0.003505 0.002411 0.009038 0.012460 0.037215
#
#
# Mechanical properties :
#
#
# Convention : Reuss Voigt Hill
#
# Bulk Modulus (GPa) = 46.14805 51.06406 48.60605
# Shear Modulus (GPa) = 26.82040 32.89238 29.85639
#
# Velocity S-wave (km/s) = 3.48739 3.86203 3.67949
# Velocity P-wave (km/s) = 6.09443 6.56068 6.33185
#
# Compressibility (1/GPa) = 0.02166939
#
# Stress axis : x y z
#
# Youngs Moduli (GPa) = 73.85174 85.10384 85.90126
#
# Poissons Ratio (x) = 0.15457 0.20001
# Poissons Ratio (y) = 0.13413 0.29952
# Poissons Ratio (z) = 0.17195 0.29674
#
# Static dielectric constant tensor:
#      x y z
#    x 4.206840 -0.220760 0.041360 
#    y -0.220760 4.396150 0.063640 
#    z 0.041360 0.063640 3.990190 
# 
# 
# High freq. dielectric constant tensor:
#      x y z
#    x 1.865390 -0.019710 0.013830 
#    y -0.019710 1.897050 0.010140 
#    z 0.013830 0.010140 1.854670 
# 
# From -- ./inp_files/591074.got.cif
#   From: 2010.06.25/outbox.cif.g09.slc.cpg/sg2_296_cif.got.tgz:591074.got - 2010.06.27 13:26:56.
