data_PCOD8022892
_publ_section_title
;
Structure prediction by ZEFSAII (Michael W. Deem and Ramdas Pophale) SiO2 
 PCOD8022892
Probable space group: P -1
;
_chemical_formula_sum "Si O2"
_cell_formula_units_Z 16
_cell_length_a 11.651951
_cell_length_b 18.551843
_cell_length_c 5.280994
_cell_angle_alpha 51.402531
_cell_angle_beta 65.239562
_cell_angle_gamma 47.395964
_cell_volume 656.683507
_symmetry_space_group_name_H-M "P -1"
_symmetry_group_IT_number 2
_symmetry_cell_setting 'triclinic'
loop_
_space_group_symop_operation_xyz
x,y,z
-x,-y,-z
loop_
_atom_site_type_symbol
_atom_site_label
_atom_site_fract_x
_atom_site_fract_y
_atom_site_fract_z
Si Si1 0.600245 0.038430 0.930028
Si Si2 0.322903 0.784092 0.038152
Si Si3 0.155182 0.379029 0.054545
Si Si4 0.591920 0.729345 0.585422
Si Si5 0.991728 0.276602 0.248255
Si Si6 0.798737 0.341865 0.778722
Si Si7 0.218817 0.017712 0.623767
Si Si8 0.593029 0.592976 0.494967
O O1 0.731321 0.999747 0.678926
O O2 0.478474 0.175640 0.779160
O O3 0.668396 0.985372 0.259710
O O4 0.500000 0.000000 0.000000
O O5 0.239883 0.750469 0.991596
O O6 0.409715 0.684723 0.388505
O O7 0.461542 0.787785 0.793741
O O8 0.199295 0.916960 0.947071
O O9 0.240434 0.306287 0.391582
O O10 0.118173 0.305856 0.074207
O O11 0.280170 0.394883 0.783064
O O12 0.000000 0.500000 0.000000
O O13 0.605939 0.617373 0.722883
O O14 0.874423 0.342908 0.443725
O O15 0.060941 0.144331 0.510199
O O16 0.910338 0.316876 0.963939
O O17 0.638208 0.467380 0.690899
#
# Coordination Sequence:
#
# PCOD8022892 Si02
#       8
#     2   2   2   2   2   2   2   2
#     4  11  22  39  66 100 133 175 223 275 336 395
#     4  10  25  46  68 100 132 179 233 286 329 391
#     4  11  23  42  65  98 143 175 222 275 340 418
#     4  10  23  39  69  99 132 177 222 279 345 392
#     4  12  28  45  67 105 136 185 223 271 348 408
#     4  12  28  45  70  98 139 181 232 278 331 403
#     4  11  24  44  67  96 139 174 227 278 332 403
#     4  11  23  43  71 100 132 179 226 283 343 396
#
# _framework density 24.364854999999999
#
# number of rings (size 3 to 8) (size 9 to 14) (size 15 to 20)
#    0.000    1.000    2.500    3.000    7.000    2.500 
#    0.000    0.000    0.000    0.000    0.000    0.000 
#    0.000    0.000    0.000    0.000    0.000    0.000 
#
# Total GULP energy -198239.744063 kJ/mol
# GULP energy per Si atom -12389.984004 kJ/mol
# Density = 2.430940 g / cm^3
# Si number density = 24.364855 Si / 1000 Ang^3
#
#
#
# Elastic Constant Matrix: (Units=GPa)
#
#
# Indices 1 2 3 4 5 6 
#
# 1 89.7505 15.2513 14.9096 -0.9156 13.9071 30.4759
# 2 15.2513 94.9401 16.7765 -22.9010 10.0765 26.1739
# 3 14.9096 16.7765 52.9176 -13.2936 15.8564 6.8527
# 4 -0.9156 -22.9010 -13.2936 44.4533 8.7979 -3.5689
# 5 13.9071 10.0765 15.8564 8.7979 38.3059 -5.1443
# 6 30.4759 26.1739 6.8527 -3.5689 -5.1443 38.2295
#
#
#
# Elastic Compliance Matrix: (Units=1/GPa)
#
#
# Indices 1 2 3 4 5 6 
#
# 1 0.018602 0.004178 0.000034 0.003235 -0.011147 -0.018894
# 2 0.004178 0.017935 0.001382 0.010691 -0.011465 -0.016402
# 3 0.000034 0.001382 0.026516 0.011031 -0.014784 -0.006686
# 4 0.003235 0.010691 0.011031 0.034011 -0.017856 -0.011104
# 5 -0.011147 -0.011465 -0.014784 -0.017856 0.046611 0.023991
# 6 -0.018894 -0.016402 -0.006686 -0.011104 0.023991 0.055840
#
#
# Mechanical properties :
#
#
# Convention : Reuss Voigt Hill
#
# Bulk Modulus (GPa) = 13.46956 36.83143 25.15049
# Shear Modulus (GPa) = 23.46583 36.90914 30.18749
#
# Velocity S-wave (km/s) = 3.10675 3.89633 3.52373
# Velocity P-wave (km/s) = 4.29063 5.94906 5.18656
#
# Compressibility (1/GPa) = 0.07424147
#
# Stress axis : x y z
#
# Youngs Moduli (GPa) = 53.75671 55.75591 37.71245
#
# Poissons Ratio (x) = -0.23294 -0.00127
# Poissons Ratio (y) = -0.22459 -0.05212
# Poissons Ratio (z) = -0.00181 -0.07706
#
# Static dielectric constant tensor:
#      x y z
#    x 4.367670 0.134400 0.190550 
#    y 0.134400 5.299130 -0.287220 
#    z 0.190550 -0.287220 4.569950 
# 
# 
# High freq. dielectric constant tensor:
#      x y z
#    x 1.965340 0.016440 0.014450 
#    y 0.016440 1.980370 -0.017510 
#    z 0.014450 -0.017510 1.956270 
# 
# From -- ./inp_files/66253.got.cif
#   From: 2010.06.25/outbox.cif.g09.slc.cpg/sg2_34_cif.got.tgz:66253.got - 2010.06.27 13:26:56.
