data_PCOD8022177
_publ_section_title
;
Structure prediction by ZEFSAII (Michael W. Deem and Ramdas Pophale) SiO2 
 PCOD8022177
Probable space group: P -1
;
_chemical_formula_sum "Si O2"
_cell_formula_units_Z 16
_cell_length_a 8.636519
_cell_length_b 10.255473
_cell_length_c 18.666391
_cell_angle_alpha 145.586891
_cell_angle_beta 122.387847
_cell_angle_gamma 73.487438
_cell_volume 744.720167
_symmetry_space_group_name_H-M "P -1"
_symmetry_group_IT_number 2
_symmetry_cell_setting 'triclinic'
loop_
_space_group_symop_operation_xyz
x,y,z
-x,-y,-z
loop_
_atom_site_type_symbol
_atom_site_label
_atom_site_fract_x
_atom_site_fract_y
_atom_site_fract_z
Si Si1 0.944731 0.823152 0.157176
Si Si2 0.463726 0.090080 0.109771
Si Si3 0.685255 0.011737 0.443726
Si Si4 0.270328 0.626861 0.179109
Si Si5 0.882380 0.366327 0.186301
Si Si6 0.268451 0.487703 0.268987
Si Si7 0.924033 0.845685 0.325744
Si Si8 0.112183 0.704081 0.676800
O O1 0.873395 0.793885 0.207566
O O2 0.143818 0.764400 0.168164
O O3 0.991933 0.091625 0.257404
O O4 0.764545 0.635654 0.984936
O O5 0.407129 0.336972 0.211909
O O6 0.666353 0.161936 0.235718
O O7 0.500000 0.000000 0.000000
O O8 0.289215 0.861891 0.993547
O O9 0.626993 0.260039 0.546464
O O10 0.845580 0.006571 0.541365
O O11 0.497120 0.777750 0.302816
O O12 0.789429 0.003987 0.389976
O O13 0.192003 0.579579 0.219329
O O14 0.866563 0.607473 0.254564
O O15 0.880933 0.394069 0.285174
O O16 0.083501 0.324798 0.194775
O O17 0.000000 0.500000 0.500000
#
# Coordination Sequence:
#
# PCOD8022177 Si02
#       8
#     2   2   2   2   2   2   2   2
#     4  11  25  44  62  99 135 169 215 269 337 382
#     4  10  23  42  67  94 126 179 220 259 321 396
#     4  10  23  38  68  99 128 173 218 275 319 388
#     4  11  23  41  68  98 131 172 217 275 327 381
#     4  10  22  45  67  96 128 175 219 271 315 390
#     4  11  22  41  71 100 126 170 232 267 318 387
#     4  10  23  43  70  97 131 165 228 268 325 383
#     4  11  27  42  66  94 137 174 210 269 333 390
#
# _framework density 21.484579
#
# number of rings (size 3 to 8) (size 9 to 14) (size 15 to 20)
#    0.000    1.500    2.500    2.250   12.250    0.500 
#    0.000    0.625    0.000    0.000    0.000    0.000 
#    0.000    0.000    0.000    0.000    0.000    0.000 
#
# Total GULP energy -198297.985332 kJ/mol
# GULP energy per Si atom -12393.624083 kJ/mol
# Density = 2.143568 g / cm^3
# Si number density = 21.484579 Si / 1000 Ang^3
#
#
#
# Elastic Constant Matrix: (Units=GPa)
#
#
# Indices 1 2 3 4 5 6 
#
# 1 97.8488 18.1930 62.1941 -0.8922 -5.4108 -1.9160
# 2 18.1930 66.1995 37.2881 2.4904 2.9812 2.7054
# 3 62.1941 37.2881 180.0051 -0.0198 9.9605 1.4321
# 4 -0.8922 2.4904 -0.0198 26.1360 -5.2986 -9.3540
# 5 -5.4108 2.9812 9.9605 -5.2986 47.9652 6.4840
# 6 -1.9160 2.7054 1.4321 -9.3540 6.4840 31.6925
#
#
#
# Elastic Compliance Matrix: (Units=1/GPa)
#
#
# Indices 1 2 3 4 5 6 
#
# 1 0.013541 -0.001377 -0.004544 0.001490 0.002579 0.001054
# 2 -0.001377 0.017431 -0.003085 -0.002572 -0.000603 -0.002068
# 3 -0.004544 -0.003085 0.007875 -0.000272 -0.001980 -0.000042
# 4 0.001490 -0.002572 -0.000272 0.043750 0.003526 0.012513
# 5 0.002579 -0.000603 -0.001980 0.003526 0.022417 -0.003249
# 6 0.001054 -0.002068 -0.000042 0.012513 -0.003249 0.036153
#
#
# Mechanical properties :
#
#
# Convention : Reuss Voigt Hill
#
# Bulk Modulus (GPa) = 48.00123 64.37822 56.18972
# Shear Modulus (GPa) = 30.09787 36.25061 33.17424
#
# Velocity S-wave (km/s) = 3.74693 4.11211 3.93376
# Velocity P-wave (km/s) = 6.41171 7.25092 6.84419
#
# Compressibility (1/GPa) = 0.02083280
#
# Stress axis : x y z
#
# Youngs Moduli (GPa) = 73.84906 57.37022 126.99095
#
# Poissons Ratio (x) = 0.07900 0.57709
# Poissons Ratio (y) = 0.10169 0.39183
# Poissons Ratio (z) = 0.33559 0.17702
#
# Static dielectric constant tensor:
#      x y z
#    x 4.024510 -0.056800 -0.040480 
#    y -0.056800 3.565020 0.051810 
#    z -0.040480 0.051810 4.226380 
# 
# 
# High freq. dielectric constant tensor:
#      x y z
#    x 1.849720 -0.006070 -0.010830 
#    y -0.006070 1.812690 0.008440 
#    z -0.010830 0.008440 1.860320 
# 
# From -- ./inp_files/557707.got.cif
#   From: 2010.06.25/outbox.cif.g09.slc.cpg/sg2_279_cif.got.tgz:557707.got - 2010.06.27 13:26:56.
