data_PCOD8022566
_publ_section_title
;
Structure prediction by ZEFSAII (Michael W. Deem and Ramdas Pophale) SiO2 
 PCOD8022566
Probable space group: P -1
;
_chemical_formula_sum "Si O2"
_cell_formula_units_Z 14
_cell_length_a 13.677291
_cell_length_b 9.335243
_cell_length_c 11.054194
_cell_angle_alpha 58.506939
_cell_angle_beta 146.066797
_cell_angle_gamma 107.083190
_cell_volume 642.261795
_symmetry_space_group_name_H-M "P -1"
_symmetry_group_IT_number 2
_symmetry_cell_setting 'triclinic'
loop_
_space_group_symop_operation_xyz
x,y,z
-x,-y,-z
loop_
_atom_site_type_symbol
_atom_site_label
_atom_site_fract_x
_atom_site_fract_y
_atom_site_fract_z
Si Si1 0.758124 0.042775 0.793738
Si Si2 0.634750 0.784218 0.614871
Si Si3 0.336755 0.464500 0.036435
Si Si4 0.135692 0.379787 0.287945
Si Si5 0.089558 0.267000 0.747153
Si Si6 0.970458 0.204674 0.397112
Si Si7 0.236519 0.625723 0.471003
O O1 0.582847 0.156025 0.637615
O O2 0.848542 0.180972 0.763391
O O3 0.707574 0.935288 0.679587
O O4 0.882007 0.918886 0.075477
O O5 0.703526 0.605506 0.842664
O O6 0.701673 0.754716 0.559369
O O7 0.553230 0.413581 0.250930
O O8 0.245425 0.361446 0.892146
O O9 0.239757 0.675601 0.843905
O O10 0.229996 0.487467 0.423526
O O11 0.034214 0.268453 0.310261
O O12 0.000000 0.500000 0.000000
O O13 0.091238 0.235971 0.619611
O O14 0.891644 0.388871 0.539943
O O15 0.000000 0.000000 0.500000
#
# Coordination Sequence:
#
# PCOD8022566 Si02
#       7
#     2   2   2   2   2   2   2
#     4   9  20  38  68 103 129 176 223 280 327 395
#     4   9  19  39  67  99 136 170 229 277 327 393
#     4  10  22  47  69  98 135 182 228 281 328 406
#     4  12  24  44  70  99 139 179 229 280 336 408
#     4  11  23  45  68  97 145 175 225 280 337 410
#     4  12  28  45  67 100 140 184 221 282 352 394
#     4  11  24  40  77 102 127 188 233 265 346 396
#
# _framework density 21.797962999999999
#
# number of rings (size 3 to 8) (size 9 to 14) (size 15 to 20)
#    0.000    1.429    2.857    2.571    4.000    4.000 
#    0.000    1.429    0.000    0.000    0.000    0.000 
#    0.000    0.000    0.000    0.000    0.000    0.000 
#
# Total GULP energy -173574.728201 kJ/mol
# GULP energy per Si atom -12398.194872 kJ/mol
# Density = 2.174835 g / cm^3
# Si number density = 21.797963 Si / 1000 Ang^3
#
#
#
# Elastic Constant Matrix: (Units=GPa)
#
#
# Indices 1 2 3 4 5 6 
#
# 1 89.1375 35.6775 35.7892 19.3597 -10.2930 -21.9550
# 2 35.6775 114.8125 49.5565 -9.5053 -1.8723 -7.1469
# 3 35.7892 49.5565 98.2666 1.4228 -5.4141 0.3190
# 4 19.3597 -9.5053 1.4228 35.0161 7.6053 -1.6707
# 5 -10.2930 -1.8723 -5.4141 7.6053 21.6061 1.6872
# 6 -21.9550 -7.1469 0.3190 -1.6707 1.6872 36.8659
#
#
#
# Elastic Compliance Matrix: (Units=1/GPa)
#
#
# Indices 1 2 3 4 5 6 
#
# 1 0.023694 -0.005799 -0.004682 -0.017133 0.014739 0.011576
# 2 -0.005799 0.013248 -0.005005 0.008246 -0.005755 -0.000205
# 3 -0.004682 -0.005005 0.014482 0.000193 0.001204 -0.003930
# 4 -0.017133 0.008246 0.000193 0.044947 -0.022789 -0.005526
# 5 0.014739 -0.005755 0.001204 -0.022789 0.060830 0.003834
# 6 0.011576 -0.000205 -0.003930 -0.005526 0.003834 0.033588
#
#
# Mechanical properties :
#
#
# Convention : Reuss Voigt Hill
#
# Bulk Modulus (GPa) = 48.89670 60.47365 54.68517
# Shear Modulus (GPa) = 21.87428 30.77717 26.32572
#
# Velocity S-wave (km/s) = 3.17125 3.76164 3.47899
# Velocity P-wave (km/s) = 5.99079 6.83152 6.42492
#
# Compressibility (1/GPa) = 0.02045128
#
# Stress axis : x y z
#
# Youngs Moduli (GPa) = 42.20487 75.48131 69.05097
#
# Poissons Ratio (x) = 0.43773 0.32332
# Poissons Ratio (y) = 0.24476 0.34560
# Poissons Ratio (z) = 0.19762 0.37778
#
# Static dielectric constant tensor:
#      x y z
#    x 4.038990 -0.056690 -0.047780 
#    y -0.056690 3.977820 -0.219840 
#    z -0.047780 -0.219840 4.024080 
# 
# 
# High freq. dielectric constant tensor:
#      x y z
#    x 1.859550 -0.000960 0.000660 
#    y -0.000960 1.855030 -0.013230 
#    z 0.000660 -0.013230 1.857120 
# 
# From -- ./inp_files/447253.got.cif
#   From: 2010.06.25/outbox.cif.g09.slc.cpg/sg2_224_cif.got.tgz:447253.got - 2010.06.27 13:26:56.
