data_PCOD8022213
_publ_section_title
;
Structure prediction by ZEFSAII (Michael W. Deem and Ramdas Pophale) SiO2 
 PCOD8022213
Probable space group: P -1
;
_chemical_formula_sum "Si O2"
_cell_formula_units_Z 16
_cell_length_a 13.184506
_cell_length_b 24.106164
_cell_length_c 16.076416
_cell_angle_alpha 23.638229
_cell_angle_beta 156.708918
_cell_angle_gamma 157.810165
_cell_volume 685.429612
_symmetry_space_group_name_H-M "P -1"
_symmetry_group_IT_number 2
_symmetry_cell_setting 'triclinic'
loop_
_space_group_symop_operation_xyz
x,y,z
-x,-y,-z
loop_
_atom_site_type_symbol
_atom_site_label
_atom_site_fract_x
_atom_site_fract_y
_atom_site_fract_z
Si Si1 0.609499 0.626130 0.485593
Si Si2 0.699013 0.182347 0.049888
Si Si3 0.676390 0.190333 0.734885
Si Si4 0.603809 0.617597 0.682405
Si Si5 0.802517 0.825334 0.051532
Si Si6 0.317756 0.787708 0.485756
Si Si7 0.696832 0.160020 0.272247
Si Si8 0.317238 0.315831 0.006029
O O1 0.500000 0.500000 0.500000
O O2 0.586652 0.554910 0.659997
O O3 0.962031 0.755622 0.555599
O O4 0.421809 0.713259 0.226280
O O5 0.646044 0.175104 0.117374
O O6 0.055330 0.266946 0.185355
O O7 0.512184 0.000495 0.119975
O O8 0.552518 0.277894 0.577670
O O9 0.638732 0.215287 0.575507
O O10 0.037537 0.280089 0.903539
O O11 0.431364 0.466909 0.822073
O O12 0.811255 0.842050 0.934772
O O13 0.969913 0.725674 0.335421
O O14 0.456340 0.748110 0.926218
O O15 0.000000 0.000000 0.000000
O O16 0.535701 0.969825 0.436170
O O17 0.406171 0.663803 0.759447
#
# Coordination Sequence:
#
# PCOD8022213 Si02
#       8
#     2   2   2   2   2   2   2   2
#     4  11  26  42  65  94 132 176 217 265 330 385
#     4  10  23  42  68  93 127 174 220 271 321 383
#     4  10  22  45  68  94 132 166 221 275 319 387
#     4  11  26  43  64  99 131 171 219 272 323 387
#     4   9  20  36  59  91 130 168 215 258 311 384
#     4   9  20  39  63  97 126 170 212 265 327 387
#     4   9  20  39  63  91 127 168 222 266 310 384
#     4  11  23  38  64  97 136 166 214 264 328 387
#
# _framework density 23.343025000000001
#
# number of rings (size 3 to 8) (size 9 to 14) (size 15 to 20)
#    0.000    2.000    0.000    2.250    3.500    8.000 
#    0.000    0.000    0.000    0.000    0.000    0.000 
#    0.000    0.000    0.000    0.000    0.000    0.000 
#
# Total GULP energy -198286.663607 kJ/mol
# GULP energy per Si atom -12392.916475 kJ/mol
# Density = 2.328990 g / cm^3
# Si number density = 23.343025 Si / 1000 Ang^3
#
#
#
# Elastic Constant Matrix: (Units=GPa)
#
#
# Indices 1 2 3 4 5 6 
#
# 1 65.5823 38.9003 31.0053 7.2935 27.4888 0.7078
# 2 38.9003 75.1676 36.6788 3.7035 6.5963 17.8927
# 3 31.0053 36.6788 140.6993 17.5553 17.9000 7.0313
# 4 7.2935 3.7035 17.5553 37.4129 12.4189 10.2440
# 5 27.4888 6.5963 17.9000 12.4189 38.1131 7.7010
# 6 0.7078 17.8927 7.0313 10.2440 7.7010 33.1847
#
#
#
# Elastic Compliance Matrix: (Units=1/GPa)
#
#
# Indices 1 2 3 4 5 6 
#
# 1 0.040986 -0.022972 -0.000154 -0.001145 -0.028899 0.018604
# 2 -0.022972 0.030470 -0.004397 0.003588 0.016207 -0.019876
# 3 -0.000154 -0.004397 0.008946 -0.003446 -0.002642 0.002156
# 4 -0.001145 0.003588 -0.003446 0.033230 -0.007023 -0.009808
# 5 -0.028899 0.016207 -0.002642 -0.007023 0.051301 -0.017299
# 6 0.018604 -0.019876 0.002156 -0.009808 -0.017299 0.047040
#
#
# Mechanical properties :
#
#
# Convention : Reuss Voigt Hill
#
# Bulk Modulus (GPa) = 39.43835 54.95757 47.19796
# Shear Modulus (GPa) = 18.15078 33.39978 25.77528
#
# Velocity S-wave (km/s) = 2.79152 3.78673 3.32655
# Velocity P-wave (km/s) = 5.22703 6.53557 5.91758
#
# Compressibility (1/GPa) = 0.02535603
#
# Stress axis : x y z
#
# Youngs Moduli (GPa) = 24.39853 32.81944 111.78346
#
# Poissons Ratio (x) = 0.75393 0.01718
# Poissons Ratio (y) = 0.56048 0.49153
# Poissons Ratio (z) = 0.00375 0.14431
#
# Static dielectric constant tensor:
#      x y z
#    x 4.366190 -0.020290 0.364380 
#    y -0.020290 4.426650 0.209060 
#    z 0.364380 0.209060 4.250430 
# 
# 
# High freq. dielectric constant tensor:
#      x y z
#    x 1.918300 -0.000480 0.016320 
#    y -0.000480 1.925820 0.015810 
#    z 0.016320 0.015810 1.925500 
# 
# From -- ./inp_files/574529.got.cif
#   From: 2010.06.25/outbox.cif.g09.slc.cpg/sg2_288_cif.got.tgz:574529.got - 2010.06.27 13:26:56.
