data_PCOD8022926
_publ_section_title
;
Structure prediction by ZEFSAII (Michael W. Deem and Ramdas Pophale) SiO2 
 PCOD8022926
Probable space group: P -1
;
_chemical_formula_sum "Si O2"
_cell_formula_units_Z 14
_cell_length_a 11.225457
_cell_length_b 8.532027
_cell_length_c 17.535476
_cell_angle_alpha 53.649831
_cell_angle_beta 29.769869
_cell_angle_gamma 40.992054
_cell_volume 536.837708
_symmetry_space_group_name_H-M "P -1"
_symmetry_group_IT_number 2
_symmetry_cell_setting 'triclinic'
loop_
_space_group_symop_operation_xyz
x,y,z
-x,-y,-z
loop_
_atom_site_type_symbol
_atom_site_label
_atom_site_fract_x
_atom_site_fract_y
_atom_site_fract_z
Si Si1 0.155753 0.667346 0.283217
Si Si2 0.227689 0.228291 0.301823
Si Si3 0.740496 0.763335 0.038506
Si Si4 0.678860 0.323176 0.640787
Si Si5 0.183765 0.866593 0.747398
Si Si6 0.796926 0.937673 0.169223
Si Si7 0.294517 0.388789 0.061086
O O1 0.072632 0.492299 0.351748
O O2 0.242283 0.627437 0.334619
O O3 0.440500 0.581441 0.095648
O O4 0.881844 0.951100 0.337717
O O5 0.320809 0.223412 0.163719
O O6 0.969024 0.188345 0.463642
O O7 0.519242 0.019711 0.246681
O O8 0.444514 0.840943 0.231708
O O9 0.673006 0.758777 0.989140
O O10 0.000000 0.500000 0.000000
O O11 0.860859 0.925526 0.934028
O O12 0.417046 0.585991 0.673561
O O13 0.318301 0.922548 0.726825
O O14 0.976670 0.651404 0.165944
O O15 0.000000 0.000000 0.000000
#
# Coordination Sequence:
#
# PCOD8022926 Si02
#       7
#     2   2   2   2   2   2   2
#     4  11  21  38  65  95 126 162 211 258 316 375
#     4  12  23  38  64 100 131 156 210 269 324 360
#     4   9  21  45  67  89 124 173 214 252 308 385
#     4  10  23  40  60  96 132 164 203 268 313 373
#     4  11  22  39  68  92 123 169 215 253 312 380
#     4  12  21  37  66  96 124 163 208 269 314 362
#     4  11  23  40  64  98 125 163 216 262 309 371
#
# _framework density 26.078644000000001
#
# number of rings (size 3 to 8) (size 9 to 14) (size 15 to 20)
#    0.000    1.143    4.286    3.429    0.000    4.000 
#    0.000    4.286    0.000   18.000    0.000    0.000 
#    0.000    0.000    0.000    0.000    0.000    0.000 
#
# Total GULP energy -173637.956936 kJ/mol
# GULP energy per Si atom -12402.711210 kJ/mol
# Density = 2.601929 g / cm^3
# Si number density = 26.078644 Si / 1000 Ang^3
#
#
#
# Elastic Constant Matrix: (Units=GPa)
#
#
# Indices 1 2 3 4 5 6 
#
# 1 86.4874 -0.3378 24.3058 -10.7184 -9.5119 0.8759
# 2 -0.3378 99.3176 7.1323 -16.3255 -18.3781 -26.3577
# 3 24.3058 7.1323 143.8578 4.2816 -11.2295 -5.5584
# 4 -10.7184 -16.3255 4.2816 29.6939 -2.4994 -2.6478
# 5 -9.5119 -18.3781 -11.2295 -2.4994 31.2848 2.7392
# 6 0.8759 -26.3577 -5.5584 -2.6478 2.7392 37.1833
#
#
#
# Elastic Compliance Matrix: (Units=1/GPa)
#
#
# Indices 1 2 3 4 5 6 
#
# 1 0.013698 0.002835 -0.002188 0.007414 0.005507 0.001482
# 2 0.002835 0.017512 -0.000393 0.012734 0.010941 0.012389
# 3 -0.002188 -0.000393 0.007547 -0.001902 0.001604 0.000647
# 4 0.007414 0.012734 -0.001902 0.045593 0.011736 0.010950
# 5 0.005507 0.010941 0.001604 0.011736 0.041082 0.005675
# 6 0.001482 0.012389 0.000647 0.010950 0.005675 0.036099
#
#
# Mechanical properties :
#
#
# Convention : Reuss Voigt Hill
#
# Bulk Modulus (GPa) = 25.46910 43.54037 34.50474
# Shear Modulus (GPa) = 28.71691 39.53655 34.12673
#
# Velocity S-wave (km/s) = 3.32198 3.89787 3.62139
# Velocity P-wave (km/s) = 4.94990 6.08194 5.54488
#
# Compressibility (1/GPa) = 0.03926327
#
# Stress axis : x y z
#
# Youngs Moduli (GPa) = 73.00330 57.10363 132.49619
#
# Poissons Ratio (x) = -0.16188 0.28996
# Poissons Ratio (y) = -0.20695 0.05214
# Poissons Ratio (z) = 0.15976 0.02247
#
# Static dielectric constant tensor:
#      x y z
#    x 4.726850 -0.148540 -0.120040 
#    y -0.148540 4.873400 -0.085250 
#    z -0.120040 -0.085250 4.698630 
# 
# 
# High freq. dielectric constant tensor:
#      x y z
#    x 2.041990 -0.005090 -0.008000 
#    y -0.005090 2.077810 -0.004420 
#    z -0.008000 -0.004420 2.029990 
# 
# From -- ./inp_files/566467.got.cif
#   From: 2010.06.25/outbox.cif.g09.slc.cpg/sg2_284_cif.got.tgz:566467.got - 2010.06.27 13:26:56.
