data_PCOD8022697
_publ_section_title
;
Structure prediction by ZEFSAII (Michael W. Deem and Ramdas Pophale) SiO2 
 PCOD8022697
Probable space group: P -1
;
_chemical_formula_sum "Si O2"
_cell_formula_units_Z 14
_cell_length_a 14.180006
_cell_length_b 11.073716
_cell_length_c 8.981366
_cell_angle_alpha 106.413783
_cell_angle_beta 119.376209
_cell_angle_gamma 125.055320
_cell_volume 615.373380
_symmetry_space_group_name_H-M "P -1"
_symmetry_group_IT_number 2
_symmetry_cell_setting 'triclinic'
loop_
_space_group_symop_operation_xyz
x,y,z
-x,-y,-z
loop_
_atom_site_type_symbol
_atom_site_label
_atom_site_fract_x
_atom_site_fract_y
_atom_site_fract_z
Si Si1 0.796715 0.184999 0.743121
Si Si2 0.663122 0.277386 0.824794
Si Si3 0.981313 0.200121 0.665920
Si Si4 0.470041 0.045846 0.141929
Si Si5 0.119820 0.171643 0.012092
Si Si6 0.842812 0.038164 0.172762
Si Si7 0.859787 0.583575 0.706331
O O1 0.807763 0.349741 0.834292
O O2 0.853597 0.195983 0.624100
O O3 0.555437 0.905338 0.483486
O O4 0.926143 0.243956 0.990173
O O5 0.638973 0.152536 0.893861
O O6 0.777370 0.515109 0.056681
O O7 0.893933 0.068293 0.396106
O O8 0.965921 0.070752 0.727335
O O9 0.697400 0.311228 0.465493
O O10 0.500000 0.000000 0.000000
O O11 0.330267 0.028549 0.999899
O O12 0.246975 0.416161 0.266883
O O13 0.249116 0.185127 0.042595
O O14 0.000000 0.000000 0.000000
O O15 0.061748 0.287497 0.348397
#
# Coordination Sequence:
#
# PCOD8022697 Si02
#       7
#     2   2   2   2   2   2   2
#     4  10  23  38  60  94 131 163 214 260 309 385
#     4  11  24  37  63  98 131 168 218 252 324 391
#     4  11  23  40  68  93 129 171 207 272 325 370
#     4  12  26  39  63 102 136 171 210 258 327 395
#     4   9  22  44  69  93 121 169 228 264 318 378
#     4  11  23  43  64  94 134 172 214 266 315 380
#     4  10  23  42  67  92 130 173 214 266 319 373
#
# _framework density 22.750416000000001
#
# number of rings (size 3 to 8) (size 9 to 14) (size 15 to 20)
#    0.000    1.429    1.429    2.571   12.000    1.714 
#    0.000    5.714    0.000    9.429    0.000    0.000 
#    0.000    0.000    0.000    0.000    0.000    0.000 
#
# Total GULP energy -173503.767398 kJ/mol
# GULP energy per Si atom -12393.126243 kJ/mol
# Density = 2.269863 g / cm^3
# Si number density = 22.750416 Si / 1000 Ang^3
#
#
#
# Elastic Constant Matrix: (Units=GPa)
#
#
# Indices 1 2 3 4 5 6 
#
# 1 158.7154 35.1195 61.7325 -6.4740 -24.0252 -8.5644
# 2 35.1195 78.3882 49.7755 -26.0662 0.0389 -2.7986
# 3 61.7325 49.7755 111.1796 -18.0762 -18.3572 -8.8917
# 4 -6.4740 -26.0662 -18.0762 35.8476 -1.1313 -10.8537
# 5 -24.0252 0.0389 -18.3572 -1.1313 32.9843 -5.9076
# 6 -8.5644 -2.7986 -8.8917 -10.8537 -5.9076 30.3121
#
#
#
# Elastic Compliance Matrix: (Units=1/GPa)
#
#
# Indices 1 2 3 4 5 6 
#
# 1 0.008820 -0.002203 -0.003012 -0.000718 0.005109 0.002144
# 2 -0.002203 0.023052 -0.007437 0.013437 -0.004735 0.003213
# 3 -0.003012 -0.007437 0.016714 0.004782 0.008486 0.006731
# 4 -0.000718 0.013437 0.004782 0.046384 0.007383 0.020488
# 5 0.005109 -0.004735 0.008486 0.007383 0.041571 0.014241
# 6 0.002144 0.003213 0.006731 0.020488 0.014241 0.045978
#
#
# Mechanical properties :
#
#
# Convention : Reuss Voigt Hill
#
# Bulk Modulus (GPa) = 42.95636 71.28201 57.11919
# Shear Modulus (GPa) = 23.19276 33.27250 28.23263
#
# Velocity S-wave (km/s) = 3.19634 3.82841 3.52656
# Velocity P-wave (km/s) = 5.70479 7.13740 6.46093
#
# Compressibility (1/GPa) = 0.02327944
#
# Stress axis : x y z
#
# Youngs Moduli (GPa) = 113.38409 43.38034 59.83143
#
# Poissons Ratio (x) = 0.09558 0.18023
# Poissons Ratio (y) = 0.24982 0.44498
# Poissons Ratio (z) = 0.34155 0.32263
#
# Static dielectric constant tensor:
#      x y z
#    x 4.702190 -0.054800 -0.271080 
#    y -0.054800 4.187870 -0.080240 
#    z -0.271080 -0.080240 4.009770 
# 
# 
# High freq. dielectric constant tensor:
#      x y z
#    x 1.906250 -0.000160 -0.017880 
#    y -0.000160 1.899760 -0.016060 
#    z -0.017880 -0.016060 1.888190 
# 
# From -- ./inp_files/308152.got.cif
#   From: 2010.06.25/outbox.cif.g09.slc.cpg/sg2_155_cif.got.tgz:308152.got - 2010.06.27 13:26:56.
