data_PCOD8022009
_publ_section_title
;
Structure prediction by ZEFSAII (Michael W. Deem and Ramdas Pophale) SiO2 
 PCOD8022009
Probable space group: P -1
;
_chemical_formula_sum "Si O2"
_cell_formula_units_Z 16
_cell_length_a 8.665803
_cell_length_b 5.089608
_cell_length_c 20.065858
_cell_angle_alpha 122.341230
_cell_angle_beta 70.759808
_cell_angle_gamma 124.075435
_cell_volume 618.782918
_symmetry_space_group_name_H-M "P -1"
_symmetry_group_IT_number 2
_symmetry_cell_setting 'triclinic'
loop_
_space_group_symop_operation_xyz
x,y,z
-x,-y,-z
loop_
_atom_site_type_symbol
_atom_site_label
_atom_site_fract_x
_atom_site_fract_y
_atom_site_fract_z
Si Si1 0.149793 0.122117 0.053075
Si Si2 0.280274 0.342259 0.817192
Si Si3 0.306606 0.727713 0.563109
Si Si4 0.985256 0.424696 0.805102
Si Si5 0.322468 0.306534 0.256232
Si Si6 0.684033 0.359096 0.008071
Si Si7 0.014178 0.584546 0.685559
Si Si8 0.471223 0.476811 0.398689
O O1 0.078598 0.271940 0.144598
O O2 0.324849 0.456272 0.035739
O O3 0.166886 0.789852 0.033695
O O4 0.000000 0.000000 0.000000
O O5 0.496992 0.493270 0.788824
O O6 0.270169 0.352670 0.900298
O O7 0.183647 0.571586 0.834721
O O8 0.156844 0.967247 0.748670
O O9 0.098407 0.533309 0.597537
O O10 0.310949 0.501253 0.468497
O O11 0.449845 0.742294 0.601368
O O12 0.364212 0.127091 0.587405
O O13 0.007607 0.326682 0.711522
O O14 0.811882 0.069119 0.811110
O O15 0.387098 0.259132 0.313935
O O16 0.198501 0.504612 0.309077
O O17 0.500000 0.000000 0.000000
#
# Coordination Sequence:
#
# PCOD8022009 Si02
#       8
#     2   2   2   2   2   2   2   2
#     4  12  25  47  70  94 136 178 227 282 346 407
#     4  11  24  45  66  95 138 180 223 286 345 407
#     4  10  22  44  73 100 140 181 228 269 342 403
#     4  11  26  42  68  97 138 180 227 286 345 405
#     4  11  25  42  68 104 137 178 231 282 337 405
#     4  12  27  45  70 100 130 178 232 285 343 407
#     4  11  25  42  69 102 135 183 226 280 339 409
#     4  10  22  44  72 103 136 184 222 280 332 406
#
# _framework density 25.857213999999999
#
# number of rings (size 3 to 8) (size 9 to 14) (size 15 to 20)
#    0.000    1.000    2.500    3.000    8.750    1.500 
#    0.000    0.625    0.000    0.000    0.000    0.000 
#    0.000    0.000    0.000    0.000    0.000    0.000 
#
# Total GULP energy -198255.143824 kJ/mol
# GULP energy per Si atom -12390.946489 kJ/mol
# Density = 2.579836 g / cm^3
# Si number density = 25.857214 Si / 1000 Ang^3
#
#
#
# Elastic Constant Matrix: (Units=GPa)
#
#
# Indices 1 2 3 4 5 6 
#
# 1 70.0834 12.1613 11.6716 -7.3814 -20.6756 21.0740
# 2 12.1613 74.2411 -5.1747 -12.9935 -9.1872 12.9658
# 3 11.6716 -5.1747 84.8524 -27.4540 -15.5942 -0.6069
# 4 -7.3814 -12.9935 -27.4540 38.5877 3.9958 0.9835
# 5 -20.6756 -9.1872 -15.5942 3.9958 38.0323 -11.1981
# 6 21.0740 12.9658 -0.6069 0.9835 -11.1981 36.6740
#
#
#
# Elastic Compliance Matrix: (Units=1/GPa)
#
#
# Indices 1 2 3 4 5 6 
#
# 1 0.019582 -0.000279 -0.000522 0.002739 0.007437 -0.008965
# 2 -0.000279 0.016537 0.004333 0.008377 0.003319 -0.004826
# 3 -0.000522 0.004333 0.017653 0.013189 0.006851 0.000798
# 4 0.002739 0.008377 0.013189 0.038374 0.003642 -0.004234
# 5 0.007437 0.003319 0.006851 0.003642 0.035123 0.005293
# 6 -0.008965 -0.004826 0.000798 -0.004234 0.005293 0.035868
#
#
# Mechanical properties :
#
#
# Convention : Reuss Voigt Hill
#
# Bulk Modulus (GPa) = 16.43736 29.61035 23.02386
# Shear Modulus (GPa) = 28.35237 36.69340 32.52288
#
# Velocity S-wave (km/s) = 3.31493 3.77115 3.55038
# Velocity P-wave (km/s) = 4.58503 5.51711 5.07252
#
# Compressibility (1/GPa) = 0.06083702
#
# Stress axis : x y z
#
# Youngs Moduli (GPa) = 51.06651 60.47087 56.64691
#
# Poissons Ratio (x) = 0.01685 0.02955
# Poissons Ratio (y) = 0.01423 -0.24543
# Poissons Ratio (z) = 0.02664 -0.26199
#
# Static dielectric constant tensor:
#      x y z
#    x 4.347010 0.398460 0.053970 
#    y 0.398460 4.646750 -0.807910 
#    z 0.053970 -0.807910 4.914740 
# 
# 
# High freq. dielectric constant tensor:
#      x y z
#    x 2.029530 0.000310 -0.005560 
#    y 0.000310 2.038150 -0.020710 
#    z -0.005560 -0.020710 2.034430 
# 
# From -- ./inp_files/51080.got.cif
#   From: 2010.06.25/outbox.cif.g09.slc.cpg/sg2_26_cif.got.tgz:51080.got - 2010.06.27 13:26:56.
