data_PCOD8022008
_publ_section_title
;
Structure prediction by ZEFSAII (Michael W. Deem and Ramdas Pophale) SiO2 
 PCOD8022008
Probable space group: P -1
;
_chemical_formula_sum "Si O2"
_cell_formula_units_Z 16
_cell_length_a 11.854475
_cell_length_b 15.332872
_cell_length_c 15.181845
_cell_angle_alpha 152.139995
_cell_angle_beta 142.918489
_cell_angle_gamma 54.517183
_cell_volume 697.038036
_symmetry_space_group_name_H-M "P -1"
_symmetry_group_IT_number 2
_symmetry_cell_setting 'triclinic'
loop_
_space_group_symop_operation_xyz
x,y,z
-x,-y,-z
loop_
_atom_site_type_symbol
_atom_site_label
_atom_site_fract_x
_atom_site_fract_y
_atom_site_fract_z
Si Si1 0.700276 0.715623 0.049113
Si Si2 0.935283 0.499950 0.358249
Si Si3 0.988090 0.923324 0.723446
Si Si4 0.443103 0.220044 0.281198
Si Si5 0.909045 0.075078 0.633144
Si Si6 0.614998 0.271258 0.621925
Si Si7 0.681325 0.058367 0.737790
Si Si8 0.340512 0.591788 0.585695
O O1 0.871370 0.759093 0.119058
O O2 0.762790 0.912267 0.325542
O O3 0.671939 0.507308 0.897127
O O4 0.487155 0.685858 0.845217
O O5 0.868135 0.685543 0.469702
O O6 0.000000 0.500000 0.500000
O O7 0.111690 0.540249 0.430634
O O8 0.737400 0.282670 0.016575
O O9 0.945630 0.938134 0.607854
O O10 0.894883 0.061208 0.838804
O O11 0.236607 0.999307 0.960188
O O12 0.594754 0.250662 0.485217
O O13 0.346124 0.383920 0.368095
O O14 0.580619 0.244032 0.300200
O O15 0.793437 0.210937 0.715249
O O16 0.397223 0.115571 0.390387
O O17 0.500000 0.000000 0.500000
#
# Coordination Sequence:
#
# PCOD8022008 Si02
#       8
#     2   2   2   2   2   2   2   2
#     4  10  24  42  70 104 139 179 226 296 353 426
#     4  12  30  46  74 107 145 191 243 295 351 428
#     4  12  26  45  74 102 143 184 237 291 362 422
#     4  10  22  44  73 104 135 183 233 296 353 419
#     4  11  24  44  67 107 142 173 232 289 364 424
#     4  11  25  43  73  97 140 187 232 291 354 420
#     4  12  28  49  70 102 146 190 243 292 353 432
#     4  10  22  44  72 102 141 181 236 291 354 417
#
# _framework density 22.954270999999999
#
# number of rings (size 3 to 8) (size 9 to 14) (size 15 to 20)
#    0.000    1.000    3.750    1.125    8.750    4.000 
#    0.000    0.000    0.000    0.000    0.000    0.000 
#    0.000    0.000    0.000    0.000    0.000    0.000 
#
# Total GULP energy -198440.170484 kJ/mol
# GULP energy per Si atom -12402.510655 kJ/mol
# Density = 2.290203 g / cm^3
# Si number density = 22.954271 Si / 1000 Ang^3
#
#
#
# Elastic Constant Matrix: (Units=GPa)
#
#
# Indices 1 2 3 4 5 6 
#
# 1 75.6693 6.5539 10.5961 4.8572 14.6775 10.6407
# 2 6.5539 84.3028 44.8656 12.0461 2.3392 11.7121
# 3 10.5961 44.8656 86.1082 16.8671 0.9895 9.2771
# 4 4.8572 12.0461 16.8671 37.2973 3.2730 7.8195
# 5 14.6775 2.3392 0.9895 3.2730 32.5124 1.0656
# 6 10.6407 11.7121 9.2771 7.8195 1.0656 30.5024
#
#
#
# Elastic Compliance Matrix: (Units=1/GPa)
#
#
# Indices 1 2 3 4 5 6 
#
# 1 0.015387 0.000484 -0.001575 0.000171 -0.006790 -0.004881
# 2 0.000484 0.016921 -0.008272 -0.000887 -0.000967 -0.003889
# 3 -0.001575 -0.008272 0.017092 -0.004912 0.001289 -0.000259
# 4 0.000171 -0.000887 -0.004912 0.030803 -0.002768 -0.006025
# 5 -0.006790 -0.000967 0.001289 -0.002768 0.034071 0.001867
# 6 -0.004881 -0.003889 -0.000259 -0.006025 0.001867 0.037538
#
#
# Mechanical properties :
#
#
# Convention : Reuss Voigt Hill
#
# Bulk Modulus (GPa) = 32.60173 41.12349 36.86261
# Shear Modulus (GPa) = 27.66062 32.33339 29.99700
#
# Velocity S-wave (km/s) = 3.47512 3.75720 3.61891
# Velocity P-wave (km/s) = 5.50779 6.06435 5.79276
#
# Compressibility (1/GPa) = 0.03067322
#
# Stress axis : x y z
#
# Youngs Moduli (GPa) = 64.99174 59.09982 58.50564
#
# Poissons Ratio (x) = -0.02862 0.09217
# Poissons Ratio (y) = -0.03147 0.48396
# Poissons Ratio (z) = 0.10239 0.48887
#
# Static dielectric constant tensor:
#      x y z
#    x 4.106260 0.189070 0.137430 
#    y 0.189070 4.016670 0.224650 
#    z 0.137430 0.224650 4.168060 
# 
# 
# High freq. dielectric constant tensor:
#      x y z
#    x 1.906460 0.009500 0.006290 
#    y 0.009500 1.904540 0.010220 
#    z 0.006290 0.010220 1.913550 
# 
# From -- ./inp_files/434250.got.cif
#   From: 2010.06.25/outbox.cif.g09.slc.cpg/sg2_218_cif.got.tgz:434250.got - 2010.06.27 13:26:56.
