data_PCOD8022538
_publ_section_title
;
Structure prediction by ZEFSAII (Michael W. Deem and Ramdas Pophale) SiO2 
 PCOD8022538
Probable space group: P -1
;
_chemical_formula_sum "Si O2"
_cell_formula_units_Z 14
_cell_length_a 11.694462
_cell_length_b 16.535929
_cell_length_c 5.311024
_cell_angle_alpha 132.925696
_cell_angle_beta 117.537778
_cell_angle_gamma 44.190321
_cell_volume 523.522250
_symmetry_space_group_name_H-M "P -1"
_symmetry_group_IT_number 2
_symmetry_cell_setting 'triclinic'
loop_
_space_group_symop_operation_xyz
x,y,z
-x,-y,-z
loop_
_atom_site_type_symbol
_atom_site_label
_atom_site_fract_x
_atom_site_fract_y
_atom_site_fract_z
Si Si1 0.155170 0.802194 0.504605
Si Si2 0.364854 0.494712 0.224733
Si Si3 0.421322 0.786988 0.448148
Si Si4 0.693401 0.768479 0.907627
Si Si5 0.896075 0.481676 0.669227
Si Si6 0.804966 0.819693 0.650650
Si Si7 0.190152 0.981876 0.252174
O O1 0.226775 0.641444 0.258497
O O2 0.255172 0.814327 0.421300
O O3 0.169774 0.863448 0.910088
O O4 0.958721 0.897151 0.459000
O O5 0.500000 0.500000 0.500000
O O6 0.276637 0.466596 0.281421
O O7 0.447377 0.373060 0.845390
O O8 0.510243 0.812140 0.808834
O O9 0.362018 0.900233 0.404080
O O10 0.832601 0.598607 0.630553
O O11 0.697896 0.854099 0.864418
O O12 0.727473 0.800543 0.285104
O O13 0.009979 0.316444 0.369745
O O14 0.000000 0.500000 0.000000
O O15 0.806774 0.947881 0.854105
#
# Coordination Sequence:
#
# PCOD8022538 Si02
#       7
#     2   2   2   2   2   2   2
#     4  11  25  48  72 109 147 203 258 304 384 459
#     4  12  23  46  76 113 150 198 256 320 387 444
#     4  12  26  45  76 110 155 194 251 324 382 454
#     4  11  26  46  77 113 152 198 255 321 379 454
#     4  10  22  46  75 108 153 195 257 311 379 452
#     4  11  25  48  76 112 149 207 253 308 385 462
#     4  11  26  48  73 106 157 198 255 309 380 468
#
# _framework density 26.74194
#
# number of rings (size 3 to 8) (size 9 to 14) (size 15 to 20)
#    0.000    0.857    2.857    3.857    4.000    2.286 
#    2.571    0.000    0.000    0.000    0.000    0.000 
#    0.000    0.000    0.000    0.000    0.000    0.000 
#
# Total GULP energy -173544.009254 kJ/mol
# GULP energy per Si atom -12396.000661 kJ/mol
# Density = 2.668107 g / cm^3
# Si number density = 26.741940 Si / 1000 Ang^3
#
#
#
# Elastic Constant Matrix: (Units=GPa)
#
#
# Indices 1 2 3 4 5 6 
#
# 1 116.4916 31.3907 16.4418 1.0999 3.4768 8.2287
# 2 31.3907 149.0148 30.0193 15.3150 2.8316 8.3253
# 3 16.4418 30.0193 56.3862 5.3919 -4.1170 -6.1998
# 4 1.0999 15.3150 5.3919 43.4565 -3.1825 2.0659
# 5 3.4768 2.8316 -4.1170 -3.1825 36.0380 -3.2229
# 6 8.2287 8.3253 -6.1998 2.0659 -3.2229 42.5372
#
#
#
# Elastic Compliance Matrix: (Units=1/GPa)
#
#
# Indices 1 2 3 4 5 6 
#
# 1 0.009479 -0.001445 -0.002358 0.000570 -0.001200 -0.002013
# 2 -0.001445 0.008200 -0.004026 -0.002362 -0.001343 -0.001899
# 3 -0.002358 -0.004026 0.021432 -0.001161 0.003308 0.004675
# 4 0.000570 -0.002362 -0.001161 0.024164 0.002057 -0.000835
# 5 -0.001200 -0.001343 0.003308 0.002057 0.028803 0.003060
# 6 -0.002013 -0.001899 0.004675 -0.000835 0.003060 0.025224
#
#
# Mechanical properties :
#
#
# Convention : Reuss Voigt Hill
#
# Bulk Modulus (GPa) = 42.63612 53.06626 47.85119
# Shear Modulus (GPa) = 35.51689 40.67572 38.09630
#
# Velocity S-wave (km/s) = 3.64831 3.90429 3.77847
# Velocity P-wave (km/s) = 5.80733 6.34126 6.08016
#
# Compressibility (1/GPa) = 0.02345429
#
# Stress axis : x y z
#
# Youngs Moduli (GPa) = 105.49413 121.94391 46.65889
#
# Poissons Ratio (x) = 0.17622 0.11003
# Poissons Ratio (y) = 0.15244 0.18783
# Poissons Ratio (z) = 0.24878 0.49089
#
# Static dielectric constant tensor:
#      x y z
#    x 4.833780 -0.018820 0.170600 
#    y -0.018820 5.581860 0.405260 
#    z 0.170600 0.405260 4.522070 
# 
# 
# High freq. dielectric constant tensor:
#      x y z
#    x 2.073230 -0.003220 0.010710 
#    y -0.003220 2.099300 0.011890 
#    z 0.010710 0.011890 2.056510 
# 
# From -- ./inp_files/81734.got.cif
#   From: 2010.06.25/outbox.cif.g09.slc.cpg/sg2_41_cif.got.tgz:81734.got - 2010.06.27 13:26:56.
