data_PCOD8022506
_publ_section_title
;
Structure prediction by ZEFSAII (Michael W. Deem and Ramdas Pophale) SiO2 
 PCOD8022506
Probable space group: P -1
;
_chemical_formula_sum "Si O2"
_cell_formula_units_Z 16
_cell_length_a 15.556915
_cell_length_b 11.941051
_cell_length_c 8.866208
_cell_angle_alpha 73.254256
_cell_angle_beta 128.891685
_cell_angle_gamma 66.014461
_cell_volume 755.607982
_symmetry_space_group_name_H-M "P -1"
_symmetry_group_IT_number 2
_symmetry_cell_setting 'triclinic'
loop_
_space_group_symop_operation_xyz
x,y,z
-x,-y,-z
loop_
_atom_site_type_symbol
_atom_site_label
_atom_site_fract_x
_atom_site_fract_y
_atom_site_fract_z
Si Si1 0.255592 0.274382 0.021164
Si Si2 0.386235 0.923969 0.398247
Si Si3 0.023071 0.019182 0.348903
Si Si4 0.316415 0.620915 0.670965
Si Si5 0.343331 0.694979 0.340169
Si Si6 0.331145 0.344795 0.777614
Si Si7 0.273617 0.018775 0.582997
Si Si8 0.089570 0.407798 0.294448
O O1 0.405918 0.211488 0.314345
O O2 0.276306 0.115660 0.112099
O O3 0.274879 0.298386 0.860973
O O4 0.063052 0.475614 0.791781
O O5 0.373513 0.809400 0.346356
O O6 0.304528 0.984447 0.451694
O O7 0.109439 0.074359 0.424838
O O8 0.150483 0.824975 0.478696
O O9 0.000000 0.000000 0.500000
O O10 0.835242 0.180174 0.996577
O O11 0.330774 0.641109 0.505502
O O12 0.272269 0.523003 0.689711
O O13 0.500000 0.500000 0.000000
O O14 0.500000 0.500000 0.500000
O O15 0.224117 0.401834 0.485258
O O16 0.545263 0.166474 0.056261
O O17 0.219760 0.189576 0.515852
O O18 0.000000 0.500000 0.000000
#
# Coordination Sequence:
#
# PCOD8022506 Si02
#       8
#     2   2   2   2   2   2   2   2
#     4  10  23  44  69 101 134 184 228 286 340 418
#     4  10  22  46  71  97 141 181 230 286 355 411
#     4  12  28  45  71 107 140 188 239 297 360 430
#     4  12  24  49  74 102 145 186 237 294 360 430
#     4  12  28  45  74 105 139 187 241 298 363 423
#     4  11  26  45  69 100 144 187 228 283 358 417
#     4  11  24  47  69  98 144 184 230 289 354 420
#     4  12  26  41  70 103 136 179 240 290 341 409
#
# _framework density 21.175004000000001
#
# number of rings (size 3 to 8) (size 9 to 14) (size 15 to 20)
#    0.000    0.750    3.750    2.625    7.000    1.000 
#    0.000    0.000    0.000    0.000    0.000    0.000 
#    0.000    0.000    0.000    0.000    0.000    0.000 
#
# Total GULP energy -198458.406031 kJ/mol
# GULP energy per Si atom -12403.650377 kJ/mol
# Density = 2.112681 g / cm^3
# Si number density = 21.175004 Si / 1000 Ang^3
#
#
#
# Elastic Constant Matrix: (Units=GPa)
#
#
# Indices 1 2 3 4 5 6 
#
# 1 103.8306 39.7602 44.5343 9.9618 -0.7420 -1.6118
# 2 39.7602 111.3936 41.3947 1.9329 14.5259 -9.7644
# 3 44.5343 41.3947 149.8713 17.7392 10.1574 -13.3714
# 4 9.9618 1.9329 17.7392 40.1069 -2.2058 10.9272
# 5 -0.7420 14.5259 10.1574 -2.2058 40.8876 1.3300
# 6 -1.6118 -9.7644 -13.3714 10.9272 1.3300 35.8999
#
#
#
# Elastic Compliance Matrix: (Units=1/GPa)
#
#
# Indices 1 2 3 4 5 6 
#
# 1 0.012366 -0.003766 -0.002747 -0.001226 0.002218 -0.001201
# 2 -0.003766 0.011648 -0.001642 0.000216 -0.003867 0.002465
# 3 -0.002747 -0.001642 0.008989 -0.004478 -0.002079 0.004218
# 4 -0.001226 0.000216 -0.004478 0.030377 0.003011 -0.011022
# 5 0.002218 -0.003867 -0.002079 0.003011 0.026668 -0.003631
# 6 -0.001201 0.002465 0.004218 -0.011022 -0.003631 0.033532
#
#
# Mechanical properties :
#
#
# Convention : Reuss Voigt Hill
#
# Bulk Modulus (GPa) = 59.90071 68.49709 64.19890
# Shear Modulus (GPa) = 34.37473 39.33930 36.85701
#
# Velocity S-wave (km/s) = 4.03347 4.31492 4.17656
# Velocity P-wave (km/s) = 7.07401 7.56591 7.32409
#
# Compressibility (1/GPa) = 0.01669429
#
# Stress axis : x y z
#
# Youngs Moduli (GPa) = 80.86491 85.84998 111.24346
#
# Poissons Ratio (x) = 0.32335 0.30556
# Poissons Ratio (y) = 0.30458 0.18261
# Poissons Ratio (z) = 0.22211 0.14093
#
# Static dielectric constant tensor:
#      x y z
#    x 3.857880 0.040220 0.107400 
#    y 0.040220 3.854220 0.033040 
#    z 0.107400 0.033040 3.970470 
# 
# 
# High freq. dielectric constant tensor:
#      x y z
#    x 1.834820 0.005530 0.005070 
#    y 0.005530 1.840280 -0.005070 
#    z 0.005070 -0.005070 1.848320 
# 
# From -- ./inp_files/188946.got.cif
#   From: 2010.06.25/outbox.cif.g09.slc.cpg/sg2_95_cif.got.tgz:188946.got - 2010.06.27 13:26:56.
