data_PCOD8022856
_publ_section_title
;
Structure prediction by ZEFSAII (Michael W. Deem and Ramdas Pophale) SiO2 
 PCOD8022856
Probable space group: P -1
;
_chemical_formula_sum "Si O2"
_cell_formula_units_Z 12
_cell_length_a 12.123837
_cell_length_b 8.933381
_cell_length_c 7.887641
_cell_angle_alpha 104.091609
_cell_angle_beta 93.312176
_cell_angle_gamma 135.868438
_cell_volume 541.670390
_symmetry_space_group_name_H-M "P -1"
_symmetry_group_IT_number 2
_symmetry_cell_setting 'triclinic'
loop_
_space_group_symop_operation_xyz
x,y,z
-x,-y,-z
loop_
_atom_site_type_symbol
_atom_site_label
_atom_site_fract_x
_atom_site_fract_y
_atom_site_fract_z
Si Si1 0.555534 0.792570 0.328711
Si Si2 0.098825 0.509359 0.651856
Si Si3 0.651833 0.005345 0.047518
Si Si4 0.121773 0.000672 0.435887
Si Si5 0.651009 0.711231 0.771521
Si Si6 0.558627 0.249844 0.352173
O O1 0.563148 0.911429 0.199044
O O2 0.398453 0.507528 0.218839
O O3 0.523767 0.876378 0.507107
O O4 0.728999 0.880321 0.386180
O O5 0.242230 0.563596 0.579794
O O6 0.000000 0.500000 0.500000
O O7 0.980107 0.266641 0.675916
O O8 0.182501 0.712758 0.852852
O O9 0.704555 0.883814 0.976326
O O10 0.525259 0.932094 0.865623
O O11 0.191259 0.133637 0.299026
O O12 0.000000 0.000000 0.500000
O O13 0.486266 0.613869 0.635577
#
# Coordination Sequence:
#
# PCOD8022856 Si02
#       6
#     2   2   2   2   2   2
#     4  11  19  43  67  93 126 172 217 258 308 386
#     4  12  23  42  64  97 135 163 208 269 324 375
#     4  10  23  39  66  96 125 168 218 255 316 378
#     4  11  22  40  67  91 128 171 206 263 325 366
#     4   9  21  40  65  92 126 169 219 252 308 388
#     4   9  22  40  66  90 122 175 217 246 313 383
#
# _framework density 22.153693000000001
#
# number of rings (size 3 to 8) (size 9 to 14) (size 15 to 20)
#    1.000    0.667    1.667    5.000    0.000    1.333 
#    0.000    2.500    0.000    0.000    0.000    0.000 
#    0.000    0.000    0.000    0.000    0.000    0.000 
#
# Total GULP energy -148746.703716 kJ/mol
# GULP energy per Si atom -12395.558643 kJ/mol
# Density = 2.210327 g / cm^3
# Si number density = 22.153693 Si / 1000 Ang^3
#
#
#
# Elastic Constant Matrix: (Units=GPa)
#
#
# Indices 1 2 3 4 5 6 
#
# 1 75.6477 31.1502 30.6780 -1.6491 3.4573 20.4589
# 2 31.1502 159.7233 58.3537 14.7364 -4.8894 -7.8805
# 3 30.6780 58.3537 123.6802 -8.5099 -11.7849 3.0687
# 4 -1.6491 14.7364 -8.5099 34.9303 7.6243 -7.2302
# 5 3.4573 -4.8894 -11.7849 7.6243 22.6084 -2.6691
# 6 20.4589 -7.8805 3.0687 -7.2302 -2.6691 36.4852
#
#
#
# Elastic Compliance Matrix: (Units=1/GPa)
#
#
# Indices 1 2 3 4 5 6 
#
# 1 0.019618 -0.003356 -0.003637 0.000581 -0.007214 -0.011832
# 2 -0.003356 0.008867 -0.003509 -0.004616 0.002556 0.003364
# 3 -0.003637 -0.003509 0.011287 0.003303 0.004724 0.001332
# 4 0.000581 -0.004616 0.003303 0.034633 -0.010514 0.004493
# 5 -0.007214 0.002556 0.004724 -0.010514 0.052600 0.005964
# 6 -0.011832 0.003364 0.001332 0.004493 0.005964 0.035985
#
#
# Mechanical properties :
#
#
# Convention : Reuss Voigt Hill
#
# Bulk Modulus (GPa) = 53.27584 66.60165 59.93875
# Shear Modulus (GPa) = 26.28127 34.72940 30.50533
#
# Velocity S-wave (km/s) = 3.44803 3.96366 3.71480
# Velocity P-wave (km/s) = 6.32079 7.14676 6.74643
#
# Compressibility (1/GPa) = 0.01877023
#
# Stress axis : x y z
#
# Youngs Moduli (GPa) = 50.97290 112.77415 88.59475
#
# Poissons Ratio (x) = 0.37843 0.32220
# Poissons Ratio (y) = 0.17105 0.31087
# Poissons Ratio (z) = 0.18538 0.39571
#
# Static dielectric constant tensor:
#      x y z
#    x 3.810440 -0.019100 -0.175950 
#    y -0.019100 4.005410 0.053410 
#    z -0.175950 0.053410 3.932220 
# 
# 
# High freq. dielectric constant tensor:
#      x y z
#    x 1.872990 -0.010770 -0.019730 
#    y -0.010770 1.872780 0.002540 
#    z -0.019730 0.002540 1.859970 
# 
# From -- ./inp_files/232024.got.cif
#   From: 2010.06.25/outbox.cif.g09.slc.cpg/sg2_117_cif.got.tgz:232024.got - 2010.06.27 13:26:56.
