data_PCOD8022262
_publ_section_title
;
Structure prediction by ZEFSAII (Michael W. Deem and Ramdas Pophale) SiO2 
 PCOD8022262
Probable space group: P -1
;
_chemical_formula_sum "Si O2"
_cell_formula_units_Z 14
_cell_length_a 20.786999
_cell_length_b 20.531016
_cell_length_c 12.272582
_cell_angle_alpha 151.318321
_cell_angle_beta 160.086229
_cell_angle_gamma 20.992300
_cell_volume 639.091833
_symmetry_space_group_name_H-M "P -1"
_symmetry_group_IT_number 2
_symmetry_cell_setting 'triclinic'
loop_
_space_group_symop_operation_xyz
x,y,z
-x,-y,-z
loop_
_atom_site_type_symbol
_atom_site_label
_atom_site_fract_x
_atom_site_fract_y
_atom_site_fract_z
Si Si1 0.087247 0.087155 0.899467
Si Si2 0.739449 0.343034 0.219990
Si Si3 0.815357 0.766006 0.376018
Si Si4 0.972346 0.608276 0.818751
Si Si5 0.260423 0.990299 0.784324
Si Si6 0.058792 0.613808 0.204580
Si Si7 0.624362 0.096509 0.705088
O O1 0.197215 0.022937 0.859496
O O2 0.877404 0.076555 0.582130
O O3 0.960868 0.298296 0.018091
O O4 0.329768 0.957229 0.173482
O O5 0.716827 0.418776 0.417229
O O6 0.996225 0.279714 0.486063
O O7 0.500000 0.500000 0.000000
O O8 0.759817 0.172056 0.002730
O O9 0.939732 0.578346 0.364189
O O10 0.765555 0.912749 0.593041
O O11 0.558548 0.836088 0.013721
O O12 0.670420 0.754134 0.573734
O O13 0.125740 0.554518 0.098073
O O14 0.173678 0.167661 0.844213
O O15 0.000000 0.500000 0.000000
#
# Coordination Sequence:
#
# PCOD8022262 Si02
#       7
#     2   2   2   2   2   2   2
#     4  10  22  45  69  94 136 179 218 278 330 384
#     4  12  25  45  69  99 137 173 218 278 338 394
#     4  12  25  43  67 101 134 175 225 271 330 403
#     4  11  24  44  68  99 135 172 226 276 324 394
#     4  10  23  43  69  99 131 176 229 266 331 399
#     4  11  20  44  70  93 131 179 213 274 339 376
#     4  12  23  46  68  99 136 179 217 274 339 391
#
# _framework density 21.906084
#
# number of rings (size 3 to 8) (size 9 to 14) (size 15 to 20)
#    0.000    0.857    7.143    0.857    0.000    1.714 
#    2.571    0.000    0.000    0.000    0.000    0.000 
#    0.000    0.000    0.000    0.000    0.000    0.000 
#
# Total GULP energy -173533.576292 kJ/mol
# GULP energy per Si atom -12395.255449 kJ/mol
# Density = 2.185622 g / cm^3
# Si number density = 21.906084 Si / 1000 Ang^3
#
#
#
# Elastic Constant Matrix: (Units=GPa)
#
#
# Indices 1 2 3 4 5 6 
#
# 1 62.9513 47.8671 49.6844 -7.0357 -3.1499 24.9436
# 2 47.8671 169.1755 63.2102 23.9424 8.0594 30.9577
# 3 49.6844 63.2102 145.4212 5.6911 -0.9388 7.5712
# 4 -7.0357 23.9424 5.6911 43.9518 9.8971 6.0021
# 5 -3.1499 8.0594 -0.9388 9.8971 45.2046 2.7446
# 6 24.9436 30.9577 7.5712 6.0021 2.7446 35.9648
#
#
#
# Elastic Compliance Matrix: (Units=1/GPa)
#
#
# Indices 1 2 3 4 5 6 
#
# 1 0.037831 -0.004672 -0.010213 0.012549 0.001864 -0.022303
# 2 -0.004672 0.009406 -0.002120 -0.004947 -0.000749 -0.003528
# 3 -0.010213 -0.002120 0.011034 -0.002896 0.000101 0.007061
# 4 0.012549 -0.004947 -0.002896 0.029972 -0.004349 -0.008506
# 5 0.001864 -0.000749 0.000101 -0.004349 0.023445 -0.001732
# 6 -0.022303 -0.003528 0.007061 -0.008506 -0.001732 0.046375
#
#
# Mechanical properties :
#
#
# Convention : Reuss Voigt Hill
#
# Bulk Modulus (GPa) = 41.21613 77.67460 59.44536
# Shear Modulus (GPa) = 24.98014 39.47666 32.22840
#
# Velocity S-wave (km/s) = 3.38054 4.24970 3.83979
# Velocity P-wave (km/s) = 5.83893 7.72107 6.84500
#
# Compressibility (1/GPa) = 0.02426235
#
# Stress axis : x y z
#
# Youngs Moduli (GPa) = 26.43325 106.31157 90.63169
#
# Poissons Ratio (x) = 0.49666 0.92558
# Poissons Ratio (y) = 0.12349 0.19215
# Poissons Ratio (z) = 0.26995 0.22539
#
# Static dielectric constant tensor:
#      x y z
#    x 3.793380 0.452300 -0.067370 
#    y 0.452300 4.219290 0.330140 
#    z -0.067370 0.330140 4.419870 
# 
# 
# High freq. dielectric constant tensor:
#      x y z
#    x 1.836870 0.036520 -0.009570 
#    y 0.036520 1.868670 0.019360 
#    z -0.009570 0.019360 1.877830 
# 
# From -- ./inp_files/259264.got.cif
#   From: 2010.06.25/outbox.cif.g09.slc.cpg/sg2_130_cif.got.tgz:259264.got - 2010.06.27 13:26:56.
