data_PCOD8022200
_publ_section_title
;
Structure prediction by ZEFSAII (Michael W. Deem and Ramdas Pophale) SiO2 
 PCOD8022200
Probable space group: P -1
;
_chemical_formula_sum "Si O2"
_cell_formula_units_Z 16
_cell_length_a 9.383092
_cell_length_b 12.655736
_cell_length_c 12.273782
_cell_angle_alpha 133.735084
_cell_angle_beta 68.096934
_cell_angle_gamma 137.726269
_cell_volume 679.031818
_symmetry_space_group_name_H-M "P -1"
_symmetry_group_IT_number 2
_symmetry_cell_setting 'triclinic'
loop_
_space_group_symop_operation_xyz
x,y,z
-x,-y,-z
loop_
_atom_site_type_symbol
_atom_site_label
_atom_site_fract_x
_atom_site_fract_y
_atom_site_fract_z
Si Si1 0.484357 0.197296 0.361987
Si Si2 0.130720 0.189449 0.421617
Si Si3 0.304744 0.251492 0.798671
Si Si4 0.894222 0.505037 0.306499
Si Si5 0.297965 0.613687 0.344102
Si Si6 0.480082 0.323239 0.022078
Si Si7 0.640952 0.154921 0.968770
Si Si8 0.144896 0.214781 0.179525
O O1 0.361070 0.267920 0.438315
O O2 0.709183 0.340408 0.331082
O O3 0.554798 0.221969 0.483083
O O4 0.309890 0.954103 0.196996
O O5 0.086757 0.051013 0.653414
O O6 0.122296 0.333132 0.594923
O O7 0.109328 0.199885 0.306683
O O8 0.530033 0.324125 0.750632
O O9 0.287747 0.201652 0.897175
O O10 0.318608 0.436684 0.906915
O O11 0.144216 0.640696 0.366784
O O12 0.852297 0.384764 0.121155
O O13 0.123451 0.366078 0.249533
O O14 0.526168 0.186589 0.938641
O O15 0.396189 0.336449 0.169403
O O16 0.500000 0.000000 0.000000
O O17 0.000000 0.000000 0.000000
#
# Coordination Sequence:
#
# PCOD8022200 Si02
#       8
#     2   2   2   2   2   2   2   2
#     4  11  25  43  71 104 140 179 238 303 350 414
#     4  12  25  43  71 103 142 185 240 288 361 419
#     4  10  25  44  69 101 147 193 232 282 354 439
#     4  11  25  44  71 104 141 177 239 303 350 416
#     4  11  26  44  68 101 144 187 239 291 353 418
#     4  10  22  45  68 104 144 185 240 288 351 424
#     4  10  24  42  73 100 142 176 233 297 360 408
#     4  11  22  36  74 102 134 185 239 297 350 409
#
# _framework density 23.562961999999999
#
# number of rings (size 3 to 8) (size 9 to 14) (size 15 to 20)
#    0.000    1.250    2.500    2.250   10.500    1.000 
#    0.000    1.250    0.000    0.000    0.000    0.000 
#    0.000    0.000    0.000    0.000    0.000    0.000 
#
# Total GULP energy -198281.991131 kJ/mol
# GULP energy per Si atom -12392.624446 kJ/mol
# Density = 2.350933 g / cm^3
# Si number density = 23.562962 Si / 1000 Ang^3
#
#
#
# Elastic Constant Matrix: (Units=GPa)
#
#
# Indices 1 2 3 4 5 6 
#
# 1 99.7104 27.6138 30.1998 -2.6731 -14.7160 -6.9619
# 2 27.6138 59.4632 21.8465 6.7297 1.3670 -8.7484
# 3 30.1998 21.8465 155.3163 23.0641 -1.7054 -6.8219
# 4 -2.6731 6.7297 23.0641 19.0471 -2.4515 -4.7347
# 5 -14.7160 1.3670 -1.7054 -2.4515 36.3447 4.0071
# 6 -6.9619 -8.7484 -6.8219 -4.7347 4.0071 36.1924
#
#
#
# Elastic Compliance Matrix: (Units=1/GPa)
#
#
# Indices 1 2 3 4 5 6 
#
# 1 0.013940 -0.006360 -0.003028 0.008933 0.006228 0.001052
# 2 -0.006360 0.021416 -0.000562 -0.007499 -0.004281 0.003340
# 3 -0.003028 -0.000562 0.008717 -0.011064 -0.001503 -0.000356
# 4 0.008933 -0.007499 -0.011064 0.072377 0.007550 0.006453
# 5 0.006228 -0.004281 -0.001503 0.007550 0.030918 -0.002555
# 6 0.001052 0.003340 -0.000356 0.006453 -0.002555 0.029700
#
#
# Mechanical properties :
#
#
# Convention : Reuss Voigt Hill
#
# Bulk Modulus (GPa) = 41.37037 52.64557 47.00797
# Shear Modulus (GPa) = 24.38723 33.97215 29.17969
#
# Velocity S-wave (km/s) = 3.22060 3.80117 3.52287
# Velocity P-wave (km/s) = 5.60582 6.45416 6.04489
#
# Compressibility (1/GPa) = 0.02417189
#
# Stress axis : x y z
#
# Youngs Moduli (GPa) = 71.73823 46.69436 114.71753
#
# Poissons Ratio (x) = 0.29699 0.34733
# Poissons Ratio (y) = 0.45627 0.06451
# Poissons Ratio (z) = 0.21720 0.02626
#
# Static dielectric constant tensor:
#      x y z
#    x 4.140180 0.005740 -0.028390 
#    y 0.005740 4.318440 0.200580 
#    z -0.028390 0.200580 4.743090 
# 
# 
# High freq. dielectric constant tensor:
#      x y z
#    x 1.912940 -0.005750 -0.001020 
#    y -0.005750 1.921550 0.008120 
#    z -0.001020 0.008120 1.953160 
# 
# From -- ./inp_files/393081.got.cif
#   From: 2010.06.25/outbox.cif.g09.slc.cpg/sg2_197_cif.got.tgz:393081.got - 2010.06.27 13:26:56.
