data_PCOD8022857
_publ_section_title
;
Structure prediction by ZEFSAII (Michael W. Deem and Ramdas Pophale) SiO2 
 PCOD8022857
Probable space group: P -1
;
_chemical_formula_sum "Si O2"
_cell_formula_units_Z 16
_cell_length_a 12.797533
_cell_length_b 16.686314
_cell_length_c 8.887683
_cell_angle_alpha 113.954454
_cell_angle_beta 115.517611
_cell_angle_gamma 25.535507
_cell_volume 737.595024
_symmetry_space_group_name_H-M "P -1"
_symmetry_group_IT_number 2
_symmetry_cell_setting 'triclinic'
loop_
_space_group_symop_operation_xyz
x,y,z
-x,-y,-z
loop_
_atom_site_type_symbol
_atom_site_label
_atom_site_fract_x
_atom_site_fract_y
_atom_site_fract_z
Si Si1 0.944259 0.706177 0.752383
Si Si2 0.142635 0.364315 0.123223
Si Si3 0.518557 0.899019 0.115456
Si Si4 0.775226 0.300111 0.064550
Si Si5 0.152249 0.015540 0.850845
Si Si6 0.328512 0.710863 0.699022
Si Si7 0.013684 0.377896 0.620465
Si Si8 0.862706 0.308661 0.651587
O O1 0.032809 0.584726 0.852087
O O2 0.966656 0.639928 0.559701
O O3 0.099268 0.689971 0.826534
O O4 0.658380 0.908958 0.777157
O O5 0.204305 0.407546 0.303390
O O6 0.376069 0.157695 0.034515
O O7 0.000000 0.500000 0.000000
O O8 0.737574 0.744748 0.253907
O O9 0.358969 0.916373 0.015384
O O10 0.792881 0.232248 0.174683
O O11 0.500000 0.500000 0.000000
O O12 0.911077 0.155213 0.907411
O O13 0.074382 0.139794 0.771988
O O14 0.252776 0.859879 0.719741
O O15 0.623399 0.506289 0.738546
O O16 0.217881 0.723266 0.512313
O O17 0.972195 0.309120 0.610156
#
# Coordination Sequence:
#
# PCOD8022857 Si02
#       8
#     2   2   2   2   2   2   2   2
#     4  11  23  42  64  94 133 172 212 267 336 387
#     4  10  23  39  66  96 125 168 220 266 321 397
#     4  10  24  40  65  96 127 168 213 269 325 389
#     4  11  23  41  67  94 131 173 219 275 329 382
#     4  11  24  41  69  98 129 173 220 274 324 392
#     4  11  23  46  65  97 132 172 222 270 326 388
#     4  11  23  42  65  94 134 170 213 269 329 394
#     4  11  24  41  71  94 133 176 217 269 329 389
#
# _framework density 21.692119999999999
#
# number of rings (size 3 to 8) (size 9 to 14) (size 15 to 20)
#    0.000    1.250    2.500    2.625    8.750    2.000 
#    0.000    0.000    0.000    0.000    0.000    0.000 
#    0.000    0.000    0.000    0.000    0.000    0.000 
#
# Total GULP energy -198283.893300 kJ/mol
# GULP energy per Si atom -12392.743331 kJ/mol
# Density = 2.164275 g / cm^3
# Si number density = 21.692120 Si / 1000 Ang^3
#
#
#
# Elastic Constant Matrix: (Units=GPa)
#
#
# Indices 1 2 3 4 5 6 
#
# 1 83.0407 32.6165 23.8771 -2.2541 -17.1818 1.7733
# 2 32.6165 77.8023 44.4120 9.3487 1.9982 0.1621
# 3 23.8771 44.4120 108.6969 22.2585 -12.1794 -3.5580
# 4 -2.2541 9.3487 22.2585 40.3112 -2.1175 3.3672
# 5 -17.1818 1.9982 -12.1794 -2.1175 43.9022 -1.3065
# 6 1.7733 0.1621 -3.5580 3.3672 -1.3065 33.5041
#
#
#
# Elastic Compliance Matrix: (Units=1/GPa)
#
#
# Indices 1 2 3 4 5 6 
#
# 1 0.016547 -0.007116 -0.000701 0.003400 0.006740 -0.000995
# 2 -0.007116 0.020182 -0.007049 -0.001442 -0.005745 -0.000549
# 3 -0.000701 -0.007049 0.013978 -0.006122 0.003698 0.002315
# 4 0.003400 -0.001442 -0.006122 0.029073 0.000990 -0.003706
# 5 0.006740 -0.005745 0.003698 0.000990 0.026781 0.001009
# 6 -0.000995 -0.000549 0.002315 -0.003706 0.001009 0.030560
#
#
# Mechanical properties :
#
#
# Convention : Reuss Voigt Hill
#
# Bulk Modulus (GPa) = 47.67789 52.37237 50.02513
# Shear Modulus (GPa) = 28.76111 34.78578 31.77345
#
# Velocity S-wave (km/s) = 3.64521 4.00886 3.83135
# Velocity P-wave (km/s) = 6.30427 6.75454 6.53329
#
# Compressibility (1/GPa) = 0.02097408
#
# Stress axis : x y z
#
# Youngs Moduli (GPa) = 60.43403 49.54791 71.54203
#
# Poissons Ratio (x) = 0.35260 0.05013
# Poissons Ratio (y) = 0.43007 0.50433
# Poissons Ratio (z) = 0.04235 0.34929
#
# Static dielectric constant tensor:
#      x y z
#    x 3.994730 -0.186610 -0.172460 
#    y -0.186610 4.318940 0.590100 
#    z -0.172460 0.590100 4.245710 
# 
# 
# High freq. dielectric constant tensor:
#      x y z
#    x 1.852370 0.001060 -0.006070 
#    y 0.001060 1.850530 0.020810 
#    z -0.006070 0.020810 1.858720 
# 
# From -- ./inp_files/273819.got.cif
#   From: 2010.06.25/outbox.cif.g09.slc.cpg/sg2_137_cif.got.tgz:273819.got - 2010.06.27 13:26:56.
