data_PCOD8022222
_publ_section_title
;
Structure prediction by ZEFSAII (Michael W. Deem and Ramdas Pophale) SiO2 
 PCOD8022222
Probable space group: P -1
;
_chemical_formula_sum "Si O2"
_cell_formula_units_Z 12
_cell_length_a 14.671159
_cell_length_b 5.590004
_cell_length_c 6.995999
_cell_angle_alpha 59.104310
_cell_angle_beta 65.178606
_cell_angle_gamma 69.762881
_cell_volume 440.555573
_symmetry_space_group_name_H-M "P -1"
_symmetry_group_IT_number 2
_symmetry_cell_setting 'triclinic'
loop_
_space_group_symop_operation_xyz
x,y,z
-x,-y,-z
loop_
_atom_site_type_symbol
_atom_site_label
_atom_site_fract_x
_atom_site_fract_y
_atom_site_fract_z
Si Si1 0.622547 0.948143 0.726886
Si Si2 0.598320 0.995179 0.169165
Si Si3 0.030753 0.713066 0.227131
Si Si4 0.956392 0.243110 0.286127
Si Si5 0.254745 0.580955 0.079295
Si Si6 0.268450 0.537923 0.648894
O O1 0.521060 0.940436 0.692495
O O2 0.656222 0.244374 0.541919
O O3 0.716657 0.696960 0.696039
O O4 0.600070 0.889407 0.992735
O O5 0.648624 0.269870 0.033201
O O6 0.665276 0.764516 0.345686
O O7 0.000000 0.500000 0.500000
O O8 0.016852 0.519717 0.126503
O O9 0.145614 0.754746 0.162428
O O10 0.965394 0.042457 0.162880
O O11 0.839819 0.366785 0.398730
O O12 0.000000 0.000000 0.500000
O O13 0.240406 0.502668 0.906555
#
# Coordination Sequence:
#
# PCOD8022222 Si02
#       6
#     2   2   2   2   2   2
#     4  10  22  45  68  96 137 180 222 285 353 416
#     4  10  24  42  68 101 133 175 231 286 346 418
#     4  10  23  41  68  97 135 182 232 281 344 413
#     4  10  23  42  67  99 134 185 231 280 346 415
#     4  11  25  41  68 101 134 178 231 285 347 417
#     4  11  25  41  69  99 136 178 230 287 347 416
#
# _framework density 27.238334999999999
#
# number of rings (size 3 to 8) (size 9 to 14) (size 15 to 20)
#    0.000    1.667    0.000    3.000   11.667    3.333 
#    0.000    0.000    0.000    0.000    0.000    0.000 
#    0.000    0.000    0.000    0.000    0.000    0.000 
#
# Total GULP energy -148713.413820 kJ/mol
# GULP energy per Si atom -12392.784485 kJ/mol
# Density = 2.717634 g / cm^3
# Si number density = 27.238335 Si / 1000 Ang^3
#
#
#
# Elastic Constant Matrix: (Units=GPa)
#
#
# Indices 1 2 3 4 5 6 
#
# 1 153.5194 38.1555 27.8205 3.4124 -8.6701 -23.1632
# 2 38.1555 127.0851 29.5405 -34.5235 5.6151 -15.7567
# 3 27.8205 29.5405 61.3926 -30.6366 -5.2239 -3.9236
# 4 3.4124 -34.5235 -30.6366 39.1690 -0.0302 -8.1942
# 5 -8.6701 5.6151 -5.2239 -0.0302 54.9746 -5.0958
# 6 -23.1632 -15.7567 -3.9236 -8.1942 -5.0958 60.1118
#
#
#
# Elastic Compliance Matrix: (Units=1/GPa)
#
#
# Indices 1 2 3 4 5 6 
#
# 1 0.009005 -0.003489 -0.006644 -0.008842 0.001235 0.001021
# 2 -0.003489 0.012801 0.002943 0.014748 -0.001189 0.004113
# 3 -0.006644 0.002943 0.033561 0.030417 0.002297 0.004743
# 4 -0.008842 0.014748 0.030417 0.065490 0.001088 0.011464
# 5 0.001235 -0.001189 0.002297 0.001088 0.018917 0.002066
# 6 0.001021 0.004113 0.004743 0.011464 0.002066 0.020155
#
#
# Mechanical properties :
#
#
# Convention : Reuss Voigt Hill
#
# Bulk Modulus (GPa) = 24.39810 59.22556 41.81183
# Shear Modulus (GPa) = 26.59982 47.28313 36.94148
#
# Velocity S-wave (km/s) = 3.12838 4.17094 3.68670
# Velocity P-wave (km/s) = 4.69316 6.70718 5.78844
#
# Compressibility (1/GPa) = 0.04098679
#
# Stress axis : x y z
#
# Youngs Moduli (GPa) = 111.04349 78.11773 29.79685
#
# Poissons Ratio (x) = 0.27258 0.19797
# Poissons Ratio (y) = 0.38747 -0.08770
# Poissons Ratio (z) = 0.73778 -0.22992
#
# Static dielectric constant tensor:
#      x y z
#    x 5.788930 0.291880 0.603380 
#    y 0.291880 6.050330 0.283280 
#    z 0.603380 0.283280 5.176710 
# 
# 
# High freq. dielectric constant tensor:
#      x y z
#    x 2.107840 -0.004820 0.024090 
#    y -0.004820 2.107580 -0.008980 
#    z 0.024090 -0.008980 2.125700 
# 
# From -- ./inp_files/28781.got.cif
#   From: 2010.06.25/outbox.cif.g09.slc.cpg/sg2_15_cif.got.tgz:28781.got - 2010.06.27 13:26:56.
