data_PCOD8022675
_publ_section_title
;
Structure prediction by ZEFSAII (Michael W. Deem and Ramdas Pophale) SiO2 
 PCOD8022675
Probable space group: P -1
;
_chemical_formula_sum "Si O2"
_cell_formula_units_Z 14
_cell_length_a 14.942533
_cell_length_b 8.927792
_cell_length_c 8.788069
_cell_angle_alpha 124.092879
_cell_angle_beta 70.902405
_cell_angle_gamma 144.011497
_cell_volume 550.931970
_symmetry_space_group_name_H-M "P -1"
_symmetry_group_IT_number 2
_symmetry_cell_setting 'triclinic'
loop_
_space_group_symop_operation_xyz
x,y,z
-x,-y,-z
loop_
_atom_site_type_symbol
_atom_site_label
_atom_site_fract_x
_atom_site_fract_y
_atom_site_fract_z
Si Si1 0.948099 0.186656 0.535974
Si Si2 0.883438 0.195556 0.118296
Si Si3 0.659177 0.763429 0.261370
Si Si4 0.613083 0.383445 0.674120
Si Si5 0.522358 0.997834 0.745449
Si Si6 0.386308 0.065835 0.072193
Si Si7 0.935395 0.997101 0.761470
O O1 0.032499 0.512219 0.669359
O O2 0.013636 0.137322 0.347116
O O3 0.764440 0.932467 0.452114
O O4 0.971433 0.140826 0.662517
O O5 0.770927 0.916954 0.139683
O O6 0.782516 0.115218 0.984994
O O7 0.006269 0.236769 0.993753
O O8 0.559013 0.791292 0.312296
O O9 0.537620 0.414142 0.138314
O O10 0.646902 0.319665 0.772734
O O11 0.751403 0.734729 0.762455
O O12 0.604982 0.251721 0.452151
O O13 0.613864 0.973697 0.767405
O O14 0.408112 0.911474 0.884310
#
# Coordination Sequence:
#
# PCOD8022675 Si02
#       7
#     2   2   2   2   2   2   2
#     4  11  28  48  69 104 150 190 237 294 361 432
#     4  12  24  47  74 104 145 191 236 299 356 431
#     4  12  25  45  73 107 143 184 238 300 357 423
#     4  11  22  44  71 109 138 183 237 302 350 423
#     4  10  23  37  67 108 141 175 232 300 356 410
#     4  11  22  43  69 107 138 182 238 299 346 424
#     4  11  25  47  74  99 146 193 238 291 361 426
#
# _framework density 25.411486
#
# number of rings (size 3 to 8) (size 9 to 14) (size 15 to 20)
#    0.000    0.857    2.857    3.857    4.000    5.143 
#    2.571    0.000    0.000    0.000    0.000    0.000 
#    0.000    0.000    0.000    0.000    0.000    0.000 
#
# Total GULP energy -173480.128123 kJ/mol
# GULP energy per Si atom -12391.437723 kJ/mol
# Density = 2.535365 g / cm^3
# Si number density = 25.411486 Si / 1000 Ang^3
#
#
#
# Elastic Constant Matrix: (Units=GPa)
#
#
# Indices 1 2 3 4 5 6 
#
# 1 74.6263 22.3936 56.6979 4.2499 -10.2604 -12.8762
# 2 22.3936 61.7706 24.0164 -4.3827 -7.2180 -7.1294
# 3 56.6979 24.0164 112.6283 -0.4903 -28.8165 0.9249
# 4 4.2499 -4.3827 -0.4903 36.3742 2.5788 3.8233
# 5 -10.2604 -7.2180 -28.8165 2.5788 47.7831 -1.4470
# 6 -12.8762 -7.1294 0.9249 3.8233 -1.4470 29.9336
#
#
#
# Elastic Compliance Matrix: (Units=1/GPa)
#
#
# Indices 1 2 3 4 5 6 
#
# 1 0.026518 -0.003749 -0.013241 -0.004769 -0.002254 0.011423
# 2 -0.003749 0.018874 -0.001936 0.002345 0.000833 0.002683
# 3 -0.013241 -0.001936 0.017904 0.001724 0.007370 -0.006574
# 4 -0.004769 0.002345 0.001724 0.029010 -0.001357 -0.005317
# 5 -0.002254 0.000833 0.007370 -0.001357 0.025099 0.000388
# 6 0.011423 0.002683 -0.006574 -0.005317 0.000388 0.039861
#
#
# Mechanical properties :
#
#
# Convention : Reuss Voigt Hill
#
# Bulk Modulus (GPa) = 39.30156 50.58233 44.94194
# Shear Modulus (GPa) = 24.55788 32.54598 28.55193
#
# Velocity S-wave (km/s) = 3.11208 3.58265 3.35563
# Velocity P-wave (km/s) = 5.33039 6.08789 5.72169
#
# Compressibility (1/GPa) = 0.02544428
#
# Stress axis : x y z
#
# Youngs Moduli (GPa) = 37.71053 52.98244 55.85204
#
# Poissons Ratio (x) = 0.19861 0.73955
# Poissons Ratio (y) = 0.14136 0.10814
# Poissons Ratio (z) = 0.49933 0.10259
#
# Static dielectric constant tensor:
#      x y z
#    x 4.693340 -0.222700 -0.209340 
#    y -0.222700 4.329910 -0.064810 
#    z -0.209340 -0.064810 4.916640 
# 
# 
# High freq. dielectric constant tensor:
#      x y z
#    x 2.007650 -0.018340 -0.015630 
#    y -0.018340 2.002970 -0.008350 
#    z -0.015630 -0.008350 2.031970 
# 
# From -- ./inp_files/245719.got.cif
#   From: 2010.06.25/outbox.cif.g09.slc.cpg/sg2_123_cif.got.tgz:245719.got - 2010.06.27 13:26:56.
