data_PCOD8022189
_publ_section_title
;
Structure prediction by ZEFSAII (Michael W. Deem and Ramdas Pophale) SiO2 
 PCOD8022189
Probable space group: P -1
;
_chemical_formula_sum "Si O2"
_cell_formula_units_Z 14
_cell_length_a 15.714978
_cell_length_b 12.309189
_cell_length_c 22.236348
_cell_angle_alpha 27.257722
_cell_angle_beta 160.618054
_cell_angle_gamma 151.032398
_cell_volume 634.833938
_symmetry_space_group_name_H-M "P -1"
_symmetry_group_IT_number 2
_symmetry_cell_setting 'triclinic'
loop_
_space_group_symop_operation_xyz
x,y,z
-x,-y,-z
loop_
_atom_site_type_symbol
_atom_site_label
_atom_site_fract_x
_atom_site_fract_y
_atom_site_fract_z
Si Si1 0.586038 0.682583 0.281865
Si Si2 0.938046 0.217267 0.109967
Si Si3 0.445241 0.762771 0.844927
Si Si4 0.687940 0.820002 0.715551
Si Si5 0.054158 0.862175 0.044530
Si Si6 0.912530 0.980270 0.578397
Si Si7 0.057654 0.350829 0.351179
O O1 0.463720 0.436481 0.286216
O O2 0.715300 0.631775 0.456199
O O3 0.380350 0.858407 0.064229
O O4 0.811770 0.831336 0.316098
O O5 0.052446 0.073009 0.205071
O O6 0.110622 0.205966 0.290679
O O7 0.000000 0.500000 0.000000
O O8 0.240605 0.729005 0.781340
O O9 0.309165 0.862820 0.647455
O O10 0.500000 0.500000 0.000000
O O11 0.721743 0.968147 0.932712
O O12 0.783133 0.792447 0.860317
O O13 0.500000 0.000000 0.500000
O O14 0.125700 0.611383 0.234906
O O15 0.000000 0.000000 0.000000
O O16 0.914976 0.854397 0.577162
#
# Coordination Sequence:
#
# PCOD8022189 Si02
#       7
#     2   2   2   2   2   2   2
#     4  10  22  45  67  99 143 174 225 290 348 410
#     4  10  23  42  65  97 139 175 224 279 346 414
#     4  11  25  44  71 106 141 179 239 289 352 409
#     4  11  26  43  66  99 137 184 232 282 350 416
#     4  12  26  45  74 100 141 188 232 291 351 420
#     4  11  25  44  73 103 137 186 230 295 346 414
#     4  11  24  45  75 106 141 182 237 295 341 414
#
# _framework density 22.05301
#
# number of rings (size 3 to 8) (size 9 to 14) (size 15 to 20)
#    0.000    1.143    1.429    4.714   12.000    0.571 
#    0.000    0.714    0.000    0.000    0.000    0.000 
#    0.000    0.000    0.000    0.000    0.000    0.000 
#
# Total GULP energy -173475.304892 kJ/mol
# GULP energy per Si atom -12391.093207 kJ/mol
# Density = 2.200282 g / cm^3
# Si number density = 22.053010 Si / 1000 Ang^3
#
#
#
# Elastic Constant Matrix: (Units=GPa)
#
#
# Indices 1 2 3 4 5 6 
#
# 1 104.7331 35.8855 59.5645 -0.7043 -9.3558 -19.3990
# 2 35.8855 111.1652 52.5176 -0.5673 -2.2921 -0.9253
# 3 59.5645 52.5176 178.0894 -17.3313 -7.7991 -16.2277
# 4 -0.7043 -0.5673 -17.3313 42.8244 -0.5857 -6.6114
# 5 -9.3558 -2.2921 -7.7991 -0.5857 49.0912 -0.6359
# 6 -19.3990 -0.9253 -16.2277 -6.6114 -0.6359 33.6333
#
#
#
# Elastic Compliance Matrix: (Units=1/GPa)
#
#
# Indices 1 2 3 4 5 6 
#
# 1 0.013619 -0.002862 -0.003048 -0.000041 0.002059 0.006337
# 2 -0.002862 0.011191 -0.002784 -0.001494 -0.000522 -0.002989
# 3 -0.003048 -0.002784 0.008092 0.003628 0.000654 0.002795
# 4 -0.000041 -0.001494 0.003628 0.025859 0.000895 0.006786
# 5 0.002059 -0.000522 0.000654 0.000895 0.020880 0.002060
# 6 0.006337 -0.002989 0.002795 0.006786 0.002060 0.036027
#
#
# Mechanical properties :
#
#
# Convention : Reuss Voigt Hill
#
# Bulk Modulus (GPa) = 64.44821 76.65810 70.55316
# Shear Modulus (GPa) = 36.17255 41.51113 38.84184
#
# Velocity S-wave (km/s) = 4.05440 4.34329 4.20133
# Velocity P-wave (km/s) = 7.15578 7.74523 7.45633
#
# Compressibility (1/GPa) = 0.01551633
#
# Stress axis : x y z
#
# Youngs Moduli (GPa) = 73.42502 89.35532 123.58086
#
# Poissons Ratio (x) = 0.25571 0.37663
# Poissons Ratio (y) = 0.21012 0.34402
# Poissons Ratio (z) = 0.22377 0.24874
#
# Static dielectric constant tensor:
#      x y z
#    x 4.030960 0.292700 0.226120 
#    y 0.292700 4.119090 0.166030 
#    z 0.226120 0.166030 4.758330 
# 
# 
# High freq. dielectric constant tensor:
#      x y z
#    x 1.859850 0.009620 0.000170 
#    y 0.009620 1.865930 -0.000700 
#    z 0.000170 -0.000700 1.893380 
# 
# From -- ./inp_files/380991.got.cif
#   From: 2010.06.25/outbox.cif.g09.slc.cpg/sg2_191_cif.got.tgz:380991.got - 2010.06.27 13:26:56.
