data_PCOD8022191
_publ_section_title
;
Structure prediction by ZEFSAII (Michael W. Deem and Ramdas Pophale) SiO2 
 PCOD8022191
Probable space group: P -1
;
_chemical_formula_sum "Si O2"
_cell_formula_units_Z 16
_cell_length_a 12.435252
_cell_length_b 8.745989
_cell_length_c 8.915800
_cell_angle_alpha 122.341488
_cell_angle_beta 76.628093
_cell_angle_gamma 117.656972
_cell_volume 725.455681
_symmetry_space_group_name_H-M "P -1"
_symmetry_group_IT_number 2
_symmetry_cell_setting 'triclinic'
loop_
_space_group_symop_operation_xyz
x,y,z
-x,-y,-z
loop_
_atom_site_type_symbol
_atom_site_label
_atom_site_fract_x
_atom_site_fract_y
_atom_site_fract_z
Si Si1 0.711950 0.620026 0.218509
Si Si2 0.502084 0.786811 0.888138
Si Si3 0.075497 0.551274 0.352997
Si Si4 0.981817 0.675050 0.184872
Si Si5 0.945412 0.139940 0.028085
Si Si6 0.436484 0.189908 0.458260
Si Si7 0.697760 0.904680 0.129594
Si Si8 0.655863 0.180926 0.529927
O O1 0.625449 0.386136 0.108727
O O2 0.841884 0.632961 0.235170
O O3 0.655573 0.717692 0.409959
O O4 0.729411 0.740015 0.119420
O O5 0.535396 0.744604 0.688197
O O6 0.600627 0.783646 0.972703
O O7 0.500000 0.000000 0.000000
O O8 0.215972 0.636113 0.394896
O O9 0.000000 0.500000 0.500000
O O10 0.045531 0.710096 0.346554
O O11 0.037984 0.357062 0.163682
O O12 0.000000 0.500000 0.000000
O O13 0.051783 0.868634 0.159444
O O14 0.811006 0.075168 0.099520
O O15 0.000000 0.000000 0.000000
O O16 0.560205 0.273085 0.563400
O O17 0.378737 0.948910 0.373192
O O18 0.649641 0.025138 0.320143
#
# Coordination Sequence:
#
# PCOD8022191 Si02
#       8
#     2   2   2   2   2   2   2   2
#     4  11  25  48  68 100 141 179 230 287 347 405
#     4  12  26  41  73 104 133 183 229 281 349 403
#     4  11  24  42  73  96 134 185 225 277 348 414
#     4  10  25  44  69  99 136 180 228 289 337 414
#     4  11  23  45  66 102 133 175 228 284 342 398
#     4  10  24  45  70 100 137 180 225 289 333 411
#     4  11  23  45  69  99 142 175 228 288 336 420
#     4  10  22  45  68 100 139 178 227 273 351 406
#
# _framework density 22.055105000000001
#
# number of rings (size 3 to 8) (size 9 to 14) (size 15 to 20)
#    0.000    1.250    3.750    0.750    7.000    2.000 
#    2.250    3.125    0.000    0.000    0.000    0.000 
#    0.000    0.000    0.000    0.000    0.000    0.000 
#
# Total GULP energy -198355.095289 kJ/mol
# GULP energy per Si atom -12397.193456 kJ/mol
# Density = 2.200491 g / cm^3
# Si number density = 22.055105 Si / 1000 Ang^3
#
#
#
# Elastic Constant Matrix: (Units=GPa)
#
#
# Indices 1 2 3 4 5 6 
#
# 1 129.4776 32.2088 39.1658 -10.8038 -5.4663 9.3107
# 2 32.2088 125.5799 37.7647 -18.9898 8.4394 11.4782
# 3 39.1658 37.7647 65.7551 -17.0511 9.3259 -3.2657
# 4 -10.8038 -18.9898 -17.0511 37.2341 -5.2354 5.3950
# 5 -5.4663 8.4394 9.3259 -5.2354 31.5520 -0.2093
# 6 9.3107 11.4782 -3.2657 5.3950 -0.2093 45.8213
#
#
#
# Elastic Compliance Matrix: (Units=1/GPa)
#
#
# Indices 1 2 3 4 5 6 
#
# 1 0.010141 -0.000697 -0.006132 0.000666 0.003850 -0.002384
# 2 -0.000697 0.010420 -0.004741 0.003265 -0.000986 -0.003195
# 3 -0.006132 -0.004741 0.024017 0.005459 -0.005964 0.003475
# 4 0.000666 0.003265 0.005459 0.032261 0.002953 -0.004349
# 5 0.003850 -0.000986 -0.005964 0.002953 0.034870 -0.001149
# 6 -0.002384 -0.003195 0.003475 -0.004349 -0.001149 0.023863
#
#
# Mechanical properties :
#
#
# Convention : Reuss Voigt Hill
#
# Bulk Modulus (GPa) = 46.64684 59.89902 53.27293
# Shear Modulus (GPa) = 30.14625 37.03303 33.58964
#
# Velocity S-wave (km/s) = 3.70112 4.10214 3.90678
# Velocity P-wave (km/s) = 6.28175 7.04660 6.67514
#
# Compressibility (1/GPa) = 0.02143768
#
# Stress axis : x y z
#
# Youngs Moduli (GPa) = 98.60833 95.97199 41.63662
#
# Poissons Ratio (x) = 0.06692 0.25531
# Poissons Ratio (y) = 0.06875 0.19741
# Poissons Ratio (z) = 0.60465 0.45502
#
# Static dielectric constant tensor:
#      x y z
#    x 3.028130 2.324990 -1.660610 
#    y 2.324990 -0.913740 3.946270 
#    z -1.660610 3.946270 0.184600 
# 
# 
# High freq. dielectric constant tensor:
#      x y z
#    x 1.876140 -0.001320 -0.000220 
#    y -0.001320 1.886220 -0.023750 
#    z -0.000220 -0.023750 1.850400 
# 
# From -- ./inp_files/245469.got.cif
#   From: 2010.06.25/outbox.cif.g09.slc.cpg/sg2_123_cif.got.tgz:245469.got - 2010.06.27 13:26:56.
