data_PCOD8022081
_publ_section_title
;
Structure prediction by ZEFSAII (Michael W. Deem and Ramdas Pophale) SiO2 
 PCOD8022081
Probable space group: P -1
;
_chemical_formula_sum "Si O2"
_cell_formula_units_Z 10
_cell_length_a 8.872384
_cell_length_b 5.649618
_cell_length_c 9.419517
_cell_angle_alpha 126.764901
_cell_angle_beta 82.135031
_cell_angle_gamma 99.253495
_cell_volume 372.830918
_symmetry_space_group_name_H-M "P -1"
_symmetry_group_IT_number 2
_symmetry_cell_setting 'triclinic'
loop_
_space_group_symop_operation_xyz
x,y,z
-x,-y,-z
loop_
_atom_site_type_symbol
_atom_site_label
_atom_site_fract_x
_atom_site_fract_y
_atom_site_fract_z
Si Si1 0.420242 0.690359 0.461616
Si Si2 0.075517 0.159086 0.231299
Si Si3 0.895922 0.692026 0.415244
Si Si4 0.367181 0.206358 0.062472
Si Si5 0.765277 0.870114 0.236344
O O1 0.500000 0.500000 0.500000
O O2 0.384516 0.508383 0.256826
O O3 0.273021 0.792371 0.603398
O O4 0.500000 0.000000 0.500000
O O5 0.164653 0.296357 0.410498
O O6 0.202634 0.035739 0.068540
O O7 0.996894 0.428961 0.268161
O O8 0.944065 0.888732 0.175300
O O9 0.752993 0.678149 0.316145
O O10 0.000000 0.000000 0.500000
O O11 0.500000 0.000000 0.000000
O O12 0.350856 0.278544 0.921938
#
# Coordination Sequence:
#
# PCOD8022081 Si02
#       5
#     2   2   2   2   2
#     4  12  29  53  80 116 164 212 264 331 403 475
#     4  10  22  44  74 109 155 197 263 324 397 470
#     4   9  19  39  70 105 143 195 253 315 390 458
#     4  12  26  49  75 117 158 211 264 329 401 477
#     4  11  25  46  79 113 151 206 263 332 391 476
#
# _framework density 26.821807
#
# number of rings (size 3 to 8) (size 9 to 14) (size 15 to 20)
#    0.000    1.200    2.000    4.200    5.600    1.600 
#    3.600    0.000    0.000    0.000    0.000    0.000 
#    0.000    0.000    0.000    0.000    0.000    0.000 
#
# Total GULP energy -123925.290001 kJ/mol
# GULP energy per Si atom -12392.529000 kJ/mol
# Density = 2.676076 g / cm^3
# Si number density = 26.821807 Si / 1000 Ang^3
#
#
#
# Elastic Constant Matrix: (Units=GPa)
#
#
# Indices 1 2 3 4 5 6 
#
# 1 108.2891 34.7895 68.3660 -16.4396 -5.1380 -44.8200
# 2 34.7895 110.2990 49.0745 -26.9672 14.7936 -37.4360
# 3 68.3660 49.0745 201.7567 -20.7703 32.6213 -35.8003
# 4 -16.4396 -26.9672 -20.7703 42.1304 -14.8838 20.3748
# 5 -5.1380 14.7936 32.6213 -14.8838 66.5953 -8.5418
# 6 -44.8200 -37.4360 -35.8003 20.3748 -8.5418 52.4785
#
#
#
# Elastic Compliance Matrix: (Units=1/GPa)
#
#
# Indices 1 2 3 4 5 6 
#
# 1 0.017684 0.000209 -0.004580 0.000453 0.005307 0.012815
# 2 0.000209 0.013071 -0.001567 0.004330 -0.000292 0.006705
# 3 -0.004580 -0.001567 0.007379 -0.000222 -0.003736 -0.000518
# 4 0.000453 0.004330 -0.000222 0.032555 0.005375 -0.008441
# 5 0.005307 -0.000292 -0.003736 0.005375 0.018876 0.002761
# 6 0.012815 0.006705 -0.000518 -0.008441 0.002761 0.038157
#
#
# Mechanical properties :
#
#
# Convention : Reuss Voigt Hill
#
# Bulk Modulus (GPa) = 38.08638 80.53386 59.31012
# Shear Modulus (GPa) = 33.70355 50.11518 41.90937
#
# Velocity S-wave (km/s) = 3.54866 4.32725 3.95715
# Velocity P-wave (km/s) = 5.56968 7.42007 6.56044
#
# Compressibility (1/GPa) = 0.02625610
#
# Stress axis : x y z
#
# Youngs Moduli (GPa) = 56.54851 76.50383 135.51833
#
# Poissons Ratio (x) = -0.01598 0.62073
# Poissons Ratio (y) = -0.01181 0.21242
# Poissons Ratio (z) = 0.25902 0.11992
#
# Static dielectric constant tensor:
#      x y z
#    x 5.191810 -0.162090 -0.002100 
#    y -0.162090 5.099850 -0.698580 
#    z -0.002100 -0.698580 5.388240 
# 
# 
# High freq. dielectric constant tensor:
#      x y z
#    x 2.086490 -0.002710 0.002240 
#    y -0.002710 2.075600 -0.015650 
#    z 0.002240 -0.015650 2.087440 
# 
# From -- ./inp_files/16582.got.cif
#   From: 2010.06.25/outbox.cif.g09.slc.cpg/sg2_9_cif.got.tgz:16582.got - 2010.06.27 13:26:56.
