data_PCOD8022348
_publ_section_title
;
Structure prediction by ZEFSAII (Michael W. Deem and Ramdas Pophale) SiO2 
 PCOD8022348
Probable space group: P -1
;
_chemical_formula_sum "Si O2"
_cell_formula_units_Z 10
_cell_length_a 16.499120
_cell_length_b 8.966719
_cell_length_c 11.769520
_cell_angle_alpha 37.605510
_cell_angle_beta 158.117545
_cell_angle_gamma 144.051082
_cell_volume 374.225610
_symmetry_space_group_name_H-M "P -1"
_symmetry_group_IT_number 2
_symmetry_cell_setting 'triclinic'
loop_
_space_group_symop_operation_xyz
x,y,z
-x,-y,-z
loop_
_atom_site_type_symbol
_atom_site_label
_atom_site_fract_x
_atom_site_fract_y
_atom_site_fract_z
Si Si1 0.238524 0.712191 0.219293
Si Si2 0.393591 0.565254 0.156722
Si Si3 0.135755 0.671672 0.362749
Si Si4 0.913667 0.893124 0.329280
Si Si5 0.674309 0.056683 0.331368
O O1 0.450227 0.614239 0.531094
O O2 0.237611 0.786105 0.305650
O O3 0.000000 0.500000 0.000000
O O4 0.275467 0.978093 0.036180
O O5 0.469178 0.782418 0.223709
O O6 0.407630 0.711478 0.965402
O O7 0.137391 0.388070 0.958713
O O8 0.199892 0.414852 0.629550
O O9 0.242990 0.887496 0.466257
O O10 0.123359 0.977771 0.462854
O O11 0.000000 0.000000 0.500000
#
# Coordination Sequence:
#
# PCOD8022348 Si02
#       5
#     2   2   2   2   2
#     4  12  24  45  70 108 143 182 240 292 346 424
#     4  10  22  45  72 103 140 190 230 282 365 410
#     4  11  25  47  75 101 144 185 234 294 345 422
#     4  11  21  43  70  99 144 186 226 294 351 407
#     4  10  22  45  72 107 139 185 240 286 347 425
#
# _framework density 26.721848999999999
#
# number of rings (size 3 to 8) (size 9 to 14) (size 15 to 20)
#    0.000    1.200    4.000    2.400    0.000    2.400 
#    0.000   14.000    0.000    0.000    0.000    0.000 
#    0.000    0.000    0.000    0.000    0.000    0.000 
#
# Total GULP energy -124076.192481 kJ/mol
# GULP energy per Si atom -12407.619248 kJ/mol
# Density = 2.666103 g / cm^3
# Si number density = 26.721849 Si / 1000 Ang^3
#
#
#
# Elastic Constant Matrix: (Units=GPa)
#
#
# Indices 1 2 3 4 5 6 
#
# 1 108.3168 54.1804 68.7254 -9.7166 -35.8403 -27.3875
# 2 54.1804 86.7546 72.2394 5.4566 -17.6237 -17.4654
# 3 68.7254 72.2394 190.6909 -42.3795 6.6875 -8.2921
# 4 -9.7166 5.4566 -42.3795 58.2153 -9.7984 -8.1552
# 5 -35.8403 -17.6237 6.6875 -9.7984 45.4015 6.4240
# 6 -27.3875 -17.4654 -8.2921 -8.1552 6.4240 37.4743
#
#
#
# Elastic Compliance Matrix: (Units=1/GPa)
#
#
# Indices 1 2 3 4 5 6 
#
# 1 0.025373 -0.004377 -0.006495 0.004845 0.018501 0.012949
# 2 -0.004377 0.024667 -0.009762 -0.008810 0.005185 0.003331
# 3 -0.006495 -0.009762 0.013100 0.007431 -0.008779 -0.003276
# 4 0.004845 -0.008810 0.007431 0.025737 0.004017 0.005991
# 5 0.018501 0.005185 -0.008779 0.004017 0.039661 0.008070
# 6 0.012949 0.003331 -0.003276 0.005991 0.008070 0.036897
#
#
# Mechanical properties :
#
#
# Convention : Reuss Voigt Hill
#
# Bulk Modulus (GPa) = 45.72166 86.22807 65.97487
# Shear Modulus (GPa) = 23.36502 40.92604 32.14553
#
# Velocity S-wave (km/s) = 2.96020 3.91776 3.47215
# Velocity P-wave (km/s) = 5.36946 7.26663 6.38886
#
# Compressibility (1/GPa) = 0.02187147
#
# Stress axis : x y z
#
# Youngs Moduli (GPa) = 39.41169 40.53965 76.33506
#
# Poissons Ratio (x) = 0.17744 0.49583
# Poissons Ratio (y) = 0.17250 0.74519
# Poissons Ratio (z) = 0.25600 0.39575
#
# Static dielectric constant tensor:
#      x y z
#    x 4.927740 -0.029860 -0.124530 
#    y -0.029860 4.881350 -0.252920 
#    z -0.124530 -0.252920 5.205260 
# 
# 
# High freq. dielectric constant tensor:
#      x y z
#    x 2.081280 -0.006960 -0.002480 
#    y -0.006960 2.068550 -0.010230 
#    z -0.002480 -0.010230 2.087770 
# 
# From -- ./inp_files/232839.got.cif
#   From: 2010.06.25/outbox.cif.g09.slc.cpg/sg2_117_cif.got.tgz:232839.got - 2010.06.27 13:26:56.
