data_PCOD8022588
_publ_section_title
;
Structure prediction by ZEFSAII (Michael W. Deem and Ramdas Pophale) SiO2 
 PCOD8022588
Probable space group: P -1
;
_chemical_formula_sum "Si O2"
_cell_formula_units_Z 16
_cell_length_a 8.820767
_cell_length_b 18.791234
_cell_length_c 11.051902
_cell_angle_alpha 44.758009
_cell_angle_beta 40.504692
_cell_angle_gamma 39.860242
_cell_volume 726.559188
_symmetry_space_group_name_H-M "P -1"
_symmetry_group_IT_number 2
_symmetry_cell_setting 'triclinic'
loop_
_space_group_symop_operation_xyz
x,y,z
-x,-y,-z
loop_
_atom_site_type_symbol
_atom_site_label
_atom_site_fract_x
_atom_site_fract_y
_atom_site_fract_z
Si Si1 0.807967 0.777093 0.191934
Si Si2 0.188077 0.554022 0.100871
Si Si3 0.422692 0.227328 0.089240
Si Si4 0.053867 0.934559 0.920306
Si Si5 0.984388 0.393102 0.526945
Si Si6 0.340076 0.848487 0.217346
Si Si7 0.118594 0.679274 0.575256
Si Si8 0.396400 0.469636 0.826894
O O1 0.793059 0.700458 0.404135
O O2 0.515600 0.852428 0.217507
O O3 0.020762 0.691569 0.064613
O O4 0.895745 0.863942 0.089757
O O5 0.058112 0.492108 0.333162
O O6 0.500000 0.500000 0.000000
O O7 0.175102 0.533476 0.989986
O O8 0.626214 0.156207 0.162968
O O9 0.135043 0.244215 0.277679
O O10 0.509404 0.160456 0.989756
O O11 0.414820 0.348825 0.931062
O O12 0.948779 0.030690 0.759640
O O13 0.000000 0.000000 0.000000
O O14 0.981680 0.324582 0.492801
O O15 0.694495 0.448055 0.705165
O O16 0.303219 0.737806 0.391914
O O17 0.297130 0.547933 0.672825
#
# Coordination Sequence:
#
# PCOD8022588 Si02
#       8
#     2   2   2   2   2   2   2   2
#     4  12  24  44  67  99 137 175 222 274 341 393
#     4  12  25  39  63 100 141 180 210 268 335 398
#     4  11  22  44  69  99 132 179 226 274 327 391
#     4  10  22  47  75  91 126 177 232 280 331 387
#     4  12  24  41  65  96 141 186 214 259 328 410
#     4  11  25  43  69  99 133 177 224 285 326 382
#     4  12  25  39  70 102 136 177 225 268 326 403
#     4  12  23  42  65 100 141 177 221 264 329 405
#
# _framework density 22.021605000000001
#
# number of rings (size 3 to 8) (size 9 to 14) (size 15 to 20)
#    0.000    0.500    5.000    3.750    3.500    0.500 
#    0.000    0.000    0.000    5.250    0.000    0.000 
#    0.000    0.000    0.000    0.000    0.000    0.000 
#
# Total GULP energy -198420.887821 kJ/mol
# GULP energy per Si atom -12401.305489 kJ/mol
# Density = 2.197148 g / cm^3
# Si number density = 22.021605 Si / 1000 Ang^3
#
#
#
# Elastic Constant Matrix: (Units=GPa)
#
#
# Indices 1 2 3 4 5 6 
#
# 1 116.9872 30.2300 19.2641 -14.0648 8.4755 -16.0133
# 2 30.2300 76.5930 31.3318 -15.6734 8.6945 -8.2571
# 3 19.2641 31.3318 68.5798 2.7760 7.1914 2.5862
# 4 -14.0648 -15.6734 2.7760 27.5213 -4.6544 -1.2646
# 5 8.4755 8.6945 7.1914 -4.6544 40.0577 -10.9511
# 6 -16.0133 -8.2571 2.5862 -1.2646 -10.9511 44.4108
#
#
#
# Elastic Compliance Matrix: (Units=1/GPa)
#
#
# Indices 1 2 3 4 5 6 
#
# 1 0.010498 -0.001738 -0.002515 0.004838 0.000208 0.003798
# 2 -0.001738 0.020525 -0.009544 0.011977 0.000145 0.004122
# 3 -0.002515 -0.009544 0.020606 -0.009639 -0.003594 -0.005042
# 4 0.004838 0.011977 -0.009639 0.047895 0.005666 0.007294
# 5 0.000208 0.000145 -0.003594 0.005666 0.028224 0.007432
# 6 0.003798 0.004122 -0.005042 0.007294 0.007432 0.026987
#
#
# Mechanical properties :
#
#
# Convention : Reuss Voigt Hill
#
# Bulk Modulus (GPa) = 41.61076 47.09019 44.35047
# Shear Modulus (GPa) = 26.26846 34.48689 30.37767
#
# Velocity S-wave (km/s) = 3.45751 3.96163 3.71812
# Velocity P-wave (km/s) = 5.90556 6.50815 6.21416
#
# Compressibility (1/GPa) = 0.02403225
#
# Stress axis : x y z
#
# Youngs Moduli (GPa) = 95.25801 48.72004 48.52983
#
# Poissons Ratio (x) = 0.08470 0.12208
# Poissons Ratio (y) = 0.16560 0.46319
# Poissons Ratio (z) = 0.23962 0.46501
#
# Static dielectric constant tensor:
#      x y z
#    x 4.256870 -0.198400 0.162060 
#    y -0.198400 4.228630 0.054150 
#    z 0.162060 0.054150 4.035090 
# 
# 
# High freq. dielectric constant tensor:
#      x y z
#    x 1.885450 -0.006570 0.002610 
#    y -0.006570 1.861450 -0.007630 
#    z 0.002610 -0.007630 1.852680 
# 
# From -- ./inp_files/274197.got.cif
#   From: 2010.06.25/outbox.cif.g09.slc.cpg/sg2_138_cif.got.tgz:274197.got - 2010.06.27 13:26:56.
