data_PCOD8022509
_publ_section_title
;
Structure prediction by ZEFSAII (Michael W. Deem and Ramdas Pophale) SiO2 
 PCOD8022509
Probable space group: P -1
;
_chemical_formula_sum "Si O2"
_cell_formula_units_Z 16
_cell_length_a 6.895719
_cell_length_b 11.567537
_cell_length_c 10.901476
_cell_angle_alpha 103.934004
_cell_angle_beta 78.374652
_cell_angle_gamma 123.566835
_cell_volume 700.725081
_symmetry_space_group_name_H-M "P -1"
_symmetry_group_IT_number 2
_symmetry_cell_setting 'triclinic'
loop_
_space_group_symop_operation_xyz
x,y,z
-x,-y,-z
loop_
_atom_site_type_symbol
_atom_site_label
_atom_site_fract_x
_atom_site_fract_y
_atom_site_fract_z
Si Si1 0.588805 0.157226 0.989704
Si Si2 0.322258 0.262911 0.910853
Si Si3 0.915789 0.153209 0.755732
Si Si4 0.465488 0.419205 0.335097
Si Si5 0.273807 0.277883 0.547303
Si Si6 0.724131 0.552406 0.857260
Si Si7 0.453284 0.085385 0.424786
Si Si8 0.779127 0.309270 0.260071
O O1 0.370907 0.165905 0.968347
O O2 0.782979 0.208142 0.869839
O O3 0.694336 0.250967 0.119574
O O4 0.500000 0.000000 0.000000
O O5 0.575452 0.385075 0.857636
O O6 0.128649 0.160426 0.809111
O O7 0.212856 0.348791 0.006540
O O8 0.044920 0.247566 0.643038
O O9 0.726958 0.002873 0.684990
O O10 0.245228 0.295518 0.409516
O O11 0.507415 0.570612 0.401796
O O12 0.423045 0.399033 0.190651
O O13 0.689146 0.410233 0.334846
O O14 0.342127 0.161723 0.531356
O O15 0.943606 0.590515 0.754616
O O16 0.692027 0.190092 0.346642
O O17 0.500000 0.000000 0.500000
#
# Coordination Sequence:
#
# PCOD8022509 Si02
#       8
#     2   2   2   2   2   2   2   2
#     4  12  26  47  68 107 146 185 231 287 354 425
#     4  11  26  43  71 108 144 180 235 286 359 421
#     4  12  25  45  72 102 144 187 230 289 347 420
#     4  10  22  46  71  98 145 177 234 298 338 420
#     4  10  24  46  68 101 134 190 238 281 352 399
#     4  11  23  43  73 104 141 185 228 293 357 413
#     4  11  27  49  71 103 143 189 240 289 343 421
#     4  11  24  46  71 106 139 182 236 287 357 415
#
# _framework density 22.833492
#
# number of rings (size 3 to 8) (size 9 to 14) (size 15 to 20)
#    0.000    1.000    5.000    0.375    5.250    1.000 
#    6.750    1.875    0.000    0.000    0.000    0.000 
#    0.000    0.000    0.000    0.000    0.000    0.000 
#
# Total GULP energy -198210.851876 kJ/mol
# GULP energy per Si atom -12388.178242 kJ/mol
# Density = 2.278152 g / cm^3
# Si number density = 22.833492 Si / 1000 Ang^3
#
#
#
# Elastic Constant Matrix: (Units=GPa)
#
#
# Indices 1 2 3 4 5 6 
#
# 1 82.2861 52.1608 33.2957 -2.2538 1.0202 -2.0533
# 2 52.1608 95.1072 40.2576 -6.1614 5.2215 -6.9273
# 3 33.2957 40.2576 105.4053 -12.7222 -16.1909 -4.3791
# 4 -2.2538 -6.1614 -12.7222 41.2150 8.9264 -5.4796
# 5 1.0202 5.2215 -16.1909 8.9264 40.1264 -7.6219
# 6 -2.0533 -6.9273 -4.3791 -5.4796 -7.6219 35.5128
#
#
#
# Elastic Compliance Matrix: (Units=1/GPa)
#
#
# Indices 1 2 3 4 5 6 
#
# 1 0.019251 -0.009594 -0.002677 -0.001326 -0.000283 -0.001354
# 2 -0.009594 0.017996 -0.004112 0.001983 -0.003831 0.001932
# 3 -0.002677 -0.004112 0.013177 0.002347 0.005831 0.002282
# 4 -0.001326 0.001983 0.002347 0.026685 -0.004501 0.003751
# 5 -0.000283 -0.003831 0.005831 -0.004501 0.029858 0.005669
# 6 -0.001354 0.001932 0.002282 0.003751 0.005669 0.030534
#
#
# Mechanical properties :
#
#
# Convention : Reuss Voigt Hill
#
# Bulk Modulus (GPa) = 56.62683 59.35856 57.99269
# Shear Modulus (GPa) = 28.38469 33.84314 31.11391
#
# Velocity S-wave (km/s) = 3.52961 3.85407 3.69541
# Velocity P-wave (km/s) = 6.43930 6.77185 6.60767
#
# Compressibility (1/GPa) = 0.01765947
#
# Stress axis : x y z
#
# Youngs Moduli (GPa) = 51.94616 55.56763 75.89133
#
# Poissons Ratio (x) = 0.53311 0.20313
# Poissons Ratio (y) = 0.49837 0.31203
# Poissons Ratio (z) = 0.13904 0.22847
#
# Static dielectric constant tensor:
#      x y z
#    x 3.855130 0.063490 -0.048560 
#    y 0.063490 4.028450 -0.212080 
#    z -0.048560 -0.212080 4.517260 
# 
# 
# High freq. dielectric constant tensor:
#      x y z
#    x 1.880440 0.000500 -0.005980 
#    y 0.000500 1.893570 -0.009700 
#    z -0.005980 -0.009700 1.926470 
# 
# From -- ./inp_files/71658.got.cif
#   From: 2010.06.25/outbox.cif.g09.slc.cpg/sg2_36_cif.got.tgz:71658.got - 2010.06.27 13:26:56.
