data_PCOD8022739
_publ_section_title
;
Structure prediction by ZEFSAII (Michael W. Deem and Ramdas Pophale) SiO2 
 PCOD8022739
Probable space group: P -1
;
_chemical_formula_sum "Si O2"
_cell_formula_units_Z 14
_cell_length_a 9.147106
_cell_length_b 9.366105
_cell_length_c 11.280842
_cell_angle_alpha 100.547956
_cell_angle_beta 60.356870
_cell_angle_gamma 130.494094
_cell_volume 624.674010
_symmetry_space_group_name_H-M "P -1"
_symmetry_group_IT_number 2
_symmetry_cell_setting 'triclinic'
loop_
_space_group_symop_operation_xyz
x,y,z
-x,-y,-z
loop_
_atom_site_type_symbol
_atom_site_label
_atom_site_fract_x
_atom_site_fract_y
_atom_site_fract_z
Si Si1 0.824879 0.785389 0.849702
Si Si2 0.176794 0.681750 0.037453
Si Si3 0.657873 0.927350 0.287841
Si Si4 0.500687 0.104467 0.269983
Si Si5 0.413740 0.627168 0.135765
Si Si6 0.907820 0.111854 0.729416
Si Si7 0.378336 0.282222 0.502546
O O1 0.760288 0.595818 0.782167
O O2 0.784670 0.899425 0.797885
O O3 0.649500 0.690450 0.012715
O O4 0.077475 0.937601 0.821274
O O5 0.288633 0.641232 0.083075
O O6 0.052054 0.747475 0.160844
O O7 0.362464 0.844031 0.897676
O O8 0.000000 0.500000 0.000000
O O9 0.489543 0.773775 0.232669
O O10 0.586964 0.809529 0.418055
O O11 0.604057 0.069105 0.330978
O O12 0.478948 0.260032 0.343277
O O13 0.252830 0.909068 0.307948
O O14 0.121977 0.180950 0.582190
O O15 0.500000 0.500000 0.500000
#
# Coordination Sequence:
#
# PCOD8022739 Si02
#       7
#     2   2   2   2   2   2   2
#     4  10  23  38  66 101 138 179 225 282 345 403
#     4  12  24  41  73 105 138 176 231 289 342 408
#     4  11  24  44  68  95 141 179 234 277 351 399
#     4  12  23  45  69  97 142 178 228 279 349 409
#     4  11  22  41  66 104 139 181 228 282 341 413
#     4  11  23  45  69  99 134 184 224 284 349 403
#     4  11  27  45  69  99 135 183 232 285 341 411
#
# _framework density 22.411688999999999
#
# number of rings (size 3 to 8) (size 9 to 14) (size 15 to 20)
#    0.000    0.857    2.857    4.286    2.000    5.714 
#    0.000    0.714    0.000    0.000    0.000    0.000 
#    0.000    0.000    0.000    0.000    0.000    0.000 
#
# Total GULP energy -173499.251901 kJ/mol
# GULP energy per Si atom -12392.803707 kJ/mol
# Density = 2.236068 g / cm^3
# Si number density = 22.411689 Si / 1000 Ang^3
#
#
#
# Elastic Constant Matrix: (Units=GPa)
#
#
# Indices 1 2 3 4 5 6 
#
# 1 124.8119 31.3350 20.6208 1.5394 -6.5672 4.6746
# 2 31.3350 113.2006 12.7064 2.9085 -6.0874 -1.4164
# 3 20.6208 12.7064 57.3020 8.8519 -14.0759 -8.1577
# 4 1.5394 2.9085 8.8519 34.8031 -6.9564 3.2495
# 5 -6.5672 -6.0874 -14.0759 -6.9564 21.4626 8.0226
# 6 4.6746 -1.4164 -8.1577 3.2495 8.0226 38.9821
#
#
#
# Elastic Compliance Matrix: (Units=1/GPa)
#
#
# Indices 1 2 3 4 5 6 
#
# 1 0.009191 -0.002192 -0.002942 0.001007 0.001398 -0.002169
# 2 -0.002192 0.009627 -0.000972 -0.000217 0.001291 0.000161
# 3 -0.002942 -0.000972 0.022472 -0.003524 0.011303 0.002988
# 4 0.001007 -0.000217 -0.003524 0.032240 0.010523 -0.005719
# 5 0.001398 0.001291 0.011303 0.010523 0.062508 -0.011497
# 6 -0.002169 0.000161 0.002988 -0.005719 -0.011497 0.029387
#
#
# Mechanical properties :
#
#
# Convention : Reuss Voigt Hill
#
# Bulk Modulus (GPa) = 34.39128 47.18210 40.78669
# Shear Modulus (GPa) = 26.69101 34.42639 30.55870
#
# Velocity S-wave (km/s) = 3.45475 3.92355 3.69659
# Velocity P-wave (km/s) = 5.59395 6.45165 6.03805
#
# Compressibility (1/GPa) = 0.02907714
#
# Stress axis : x y z
#
# Youngs Moduli (GPa) = 108.80447 103.87747 44.49973
#
# Poissons Ratio (x) = 0.22766 0.13093
# Poissons Ratio (y) = 0.23846 0.04326
# Poissons Ratio (z) = 0.32014 0.10099
#
# Static dielectric constant tensor:
#      x y z
#    x 4.243570 -0.098410 -0.120340 
#    y -0.098410 4.247040 0.024770 
#    z -0.120340 0.024770 3.873080 
# 
# 
# High freq. dielectric constant tensor:
#      x y z
#    x 1.899310 -0.003210 -0.012420 
#    y -0.003210 1.893670 0.003860 
#    z -0.012420 0.003860 1.863130 
# 
# From -- ./inp_files/225784.got.cif
#   From: 2010.06.25/outbox.cif.g09.slc.cpg/sg2_113_cif.got.tgz:225784.got - 2010.06.27 13:26:56.
