data_PCOD8022554
_publ_section_title
;
Structure prediction by ZEFSAII (Michael W. Deem and Ramdas Pophale) SiO2 
 PCOD8022554
Probable space group: P -1
;
_chemical_formula_sum "Si O2"
_cell_formula_units_Z 16
_cell_length_a 12.045788
_cell_length_b 27.817046
_cell_length_c 5.276072
_cell_angle_alpha 122.628172
_cell_angle_beta 70.387369
_cell_angle_gamma 148.784111
_cell_volume 739.078184
_symmetry_space_group_name_H-M "P -1"
_symmetry_group_IT_number 2
_symmetry_cell_setting 'triclinic'
loop_
_space_group_symop_operation_xyz
x,y,z
-x,-y,-z
loop_
_atom_site_type_symbol
_atom_site_label
_atom_site_fract_x
_atom_site_fract_y
_atom_site_fract_z
Si Si1 0.643704 0.472869 0.733006
Si Si2 0.015086 0.420714 0.614648
Si Si3 0.278346 0.138459 0.428980
Si Si4 0.228265 0.048476 0.705767
Si Si5 0.687208 0.378970 0.692057
Si Si6 0.437578 0.909261 0.325118
Si Si7 0.174550 0.768777 0.626479
Si Si8 0.695962 0.589954 0.410886
O O1 0.833529 0.558667 0.616650
O O2 0.620162 0.394992 0.566418
O O3 0.395669 0.395397 0.646890
O O4 0.735430 0.546356 0.109807
O O5 0.841441 0.389972 0.504567
O O6 0.864764 0.316013 0.602408
O O7 0.176617 0.528287 0.948452
O O8 0.318945 0.110280 0.544866
O O9 0.463099 0.263690 0.667730
O O10 0.299646 0.118867 0.081100
O O11 0.037500 0.069011 0.443367
O O12 0.334126 0.030464 0.622054
O O13 0.274219 0.832793 0.470042
O O14 0.500000 0.000000 0.500000
O O15 0.329565 0.843816 0.961289
O O16 0.937749 0.705047 0.667405
O O17 0.500000 0.500000 0.500000
#
# Coordination Sequence:
#
# PCOD8022554 Si02
#       8
#     2   2   2   2   2   2   2   2
#     4  11  22  40  62  92 142 177 227 271 326 400
#     4  11  23  40  62 101 140 176 219 271 336 420
#     4  10  23  42  71  97 132 181 217 281 339 405
#     4  10  22  47  68  95 133 172 229 278 348 394
#     4  11  23  38  63 101 139 172 225 272 333 403
#     4  12  27  46  71 101 130 171 238 292 336 399
#     4  12  25  46  72  97 134 186 222 274 358 398
#     4  11  23  42  65  92 136 181 229 269 330 417
#
# _framework density 21.648588
#
# number of rings (size 3 to 8) (size 9 to 14) (size 15 to 20)
#    0.000    1.000    2.500    3.750    3.500    1.000 
#    2.250    0.000    0.000    0.000    0.000    0.000 
#    0.000    0.000    0.000    0.000    0.000    0.000 
#
# Total GULP energy -198357.969674 kJ/mol
# GULP energy per Si atom -12397.373105 kJ/mol
# Density = 2.159931 g / cm^3
# Si number density = 21.648588 Si / 1000 Ang^3
#
#
#
# Elastic Constant Matrix: (Units=GPa)
#
#
# Indices 1 2 3 4 5 6 
#
# 1 159.8552 44.3004 27.8043 20.2963 -9.0994 -0.4844
# 2 44.3004 113.9975 43.4472 12.3919 -13.1644 -12.8140
# 3 27.8043 43.4472 88.4847 2.6609 4.8047 -5.0548
# 4 20.2963 12.3919 2.6609 40.8567 0.3722 -1.4526
# 5 -9.0994 -13.1644 4.8047 0.3722 29.9666 -3.6539
# 6 -0.4844 -12.8140 -5.0548 -1.4526 -3.6539 36.7862
#
#
#
# Elastic Compliance Matrix: (Units=1/GPa)
#
#
# Indices 1 2 3 4 5 6 
#
# 1 0.007527 -0.001929 -0.001455 -0.003100 0.001620 -0.000734
# 2 -0.001929 0.013373 -0.006002 -0.002613 0.006818 0.004382
# 3 -0.001455 -0.006002 0.014928 0.001602 -0.005558 -0.000547
# 4 -0.003100 -0.002613 0.001602 0.026731 -0.002671 0.000059
# 5 0.001620 0.006818 -0.005558 -0.002671 0.038434 0.005345
# 6 -0.000734 0.004382 -0.000547 0.000059 0.005345 0.029159
#
#
# Mechanical properties :
#
#
# Convention : Reuss Voigt Hill
#
# Bulk Modulus (GPa) = 58.62608 65.93792 62.28200
# Shear Modulus (GPa) = 32.34003 37.97428 35.15715
#
# Velocity S-wave (km/s) = 3.86925 4.19277 4.03425
# Velocity P-wave (km/s) = 6.86302 7.34599 7.10860
#
# Compressibility (1/GPa) = 0.01705725
#
# Stress axis : x y z
#
# Youngs Moduli (GPa) = 132.85695 74.77698 66.98959
#
# Poissons Ratio (x) = 0.14425 0.09745
# Poissons Ratio (y) = 0.25628 0.40204
# Poissons Ratio (z) = 0.19326 0.44878
#
# Static dielectric constant tensor:
#      x y z
#    x 4.656260 0.175500 0.161850 
#    y 0.175500 4.133530 -0.021580 
#    z 0.161850 -0.021580 3.728090 
# 
# 
# High freq. dielectric constant tensor:
#      x y z
#    x 1.878410 0.007410 0.013530 
#    y 0.007410 1.850980 -0.005220 
#    z 0.013530 -0.005220 1.832810 
# 
# From -- ./inp_files/84889.got.cif
#   From: 2010.06.25/outbox.cif.g09.slc.cpg/sg2_43_cif.got.tgz:84889.got - 2010.06.27 13:26:56.
