data_PCOD8022782
_publ_section_title
;
Structure prediction by ZEFSAII (Michael W. Deem and Ramdas Pophale) SiO2 
 PCOD8022782
Probable space group: P -1
;
_chemical_formula_sum "Si O2"
_cell_formula_units_Z 14
_cell_length_a 9.062822
_cell_length_b 17.020453
_cell_length_c 12.465725
_cell_angle_alpha 144.556521
_cell_angle_beta 144.740291
_cell_angle_gamma 49.508299
_cell_volume 642.990073
_symmetry_space_group_name_H-M "P -1"
_symmetry_group_IT_number 2
_symmetry_cell_setting 'triclinic'
loop_
_space_group_symop_operation_xyz
x,y,z
-x,-y,-z
loop_
_atom_site_type_symbol
_atom_site_label
_atom_site_fract_x
_atom_site_fract_y
_atom_site_fract_z
Si Si1 0.824191 0.149235 0.174926
Si Si2 0.588765 0.576643 0.529394
Si Si3 0.127018 0.968534 0.308323
Si Si4 0.575564 0.162979 0.834121
Si Si5 0.534628 0.527982 0.881500
Si Si6 0.903044 0.562739 0.325768
Si Si7 0.622318 0.864112 0.960804
O O1 0.998766 0.282431 0.449391
O O2 0.788375 0.112390 0.987645
O O3 0.530473 0.176113 0.066590
O O4 0.950949 0.027882 0.176673
O O5 0.500000 0.500000 0.500000
O O6 0.414947 0.533030 0.274617
O O7 0.876471 0.538800 0.629393
O O8 0.576688 0.738636 0.712032
O O9 0.317144 0.862772 0.250434
O O10 0.929882 0.892615 0.190762
O O11 0.301068 0.083168 0.599450
O O12 0.547027 0.319689 0.010521
O O13 0.307769 0.443646 0.713434
O O14 0.791006 0.521005 0.096085
O O15 0.500000 0.000000 0.000000
#
# Coordination Sequence:
#
# PCOD8022782 Si02
#       7
#     2   2   2   2   2   2   2
#     4  11  21  41  61  89 124 167 207 260 314 370
#     4  12  23  43  68  94 127 168 212 261 321 375
#     4  10  23  39  61  90 129 160 211 255 314 377
#     4  11  21  39  64  92 122 167 206 260 315 372
#     4  11  24  40  65  94 128 165 211 267 316 371
#     4  11  23  40  63  95 129 161 213 261 316 377
#     4  10  23  43  63  90 127 165 209 257 312 379
#
# _framework density 21.773277
#
# number of rings (size 3 to 8) (size 9 to 14) (size 15 to 20)
#    0.000    1.143    4.286    1.714    2.000    1.143 
#    0.000    1.429    0.000    0.000    0.000    0.000 
#    0.000    0.000    0.000    0.000    0.000    0.000 
#
# Total GULP energy -173569.944202 kJ/mol
# GULP energy per Si atom -12397.853157 kJ/mol
# Density = 2.172372 g / cm^3
# Si number density = 21.773277 Si / 1000 Ang^3
#
#
#
# Elastic Constant Matrix: (Units=GPa)
#
#
# Indices 1 2 3 4 5 6 
#
# 1 96.5090 -7.7913 62.9089 2.4010 13.9509 2.8037
# 2 -7.7913 48.3740 29.5932 3.3800 -8.3398 4.5092
# 3 62.9089 29.5932 114.0767 -0.4429 14.8742 5.4240
# 4 2.4010 3.3800 -0.4429 42.5060 3.7483 -3.3107
# 5 13.9509 -8.3398 14.8742 3.7483 39.4151 -3.9764
# 6 2.8037 4.5092 5.4240 -3.3107 -3.9764 27.3513
#
#
#
# Elastic Compliance Matrix: (Units=1/GPa)
#
#
# Indices 1 2 3 4 5 6 
#
# 1 0.021389 0.013358 -0.015349 -0.002649 0.001148 -0.001505
# 2 0.013358 0.036075 -0.017885 -0.004905 0.009825 -0.002935
# 3 -0.015349 -0.017885 0.022874 0.003121 -0.007352 -0.000705
# 4 -0.002649 -0.004905 0.003121 0.024622 -0.003321 0.002959
# 5 0.001148 0.009825 -0.007352 -0.003321 0.030512 0.003754
# 6 -0.001505 -0.002935 -0.000705 0.002959 0.003754 0.038243
#
#
# Mechanical properties :
#
#
# Convention : Reuss Voigt Hill
#
# Bulk Modulus (GPa) = 24.63905 47.59793 36.11849
# Shear Modulus (GPa) = 22.02672 33.47106 27.74889
#
# Velocity S-wave (km/s) = 3.18408 3.92504 3.57381
# Velocity P-wave (km/s) = 4.98584 6.51532 5.80121
#
# Compressibility (1/GPa) = 0.04058598
#
# Stress axis : x y z
#
# Youngs Moduli (GPa) = 46.75343 27.71968 43.71717
#
# Poissons Ratio (x) = -0.37028 0.67101
# Poissons Ratio (y) = -0.62453 0.78190
# Poissons Ratio (z) = 0.71761 0.49578
#
# Static dielectric constant tensor:
#      x y z
#    x 4.318220 -0.074140 0.192670 
#    y -0.074140 3.737800 -0.053630 
#    z 0.192670 -0.053630 4.052660 
# 
# 
# High freq. dielectric constant tensor:
#      x y z
#    x 1.856870 -0.005000 0.011390 
#    y -0.005000 1.841490 0.006770 
#    z 0.011390 0.006770 1.865650 
# 
# From -- ./inp_files/258362.got.cif
#   From: 2010.06.25/outbox.cif.g09.slc.cpg/sg2_130_cif.got.tgz:258362.got - 2010.06.27 13:26:56.
