data_PCOD8022451
_publ_section_title
;
Structure prediction by ZEFSAII (Michael W. Deem and Ramdas Pophale) SiO2 
 PCOD8022451
Probable space group: P -1
;
_chemical_formula_sum "Si O2"
_cell_formula_units_Z 16
_cell_length_a 9.181217
_cell_length_b 14.680481
_cell_length_c 6.215515
_cell_angle_alpha 62.035263
_cell_angle_beta 74.931585
_cell_angle_gamma 75.477683
_cell_volume 706.293835
_symmetry_space_group_name_H-M "P -1"
_symmetry_group_IT_number 2
_symmetry_cell_setting 'triclinic'
loop_
_space_group_symop_operation_xyz
x,y,z
-x,-y,-z
loop_
_atom_site_type_symbol
_atom_site_label
_atom_site_fract_x
_atom_site_fract_y
_atom_site_fract_z
Si Si1 0.033403 0.741265 0.303605
Si Si2 0.243561 0.253087 0.298181
Si Si3 0.823418 0.103675 0.635500
Si Si4 0.357324 0.552902 0.868383
Si Si5 0.160222 0.526994 0.348119
Si Si6 0.652364 0.614839 0.258378
Si Si7 0.083300 0.126854 0.191269
Si Si8 0.530269 0.245891 0.506813
O O1 0.120070 0.831657 0.261629
O O2 0.163925 0.640979 0.327295
O O3 0.906186 0.706611 0.549029
O O4 0.943636 0.781594 0.076256
O O5 0.207906 0.151809 0.292099
O O6 0.394357 0.226037 0.418987
O O7 0.257139 0.343392 0.019810
O O8 0.643322 0.138214 0.619725
O O9 0.920354 0.117981 0.369045
O O10 0.846798 0.982051 0.827529
O O11 0.385067 0.496498 0.689790
O O12 0.362681 0.675684 0.719474
O O13 0.500000 0.500000 0.000000
O O14 0.201137 0.536186 0.069701
O O15 0.265267 0.424054 0.509438
O O16 0.000000 0.500000 0.500000
O O17 0.524774 0.707940 0.287392
#
# Coordination Sequence:
#
# PCOD8022451 Si02
#       8
#     2   2   2   2   2   2   2   2
#     4  11  23  43  67  94 128 172 221 270 321 386
#     4  11  24  42  64  93 134 171 213 266 329 389
#     4  10  24  41  70  97 122 166 222 268 330 389
#     4  12  24  40  62  93 130 172 213 260 318 378
#     4  12  25  40  64  97 129 175 218 261 321 385
#     4  12  24  41  62  89 135 173 209 265 314 386
#     4  10  22  46  68  93 127 166 212 281 327 382
#     4  12  24  41  64  99 130 171 214 263 327 391
#
# _framework density 22.653459999999999
#
# number of rings (size 3 to 8) (size 9 to 14) (size 15 to 20)
#    0.000    0.750    2.500    5.250    1.750    5.500 
#    0.000    2.500    0.000    0.000    0.000    0.000 
#    0.000    0.000    0.000    0.000    0.000    0.000 
#
# Total GULP energy -198278.171056 kJ/mol
# GULP energy per Si atom -12392.385691 kJ/mol
# Density = 2.260190 g / cm^3
# Si number density = 22.653460 Si / 1000 Ang^3
#
#
#
# Elastic Constant Matrix: (Units=GPa)
#
#
# Indices 1 2 3 4 5 6 
#
# 1 93.2398 38.5449 24.9596 10.0012 2.2158 -4.4661
# 2 38.5449 131.6465 19.3882 9.1775 3.1599 -15.9514
# 3 24.9596 19.3882 97.4472 8.2141 -10.1975 -10.9521
# 4 10.0012 9.1775 8.2141 33.4578 -1.9710 4.8439
# 5 2.2158 3.1599 -10.1975 -1.9710 29.9483 0.4766
# 6 -4.4661 -15.9514 -10.9521 4.8439 0.4766 36.3650
#
#
#
# Elastic Compliance Matrix: (Units=1/GPa)
#
#
# Indices 1 2 3 4 5 6 
#
# 1 0.013082 -0.003258 -0.002711 -0.002409 -0.001701 -0.000296
# 2 -0.003258 0.009256 -0.000524 -0.002050 -0.001109 0.003790
# 3 -0.002711 -0.000524 0.012057 -0.002240 0.004161 0.003312
# 4 -0.002409 -0.002050 -0.002240 0.032738 0.001886 -0.006255
# 5 -0.001701 -0.001109 0.004161 0.001886 0.035177 -0.000154
# 6 -0.000296 0.003790 0.003312 -0.006255 -0.000154 0.030958
#
#
# Mechanical properties :
#
#
# Convention : Reuss Voigt Hill
#
# Bulk Modulus (GPa) = 46.70993 54.23542 50.47268
# Shear Modulus (GPa) = 32.59642 35.91694 34.25668
#
# Velocity S-wave (km/s) = 3.79742 3.98615 3.89293
# Velocity P-wave (km/s) = 6.31596 6.72154 6.52190
#
# Compressibility (1/GPa) = 0.02140872
#
# Stress axis : x y z
#
# Youngs Moduli (GPa) = 76.43959 108.03736 82.93809
#
# Poissons Ratio (x) = 0.35201 0.22482
# Poissons Ratio (y) = 0.24906 0.04349
# Poissons Ratio (z) = 0.20721 0.05665
#
# Static dielectric constant tensor:
#      x y z
#    x 3.778890 0.284590 -0.114900 
#    y 0.284590 4.213320 0.565050 
#    z -0.114900 0.565050 5.047470 
# 
# 
# High freq. dielectric constant tensor:
#      x y z
#    x 1.882720 0.004240 -0.006830 
#    y 0.004240 1.903010 0.009870 
#    z -0.006830 0.009870 1.894400 
# 
# From -- ./inp_files/37256.got.cif
#   From: 2010.06.25/outbox.cif.g09.slc.cpg/sg2_19_cif.got.tgz:37256.got - 2010.06.27 13:26:56.
