data_PCOD8022785
_publ_section_title
;
Structure prediction by ZEFSAII (Michael W. Deem and Ramdas Pophale) SiO2 
 PCOD8022785
Probable space group: P -1
;
_chemical_formula_sum "Si O2"
_cell_formula_units_Z 10
_cell_length_a 8.885546
_cell_length_b 8.765781
_cell_length_c 17.711924
_cell_angle_alpha 134.342645
_cell_angle_beta 38.510283
_cell_angle_gamma 107.055531
_cell_volume 504.947769
_symmetry_space_group_name_H-M "P -1"
_symmetry_group_IT_number 2
_symmetry_cell_setting 'triclinic'
loop_
_space_group_symop_operation_xyz
x,y,z
-x,-y,-z
loop_
_atom_site_type_symbol
_atom_site_label
_atom_site_fract_x
_atom_site_fract_y
_atom_site_fract_z
Si Si1 0.804848 0.404118 0.884451
Si Si2 0.878154 0.599585 0.666774
Si Si3 0.844461 0.863805 0.488011
Si Si4 0.167603 0.253105 0.902683
Si Si5 0.204650 0.887383 0.068551
O O1 0.837527 0.239434 0.886710
O O2 0.063618 0.237661 0.667375
O O3 0.500000 0.500000 0.000000
O O4 0.823480 0.645915 0.982498
O O5 0.000000 0.500000 0.500000
O O6 0.074614 0.359754 0.561932
O O7 0.910093 0.824595 0.761369
O O8 0.534877 0.712375 0.846182
O O9 0.500751 0.060638 0.680283
O O10 0.000000 0.000000 0.500000
O O11 0.003224 0.106172 0.913881
O O12 0.000000 0.500000 0.000000
#
# Coordination Sequence:
#
# PCOD8022785 Si02
#       5
#     2   2   2   2   2
#     4  11  20  39  68  90 120 160 207 253 299 364
#     4  11  24  40  64  87 126 167 205 248 310 368
#     4  12  22  38  67  93 118 165 211 246 305 369
#     4  10  23  39  61  95 127 155 204 260 303 358
#     4  10  23  42  59  92 129 157 201 260 306 355
#
# _framework density 19.804027000000001
#
# number of rings (size 3 to 8) (size 9 to 14) (size 15 to 20)
#    0.000    1.200    4.000    2.400    0.000    5.600 
#    0.000    2.000    0.000    0.000    0.000    0.000 
#    0.000    0.000    0.000    0.000    0.000    0.000 
#
# Total GULP energy -123957.124432 kJ/mol
# GULP energy per Si atom -12395.712443 kJ/mol
# Density = 1.975895 g / cm^3
# Si number density = 19.804027 Si / 1000 Ang^3
#
#
#
# Elastic Constant Matrix: (Units=GPa)
#
#
# Indices 1 2 3 4 5 6 
#
# 1 152.7620 62.4695 86.9759 0.3820 10.0906 38.0696
# 2 62.4695 107.2205 65.5190 1.1691 10.0791 9.1194
# 3 86.9759 65.5190 190.9286 -10.9880 10.1820 10.9059
# 4 0.3820 1.1691 -10.9880 33.7914 -5.1753 3.9799
# 5 10.0906 10.0791 10.1820 -5.1753 48.6449 -1.4197
# 6 38.0696 9.1194 10.9059 3.9799 -1.4197 39.2762
#
#
#
# Elastic Compliance Matrix: (Units=1/GPa)
#
#
# Indices 1 2 3 4 5 6 
#
# 1 0.013344 -0.004327 -0.003910 -0.000205 -0.001392 -0.010873
# 2 -0.004327 0.013560 -0.002819 -0.001790 -0.001455 0.001957
# 3 -0.003910 -0.002819 0.008017 0.002524 0.000043 0.001965
# 4 -0.000205 -0.001790 0.002524 0.031328 0.003126 -0.003148
# 5 -0.001392 -0.001455 0.000043 0.003126 0.021533 0.002137
# 6 -0.010873 0.001957 0.001965 -0.003148 0.002137 0.035396
#
#
# Mechanical properties :
#
#
# Convention : Reuss Voigt Hill
#
# Bulk Modulus (GPa) = 78.07796 97.87109 87.97453
# Shear Modulus (GPa) = 33.43080 40.07229 36.75154
#
# Velocity S-wave (km/s) = 4.11308 4.50315 4.31253
# Velocity P-wave (km/s) = 7.87829 8.75014 8.32563
#
# Compressibility (1/GPa) = 0.01280771
#
# Stress axis : x y z
#
# Youngs Moduli (GPa) = 74.93828 73.74387 124.73260
#
# Poissons Ratio (x) = 0.31911 0.48776
# Poissons Ratio (y) = 0.32428 0.35167
# Poissons Ratio (z) = 0.29304 0.20791
#
# Static dielectric constant tensor:
#      x y z
#    x 4.245060 0.442050 0.178900 
#    y 0.442050 3.744490 0.107580 
#    z 0.178900 0.107580 3.809660 
# 
# 
# High freq. dielectric constant tensor:
#      x y z
#    x 1.786690 0.014230 0.008050 
#    y 0.014230 1.763050 0.006020 
#    z 0.008050 0.006020 1.791500 
# 
# From -- ./inp_files/15529.got.cif
#   From: 2010.06.25/outbox.cif.g09.slc.cpg/sg2_8_cif.got.tgz:15529.got - 2010.06.27 13:26:56.
