data_PCOD8022607
_publ_section_title
;
Structure prediction by ZEFSAII (Michael W. Deem and Ramdas Pophale) SiO2 
 PCOD8022607
Probable space group: P -1
;
_chemical_formula_sum "Si O2"
_cell_formula_units_Z 16
_cell_length_a 5.412601
_cell_length_b 8.455709
_cell_length_c 14.374150
_cell_angle_alpha 81.407370
_cell_angle_beta 85.627086
_cell_angle_gamma 86.222214
_cell_volume 647.597829
_symmetry_space_group_name_H-M "P -1"
_symmetry_group_IT_number 2
_symmetry_cell_setting 'triclinic'
loop_
_space_group_symop_operation_xyz
x,y,z
-x,-y,-z
loop_
_atom_site_type_symbol
_atom_site_label
_atom_site_fract_x
_atom_site_fract_y
_atom_site_fract_z
Si Si1 0.842630 0.697756 0.314842
Si Si2 0.783837 0.030263 0.577174
Si Si3 0.739483 0.550873 0.044683
Si Si4 0.359319 0.501751 0.329697
Si Si5 0.389045 0.704039 0.801470
Si Si6 0.346526 0.124648 0.055529
Si Si7 0.012436 0.982236 0.771482
Si Si8 0.387728 0.248841 0.498148
O O1 0.595798 0.609223 0.304707
O O2 0.834325 0.757456 0.418261
O O3 0.097011 0.589976 0.303448
O O4 0.840025 0.855326 0.235222
O O5 0.609323 0.884994 0.571004
O O6 0.830227 0.016472 0.686862
O O7 0.645863 0.206784 0.550302
O O8 0.000000 0.000000 0.500000
O O9 0.732668 0.463668 0.152345
O O10 0.500000 0.500000 0.000000
O O11 0.745132 0.743098 0.029722
O O12 0.000000 0.500000 0.000000
O O13 0.393125 0.350479 0.271205
O O14 0.367958 0.426641 0.439589
O O15 0.485562 0.794235 0.880337
O O16 0.185514 0.827195 0.750448
O O17 0.123250 0.045959 0.123903
O O18 0.500000 0.000000 0.000000
#
# Coordination Sequence:
#
# PCOD8022607 Si02
#       8
#     2   2   2   2   2   2   2   2
#     4  12  29  46  72 111 155 201 254 319 371 446
#     4  11  23  42  77 111 151 202 256 314 373 454
#     4  10  22  48  73 108 142 190 240 300 375 450
#     4  12  29  48  76 110 153 207 255 310 382 450
#     4  11  27  48  78 108 150 197 253 313 379 468
#     4  11  27  49  81 111 150 196 252 319 387 458
#     4  12  26  47  76 110 155 197 256 313 386 451
#     4  11  25  46  72 108 155 206 259 311 374 443
#
# _framework density 24.706693000000001
#
# number of rings (size 3 to 8) (size 9 to 14) (size 15 to 20)
#    0.000    0.750    2.500    3.000   12.250    0.500 
#    2.250    0.000    0.000    0.000    0.000    0.000 
#    0.000    0.000    0.000    0.000    0.000    0.000 
#
# Total GULP energy -198296.825841 kJ/mol
# GULP energy per Si atom -12393.551615 kJ/mol
# Density = 2.465046 g / cm^3
# Si number density = 24.706693 Si / 1000 Ang^3
#
#
#
# Elastic Constant Matrix: (Units=GPa)
#
#
# Indices 1 2 3 4 5 6 
#
# 1 125.0815 51.1804 29.5533 -13.8684 -17.7170 -27.3577
# 2 51.1804 145.9991 71.1136 -25.0546 -18.2160 -34.2334
# 3 29.5533 71.1136 103.5119 -24.6313 -22.1861 -12.9346
# 4 -13.8684 -25.0546 -24.6313 63.9781 0.6633 -1.4473
# 5 -17.7170 -18.2160 -22.1861 0.6633 41.1653 1.7255
# 6 -27.3577 -34.2334 -12.9346 -1.4473 1.7255 52.0743
#
#
#
# Elastic Compliance Matrix: (Units=1/GPa)
#
#
# Indices 1 2 3 4 5 6 
#
# 1 0.010344 -0.001999 0.000013 0.001521 0.003380 0.004053
# 2 -0.001999 0.012580 -0.006717 0.002025 0.000820 0.005581
# 3 0.000013 -0.006717 0.016307 0.003580 0.005783 -0.000451
# 4 0.001521 0.002025 0.003580 0.018177 0.003044 0.003424
# 5 0.003380 0.000820 0.005783 0.003044 0.029057 0.002873
# 6 0.004053 0.005581 -0.000451 0.003424 0.002873 0.024889
#
#
# Mechanical properties :
#
#
# Convention : Reuss Voigt Hill
#
# Bulk Modulus (GPa) = 45.82049 75.36522 60.59286
# Shear Modulus (GPa) = 36.75507 46.29321 41.52414
#
# Velocity S-wave (km/s) = 3.86120 4.33333 4.10406
# Velocity P-wave (km/s) = 6.20198 7.45703 6.85827
#
# Compressibility (1/GPa) = 0.02182430
#
# Stress axis : x y z
#
# Youngs Moduli (GPa) = 96.67774 79.48968 61.32407
#
# Poissons Ratio (x) = 0.15892 -0.00081
# Poissons Ratio (y) = 0.19329 0.41192
# Poissons Ratio (z) = -0.00127 0.53394
#
# Static dielectric constant tensor:
#      x y z
#    x 4.344540 0.035710 -0.059120 
#    y 0.035710 4.986160 -0.290930 
#    z -0.059120 -0.290930 4.676820 
# 
# 
# High freq. dielectric constant tensor:
#      x y z
#    x 1.979150 -0.006450 -0.008570 
#    y -0.006450 2.001610 -0.014140 
#    z -0.008570 -0.014140 1.988450 
# 
# From -- ./inp_files/480279.got.cif
#   From: 2010.06.25/outbox.cif.g09.slc.cpg/sg2_241_cif.got.tgz:480279.got - 2010.06.27 13:26:56.
