data_PCOD8022025
_publ_section_title
;
Structure prediction by ZEFSAII (Michael W. Deem and Ramdas Pophale) SiO2 
 PCOD8022025
Probable space group: P -1
;
_chemical_formula_sum "Si O2"
_cell_formula_units_Z 10
_cell_length_a 15.968528
_cell_length_b 9.270108
_cell_length_c 13.047352
_cell_angle_alpha 34.758690
_cell_angle_beta 154.302350
_cell_angle_gamma 149.803410
_cell_volume 413.067342
_symmetry_space_group_name_H-M "P -1"
_symmetry_group_IT_number 2
_symmetry_cell_setting 'triclinic'
loop_
_space_group_symop_operation_xyz
x,y,z
-x,-y,-z
loop_
_atom_site_type_symbol
_atom_site_label
_atom_site_fract_x
_atom_site_fract_y
_atom_site_fract_z
Si Si1 0.794005 0.788567 0.248744
Si Si2 0.534490 0.691861 0.524849
Si Si3 0.300393 0.664704 0.969816
Si Si4 0.686549 0.302244 0.262891
Si Si5 0.898364 0.626954 0.668435
O O1 0.830483 0.584567 0.327817
O O2 0.771654 0.679921 0.404161
O O3 0.571937 0.792785 0.972723
O O4 0.010658 0.111807 0.299244
O O5 0.500000 0.500000 0.500000
O O6 0.295483 0.652537 0.322231
O O7 0.700016 0.031801 0.485213
O O8 0.627056 0.573178 0.786330
O O9 0.203841 0.615512 0.776971
O O10 0.103171 0.594446 0.873363
O O11 0.500000 0.000000 0.000000
#
# Coordination Sequence:
#
# PCOD8022025 Si02
#       5
#     2   2   2   2   2
#     4  10  22  44  72  97 136 183 220 276 344 397
#     4  12  25  43  71 103 134 179 229 278 334 403
#     4  12  22  46  69  99 138 180 221 281 338 401
#     4  11  24  44  72  99 138 177 224 282 339 392
#     4  11  23  45  74  97 134 184 227 270 343 406
#
# _framework density 24.209129000000001
#
# number of rings (size 3 to 8) (size 9 to 14) (size 15 to 20)
#    0.000    0.800    6.000    1.200    0.000    4.800 
#    0.000    1.000    0.000    0.000    0.000    0.000 
#    0.000    0.000    0.000    0.000    0.000    0.000 
#
# Total GULP energy -123973.258443 kJ/mol
# GULP energy per Si atom -12397.325844 kJ/mol
# Density = 2.415403 g / cm^3
# Si number density = 24.209129 Si / 1000 Ang^3
#
#
#
# Elastic Constant Matrix: (Units=GPa)
#
#
# Indices 1 2 3 4 5 6 
#
# 1 132.3106 78.4639 36.1038 2.6147 8.5401 -2.9113
# 2 78.4639 104.0495 49.4345 -3.0769 -15.2308 -21.4431
# 3 36.1038 49.4345 96.8241 -3.5010 -10.1724 1.8767
# 4 2.6147 -3.0769 -3.5010 28.0138 -0.6202 -0.2293
# 5 8.5401 -15.2308 -10.1724 -0.6202 32.8016 7.9432
# 6 -2.9113 -21.4431 1.8767 -0.2293 7.9432 45.3183
#
#
#
# Elastic Compliance Matrix: (Units=1/GPa)
#
#
# Indices 1 2 3 4 5 6 
#
# 1 0.017792 -0.016350 0.000517 -0.003674 -0.010993 -0.004706
# 2 -0.016350 0.030075 -0.007945 0.004219 0.013117 0.011231
# 3 0.000517 -0.007945 0.014505 0.000894 0.001815 -0.004641
# 4 -0.003674 0.004219 0.000894 0.036704 0.003576 0.001282
# 5 -0.010993 0.013117 0.001815 0.003576 0.040469 -0.001650
# 6 -0.004706 0.011231 -0.004641 0.001282 -0.001650 0.027566
#
#
# Mechanical properties :
#
#
# Convention : Reuss Voigt Hill
#
# Bulk Modulus (GPa) = 67.50276 73.46542 70.48409
# Shear Modulus (GPa) = 22.76808 32.50554 27.63681
#
# Velocity S-wave (km/s) = 3.07004 3.66826 3.38240
# Velocity P-wave (km/s) = 6.36479 6.95367 6.66574
#
# Compressibility (1/GPa) = 0.01481421
#
# Stress axis : x y z
#
# Youngs Moduli (GPa) = 56.20641 33.25044 68.94273
#
# Poissons Ratio (x) = 0.54365 -0.03564
# Poissons Ratio (y) = 0.91898 0.54778
# Poissons Ratio (z) = -0.02906 0.26419
#
# Static dielectric constant tensor:
#      x y z
#    x 4.634580 -0.117820 -0.077670 
#    y -0.117820 4.217560 -0.060080 
#    z -0.077670 -0.060080 4.627070 
# 
# 
# High freq. dielectric constant tensor:
#      x y z
#    x 1.972430 0.003460 0.003590 
#    y 0.003460 1.938590 0.005550 
#    z 0.003590 0.005550 1.971580 
# 
# From -- ./inp_files/144247.got.cif
#   From: 2010.06.25/outbox.cif.g09.slc.cpg/sg2_73_cif.got.tgz:144247.got - 2010.06.27 13:26:56.
