data_PCOD8022418
_publ_section_title
;
Structure prediction by ZEFSAII (Michael W. Deem and Ramdas Pophale) SiO2 
 PCOD8022418
Probable space group: P -1
;
_chemical_formula_sum "Si O2"
_cell_formula_units_Z 14
_cell_length_a 19.523587
_cell_length_b 10.798283
_cell_length_c 6.637063
_cell_angle_alpha 73.683346
_cell_angle_beta 97.868638
_cell_angle_gamma 147.866669
_cell_volume 700.142824
_symmetry_space_group_name_H-M "P -1"
_symmetry_group_IT_number 2
_symmetry_cell_setting 'triclinic'
loop_
_space_group_symop_operation_xyz
x,y,z
-x,-y,-z
loop_
_atom_site_type_symbol
_atom_site_label
_atom_site_fract_x
_atom_site_fract_y
_atom_site_fract_z
Si Si1 0.085833 0.110745 0.288244
Si Si2 0.355157 0.458835 0.415292
Si Si3 0.764524 0.217237 0.249468
Si Si4 0.008176 0.217878 0.934092
Si Si5 0.768279 0.960484 0.190026
Si Si6 0.470236 0.102763 0.428698
Si Si7 0.579490 0.849378 0.027134
O O1 0.234107 0.334330 0.314925
O O2 0.081062 0.221105 0.081539
O O3 0.000000 0.000000 0.500000
O O4 0.038199 0.905776 0.246966
O O5 0.315307 0.265004 0.598386
O O6 0.412871 0.646868 0.516985
O O7 0.462601 0.601660 0.223586
O O8 0.890352 0.506435 0.182814
O O9 0.817348 0.153874 0.270735
O O10 0.677285 0.096437 0.469780
O O11 0.664292 0.089446 0.081375
O O12 0.886168 0.072376 0.082992
O O13 0.675720 0.877929 0.015408
O O14 0.480187 0.173552 0.175799
O O15 0.500000 0.000000 0.500000
#
# Coordination Sequence:
#
# PCOD8022418 Si02
#       7
#     2   2   2   2   2   2   2
#     4  11  26  42  66 100 129 178 220 269 328 383
#     4  11  24  43  68  97 136 166 225 276 318 399
#     4   9  24  43  65  98 132 168 224 267 323 399
#     4  11  24  44  69  95 135 175 217 269 331 392
#     4  10  22  46  66 100 132 173 220 267 334 387
#     4  11  26  41  67 100 130 178 222 269 332 387
#     4   9  24  42  68  96 130 173 212 277 328 383
#
# _framework density 19.995922
#
# number of rings (size 3 to 8) (size 9 to 14) (size 15 to 20)
#    0.857    0.857    1.429    0.857    8.000    2.857 
#    0.000    1.429    0.000    0.000    0.000    0.000 
#    0.000    0.000    0.000    0.000    0.000    0.000 
#
# Total GULP energy -173516.899514 kJ/mol
# GULP energy per Si atom -12394.064251 kJ/mol
# Density = 1.995041 g / cm^3
# Si number density = 19.995922 Si / 1000 Ang^3
#
#
#
# Elastic Constant Matrix: (Units=GPa)
#
#
# Indices 1 2 3 4 5 6 
#
# 1 115.3564 54.6421 44.2359 -0.7127 2.8588 -9.9646
# 2 54.6421 134.0564 57.8349 -8.0265 10.8697 -9.8215
# 3 44.2359 57.8349 108.1411 1.8688 4.6749 -10.9377
# 4 -0.7127 -8.0265 1.8688 23.4689 0.6123 4.0297
# 5 2.8588 10.8697 4.6749 0.6123 32.8715 0.5540
# 6 -9.9646 -9.8215 -10.9377 4.0297 0.5540 39.0940
#
#
#
# Elastic Compliance Matrix: (Units=1/GPa)
#
#
# Indices 1 2 3 4 5 6 
#
# 1 0.011459 -0.003512 -0.002678 -0.000890 0.000539 0.001373
# 2 -0.003512 0.011362 -0.004558 0.004167 -0.002886 0.000296
# 3 -0.002678 -0.004558 0.013053 -0.003044 -0.000096 0.002140
# 4 -0.000890 0.004167 -0.003044 0.045092 -0.001629 -0.004657
# 5 0.000539 -0.002886 -0.000096 -0.001629 0.031388 -0.000891
# 6 0.001373 0.000296 0.002140 -0.004657 -0.000891 0.027095
#
#
# Mechanical properties :
#
#
# Convention : Reuss Voigt Hill
#
# Bulk Modulus (GPa) = 69.54285 74.55329 72.04807
# Shear Modulus (GPa) = 30.16809 32.47627 31.32218
#
# Velocity S-wave (km/s) = 3.88843 4.03444 3.96211
# Velocity P-wave (km/s) = 7.41713 7.68554 7.55253
#
# Compressibility (1/GPa) = 0.01437962
#
# Stress axis : x y z
#
# Youngs Moduli (GPa) = 87.26750 88.01047 76.60860
#
# Poissons Ratio (x) = 0.30906 0.20519
# Poissons Ratio (y) = 0.30645 0.34915
# Poissons Ratio (z) = 0.23374 0.40111
#
# Static dielectric constant tensor:
#      x y z
#    x 3.791080 -0.024340 0.034150 
#    y -0.024340 3.494220 0.180410 
#    z 0.034150 0.180410 3.556570 
# 
# 
# High freq. dielectric constant tensor:
#      x y z
#    x 1.785400 0.002090 -0.005020 
#    y 0.002090 1.786470 -0.004530 
#    z -0.005020 -0.004530 1.779330 
# 
# From -- ./inp_files/118216.got.cif
#   From: 2010.06.25/outbox.cif.g09.slc.cpg/sg2_60_cif.got.tgz:118216.got - 2010.06.27 13:26:56.
