data_PCOD8022198
_publ_section_title
;
Structure prediction by ZEFSAII (Michael W. Deem and Ramdas Pophale) SiO2 
 PCOD8022198
Probable space group: P -1
;
_chemical_formula_sum "Si O2"
_cell_formula_units_Z 16
_cell_length_a 5.582993
_cell_length_b 19.192556
_cell_length_c 21.474247
_cell_angle_alpha 160.359511
_cell_angle_beta 67.500151
_cell_angle_gamma 115.419059
_cell_volume 696.768819
_symmetry_space_group_name_H-M "P -1"
_symmetry_group_IT_number 2
_symmetry_cell_setting 'triclinic'
loop_
_space_group_symop_operation_xyz
x,y,z
-x,-y,-z
loop_
_atom_site_type_symbol
_atom_site_label
_atom_site_fract_x
_atom_site_fract_y
_atom_site_fract_z
Si Si1 0.138529 0.131877 0.539704
Si Si2 0.924180 0.306107 0.597155
Si Si3 0.324545 0.215706 0.395355
Si Si4 0.531757 0.564305 0.870099
Si Si5 0.624369 0.768243 0.909555
Si Si6 0.745965 0.574267 0.613147
Si Si7 0.820833 0.989193 0.880881
Si Si8 0.484906 0.021036 0.715726
O O1 0.354748 0.335165 0.714580
O O2 0.923765 0.219684 0.594705
O O3 0.259735 0.979690 0.353645
O O4 0.000000 0.000000 0.500000
O O5 0.827199 0.525217 0.795100
O O6 0.208310 0.356150 0.576235
O O7 0.763397 0.117569 0.411662
O O8 0.503391 0.371205 0.458485
O O9 0.114708 0.065010 0.243138
O O10 0.488339 0.071727 0.296048
O O11 0.444642 0.637827 0.873389
O O12 0.535421 0.733958 0.067503
O O13 0.748494 0.619325 0.725272
O O14 0.422000 0.885854 0.991975
O O15 0.893117 0.911564 0.033836
O O16 0.696121 0.779297 0.755832
O O17 0.000000 0.500000 0.500000
#
# Coordination Sequence:
#
# PCOD8022198 Si02
#       8
#     2   2   2   2   2   2   2   2
#     4  10  24  45  68 106 148 178 224 284 355 432
#     4  10  23  42  71  99 134 187 229 295 347 426
#     4  11  24  45  67  96 137 183 240 295 358 429
#     4  11  24  42  74 100 135 187 239 288 357 421
#     4  12  27  48  70 101 141 185 250 301 357 441
#     4  12  28  46  67 100 139 191 239 305 382 422
#     4  12  27  46  71  98 141 185 240 311 365 426
#     4  10  22  45  68 104 136 182 237 288 346 425
#
# _framework density 22.963139000000002
#
# number of rings (size 3 to 8) (size 9 to 14) (size 15 to 20)
#    0.000    1.000    1.250    4.875    7.000    5.500 
#    0.000    1.250    0.000    0.000    0.000    0.000 
#    0.000    0.000    0.000    0.000    0.000    0.000 
#
# Total GULP energy -198288.523080 kJ/mol
# GULP energy per Si atom -12393.032693 kJ/mol
# Density = 2.291087 g / cm^3
# Si number density = 22.963139 Si / 1000 Ang^3
#
#
#
# Elastic Constant Matrix: (Units=GPa)
#
#
# Indices 1 2 3 4 5 6 
#
# 1 64.0846 -13.0341 6.3322 3.6192 -15.9293 10.1728
# 2 -13.0341 88.0362 10.1972 14.2839 -10.7677 20.9588
# 3 6.3322 10.1972 131.5158 -12.2505 -23.5588 18.7626
# 4 3.6192 14.2839 -12.2505 32.1040 -3.2663 3.6497
# 5 -15.9293 -10.7677 -23.5588 -3.2663 34.2059 -3.7985
# 6 10.1728 20.9588 18.7626 3.6497 -3.7985 23.8362
#
#
#
# Elastic Compliance Matrix: (Units=1/GPa)
#
#
# Indices 1 2 3 4 5 6 
#
# 1 0.023779 0.009633 0.003014 -0.002307 0.013916 -0.018421
# 2 0.009633 0.019486 0.002079 -0.005689 0.009228 -0.020540
# 3 0.003014 0.002079 0.010935 0.005068 0.008842 -0.011089
# 4 -0.002307 -0.005689 0.005068 0.036601 0.003787 -0.003004
# 5 0.013916 0.009228 0.008842 0.003787 0.043443 -0.014670
# 6 -0.018421 -0.020540 -0.011089 -0.003004 -0.014670 0.074725
#
#
# Mechanical properties :
#
#
# Convention : Reuss Voigt Hill
#
# Bulk Modulus (GPa) = 11.95420 32.29191 22.12306
# Shear Modulus (GPa) = 24.10783 36.70531 30.40657
#
# Velocity S-wave (km/s) = 3.24365 4.00239 3.64283
# Velocity P-wave (km/s) = 4.38697 5.95415 5.22960
#
# Compressibility (1/GPa) = 0.08365258
#
# Stress axis : x y z
#
# Youngs Moduli (GPa) = 42.05338 51.31919 91.44631
#
# Poissons Ratio (x) = -0.49437 -0.27563
# Poissons Ratio (y) = -0.40511 -0.19009
# Poissons Ratio (z) = -0.12675 -0.10668
#
# Static dielectric constant tensor:
#      x y z
#    x 4.133410 -0.082860 -0.026330 
#    y -0.082860 3.959690 -0.147670 
#    z -0.026330 -0.147670 4.335720 
# 
# 
# High freq. dielectric constant tensor:
#      x y z
#    x 1.911430 -0.005150 0.001690 
#    y -0.005150 1.892030 -0.013180 
#    z 0.001690 -0.013180 1.920980 
# 
# From -- ./inp_files/324245.got.cif
#   From: 2010.06.25/outbox.cif.g09.slc.cpg/sg2_163_cif.got.tgz:324245.got - 2010.06.27 13:26:56.
