data_PCOD8022550
_publ_section_title
;
Structure prediction by ZEFSAII (Michael W. Deem and Ramdas Pophale) SiO2 
 PCOD8022550
Probable space group: P -1
;
_chemical_formula_sum "Si O2"
_cell_formula_units_Z 16
_cell_length_a 13.628117
_cell_length_b 18.852618
_cell_length_c 7.599570
_cell_angle_alpha 113.191981
_cell_angle_beta 80.310000
_cell_angle_gamma 156.189642
_cell_volume 620.062159
_symmetry_space_group_name_H-M "P -1"
_symmetry_group_IT_number 2
_symmetry_cell_setting 'triclinic'
loop_
_space_group_symop_operation_xyz
x,y,z
-x,-y,-z
loop_
_atom_site_type_symbol
_atom_site_label
_atom_site_fract_x
_atom_site_fract_y
_atom_site_fract_z
Si Si1 0.449079 0.415181 0.684310
Si Si2 0.212463 0.924520 0.740900
Si Si3 0.135656 0.952499 0.446149
Si Si4 0.677075 0.742704 0.802995
Si Si5 0.731748 0.400481 0.620537
Si Si6 0.184743 0.484933 0.652953
Si Si7 0.772912 0.292570 0.754749
Si Si8 0.007705 0.259469 0.014675
O O1 0.582382 0.596014 0.782831
O O2 0.377846 0.309570 0.437229
O O3 0.668653 0.534320 0.864688
O O4 0.147124 0.205639 0.669697
O O5 0.165253 0.961658 0.658728
O O6 0.917058 0.664519 0.564518
O O7 0.206575 0.936227 0.964712
O O8 0.489578 0.076729 0.746727
O O9 0.411126 0.201395 0.548841
O O10 0.115267 0.855260 0.250524
O O11 0.472632 0.668301 0.848288
O O12 0.000000 0.000000 0.000000
O O13 0.772650 0.419210 0.416548
O O14 0.720440 0.306312 0.611724
O O15 0.968332 0.629108 0.862639
O O16 0.922136 0.319353 0.694737
O O17 0.000000 0.500000 0.000000
#
# Coordination Sequence:
#
# PCOD8022550 Si02
#       8
#     2   2   2   2   2   2   2   2
#     4  11  22  43  64 106 141 184 243 284 343 433
#     4  10  22  47  67 100 138 182 232 293 343 428
#     4  11  24  41  71 101 143 185 234 289 351 415
#     4  11  24  41  75 105 142 192 232 289 357 415
#     4  10  25  46  65 104 140 180 238 295 339 429
#     4  11  22  48  68  97 143 183 230 293 353 407
#     4  11  26  41  73 103 134 182 238 290 358 423
#     4  11  24  44  72  99 148 186 232 291 358 408
#
# _framework density 25.803865999999999
#
# number of rings (size 3 to 8) (size 9 to 14) (size 15 to 20)
#    0.000    1.250    3.750    1.875    5.250    3.500 
#    0.000    1.250    0.000    0.000    0.000    0.000 
#    0.000    0.000    0.000    0.000    0.000    0.000 
#
# Total GULP energy -198210.899197 kJ/mol
# GULP energy per Si atom -12388.181200 kJ/mol
# Density = 2.574513 g / cm^3
# Si number density = 25.803866 Si / 1000 Ang^3
#
#
#
# Elastic Constant Matrix: (Units=GPa)
#
#
# Indices 1 2 3 4 5 6 
#
# 1 65.3920 15.2710 1.6354 6.3115 5.5858 23.1716
# 2 15.2710 120.0423 13.8788 16.9166 8.6924 25.3631
# 3 1.6354 13.8788 80.9849 19.0620 2.3171 -0.7136
# 4 6.3115 16.9166 19.0620 28.1705 9.7144 0.9191
# 5 5.5858 8.6924 2.3171 9.7144 20.5541 7.4203
# 6 23.1716 25.3631 -0.7136 0.9191 7.4203 42.1949
#
#
#
# Elastic Compliance Matrix: (Units=1/GPa)
#
#
# Indices 1 2 3 4 5 6 
#
# 1 0.019473 0.000406 0.000570 -0.004889 0.000736 -0.010951
# 2 0.000406 0.010529 -0.000441 -0.006167 0.000770 -0.006561
# 3 0.000570 -0.000441 0.014955 -0.011268 0.003746 -0.000209
# 4 -0.004889 -0.006167 -0.011268 0.056130 -0.024686 0.009320
# 5 0.000736 0.000770 0.003746 -0.024686 0.063499 -0.011432
# 6 -0.010951 -0.006561 -0.000209 0.009320 -0.011432 0.035461
#
#
# Mechanical properties :
#
#
# Convention : Reuss Voigt Hill
#
# Bulk Modulus (GPa) = 21.72547 36.44328 29.08438
# Shear Modulus (GPa) = 23.32978 33.89283 28.61131
#
# Velocity S-wave (km/s) = 3.01012 3.62813 3.33348
# Velocity P-wave (km/s) = 4.52977 5.63071 5.10998
#
# Compressibility (1/GPa) = 0.04602892
#
# Stress axis : x y z
#
# Youngs Moduli (GPa) = 51.35368 94.97426 66.86645
#
# Poissons Ratio (x) = -0.03860 -0.03814
# Poissons Ratio (y) = -0.02087 0.02948
# Poissons Ratio (z) = -0.02929 0.04188
#
# Static dielectric constant tensor:
#      x y z
#    x 3.863000 0.024690 0.223150 
#    y 0.024690 4.816860 0.102640 
#    z 0.223150 0.102640 4.535290 
# 
# 
# High freq. dielectric constant tensor:
#      x y z
#    x 2.011540 0.007860 0.006430 
#    y 0.007860 2.044700 0.008640 
#    z 0.006430 0.008640 2.025610 
# 
# From -- ./inp_files/319429.got.cif
#   From: 2010.06.25/outbox.cif.g09.slc.cpg/sg2_160_cif.got.tgz:319429.got - 2010.06.27 13:26:56.
