data_PCOD8022727
_publ_section_title
;
Structure prediction by ZEFSAII (Michael W. Deem and Ramdas Pophale) SiO2 
 PCOD8022727
Probable space group: P -1
;
_chemical_formula_sum "Si O2"
_cell_formula_units_Z 16
_cell_length_a 9.601846
_cell_length_b 12.012217
_cell_length_c 21.554535
_cell_angle_alpha 26.987225
_cell_angle_beta 68.839987
_cell_angle_gamma 87.037451
_cell_volume 810.187512
_symmetry_space_group_name_H-M "P -1"
_symmetry_group_IT_number 2
_symmetry_cell_setting 'triclinic'
loop_
_space_group_symop_operation_xyz
x,y,z
-x,-y,-z
loop_
_atom_site_type_symbol
_atom_site_label
_atom_site_fract_x
_atom_site_fract_y
_atom_site_fract_z
Si Si1 0.292151 0.063678 0.529485
Si Si2 0.821653 0.316530 0.459967
Si Si3 0.505553 0.139074 0.338259
Si Si4 0.885127 0.807398 0.678953
Si Si5 0.794440 0.351077 0.815134
Si Si6 0.431600 0.691653 0.245296
Si Si7 0.480687 0.411419 0.976979
Si Si8 0.217872 0.698039 0.384680
O O1 0.379405 0.150786 0.403621
O O2 0.424128 0.394261 0.382077
O O3 0.317250 0.826161 0.677150
O O4 0.063033 0.884891 0.651900
O O5 0.772449 0.357886 0.516331
O O6 0.023371 0.631950 0.242032
O O7 0.639522 0.203739 0.502959
O O8 0.843051 0.043598 0.587898
O O9 0.581130 0.420216 0.138473
O O10 0.888686 0.705824 0.656119
O O11 0.677166 0.470323 0.897677
O O12 0.695262 0.319726 0.782811
O O13 0.648775 0.036861 0.036819
O O14 0.332689 0.618296 0.364920
O O15 0.500000 0.500000 0.000000
O O16 0.303290 0.046348 0.178468
O O17 0.000000 0.500000 0.500000
#
# Coordination Sequence:
#
# PCOD8022727 Si02
#       8
#     2   2   2   2   2   2   2   2
#     4  11  22  40  60  90 121 154 195 246 307 348
#     4  11  20  36  61  88 116 156 202 243 292 346
#     4  10  23  38  64  87 119 154 199 251 295 348
#     4  11  19  34  64  85 112 151 205 251 277 345
#     4  11  20  33  58  90 114 152 201 248 289 338
#     4  11  23  34  56  91 124 151 194 250 295 355
#     4  11  22  38  63  88 115 154 208 247 287 345
#     4  12  22  35  59  90 123 149 193 247 302 346
#
# _framework density 19.748512000000002
#
# number of rings (size 3 to 8) (size 9 to 14) (size 15 to 20)
#    0.000    1.000    7.500    1.875    1.750    0.000 
#    0.000    1.875    2.750    0.000    0.000    0.000 
#    0.000    0.000    0.000    0.000    0.000    0.000 
#
# Total GULP energy -198216.335125 kJ/mol
# GULP energy per Si atom -12388.520945 kJ/mol
# Density = 1.970356 g / cm^3
# Si number density = 19.748512 Si / 1000 Ang^3
#
#
#
# Elastic Constant Matrix: (Units=GPa)
#
#
# Indices 1 2 3 4 5 6 
#
# 1 72.9125 11.8616 22.5531 3.4842 -5.9091 10.9782
# 2 11.8616 132.0380 24.6822 13.7769 1.0328 8.4779
# 3 22.5531 24.6822 60.0540 -1.2657 -11.5348 3.6982
# 4 3.4842 13.7769 -1.2657 36.9430 2.4383 -3.9311
# 5 -5.9091 1.0328 -11.5348 2.4383 24.6469 -0.7527
# 6 10.9782 8.4779 3.6982 -3.9311 -0.7527 16.8862
#
#
#
# Elastic Compliance Matrix: (Units=1/GPa)
#
#
# Indices 1 2 3 4 5 6 
#
# 1 0.017370 0.000583 -0.005891 -0.003319 0.001375 -0.011007
# 2 0.000583 0.009035 -0.004072 -0.003974 -0.001905 -0.005033
# 3 -0.005891 -0.004072 0.022188 0.002454 0.008960 0.001986
# 4 -0.003319 -0.003974 0.002454 0.030213 -0.002147 0.010553
# 5 0.001375 -0.001905 0.008960 -0.002147 0.045377 -0.000377
# 6 -0.011007 -0.005033 0.001986 0.010553 -0.000377 0.070908
#
#
# Mechanical properties :
#
#
# Convention : Reuss Voigt Hill
#
# Bulk Modulus (GPa) = 33.51975 42.57760 38.04867
# Shear Modulus (GPa) = 22.34195 29.42238 25.88216
#
# Velocity S-wave (km/s) = 3.36716 3.86405 3.62413
# Velocity P-wave (km/s) = 5.66809 6.44318 6.06802
#
# Compressibility (1/GPa) = 0.02983316
#
# Stress axis : x y z
#
# Youngs Moduli (GPa) = 57.57170 110.67918 45.06929
#
# Poissons Ratio (x) = -0.06453 0.26549
# Poissons Ratio (y) = -0.03357 0.18353
# Poissons Ratio (z) = 0.33914 0.45070
#
# Static dielectric constant tensor:
#      x y z
#    x 3.368760 0.060280 -0.440760 
#    y 0.060280 3.995630 0.118500 
#    z -0.440760 0.118500 4.089230 
# 
# 
# High freq. dielectric constant tensor:
#      x y z
#    x 1.732820 0.007710 -0.031540 
#    y 0.007710 1.788010 0.002490 
#    z -0.031540 0.002490 1.771450 
# 
# From -- ./inp_files/208909.got.cif
#   From: 2010.06.25/outbox.cif.g09.slc.cpg/sg2_105_cif.got.tgz:208909.got - 2010.06.27 13:26:56.
