data_PCOD8022620
_publ_section_title
;
Structure prediction by ZEFSAII (Michael W. Deem and Ramdas Pophale) SiO2 
 PCOD8022620
Probable space group: P -1
;
_chemical_formula_sum "Si O2"
_cell_formula_units_Z 16
_cell_length_a 17.360210
_cell_length_b 6.188885
_cell_length_c 8.799033
_cell_angle_alpha 92.109686
_cell_angle_beta 75.819972
_cell_angle_gamma 112.856769
_cell_volume 842.793752
_symmetry_space_group_name_H-M "P -1"
_symmetry_group_IT_number 2
_symmetry_cell_setting 'triclinic'
loop_
_space_group_symop_operation_xyz
x,y,z
-x,-y,-z
loop_
_atom_site_type_symbol
_atom_site_label
_atom_site_fract_x
_atom_site_fract_y
_atom_site_fract_z
Si Si1 0.255846 0.363575 0.714216
Si Si2 0.252162 0.137041 0.026656
Si Si3 0.567016 0.375231 0.481849
Si Si4 0.829510 0.337989 0.100445
Si Si5 0.567542 0.767331 0.956907
Si Si6 0.502930 0.001803 0.248291
Si Si7 0.908001 0.049768 0.211308
Si Si8 0.091776 0.202356 0.100128
O O1 0.335762 0.426424 0.561519
O O2 0.240557 0.594787 0.773591
O O3 0.168027 0.168903 0.675212
O O4 0.279094 0.258440 0.852613
O O5 0.336185 0.228011 0.095314
O O6 0.178452 0.211143 0.146180
O O7 0.218524 0.859395 0.006599
O O8 0.500000 0.500000 0.500000
O O9 0.560970 0.198468 0.342258
O O10 0.555588 0.235729 0.641412
O O11 0.880073 0.268852 0.210716
O O12 0.896069 0.552626 0.977397
O O13 0.554906 0.885494 0.810434
O O14 0.500000 0.500000 0.000000
O O15 0.562780 0.930876 0.102871
O O16 0.003614 0.120835 0.243101
O O17 0.918065 0.987466 0.030259
#
# Coordination Sequence:
#
# PCOD8022620 Si02
#       8
#     2   2   2   2   2   2   2   2
#     4   9  17  27  44  67  93 127 162 197 245 295
#     4   9  17  27  44  67  93 127 162 197 245 295
#     4  11  21  37  53  74 104 135 168 213 253 294
#     4   8  14  24  40  63  94 126 156 199 238 286
#     4  11  21  37  53  74 104 135 168 213 253 294
#     4  10  23  34  54  77  98 134 178 205 249 308
#     4   8  14  23  37  61  91 124 159 194 240 291
#     4   8  14  23  37  61  91 124 159 194 240 291
#
# _framework density 18.984479
#
# number of rings (size 3 to 8) (size 9 to 14) (size 15 to 20)
#    0.000    3.250    0.000    3.375    0.000    7.000 
#    0.000    0.000    0.000    0.000    0.000    0.875 
#    0.000    6.000    0.000    0.250    0.000    1.250 
#
# Total GULP energy -198217.329811 kJ/mol
# GULP energy per Si atom -12388.583113 kJ/mol
# Density = 1.894127 g / cm^3
# Si number density = 18.984479 Si / 1000 Ang^3
#
#
#
# Elastic Constant Matrix: (Units=GPa)
#
#
# Indices 1 2 3 4 5 6 
#
# 1 153.4268 48.5641 34.5622 -27.5603 -22.6998 9.2444
# 2 48.5641 93.5833 21.9337 -19.4910 -10.4902 -11.3798
# 3 34.5622 21.9337 52.3194 -20.8743 -5.0549 2.3877
# 4 -27.5603 -19.4910 -20.8743 27.5695 4.8212 -2.6104
# 5 -22.6998 -10.4902 -5.0549 4.8212 29.5664 -9.9148
# 6 9.2444 -11.3798 2.3877 -2.6104 -9.9148 26.1866
#
#
#
# Elastic Compliance Matrix: (Units=1/GPa)
#
#
# Indices 1 2 3 4 5 6 
#
# 1 0.009769 -0.003364 -0.002810 0.004269 0.004252 -0.002619
# 2 -0.003364 0.016267 -0.001849 0.006833 0.005512 0.011193
# 3 -0.002810 -0.001849 0.028772 0.017767 -0.001162 -0.001104
# 4 0.004269 0.006833 0.017767 0.059205 0.001159 0.006183
# 5 0.004252 0.005512 -0.001162 0.001159 0.044705 0.018042
# 6 -0.002619 0.011193 -0.001104 0.006183 0.018042 0.051524
#
#
# Mechanical properties :
#
#
# Convention : Reuss Voigt Hill
#
# Bulk Modulus (GPa) = 25.79864 56.60551 41.20207
# Shear Modulus (GPa) = 20.90224 29.61580 25.25902
#
# Velocity S-wave (km/s) = 3.32176 3.95397 3.65157
# Velocity P-wave (km/s) = 5.32268 7.12226 6.28719
#
# Compressibility (1/GPa) = 0.03876174
#
# Stress axis : x y z
#
# Youngs Moduli (GPa) = 102.36250 61.47452 34.75660
#
# Poissons Ratio (x) = 0.20679 0.09766
# Poissons Ratio (y) = 0.34432 0.06428
# Poissons Ratio (z) = 0.28762 0.11369
#
# Static dielectric constant tensor:
#      x y z
#    x 3.909570 -0.060730 -0.264690 
#    y -0.060730 3.647360 -0.156510 
#    z -0.264690 -0.156510 2.995520 
# 
# 
# High freq. dielectric constant tensor:
#      x y z
#    x 1.746050 -0.012050 -0.026010 
#    y -0.012050 1.751610 -0.016820 
#    z -0.026010 -0.016820 1.668340 
# 
# From -- ./inp_files/323686.got.cif
#   From: 2010.06.25/outbox.cif.g09.slc.cpg/sg2_162_cif.got.tgz:323686.got - 2010.06.27 13:26:56.
