data_PCOD8022172
_publ_section_title
;
Structure prediction by ZEFSAII (Michael W. Deem and Ramdas Pophale) SiO2 
 PCOD8022172
Probable space group: P -1
;
_chemical_formula_sum "Si O2"
_cell_formula_units_Z 16
_cell_length_a 11.542647
_cell_length_b 14.755180
_cell_length_c 8.576130
_cell_angle_alpha 95.050717
_cell_angle_beta 116.232125
_cell_angle_gamma 38.131147
_cell_volume 714.602630
_symmetry_space_group_name_H-M "P -1"
_symmetry_group_IT_number 2
_symmetry_cell_setting 'triclinic'
loop_
_space_group_symop_operation_xyz
x,y,z
-x,-y,-z
loop_
_atom_site_type_symbol
_atom_site_label
_atom_site_fract_x
_atom_site_fract_y
_atom_site_fract_z
Si Si1 0.199187 0.995345 0.255064
Si Si2 0.423295 0.645711 0.574016
Si Si3 0.014854 0.908206 0.165492
Si Si4 0.301358 0.232774 0.557502
Si Si5 0.279964 0.550755 0.563928
Si Si6 0.212776 0.441330 0.763077
Si Si7 0.209082 0.096093 0.572787
Si Si8 0.399764 0.818739 0.814630
O O1 0.476788 0.854820 0.410530
O O2 0.175057 0.901087 0.216452
O O3 0.091860 0.108561 0.360145
O O4 0.068889 0.104137 0.033984
O O5 0.448736 0.541749 0.686744
O O6 0.643746 0.535576 0.573246
O O7 0.345301 0.782167 0.636623
O O8 0.190910 0.747202 0.354036
O O9 0.786312 0.082150 0.142767
O O10 0.244531 0.321762 0.694231
O O11 0.364602 0.090374 0.609306
O O12 0.061802 0.377457 0.333342
O O13 0.322325 0.452604 0.712382
O O14 0.004413 0.739228 0.426220
O O15 0.345831 0.360188 0.995116
O O16 0.382105 0.931120 0.753463
#
# Coordination Sequence:
#
# PCOD8022172 Si02
#       8
#     2   2   2   2   2   2   2   2
#     4  11  22  40  68 100 129 175 221 266 335 392
#     4  11  22  41  66  98 141 176 212 275 338 397
#     4  11  22  39  69 103 133 167 215 279 329 396
#     4  10  22  45  67  92 135 178 224 267 330 387
#     4  10  23  43  62  95 138 180 212 269 338 392
#     4  10  23  43  68  92 134 181 219 272 328 396
#     4  11  23  43  70  97 134 175 222 281 318 390
#     4  12  23  41  69 106 131 170 227 271 336 389
#
# _framework density 22.390066000000001
#
# number of rings (size 3 to 8) (size 9 to 14) (size 15 to 20)
#    0.000    1.250    3.750    2.250    1.750    1.000 
#    9.000    0.625    0.000    0.000    0.000    0.000 
#    0.000    0.000    0.000    0.000    0.000    0.000 
#
# Total GULP energy -198287.501195 kJ/mol
# GULP energy per Si atom -12392.968825 kJ/mol
# Density = 2.233911 g / cm^3
# Si number density = 22.390066 Si / 1000 Ang^3
#
#
#
# Elastic Constant Matrix: (Units=GPa)
#
#
# Indices 1 2 3 4 5 6 
#
# 1 107.1826 44.8807 48.4910 -10.0815 2.9239 8.8812
# 2 44.8807 73.3740 41.9737 -4.0653 -5.6662 7.5950
# 3 48.4910 41.9737 117.5832 -16.8450 -10.6872 -2.1576
# 4 -10.0815 -4.0653 -16.8450 24.6920 -3.2576 0.7253
# 5 2.9239 -5.6662 -10.6872 -3.2576 23.9416 -5.2976
# 6 8.8812 7.5950 -2.1576 0.7253 -5.2976 45.5366
#
#
#
# Elastic Compliance Matrix: (Units=1/GPa)
#
#
# Indices 1 2 3 4 5 6 
#
# 1 0.014362 -0.006640 -0.003878 0.001485 -0.005415 -0.002531
# 2 -0.006640 0.020711 -0.004730 -0.002090 0.002870 -0.002016
# 3 -0.003878 -0.004730 0.013608 0.007776 0.007127 0.002895
# 4 0.001485 -0.002090 0.007776 0.047283 0.009398 0.000768
# 5 -0.005415 0.002870 0.007127 0.009398 0.049000 0.006466
# 6 -0.002531 -0.002016 0.002895 0.000768 0.006466 0.023667
#
#
# Mechanical properties :
#
#
# Convention : Reuss Voigt Hill
#
# Bulk Modulus (GPa) = 54.99733 63.20339 59.10036
# Shear Modulus (GPa) = 24.36771 29.68702 27.02737
#
# Velocity S-wave (km/s) = 3.30256 3.64524 3.47812
# Velocity P-wave (km/s) = 6.25773 6.78282 6.52556
#
# Compressibility (1/GPa) = 0.01818270
#
# Stress axis : x y z
#
# Youngs Moduli (GPa) = 69.62807 48.28370 73.48840
#
# Poissons Ratio (x) = 0.32061 0.28502
# Poissons Ratio (y) = 0.46233 0.34763
# Poissons Ratio (z) = 0.27005 0.22840
#
# Static dielectric constant tensor:
#      x y z
#    x 4.198810 0.101670 -0.087370 
#    y 0.101670 4.108790 -0.052960 
#    z -0.087370 -0.052960 4.025100 
# 
# 
# High freq. dielectric constant tensor:
#      x y z
#    x 1.886030 0.004110 -0.007220 
#    y 0.004110 1.890130 -0.003720 
#    z -0.007220 -0.003720 1.851750 
# 
# From -- ./inp_files/273483.got.cif
#   From: 2010.06.25/outbox.cif.g09.slc.cpg/sg2_137_cif.got.tgz:273483.got - 2010.06.27 13:26:56.
