data_PCOD8022259
_publ_section_title
;
Structure prediction by ZEFSAII (Michael W. Deem and Ramdas Pophale) SiO2 
 PCOD8022259
Probable space group: P -1
;
_chemical_formula_sum "Si O2"
_cell_formula_units_Z 14
_cell_length_a 9.672706
_cell_length_b 14.771442
_cell_length_c 14.205943
_cell_angle_alpha 28.683057
_cell_angle_beta 65.956521
_cell_angle_gamma 46.785064
_cell_volume 591.757139
_symmetry_space_group_name_H-M "P -1"
_symmetry_group_IT_number 2
_symmetry_cell_setting 'triclinic'
loop_
_space_group_symop_operation_xyz
x,y,z
-x,-y,-z
loop_
_atom_site_type_symbol
_atom_site_label
_atom_site_fract_x
_atom_site_fract_y
_atom_site_fract_z
Si Si1 0.851216 0.817880 0.229967
Si Si2 0.551471 0.998750 0.753939
Si Si3 0.893395 0.355865 0.217104
Si Si4 0.152019 0.927605 0.821264
Si Si5 0.740046 0.872303 0.533889
Si Si6 0.172281 0.521955 0.251332
Si Si7 0.158421 0.920930 0.384690
O O1 0.000000 0.500000 0.500000
O O2 0.952735 0.796557 0.122051
O O3 0.586913 0.995821 0.134337
O O4 0.895823 0.929954 0.195787
O O5 0.646150 0.108709 0.666574
O O6 0.370526 0.219471 0.522827
O O7 0.751514 0.680112 0.947894
O O8 0.140830 0.162114 0.373482
O O9 0.946711 0.221806 0.221721
O O10 0.755572 0.330340 0.342126
O O11 0.916907 0.096976 0.677672
O O12 0.302122 0.919671 0.719197
O O13 0.280694 0.609544 0.095500
O O14 0.911253 0.551257 0.737362
O O15 0.500000 0.000000 0.500000
#
# Coordination Sequence:
#
# PCOD8022259 Si02
#       7
#     2   2   2   2   2   2   2
#     4  10  22  45  69  93 131 178 226 271 328 389
#     4  11  22  41  68  95 130 179 220 269 331 388
#     4  10  23  42  64  95 142 173 215 275 334 395
#     4  11  23  44  68  97 133 171 224 275 325 395
#     4  11  23  43  70 101 131 177 222 270 330 400
#     4  11  24  42  70  96 135 175 225 272 327 390
#     4  10  23  42  65  95 135 174 217 273 340 390
#
# _framework density 23.658355
#
# number of rings (size 3 to 8) (size 9 to 14) (size 15 to 20)
#    0.000    1.429    2.857    2.571    2.000    1.714 
#    0.000    5.714    0.000    0.000    0.000    0.000 
#    0.000    0.000    0.000    0.000    0.000    0.000 
#
# Total GULP energy -173499.597403 kJ/mol
# GULP energy per Si atom -12392.828386 kJ/mol
# Density = 2.360451 g / cm^3
# Si number density = 23.658355 Si / 1000 Ang^3
#
#
#
# Elastic Constant Matrix: (Units=GPa)
#
#
# Indices 1 2 3 4 5 6 
#
# 1 152.4978 53.5844 15.5214 7.7226 -24.4952 -11.4955
# 2 53.5844 92.5406 18.8876 11.7324 -0.7521 -7.6662
# 3 15.5214 18.8876 82.0802 10.7604 -26.5634 -15.1161
# 4 7.7226 11.7324 10.7604 21.4107 -8.2655 -0.9833
# 5 -24.4952 -0.7521 -26.5634 -8.2655 35.4744 3.6871
# 6 -11.4955 -7.6662 -15.1161 -0.9833 3.6871 33.5257
#
#
#
# Elastic Compliance Matrix: (Units=1/GPa)
#
#
# Indices 1 2 3 4 5 6 
#
# 1 0.010033 -0.006355 0.002615 0.002132 0.009016 0.002237
# 2 -0.006355 0.016362 -0.004454 -0.008001 -0.009276 0.000340
# 3 0.002615 -0.004454 0.019005 -0.002044 0.014763 0.006764
# 4 0.002132 -0.008001 -0.002044 0.056315 0.013081 -0.001807
# 5 0.009016 -0.009276 0.014763 0.013081 0.048037 0.002727
# 6 0.002237 0.000340 0.006764 -0.001807 0.002727 0.033369
#
#
# Mechanical properties :
#
#
# Convention : Reuss Voigt Hill
#
# Bulk Modulus (GPa) = 34.46744 55.90060 45.18402
# Shear Modulus (GPa) = 23.90291 34.02384 28.96338
#
# Velocity S-wave (km/s) = 3.18203 3.79639 3.50270
# Velocity P-wave (km/s) = 5.30102 6.54953 5.95807
#
# Compressibility (1/GPa) = 0.02901289
#
# Stress axis : x y z
#
# Youngs Moduli (GPa) = 99.66928 61.11714 52.61808
#
# Poissons Ratio (x) = 0.38841 -0.13762
# Poissons Ratio (y) = 0.63341 0.23435
# Poissons Ratio (z) = -0.26067 0.27221
#
# Static dielectric constant tensor:
#      x y z
#    x 4.580450 -0.597640 -0.391670 
#    y -0.597640 3.819750 0.457870 
#    z -0.391670 0.457870 4.101340 
# 
# 
# High freq. dielectric constant tensor:
#      x y z
#    x 1.953020 0.000010 -0.033310 
#    y 0.000010 1.923190 0.018150 
#    z -0.033310 0.018150 1.923460 
# 
# From -- ./inp_files/504924.got.cif
#   From: 2010.06.25/outbox.cif.g09.slc.cpg/sg2_253_cif.got.tgz:504924.got - 2010.06.27 13:26:56.
