data_PCOD8022928
_publ_section_title
;
Structure prediction by ZEFSAII (Michael W. Deem and Ramdas Pophale) SiO2 
 PCOD8022928
Probable space group: P -1
;
_chemical_formula_sum "Si O2"
_cell_formula_units_Z 16
_cell_length_a 13.867447
_cell_length_b 12.657388
_cell_length_c 5.242202
_cell_angle_alpha 89.255848
_cell_angle_beta 90.627162
_cell_angle_gamma 122.256694
_cell_volume 778.057036
_symmetry_space_group_name_H-M "P -1"
_symmetry_group_IT_number 2
_symmetry_cell_setting 'triclinic'
loop_
_space_group_symop_operation_xyz
x,y,z
-x,-y,-z
loop_
_atom_site_type_symbol
_atom_site_label
_atom_site_fract_x
_atom_site_fract_y
_atom_site_fract_z
Si Si1 0.815345 0.993106 0.500946
Si Si2 0.874152 0.389091 0.441300
Si Si3 0.135904 0.098175 0.997136
Si Si4 0.994655 0.262298 0.477074
Si Si5 0.860905 0.656461 0.024222
Si Si6 0.480868 0.861438 0.004583
Si Si7 0.576362 0.936988 0.505070
Si Si8 0.243165 0.612298 0.059982
O O1 0.805748 0.922511 0.242469
O O2 0.714492 0.023726 0.502954
O O3 0.943197 0.115656 0.513546
O O4 0.804969 0.911328 0.746362
O O5 0.880683 0.267105 0.483550
O O6 0.786699 0.385442 0.644834
O O7 0.000000 0.500000 0.500000
O O8 0.848391 0.399568 0.146179
O O9 0.174455 0.242582 0.980186
O O10 0.000000 0.000000 0.000000
O O11 0.083107 0.340449 0.702000
O O12 0.050674 0.311991 0.202222
O O13 0.753144 0.513529 0.980876
O O14 0.542464 0.851031 0.757288
O O15 0.539403 0.848449 0.259047
O O16 0.353274 0.745015 0.993031
O O17 0.500000 0.000000 0.000000
O O18 0.500000 0.000000 0.500000
#
# Coordination Sequence:
#
# PCOD8022928 Si02
#       8
#     2   2   2   2   2   2   2   2
#     4  12  24  40  67  94 130 170 201 269 323 353
#     4  12  23  37  57  91 133 166 205 241 315 406
#     4  12  23  41  64  95 132 169 212 254 307 378
#     4  12  23  35  60  93 130 169 201 252 311 389
#     4  12  23  40  59  90 130 169 212 245 309 383
#     4  10  23  40  61  86 117 158 210 260 307 368
#     4  10  23  43  62  93 123 158 212 268 316 373
#     4  12  24  40  60  86 127 175 202 260 319 365
#
# _framework density 20.564046000000001
#
# number of rings (size 3 to 8) (size 9 to 14) (size 15 to 20)
#    0.000    0.500    5.000    3.750    7.000    0.000 
#    0.000    0.000    0.000    4.500    0.000    0.000 
#    0.000    0.000    0.000    0.000    0.000    0.000 
#
# Total GULP energy -198216.839784 kJ/mol
# GULP energy per Si atom -12388.552486 kJ/mol
# Density = 2.051724 g / cm^3
# Si number density = 20.564046 Si / 1000 Ang^3
#
#
#
# Elastic Constant Matrix: (Units=GPa)
#
#
# Indices 1 2 3 4 5 6 
#
# 1 74.4640 27.0044 24.9798 0.5513 -5.8550 3.5606
# 2 27.0044 126.1778 11.6759 -2.0218 -12.7661 4.4465
# 3 24.9798 11.6759 163.1365 -2.0950 -10.0901 3.7038
# 4 0.5513 -2.0218 -2.0950 19.1977 -2.0550 1.1804
# 5 -5.8550 -12.7661 -10.0901 -2.0550 28.2727 -0.6655
# 6 3.5606 4.4465 3.7038 1.1804 -0.6655 34.5756
#
#
#
# Elastic Compliance Matrix: (Units=1/GPa)
#
#
# Indices 1 2 3 4 5 6 
#
# 1 0.015327 -0.002967 -0.002061 -0.000811 0.001018 -0.000929
# 2 -0.002967 0.008966 0.000070 0.001468 0.003546 -0.000837
# 3 -0.002061 0.000070 0.006590 0.001033 0.002020 -0.000499
# 4 -0.000811 0.001468 0.001033 0.052999 0.004670 -0.001935
# 5 0.001018 0.003546 0.002020 0.004670 0.038237 -0.000201
# 6 -0.000929 -0.000837 -0.000499 -0.001935 -0.000201 0.029241
#
#
# Mechanical properties :
#
#
# Convention : Reuss Voigt Hill
#
# Bulk Modulus (GPa) = 47.69494 54.56650 51.13072
# Shear Modulus (GPa) = 29.71504 36.41708 33.06606
#
# Velocity S-wave (km/s) = 3.80544 4.21278 4.01428
# Velocity P-wave (km/s) = 6.52321 7.08914 6.81205
#
# Compressibility (1/GPa) = 0.02096658
#
# Stress axis : x y z
#
# Youngs Moduli (GPa) = 65.24406 111.53761 151.74654
#
# Poissons Ratio (x) = 0.33091 0.31274
# Poissons Ratio (y) = 0.19357 -0.01059
# Poissons Ratio (z) = 0.13446 -0.00778
#
# Static dielectric constant tensor:
#      x y z
#    x 4.297200 -0.425330 0.053120 
#    y -0.425330 4.098230 0.334300 
#    z 0.053120 0.334300 5.384670 
# 
# 
# High freq. dielectric constant tensor:
#      x y z
#    x 1.764550 -0.003810 -0.000110 
#    y -0.003810 1.795660 0.000690 
#    z -0.000110 0.000690 1.842530 
# 
# From -- ./inp_files/70603.got.cif
#   From: 2010.06.25/outbox.cif.g09.slc.cpg/sg2_36_cif.got.tgz:70603.got - 2010.06.27 13:26:56.
