data_PCOD8022151
_publ_section_title
;
Structure prediction by ZEFSAII (Michael W. Deem and Ramdas Pophale) SiO2 
 PCOD8022151
Probable space group: P -1
;
_chemical_formula_sum "Si O2"
_cell_formula_units_Z 12
_cell_length_a 6.017149
_cell_length_b 11.435984
_cell_length_c 9.001456
_cell_angle_alpha 112.813738
_cell_angle_beta 63.545500
_cell_angle_gamma 104.439144
_cell_volume 508.958950
_symmetry_space_group_name_H-M "P -1"
_symmetry_group_IT_number 2
_symmetry_cell_setting 'triclinic'
loop_
_space_group_symop_operation_xyz
x,y,z
-x,-y,-z
loop_
_atom_site_type_symbol
_atom_site_label
_atom_site_fract_x
_atom_site_fract_y
_atom_site_fract_z
Si Si1 0.314715 0.718042 0.273545
Si Si2 0.169843 0.278565 0.012484
Si Si3 0.661508 0.826104 0.797264
Si Si4 0.818403 0.106714 0.848635
Si Si5 0.889305 0.498459 0.283757
Si Si6 0.526536 0.337901 0.506475
O O1 0.192722 0.831666 0.281880
O O2 0.399839 0.760703 0.436841
O O3 0.126934 0.594330 0.296156
O O4 0.547300 0.675662 0.090027
O O5 0.163460 0.238893 0.168957
O O6 0.984625 0.389184 0.093909
O O7 0.074553 0.158110 0.879065
O O8 0.605392 0.733906 0.629468
O O9 0.812754 0.955393 0.757073
O O10 0.405777 0.856380 0.963520
O O11 0.769241 0.429767 0.432620
O O12 0.672934 0.575084 0.312862
#
# Coordination Sequence:
#
# PCOD8022151 Si02
#       6
#     2   2   2   2   2   2
#     4  11  25  41  65  99 135 168 211 267 326 381
#     4  11  23  43  68  98 128 173 215 266 318 386
#     4  10  23  42  70  95 127 173 219 262 322 380
#     4  10  22  45  66  96 130 170 219 264 316 389
#     4  11  25  42  67  95 135 171 215 261 326 390
#     4  11  25  42  66 100 129 172 212 269 326 379
#
# _framework density 23.577539000000002
#
# number of rings (size 3 to 8) (size 9 to 14) (size 15 to 20)
#    0.000    1.333    1.667    2.500    7.000    3.333 
#    0.000    3.333    0.000    0.000    0.000    0.000 
#    0.000    0.000    0.000    0.000    0.000    0.000 
#
# Total GULP energy -148775.630887 kJ/mol
# GULP energy per Si atom -12397.969241 kJ/mol
# Density = 2.352388 g / cm^3
# Si number density = 23.577539 Si / 1000 Ang^3
#
#
#
# Elastic Constant Matrix: (Units=GPa)
#
#
# Indices 1 2 3 4 5 6 
#
# 1 121.6166 76.2313 51.4197 -17.6031 23.8589 4.5885
# 2 76.2313 148.1973 56.0993 -7.7027 19.7202 9.5047
# 3 51.4197 56.0993 65.1774 -11.9116 13.3870 -0.7366
# 4 -17.6031 -7.7027 -11.9116 22.1030 -8.6493 1.3313
# 5 23.8589 19.7202 13.3870 -8.6493 57.1153 -13.0692
# 6 4.5885 9.5047 -0.7366 1.3313 -13.0692 30.1453
#
#
#
# Elastic Compliance Matrix: (Units=1/GPa)
#
#
# Indices 1 2 3 4 5 6 
#
# 1 0.015431 -0.004581 -0.006517 0.006163 -0.003008 -0.002640
# 2 -0.004581 0.012159 -0.007167 -0.003858 -0.002118 -0.004059
# 3 -0.006517 -0.007167 0.027909 0.007378 0.000664 0.003896
# 4 0.006163 -0.003858 0.007378 0.054883 0.005428 0.000388
# 5 -0.003008 -0.002118 0.000664 0.005428 0.022612 0.010705
# 6 -0.002640 -0.004059 0.003896 0.000388 0.010705 0.039573
#
#
# Mechanical properties :
#
#
# Convention : Reuss Voigt Hill
#
# Bulk Modulus (GPa) = 52.71775 78.05466 65.38620
# Shear Modulus (GPa) = 23.21043 31.95546 27.58295
#
# Velocity S-wave (km/s) = 3.14097 3.68548 3.42406
# Velocity P-wave (km/s) = 5.96339 7.16155 6.58976
#
# Compressibility (1/GPa) = 0.01896894
#
# Stress axis : x y z
#
# Youngs Moduli (GPa) = 64.80534 82.24431 35.83070
#
# Poissons Ratio (x) = 0.37674 0.23350
# Poissons Ratio (y) = 0.29686 0.25682
# Poissons Ratio (z) = 0.42232 0.58948
#
# Static dielectric constant tensor:
#      x y z
#    x 4.283000 -0.032030 -0.095430 
#    y -0.032030 4.365720 -0.252810 
#    z -0.095430 -0.252810 4.034020 
# 
# 
# High freq. dielectric constant tensor:
#      x y z
#    x 1.941240 0.003730 -0.004110 
#    y 0.003730 1.932380 -0.020920 
#    z -0.004110 -0.020920 1.918090 
# 
# From -- ./inp_files/22383.got.cif
#   From: 2010.06.25/outbox.cif.g09.slc.cpg/sg2_12_cif.got.tgz:22383.got - 2010.06.27 13:26:56.
