data_PCOD8022447
_publ_section_title
;
Structure prediction by ZEFSAII (Michael W. Deem and Ramdas Pophale) SiO2 
 PCOD8022447
Probable space group: P -1
;
_chemical_formula_sum "Si O2"
_cell_formula_units_Z 14
_cell_length_a 9.332443
_cell_length_b 11.408821
_cell_length_c 9.595210
_cell_angle_alpha 115.600265
_cell_angle_beta 45.921955
_cell_angle_gamma 120.679843
_cell_volume 626.260199
_symmetry_space_group_name_H-M "P -1"
_symmetry_group_IT_number 2
_symmetry_cell_setting 'triclinic'
loop_
_space_group_symop_operation_xyz
x,y,z
-x,-y,-z
loop_
_atom_site_type_symbol
_atom_site_label
_atom_site_fract_x
_atom_site_fract_y
_atom_site_fract_z
Si Si1 0.161567 0.724076 0.361702
Si Si2 0.433454 0.570339 0.213094
Si Si3 0.157733 0.192467 0.871526
Si Si4 0.840267 0.634623 0.291610
Si Si5 0.487108 0.620334 0.717393
Si Si6 0.014069 0.110187 0.218226
Si Si7 0.476683 0.125604 0.994937
O O1 0.220411 0.604642 0.342688
O O2 0.020841 0.649568 0.288970
O O3 0.034917 0.794489 0.582854
O O4 0.369788 0.841896 0.225776
O O5 0.395805 0.464686 0.311539
O O6 0.500000 0.500000 0.000000
O O7 0.605729 0.714751 0.208090
O O8 0.015990 0.178326 0.099784
O O9 0.063143 0.263323 0.849927
O O10 0.156841 0.041993 0.744236
O O11 0.642503 0.675125 0.509768
O O12 0.745579 0.476974 0.221817
O O13 0.449750 0.743154 0.887999
O O14 0.239641 0.092867 0.086562
O O15 0.500000 0.000000 0.000000
#
# Coordination Sequence:
#
# PCOD8022447 Si02
#       7
#     2   2   2   2   2   2   2
#     4  12  25  43  78 104 132 191 233 287 349 407
#     4  11  22  46  72  98 144 180 233 285 343 416
#     4  10  23  46  70  96 150 183 223 299 337 417
#     4  10  23  43  71 105 134 184 231 289 348 401
#     4  10  22  46  68 101 145 178 229 290 342 415
#     4  11  24  47  70 103 143 185 238 277 351 419
#     4  12  25  44  71 105 140 182 231 292 345 410
#
# _framework density 22.354924
#
# number of rings (size 3 to 8) (size 9 to 14) (size 15 to 20)
#    0.000    1.143    4.286    0.857    2.000    2.857 
#    2.571    2.857    0.000    0.000    0.000    0.000 
#    0.000    0.000    0.000    0.000    0.000    0.000 
#
# Total GULP energy -173636.196276 kJ/mol
# GULP energy per Si atom -12402.585448 kJ/mol
# Density = 2.230404 g / cm^3
# Si number density = 22.354924 Si / 1000 Ang^3
#
#
#
# Elastic Constant Matrix: (Units=GPa)
#
#
# Indices 1 2 3 4 5 6 
#
# 1 148.8734 70.0095 46.8560 11.1455 9.9066 -2.1056
# 2 70.0095 129.7515 45.3037 1.3761 7.8536 -3.8550
# 3 46.8560 45.3037 82.3454 -4.0520 9.3439 -5.8916
# 4 11.1455 1.3761 -4.0520 26.6056 2.4994 6.5020
# 5 9.9066 7.8536 9.3439 2.4994 31.8272 3.8912
# 6 -2.1056 -3.8550 -5.8916 6.5020 3.8912 31.9074
#
#
#
# Elastic Compliance Matrix: (Units=1/GPa)
#
#
# Indices 1 2 3 4 5 6 
#
# 1 0.010215 -0.004125 -0.003644 -0.004682 -0.000792 0.000553
# 2 -0.004125 0.011276 -0.003751 0.000534 -0.000482 0.000348
# 3 -0.003644 -0.003751 0.017029 0.004147 -0.003514 0.002034
# 4 -0.004682 0.000534 0.004147 0.042274 -0.002256 -0.007818
# 5 -0.000792 -0.000482 -0.003514 -0.002256 0.033530 -0.004389
# 6 0.000553 0.000348 0.002034 -0.007818 -0.004389 0.033923
#
#
# Mechanical properties :
#
#
# Convention : Reuss Voigt Hill
#
# Bulk Modulus (GPa) = 64.59573 76.14542 70.37057
# Shear Modulus (GPa) = 28.33700 31.32145 29.82923
#
# Velocity S-wave (km/s) = 3.56419 3.74719 3.65683
# Velocity P-wave (km/s) = 6.77467 7.27034 7.02688
#
# Compressibility (1/GPa) = 0.01548090
#
# Stress axis : x y z
#
# Youngs Moduli (GPa) = 97.89557 88.68128 58.72276
#
# Poissons Ratio (x) = 0.36584 0.21397
# Poissons Ratio (y) = 0.40386 0.22025
# Poissons Ratio (z) = 0.35671 0.33261
#
# Static dielectric constant tensor:
#      x y z
#    x 4.164500 0.080270 0.357630 
#    y 0.080270 4.224700 -0.207670 
#    z 0.357630 -0.207670 4.024590 
# 
# 
# High freq. dielectric constant tensor:
#      x y z
#    x 1.885900 0.012650 0.020870 
#    y 0.012650 1.888290 -0.008400 
#    z 0.020870 -0.008400 1.875870 
# 
# From -- ./inp_files/188982.got.cif
#   From: 2010.06.25/outbox.cif.g09.slc.cpg/sg2_95_cif.got.tgz:188982.got - 2010.06.27 13:26:56.
