data_PCOD8022655
_publ_section_title
;
Structure prediction by ZEFSAII (Michael W. Deem and Ramdas Pophale) SiO2 
 PCOD8022655
Probable space group: P -1
;
_chemical_formula_sum "Si O2"
_cell_formula_units_Z 16
_cell_length_a 23.787889
_cell_length_b 17.662852
_cell_length_c 6.265780
_cell_angle_alpha 77.710251
_cell_angle_beta 112.640490
_cell_angle_gamma 160.824102
_cell_volume 692.458475
_symmetry_space_group_name_H-M "P -1"
_symmetry_group_IT_number 2
_symmetry_cell_setting 'triclinic'
loop_
_space_group_symop_operation_xyz
x,y,z
-x,-y,-z
loop_
_atom_site_type_symbol
_atom_site_label
_atom_site_fract_x
_atom_site_fract_y
_atom_site_fract_z
Si Si1 0.848314 0.368675 0.721565
Si Si2 0.900495 0.000510 0.375259
Si Si3 0.373374 0.237021 0.593225
Si Si4 0.778562 0.372793 0.005150
Si Si5 0.364044 0.940301 0.787774
Si Si6 0.854028 0.078222 0.945819
Si Si7 0.157584 0.207042 0.912094
Si Si8 0.216459 0.906878 0.794170
O O1 0.715361 0.265192 0.740404
O O2 0.702216 0.132984 0.513769
O O3 0.982537 0.589095 0.633903
O O4 0.000000 0.500000 0.000000
O O5 0.701387 0.779372 0.369294
O O6 0.834032 0.850936 0.212347
O O7 0.089530 0.202563 0.686922
O O8 0.963118 0.150318 0.228262
O O9 0.314375 0.174464 0.293151
O O10 0.228870 0.988937 0.590147
O O11 0.613975 0.507983 0.820345
O O12 0.599329 0.197182 0.980424
O O13 0.809315 0.329092 0.203684
O O14 0.974360 0.669013 0.099215
O O15 0.376016 0.033707 0.883190
O O16 0.729642 0.992005 0.953500
O O17 0.000000 0.000000 0.000000
#
# Coordination Sequence:
#
# PCOD8022655 Si02
#       8
#     2   2   2   2   2   2   2   2
#     4  11  21  37  60  86 122 168 222 265 315 380
#     4  10  24  46  69 100 137 168 222 268 331 398
#     4  11  24  44  69  98 137 177 219 268 341 391
#     4  10  23  40  60  90 128 168 217 276 330 376
#     4  11  22  38  61  91 124 172 223 274 325 381
#     4  10  23  43  66  97 132 176 215 275 329 395
#     4  11  25  45  73 103 132 175 214 272 331 409
#     4  10  23  37  61  94 125 173 221 269 320 392
#
# _framework density 23.106079999999999
#
# number of rings (size 3 to 8) (size 9 to 14) (size 15 to 20)
#    0.000    1.500    1.250    2.625    3.500    8.000 
#    2.250    1.250    0.000    0.000    0.000    0.000 
#    0.000    0.000    0.000    0.000    0.000    0.000 
#
# Total GULP energy -198212.171009 kJ/mol
# GULP energy per Si atom -12388.260688 kJ/mol
# Density = 2.305349 g / cm^3
# Si number density = 23.106080 Si / 1000 Ang^3
#
#
#
# Elastic Constant Matrix: (Units=GPa)
#
#
# Indices 1 2 3 4 5 6 
#
# 1 156.7865 40.6455 57.3792 -4.6361 -13.1749 16.0203
# 2 40.6455 72.9991 48.6994 -7.0293 -1.0791 3.6324
# 3 57.3792 48.6994 131.6258 7.2720 -4.4598 0.5445
# 4 -4.6361 -7.0293 7.2720 22.0689 -2.1041 1.1284
# 5 -13.1749 -1.0791 -4.4598 -2.1041 37.4268 -10.8449
# 6 16.0203 3.6324 0.5445 1.1284 -10.8449 32.7313
#
#
#
# Elastic Compliance Matrix: (Units=1/GPa)
#
#
# Indices 1 2 3 4 5 6 
#
# 1 0.008647 -0.002445 -0.002920 0.002343 0.001770 -0.003407
# 2 -0.002445 0.020644 -0.007065 0.008368 -0.001110 -0.001633
# 3 -0.002920 -0.007065 0.011870 -0.006851 0.000498 0.002417
# 4 0.002343 0.008368 -0.006851 0.051095 0.002260 -0.002974
# 5 0.001770 -0.001110 0.000498 0.002260 0.030151 0.009161
# 6 -0.003407 -0.001633 0.002417 -0.002974 0.009161 0.035498
#
#
# Mechanical properties :
#
#
# Convention : Reuss Voigt Hill
#
# Bulk Modulus (GPa) = 61.35096 72.76215 67.05656
# Shear Modulus (GPa) = 26.56772 32.75789 29.66280
#
# Velocity S-wave (km/s) = 3.39457 3.76934 3.58686
# Velocity P-wave (km/s) = 6.47871 7.10653 6.79987
#
# Compressibility (1/GPa) = 0.01629966
#
# Stress axis : x y z
#
# Youngs Moduli (GPa) = 115.65091 48.43967 84.24872
#
# Poissons Ratio (x) = 0.11844 0.24601
# Poissons Ratio (y) = 0.28279 0.59524
# Poissons Ratio (z) = 0.33770 0.34224
#
# Static dielectric constant tensor:
#      x y z
#    x 4.507990 0.068840 -0.139190 
#    y 0.068840 4.096720 -0.438150 
#    z -0.139190 -0.438150 4.100970 
# 
# 
# High freq. dielectric constant tensor:
#      x y z
#    x 1.929930 0.007160 -0.014400 
#    y 0.007160 1.893140 -0.025450 
#    z -0.014400 -0.025450 1.910500 
# 
# From -- ./inp_files/124738.got.cif
#   From: 2010.06.25/outbox.cif.g09.slc.cpg/sg2_63_cif.got.tgz:124738.got - 2010.06.27 13:26:56.
