data_PCOD8022488
_publ_section_title
;
Structure prediction by ZEFSAII (Michael W. Deem and Ramdas Pophale) SiO2 
 PCOD8022488
Probable space group: P -1
;
_chemical_formula_sum "Si O2"
_cell_formula_units_Z 14
_cell_length_a 10.196240
_cell_length_b 9.432881
_cell_length_c 16.353777
_cell_angle_alpha 128.095153
_cell_angle_beta 131.645883
_cell_angle_gamma 88.909602
_cell_volume 691.000713
_symmetry_space_group_name_H-M "P -1"
_symmetry_group_IT_number 2
_symmetry_cell_setting 'triclinic'
loop_
_space_group_symop_operation_xyz
x,y,z
-x,-y,-z
loop_
_atom_site_type_symbol
_atom_site_label
_atom_site_fract_x
_atom_site_fract_y
_atom_site_fract_z
Si Si1 0.120855 0.366386 0.358830
Si Si2 0.382160 0.048470 0.537012
Si Si3 0.027299 0.471631 0.768272
Si Si4 0.299307 0.710730 0.811753
Si Si5 0.557354 0.511449 0.326445
Si Si6 0.971305 0.919492 0.051171
Si Si7 0.190262 0.711893 0.094136
O O1 0.366494 0.500789 0.554995
O O2 0.154272 0.502888 0.336651
O O3 0.940290 0.350889 0.338355
O O4 0.989246 0.092797 0.183975
O O5 0.332175 0.216874 0.545816
O O6 0.550603 0.168113 0.728122
O O7 0.500000 0.000000 0.500000
O O8 0.126202 0.807897 0.373888
O O9 0.241858 0.587542 0.834415
O O10 0.151610 0.622392 0.954677
O O11 0.355438 0.581437 0.732222
O O12 0.500000 0.000000 0.000000
O O13 0.281233 0.347556 0.143662
O O14 0.169540 0.913465 0.158014
O O15 0.000000 0.000000 0.000000
O O16 0.000000 0.500000 0.000000
#
# Coordination Sequence:
#
# PCOD8022488 Si02
#       7
#     2   2   2   2   2   2   2
#     4  10  24  41  68  94 129 162 224 271 321 379
#     4  12  25  42  66  94 137 172 212 264 327 396
#     4  10  24  43  63  98 129 173 214 266 325 385
#     4  10  22  46  70  93 132 165 224 277 321 380
#     4  12  24  42  67  96 126 179 215 267 331 380
#     4  12  23  39  64  99 128 169 223 266 324 386
#     4  12  23  43  65  92 139 174 211 266 327 385
#
# _framework density 20.260472
#
# number of rings (size 3 to 8) (size 9 to 14) (size 15 to 20)
#    0.857    0.000    5.714    1.286    2.000    1.143 
#    0.000    0.714    0.000    0.000    0.000    0.000 
#    0.000    0.000    0.000    0.000    0.000    0.000 
#
# Total GULP energy -173503.048359 kJ/mol
# GULP energy per Si atom -12393.074883 kJ/mol
# Density = 2.021436 g / cm^3
# Si number density = 20.260472 Si / 1000 Ang^3
#
#
#
# Elastic Constant Matrix: (Units=GPa)
#
#
# Indices 1 2 3 4 5 6 
#
# 1 75.7281 32.7145 36.9719 7.8818 -17.3464 6.9563
# 2 32.7145 100.1536 29.2397 6.8211 -21.6781 -0.9768
# 3 36.9719 29.2397 82.3532 0.7164 -17.9537 1.8184
# 4 7.8818 6.8211 0.7164 50.1688 4.8596 0.9585
# 5 -17.3464 -21.6781 -17.9537 4.8596 31.6017 3.4087
# 6 6.9563 -0.9768 1.8184 0.9585 3.4087 37.4314
#
#
#
# Elastic Compliance Matrix: (Units=1/GPa)
#
#
# Indices 1 2 3 4 5 6 
#
# 1 0.019682 -0.003122 -0.006314 -0.003081 0.005969 -0.003897
# 2 -0.003122 0.013068 -0.001825 -0.001894 0.006454 0.000471
# 3 -0.006314 -0.001825 0.016640 0.000553 0.004664 -0.000122
# 4 -0.003081 -0.001894 0.000553 0.021238 -0.005996 0.000499
# 5 0.005969 0.006454 0.004664 -0.005996 0.043456 -0.004971
# 6 -0.003897 0.000471 -0.000122 0.000499 -0.004971 0.027898
#
#
# Mechanical properties :
#
#
# Convention : Reuss Voigt Hill
#
# Bulk Modulus (GPa) = 37.21740 50.67633 43.94687
# Shear Modulus (GPa) = 28.82520 34.46096 31.64308
#
# Velocity S-wave (km/s) = 3.77600 4.12867 3.95627
# Velocity P-wave (km/s) = 6.11721 6.91336 6.52744
#
# Compressibility (1/GPa) = 0.02686915
#
# Stress axis : x y z
#
# Youngs Moduli (GPa) = 50.80714 76.52355 60.09654
#
# Poissons Ratio (x) = 0.23890 0.37942
# Poissons Ratio (y) = 0.15862 0.10968
# Poissons Ratio (z) = 0.32077 0.13966
#
# Static dielectric constant tensor:
#      x y z
#    x 3.502210 0.020310 -0.062250 
#    y 0.020310 3.942210 0.019600 
#    z -0.062250 0.019600 3.869530 
# 
# 
# High freq. dielectric constant tensor:
#      x y z
#    x 1.775350 0.000320 -0.009670 
#    y 0.000320 1.799980 0.003450 
#    z -0.009670 0.003450 1.797970 
# 
# From -- ./inp_files/566958.got.cif
#   From: 2010.06.25/outbox.cif.g09.slc.cpg/sg2_284_cif.got.tgz:566958.got - 2010.06.27 13:26:56.
