data_PCOD8022823
_publ_section_title
;
Structure prediction by ZEFSAII (Michael W. Deem and Ramdas Pophale) SiO2 
 PCOD8022823
Probable space group: P -1
;
_chemical_formula_sum "Si O2"
_cell_formula_units_Z 16
_cell_length_a 10.788867
_cell_length_b 13.956751
_cell_length_c 16.710100
_cell_angle_alpha 138.743547
_cell_angle_beta 139.195482
_cell_angle_gamma 29.233815
_cell_volume 769.508104
_symmetry_space_group_name_H-M "P -1"
_symmetry_group_IT_number 2
_symmetry_cell_setting 'triclinic'
loop_
_space_group_symop_operation_xyz
x,y,z
-x,-y,-z
loop_
_atom_site_type_symbol
_atom_site_label
_atom_site_fract_x
_atom_site_fract_y
_atom_site_fract_z
Si Si1 0.458421 0.490750 0.811695
Si Si2 0.562138 0.043778 0.929680
Si Si3 0.449428 0.228200 0.156366
Si Si4 0.384711 0.906519 0.410601
Si Si5 0.846072 0.523359 0.066296
Si Si6 0.216140 0.693729 0.651256
Si Si7 0.203537 0.384879 0.451892
Si Si8 0.036258 0.677100 0.841544
O O1 0.516764 0.286037 0.714169
O O2 0.283099 0.632835 0.739182
O O3 0.291420 0.619772 0.891506
O O4 0.726639 0.442727 0.915531
O O5 0.335738 0.238426 0.887636
O O6 0.484694 0.917419 0.830242
O O7 0.842745 0.899390 0.928583
O O8 0.605274 0.099677 0.070746
O O9 0.558478 0.328677 0.295349
O O10 0.134453 0.398488 0.089769
O O11 0.498582 0.818490 0.500315
O O12 0.500000 0.000000 0.500000
O O13 0.067018 0.076481 0.356842
O O14 0.870310 0.491120 0.153101
O O15 0.213758 0.537230 0.510270
O O16 0.118145 0.316098 0.301745
O O17 0.000000 0.500000 0.500000
#
# Coordination Sequence:
#
# PCOD8022823 Si02
#       8
#     2   2   2   2   2   2   2   2
#     4  11  23  38  61 100 132 162 208 258 326 387
#     4  10  23  39  64  89 130 171 205 263 313 375
#     4  10  23  43  64  94 126 167 227 257 309 380
#     4  11  21  36  64  91 121 168 210 255 314 367
#     4  11  24  41  65  93 131 176 203 266 320 376
#     4  11  22  38  69  94 121 170 214 267 311 377
#     4  11  21  43  62  93 129 167 216 264 308 383
#     4  11  23  41  60  97 138 159 207 266 326 386
#
# _framework density 20.792504000000001
#
# number of rings (size 3 to 8) (size 9 to 14) (size 15 to 20)
#    0.000    1.250    5.000    0.750    5.250    4.500 
#    0.000    2.500    0.000    4.500    0.000    0.000 
#    0.000    0.000    0.000    0.000    0.000    0.000 
#
# Total GULP energy -198344.667653 kJ/mol
# GULP energy per Si atom -12396.541728 kJ/mol
# Density = 2.074518 g / cm^3
# Si number density = 20.792504 Si / 1000 Ang^3
#
#
#
# Elastic Constant Matrix: (Units=GPa)
#
#
# Indices 1 2 3 4 5 6 
#
# 1 66.4230 45.1494 28.8435 4.4406 23.5443 -7.9473
# 2 45.1494 162.4241 33.3729 -5.5918 11.4570 8.1721
# 3 28.8435 33.3729 69.2957 -9.6132 20.3072 -7.9419
# 4 4.4406 -5.5918 -9.6132 32.8197 6.9889 5.1688
# 5 23.5443 11.4570 20.3072 6.9889 44.8123 -2.4606
# 6 -7.9473 8.1721 -7.9419 5.1688 -2.4606 34.5625
#
#
#
# Elastic Compliance Matrix: (Units=1/GPa)
#
#
# Indices 1 2 3 4 5 6 
#
# 1 0.025374 -0.005866 -0.005328 -0.005208 -0.008266 0.006188
# 2 -0.005866 0.008413 -0.002223 0.001909 0.001420 -0.004033
# 3 -0.005328 -0.002223 0.021221 0.007722 -0.007316 0.002501
# 4 -0.005208 0.001909 0.007722 0.036212 -0.007217 -0.005804
# 5 -0.008266 0.001420 -0.007316 -0.007217 0.030700 -0.000652
# 6 0.006188 -0.004033 0.002501 -0.005804 -0.000652 0.032706
#
#
# Mechanical properties :
#
#
# Convention : Reuss Voigt Hill
#
# Bulk Modulus (GPa) = 35.49402 56.98606 46.24004
# Shear Modulus (GPa) = 26.19842 35.15738 30.67790
#
# Velocity S-wave (km/s) = 3.55349 4.11648 3.84530
# Velocity P-wave (km/s) = 5.82615 7.07534 6.48091
#
# Compressibility (1/GPa) = 0.02817376
#
# Stress axis : x y z
#
# Youngs Moduli (GPa) = 39.41017 118.86796 47.12314
#
# Poissons Ratio (x) = 0.69731 0.25105
# Poissons Ratio (y) = 0.23119 0.10477
# Poissons Ratio (z) = 0.20996 0.26428
#
# Static dielectric constant tensor:
#      x y z
#    x 3.848590 0.130850 0.195290 
#    y 0.130850 4.028040 -0.036700 
#    z 0.195290 -0.036700 3.782940 
# 
# 
# High freq. dielectric constant tensor:
#      x y z
#    x 1.802430 0.011090 0.019820 
#    y 0.011090 1.827460 -0.007650 
#    z 0.019820 -0.007650 1.799630 
# 
# From -- ./inp_files/569571.got.cif
#   From: 2010.06.25/outbox.cif.g09.slc.cpg/sg2_285_cif.got.tgz:569571.got - 2010.06.27 13:26:56.
