data_PCOD8022724
_publ_section_title
;
Structure prediction by ZEFSAII (Michael W. Deem and Ramdas Pophale) SiO2 
 PCOD8022724
Probable space group: P -1
;
_chemical_formula_sum "Si O2"
_cell_formula_units_Z 16
_cell_length_a 12.356868
_cell_length_b 15.774290
_cell_length_c 8.982429
_cell_angle_alpha 106.304187
_cell_angle_beta 110.566607
_cell_angle_gamma 134.037138
_cell_volume 737.591375
_symmetry_space_group_name_H-M "P -1"
_symmetry_group_IT_number 2
_symmetry_cell_setting 'triclinic'
loop_
_space_group_symop_operation_xyz
x,y,z
-x,-y,-z
loop_
_atom_site_type_symbol
_atom_site_label
_atom_site_fract_x
_atom_site_fract_y
_atom_site_fract_z
Si Si1 0.971329 0.884056 0.240870
Si Si2 0.113454 0.172326 0.487757
Si Si3 0.233284 0.718240 0.182111
Si Si4 0.269002 0.969551 0.909967
Si Si5 0.902759 0.576979 0.520674
Si Si6 0.742266 0.318384 0.136758
Si Si7 0.525234 0.467048 0.341565
Si Si8 0.723026 0.053892 0.749861
O O1 0.884805 0.803196 0.325359
O O2 0.136143 0.916704 0.275585
O O3 0.737970 0.739764 0.949542
O O4 0.137836 0.084674 0.424560
O O5 0.346763 0.380125 0.636152
O O6 0.856607 0.027423 0.214539
O O7 0.161801 0.771337 0.136700
O O8 0.430893 0.852155 0.476326
O O9 0.362242 0.762881 0.119838
O O10 0.000000 0.500000 0.000000
O O11 0.125130 0.789541 0.681192
O O12 0.240841 0.949303 0.063877
O O13 0.549990 0.152770 0.084447
O O14 0.796042 0.457903 0.262180
O O15 0.689620 0.489711 0.456114
O O16 0.005209 0.568679 0.674059
O O17 0.500000 0.500000 0.500000
#
# Coordination Sequence:
#
# PCOD8022724 Si02
#       8
#     2   2   2   2   2   2   2   2
#     4  11  23  45  67  96 136 173 219 272 324 397
#     4  10  24  42  68  98 129 177 222 266 332 383
#     4  11  27  45  63  96 137 172 214 268 333 396
#     4  11  22  42  70  97 132 168 221 275 321 390
#     4  10  23  38  64 100 124 172 220 265 326 375
#     4  11  23  40  68  93 132 172 220 268 324 391
#     4  11  24  41  67  96 135 171 222 274 322 385
#     4  11  26  43  69  98 131 174 218 269 335 389
#
# _framework density 21.692228
#
# number of rings (size 3 to 8) (size 9 to 14) (size 15 to 20)
#    0.000    1.250    1.250    3.750    3.500    8.000 
#    0.000    0.000    0.000    0.000    0.000    0.000 
#    0.000    0.000    0.000    0.000    0.000    0.000 
#
# Total GULP energy -198422.861119 kJ/mol
# GULP energy per Si atom -12401.428820 kJ/mol
# Density = 2.164286 g / cm^3
# Si number density = 21.692228 Si / 1000 Ang^3
#
#
#
# Elastic Constant Matrix: (Units=GPa)
#
#
# Indices 1 2 3 4 5 6 
#
# 1 146.5067 41.0142 45.0456 1.5788 -28.3734 0.9425
# 2 41.0142 82.4956 32.2496 4.8053 -23.0408 3.3280
# 3 45.0456 32.2496 104.6421 0.4422 -17.5814 -0.8739
# 4 1.5788 4.8053 0.4422 39.7298 -1.1108 -1.5086
# 5 -28.3734 -23.0408 -17.5814 -1.1108 35.2573 0.9625
# 6 0.9425 3.3280 -0.8739 -1.5086 0.9625 24.3780
#
#
#
# Elastic Compliance Matrix: (Units=1/GPa)
#
#
# Indices 1 2 3 4 5 6 
#
# 1 0.009113 -0.002269 -0.002447 0.000057 0.004641 -0.000310
# 2 -0.002269 0.016748 -0.002908 -0.001791 0.007686 -0.002717
# 3 -0.002447 -0.002908 0.011853 0.000407 0.002030 0.000862
# 4 0.000057 -0.001791 0.000407 0.025445 -0.000170 0.001838
# 5 0.004641 0.007686 0.002030 -0.000170 0.038201 -0.002675
# 6 -0.000310 -0.002717 0.000862 0.001838 -0.002675 0.041654
#
#
# Mechanical properties :
#
#
# Convention : Reuss Voigt Hill
#
# Bulk Modulus (GPa) = 44.51331 63.36257 53.93794
# Shear Modulus (GPa) = 30.16593 34.22867 32.19730
#
# Velocity S-wave (km/s) = 3.73316 3.97662 3.85681
# Velocity P-wave (km/s) = 6.25675 7.09633 6.68972
#
# Compressibility (1/GPa) = 0.02246519
#
# Stress axis : x y z
#
# Youngs Moduli (GPa) = 109.72906 59.71022 84.36991
#
# Poissons Ratio (x) = 0.13547 0.20644
# Poissons Ratio (y) = 0.24896 0.24539
# Poissons Ratio (z) = 0.26849 0.17367
#
# Static dielectric constant tensor:
#      x y z
#    x 4.038580 -0.127520 -0.129160 
#    y -0.127520 3.728510 0.000450 
#    z -0.129160 0.000450 4.116050 
# 
# 
# High freq. dielectric constant tensor:
#      x y z
#    x 1.860240 -0.007320 -0.011870 
#    y -0.007320 1.840850 0.003000 
#    z -0.011870 0.003000 1.867980 
# 
# From -- ./inp_files/273851.got.cif
#   From: 2010.06.25/outbox.cif.g09.slc.cpg/sg2_137_cif.got.tgz:273851.got - 2010.06.27 13:26:56.
