data_PCOD8022363
_publ_section_title
;
Structure prediction by ZEFSAII (Michael W. Deem and Ramdas Pophale) SiO2 
 PCOD8022363
Probable space group: P -1
;
_chemical_formula_sum "Si O2"
_cell_formula_units_Z 16
_cell_length_a 15.015298
_cell_length_b 17.363259
_cell_length_c 9.522320
_cell_angle_alpha 37.371959
_cell_angle_beta 27.734441
_cell_angle_gamma 37.556053
_cell_volume 665.273213
_symmetry_space_group_name_H-M "P -1"
_symmetry_group_IT_number 2
_symmetry_cell_setting 'triclinic'
loop_
_space_group_symop_operation_xyz
x,y,z
-x,-y,-z
loop_
_atom_site_type_symbol
_atom_site_label
_atom_site_fract_x
_atom_site_fract_y
_atom_site_fract_z
Si Si1 0.621387 0.267382 0.317012
Si Si2 0.042462 0.893757 0.218323
Si Si3 0.033061 0.286331 0.792991
Si Si4 0.694512 0.404989 0.769628
Si Si5 0.591077 0.989422 0.738864
Si Si6 0.394153 0.450039 0.594922
Si Si7 0.322692 0.008811 0.840281
Si Si8 0.064925 0.466135 0.244890
O O1 0.584999 0.138788 0.484648
O O2 0.509565 0.308155 0.564709
O O3 0.543696 0.395258 0.127680
O O4 0.860774 0.229800 0.057524
O O5 0.164692 0.748785 0.203372
O O6 0.819665 0.889470 0.577426
O O7 0.168022 0.932798 0.114024
O O8 0.000000 0.000000 0.000000
O O9 0.202201 0.165395 0.805472
O O10 0.133359 0.346336 0.438088
O O11 0.922018 0.398560 0.898962
O O12 0.614949 0.439768 0.672823
O O13 0.831617 0.496255 0.486667
O O14 0.441433 0.942933 0.911614
O O15 0.500000 0.000000 0.000000
O O16 0.500000 0.500000 0.500000
O O17 0.190320 0.436386 0.967152
O O18 0.500000 0.000000 0.500000
#
# Coordination Sequence:
#
# PCOD8022363 Si02
#       8
#     2   2   2   2   2   2   2   2
#     4  11  23  48  69  98 149 187 235 303 356 434
#     4  12  23  51  74 105 145 183 253 301 353 441
#     4  10  22  45  73 100 143 187 235 293 358 428
#     4  11  25  44  73  95 142 197 228 294 363 424
#     4  12  29  45  72 111 144 192 240 309 367 428
#     4  12  26  42  66 107 141 178 245 294 355 421
#     4  12  25  44  79 105 135 195 248 290 363 434
#     4  10  23  43  69 103 138 186 233 291 355 429
#
# _framework density 24.050270000000001
#
# number of rings (size 3 to 8) (size 9 to 14) (size 15 to 20)
#    0.000    0.750    5.000    1.500    3.500    4.500 
#    0.000    0.000    0.000    0.000    0.000    0.000 
#    0.000    0.000    0.000    0.000    0.000    0.000 
#
# Total GULP energy -198323.753049 kJ/mol
# GULP energy per Si atom -12395.234566 kJ/mol
# Density = 2.399553 g / cm^3
# Si number density = 24.050270 Si / 1000 Ang^3
#
#
#
# Elastic Constant Matrix: (Units=GPa)
#
#
# Indices 1 2 3 4 5 6 
#
# 1 169.2400 12.0855 38.8307 9.4672 -4.5352 1.2766
# 2 12.0855 27.7523 2.5374 7.7986 -1.6998 3.1416
# 3 38.8307 2.5374 107.3616 26.2528 15.6080 -2.1052
# 4 9.4672 7.7986 26.2528 34.0883 9.4039 0.6123
# 5 -4.5352 -1.6998 15.6080 9.4039 49.9200 4.3120
# 6 1.2766 3.1416 -2.1052 0.6123 4.3120 33.2367
#
#
#
# Elastic Compliance Matrix: (Units=1/GPa)
#
#
# Indices 1 2 3 4 5 6 
#
# 1 0.006727 -0.002694 -0.002677 0.000457 0.001301 -0.000350
# 2 -0.002694 0.040691 0.002210 -0.010980 0.002844 -0.003769
# 3 -0.002677 0.002210 0.012817 -0.008939 -0.002596 0.001207
# 4 0.000457 -0.010980 -0.008939 0.040007 -0.005107 0.000380
# 5 0.001301 0.002844 -0.002596 -0.005107 0.022304 -0.003283
# 6 -0.000350 -0.003769 0.001207 0.000380 -0.003283 0.030952
#
#
# Mechanical properties :
#
#
# Convention : Reuss Voigt Hill
#
# Bulk Modulus (GPa) = 18.54839 45.69567 32.12203
# Shear Modulus (GPa) = 28.12285 40.17568 34.14926
#
# Velocity S-wave (km/s) = 3.42327 4.09159 3.77226
# Velocity P-wave (km/s) = 4.83261 6.43139 5.68845
#
# Compressibility (1/GPa) = 0.05391303
#
# Stress axis : x y z
#
# Youngs Moduli (GPa) = 148.64718 24.57575 78.02006
#
# Poissons Ratio (x) = 0.06621 0.20888
# Poissons Ratio (y) = 0.40046 -0.17244
# Poissons Ratio (z) = 0.39797 -0.05432
#
# Static dielectric constant tensor:
#      x y z
#    x 4.167440 0.073770 0.265040 
#    y 0.073770 4.319620 0.102470 
#    z 0.265040 0.102470 4.661490 
# 
# 
# High freq. dielectric constant tensor:
#      x y z
#    x 1.959890 0.008610 -0.001230 
#    y 0.008610 1.968150 0.014000 
#    z -0.001230 0.014000 1.952540 
# 
# From -- ./inp_files/317936.got.cif
#   From: 2010.06.25/outbox.cif.g09.slc.cpg/sg2_159_cif.got.tgz:317936.got - 2010.06.27 13:26:56.
