data_PCOD8022051
_publ_section_title
;
Structure prediction by ZEFSAII (Michael W. Deem and Ramdas Pophale) SiO2 
 PCOD8022051
Probable space group: P -1
;
_chemical_formula_sum "Si O2"
_cell_formula_units_Z 16
_cell_length_a 13.910259
_cell_length_b 8.687138
_cell_length_c 17.507107
_cell_angle_alpha 41.493922
_cell_angle_beta 30.346775
_cell_angle_gamma 40.919166
_cell_volume 669.388192
_symmetry_space_group_name_H-M "P -1"
_symmetry_group_IT_number 2
_symmetry_cell_setting 'triclinic'
loop_
_space_group_symop_operation_xyz
x,y,z
-x,-y,-z
loop_
_atom_site_type_symbol
_atom_site_label
_atom_site_fract_x
_atom_site_fract_y
_atom_site_fract_z
Si Si1 0.995007 0.014828 0.588222
Si Si2 0.426479 0.269023 0.635027
Si Si3 0.776813 0.703701 0.073669
Si Si4 0.583639 0.859608 0.573322
Si Si5 0.034407 0.506364 0.370048
Si Si6 0.649289 0.497508 0.098285
Si Si7 0.968248 0.511052 0.241601
Si Si8 0.715494 0.185028 0.845793
O O1 0.093528 0.224218 0.465752
O O2 0.778613 0.100640 0.746493
O O3 0.090075 0.732007 0.654721
O O4 0.000000 0.000000 0.500000
O O5 0.500000 0.500000 0.500000
O O6 0.342186 0.232518 0.789062
O O7 0.247888 0.283536 0.691544
O O8 0.603263 0.040561 0.562092
O O9 0.630732 0.616870 0.150642
O O10 0.000000 0.500000 0.000000
O O11 0.788452 0.961396 0.938033
O O12 0.801251 0.657279 0.488884
O O13 0.423871 0.735178 0.759060
O O14 0.500000 0.000000 0.500000
O O15 0.070890 0.495750 0.258720
O O16 0.185113 0.615854 0.268417
O O17 0.523988 0.685608 0.048181
O O18 0.883543 0.423077 0.943821
#
# Coordination Sequence:
#
# PCOD8022051 Si02
#       8
#     2   2   2   2   2   2   2   2
#     4  10  22  44  73 104 142 195 242 304 363 431
#     4  12  28  48  74 112 144 194 255 302 370 447
#     4  12  27  48  77 109 150 197 242 311 374 442
#     4  12  27  47  77 106 150 198 247 311 365 440
#     4  11  26  46  74 108 150 191 250 303 372 431
#     4  12  27  48  74 107 152 194 245 300 379 440
#     4  11  25  48  74 107 149 193 246 306 367 445
#     4  12  26  47  74 108 152 197 245 305 373 444
#
# _framework density 23.902425000000001
#
# number of rings (size 3 to 8) (size 9 to 14) (size 15 to 20)
#    0.000    0.500    5.000    1.500    7.000    1.000 
#    2.250    0.000    0.000    0.000    0.000    0.000 
#    0.000    0.000    0.000    0.000    0.000    0.000 
#
# Total GULP energy -198219.483256 kJ/mol
# GULP energy per Si atom -12388.717703 kJ/mol
# Density = 2.384802 g / cm^3
# Si number density = 23.902425 Si / 1000 Ang^3
#
#
#
# Elastic Constant Matrix: (Units=GPa)
#
#
# Indices 1 2 3 4 5 6 
#
# 1 106.0710 41.8601 36.8347 1.8589 2.6318 2.8466
# 2 41.8601 111.9004 49.0452 -12.7591 -3.1440 16.4817
# 3 36.8347 49.0452 120.7240 -12.9060 11.6332 11.3881
# 4 1.8589 -12.7591 -12.9060 40.5653 7.7471 0.1202
# 5 2.6318 -3.1440 11.6332 7.7471 39.4578 6.0991
# 6 2.8466 16.4817 11.3881 0.1202 6.0991 47.9002
#
#
#
# Elastic Compliance Matrix: (Units=1/GPa)
#
#
# Indices 1 2 3 4 5 6 
#
# 1 0.011786 -0.003812 -0.002421 -0.002499 -0.000071 0.001202
# 2 -0.003812 0.012876 -0.003679 0.002603 0.002417 -0.003644
# 3 -0.002421 -0.003679 0.011332 0.003326 -0.004005 -0.000783
# 4 -0.002499 0.002603 0.003326 0.027778 -0.005929 -0.000853
# 5 -0.000071 0.002417 -0.004005 -0.005929 0.028423 -0.003480
# 6 0.001202 -0.003644 -0.000783 -0.000853 -0.003480 0.022690
#
#
# Mechanical properties :
#
#
# Convention : Reuss Voigt Hill
#
# Bulk Modulus (GPa) = 61.84124 66.01947 63.93036
# Shear Modulus (GPa) = 35.68870 39.64837 37.66853
#
# Velocity S-wave (km/s) = 3.86826 4.07721 3.97410
# Velocity P-wave (km/s) = 6.77346 7.06011 6.91827
#
# Compressibility (1/GPa) = 0.01617044
#
# Stress axis : x y z
#
# Youngs Moduli (GPa) = 84.84594 77.66189 88.24507
#
# Poissons Ratio (x) = 0.29603 0.21367
# Poissons Ratio (y) = 0.32341 0.32465
# Poissons Ratio (z) = 0.20544 0.28571
#
# Static dielectric constant tensor:
#      x y z
#    x 4.371330 0.129200 0.141270 
#    y 0.129200 4.740060 -0.093340 
#    z 0.141270 -0.093340 4.573010 
# 
# 
# High freq. dielectric constant tensor:
#      x y z
#    x 1.954230 0.008130 0.009560 
#    y 0.008130 1.959610 -0.004210 
#    z 0.009560 -0.004210 1.954030 
# 
# From -- ./inp_files/572814.got.cif
#   From: 2010.06.25/outbox.cif.g09.slc.cpg/sg2_287_cif.got.tgz:572814.got - 2010.06.27 13:26:56.
