data_PCOD8022343
_publ_section_title
;
Structure prediction by ZEFSAII (Michael W. Deem and Ramdas Pophale) SiO2 
 PCOD8022343
Probable space group: P -1
;
_chemical_formula_sum "Si O2"
_cell_formula_units_Z 14
_cell_length_a 8.282701
_cell_length_b 8.633274
_cell_length_c 12.135001
_cell_angle_alpha 83.869959
_cell_angle_beta 120.135850
_cell_angle_gamma 127.207280
_cell_volume 572.781890
_symmetry_space_group_name_H-M "P -1"
_symmetry_group_IT_number 2
_symmetry_cell_setting 'triclinic'
loop_
_space_group_symop_operation_xyz
x,y,z
-x,-y,-z
loop_
_atom_site_type_symbol
_atom_site_label
_atom_site_fract_x
_atom_site_fract_y
_atom_site_fract_z
Si Si1 0.645046 0.456526 0.476480
Si Si2 0.171533 0.027154 0.963582
Si Si3 0.017553 0.211158 0.749354
Si Si4 0.895401 0.112077 0.474569
Si Si5 0.497033 0.620460 0.814905
Si Si6 0.640736 0.233392 0.681556
Si Si7 0.878042 0.582377 0.897640
O O1 0.500000 0.500000 0.500000
O O2 0.505667 0.351431 0.320357
O O3 0.645306 0.288596 0.549874
O O4 0.923850 0.663443 0.534689
O O5 0.125788 0.105046 0.833145
O O6 0.434463 0.192811 0.099009
O O7 0.105442 0.815060 0.923063
O O8 0.000000 0.000000 0.000000
O O9 0.234993 0.443296 0.782479
O O10 0.864594 0.109806 0.594445
O O11 0.835745 0.199538 0.774364
O O12 0.617935 0.968264 0.345585
O O13 0.000000 0.000000 0.500000
O O14 0.691028 0.583405 0.909192
O O15 0.716201 0.434010 0.752582
O O16 0.000000 0.500000 0.000000
#
# Coordination Sequence:
#
# PCOD8022343 Si02
#       7
#     2   2   2   2   2   2   2
#     4  11  22  43  73 104 141 182 227 283 355 404
#     4  10  23  42  72  95 132 189 225 280 350 404
#     4  11  25  45  67 104 142 177 233 286 347 411
#     4  11  24  41  70 104 138 189 228 280 348 415
#     4  10  22  45  71  99 139 185 227 285 347 416
#     4  12  24  44  70 103 144 179 229 292 337 417
#     4  11  24  46  67  99 135 180 236 284 338 414
#
# _framework density 24.442114
#
# number of rings (size 3 to 8) (size 9 to 14) (size 15 to 20)
#    0.000    1.143    2.857    3.429    6.000    2.286 
#   10.286    1.429    0.000    0.000    0.000    0.000 
#    0.000    0.000    0.000    0.000    0.000    0.000 
#
# Total GULP energy -173491.020864 kJ/mol
# GULP energy per Si atom -12392.215776 kJ/mol
# Density = 2.438648 g / cm^3
# Si number density = 24.442114 Si / 1000 Ang^3
#
#
#
# Elastic Constant Matrix: (Units=GPa)
#
#
# Indices 1 2 3 4 5 6 
#
# 1 78.4226 32.6528 30.5361 18.0510 9.0517 7.7280
# 2 32.6528 122.7861 68.2173 24.0747 1.4969 0.5289
# 3 30.5361 68.2173 97.5547 22.5058 15.5140 4.4678
# 4 18.0510 24.0747 22.5058 49.7875 -2.4965 -2.4319
# 5 9.0517 1.4969 15.5140 -2.4965 25.6173 -1.4577
# 6 7.7280 0.5289 4.4678 -2.4319 -1.4577 32.2664
#
#
#
# Elastic Compliance Matrix: (Units=1/GPa)
#
#
# Indices 1 2 3 4 5 6 
#
# 1 0.016485 -0.002832 -0.000986 -0.004665 -0.005766 -0.004377
# 2 -0.002832 0.014726 -0.010285 -0.001023 0.006387 0.002073
# 3 -0.000986 -0.010285 0.021041 -0.004974 -0.012474 -0.003447
# 4 -0.004665 -0.001023 -0.004974 0.025088 0.007396 0.004048
# 5 -0.005766 0.006387 -0.012474 0.007396 0.049305 0.005788
# 6 -0.004377 0.002073 -0.003447 0.004048 0.005788 0.033050
#
#
# Mechanical properties :
#
#
# Convention : Reuss Voigt Hill
#
# Bulk Modulus (GPa) = 41.59058 62.39734 51.99396
# Shear Modulus (GPa) = 25.52109 32.69138 29.10624
#
# Velocity S-wave (km/s) = 3.23483 3.66116 3.45457
# Velocity P-wave (km/s) = 5.56822 6.59213 6.10169
#
# Compressibility (1/GPa) = 0.02404391
#
# Stress axis : x y z
#
# Youngs Moduli (GPa) = 60.66034 67.90937 47.52725
#
# Poissons Ratio (x) = 0.19235 0.04686
# Poissons Ratio (y) = 0.17182 0.48883
# Poissons Ratio (z) = 0.05981 0.69847
#
# Static dielectric constant tensor:
#      x y z
#    x 7.398190 -3.612940 2.292190 
#    y -3.612940 9.468910 -2.249290 
#    z 2.292190 -2.249290 5.569350 
# 
# 
# High freq. dielectric constant tensor:
#      x y z
#    x 1.949890 -0.000040 0.003520 
#    y -0.000040 1.980830 0.020850 
#    z 0.003520 0.020850 1.978140 
# 
# From -- ./inp_files/382082.got.cif
#   From: 2010.06.25/outbox.cif.g09.slc.cpg/sg2_192_cif.got.tgz:382082.got - 2010.06.27 13:26:56.
