data_PCOD8022413
_publ_section_title
;
Structure prediction by ZEFSAII (Michael W. Deem and Ramdas Pophale) SiO2 
 PCOD8022413
Probable space group: P -1
;
_chemical_formula_sum "Si O2"
_cell_formula_units_Z 14
_cell_length_a 23.498184
_cell_length_b 6.636240
_cell_length_c 9.438134
_cell_angle_alpha 131.221621
_cell_angle_beta 142.945087
_cell_angle_gamma 56.542101
_cell_volume 666.019342
_symmetry_space_group_name_H-M "P -1"
_symmetry_group_IT_number 2
_symmetry_cell_setting 'triclinic'
loop_
_space_group_symop_operation_xyz
x,y,z
-x,-y,-z
loop_
_atom_site_type_symbol
_atom_site_label
_atom_site_fract_x
_atom_site_fract_y
_atom_site_fract_z
Si Si1 0.963504 0.399913 0.529802
Si Si2 0.373832 0.288232 0.106987
Si Si3 0.094402 0.130392 0.197116
Si Si4 0.314371 0.306669 0.309393
Si Si5 0.889179 0.831178 0.072213
Si Si6 0.583664 0.117743 0.509575
Si Si7 0.702088 0.086886 0.453000
O O1 0.889415 0.618693 0.552042
O O2 0.000000 0.500000 0.500000
O O3 0.052709 0.363542 0.795414
O O4 0.906838 0.137661 0.280864
O O5 0.311652 0.283211 0.123556
O O6 0.474679 0.132979 0.256735
O O7 0.387037 0.598377 0.235410
O O8 0.318782 0.138679 0.807181
O O9 0.185734 0.924920 0.295627
O O10 0.080280 0.237502 0.059005
O O11 0.000000 0.000000 0.000000
O O12 0.327123 0.614619 0.523613
O O13 0.401609 0.117799 0.454356
O O14 0.220724 0.201416 0.142021
O O15 0.644867 0.028108 0.453148
#
# Coordination Sequence:
#
# PCOD8022413 Si02
#       7
#     2   2   2   2   2   2   2
#     4  11  25  42  68  92 125 174 220 268 322 387
#     4  10  24  41  70  95 129 170 219 267 327 391
#     4  12  24  42  66  89 134 173 212 269 324 379
#     4  11  24  40  66  95 134 166 214 269 326 384
#     4  11  25  43  63  96 128 170 218 271 323 387
#     4  10  22  46  65  95 131 171 212 275 327 378
#     4  11  25  40  65  99 129 173 218 264 322 392
#
# _framework density 21.020409999999998
#
# number of rings (size 3 to 8) (size 9 to 14) (size 15 to 20)
#    0.000    1.143    2.857    2.143    4.000    2.857 
#    0.000    0.000    0.000    0.000    0.000    0.000 
#    0.000    0.000    0.000    0.000    0.000    0.000 
#
# Total GULP energy -173667.488942 kJ/mol
# GULP energy per Si atom -12404.820639 kJ/mol
# Density = 2.097257 g / cm^3
# Si number density = 21.020410 Si / 1000 Ang^3
#
#
#
# Elastic Constant Matrix: (Units=GPa)
#
#
# Indices 1 2 3 4 5 6 
#
# 1 107.4041 22.9669 36.7997 0.5112 -8.6110 -5.8157
# 2 22.9669 119.4740 26.7757 -3.2136 -14.6246 5.5988
# 3 36.7997 26.7757 92.9239 4.0653 -15.4642 2.5696
# 4 0.5112 -3.2136 4.0653 28.4414 -4.7132 -4.8187
# 5 -8.6110 -14.6246 -15.4642 -4.7132 38.6340 1.3080
# 6 -5.8157 5.5988 2.5696 -4.8187 1.3080 30.5199
#
#
#
# Elastic Compliance Matrix: (Units=1/GPa)
#
#
# Indices 1 2 3 4 5 6 
#
# 1 0.011171 -0.001295 -0.004103 0.000776 0.000356 0.002819
# 2 -0.001295 0.009484 -0.001767 0.001527 0.002839 -0.001719
# 3 -0.004103 -0.001767 0.013652 -0.001807 0.003730 -0.002052
# 4 0.000776 0.001527 -0.001807 0.037271 0.004381 0.005717
# 5 0.000356 0.002839 0.003730 0.004381 0.029110 -0.001323
# 6 0.002819 -0.001719 -0.002052 0.005717 -0.001323 0.034750
#
#
# Mechanical properties :
#
#
# Convention : Reuss Voigt Hill
#
# Bulk Modulus (GPa) = 50.05889 54.76517 52.41203
# Shear Modulus (GPa) = 31.96345 35.06970 33.51657
#
# Velocity S-wave (km/s) = 3.90371 4.08899 3.99742
# Velocity P-wave (km/s) = 6.64716 6.95723 6.80396
#
# Compressibility (1/GPa) = 0.01997647
#
# Stress axis : x y z
#
# Youngs Moduli (GPa) = 89.51697 105.44009 73.24871
#
# Poissons Ratio (x) = 0.13659 0.30056
# Poissons Ratio (y) = 0.11597 0.12940
# Poissons Ratio (z) = 0.36731 0.18627
#
# Static dielectric constant tensor:
#      x y z
#    x 3.897460 -0.106370 -0.121470 
#    y -0.106370 3.921390 -0.013390 
#    z -0.121470 -0.013390 3.634240 
# 
# 
# High freq. dielectric constant tensor:
#      x y z
#    x 1.837530 -0.005150 -0.002740 
#    y -0.005150 1.835660 0.002540 
#    z -0.002740 0.002540 1.816940 
# 
# From -- ./inp_files/35643.got.cif
#   From: 2010.06.25/outbox.cif.g09.slc.cpg/sg2_18_cif.got.tgz:35643.got - 2010.06.27 13:26:56.
