data_PCOD8022961
_publ_section_title
;
Structure prediction by ZEFSAII (Michael W. Deem and Ramdas Pophale) SiO2 
 PCOD8022961
Probable space group: P -1
;
_chemical_formula_sum "Si O2"
_cell_formula_units_Z 12
_cell_length_a 21.359639
_cell_length_b 4.842837
_cell_length_c 5.420366
_cell_angle_alpha 89.139634
_cell_angle_beta 76.150326
_cell_angle_gamma 115.105813
_cell_volume 488.604976
_symmetry_space_group_name_H-M "P -1"
_symmetry_group_IT_number 2
_symmetry_cell_setting 'triclinic'
loop_
_space_group_symop_operation_xyz
x,y,z
-x,-y,-z
loop_
_atom_site_type_symbol
_atom_site_label
_atom_site_fract_x
_atom_site_fract_y
_atom_site_fract_z
Si Si1 0.694666 0.529302 0.541677
Si Si2 0.649538 0.207830 0.097785
Si Si3 0.848557 0.040553 0.428346
Si Si4 0.578903 0.554376 0.359259
Si Si5 0.077679 0.316891 0.853457
Si Si6 0.943530 0.281555 0.745949
O O1 0.702775 0.364048 0.281873
O O2 0.763385 0.854830 0.503544
O O3 0.624340 0.592882 0.569819
O O4 0.686991 0.327134 0.796563
O O5 0.579409 0.273866 0.201624
O O6 0.621164 0.844852 0.138445
O O7 0.886699 0.924579 0.177865
O O8 0.872537 0.406245 0.383713
O O9 0.879679 0.999087 0.666116
O O10 0.500000 0.500000 0.500000
O O11 0.991456 0.151338 0.864204
O O12 0.087356 0.507429 0.091563
O O13 0.000000 0.500000 0.500000
#
# Coordination Sequence:
#
# PCOD8022961 Si02
#       6
#     2   2   2   2   2   2
#     4  10  27  44  68 102 140 179 229 280 343 409
#     4  10  25  43  69  98 140 175 229 280 337 406
#     4  11  24  40  63  92 128 177 220 278 343 404
#     4  10  24  45  71 102 136 181 226 279 337 404
#     4  10  23  40  63  91 125 169 224 278 339 403
#     4   9  21  41  62  91 125 166 222 280 336 403
#
# _framework density 24.559714
#
# number of rings (size 3 to 8) (size 9 to 14) (size 15 to 20)
#    1.000    1.000    0.000    1.000    7.000   10.000 
#    0.000    0.000    0.000    0.000    0.000    0.000 
#    0.000    0.000    0.000    0.000    0.000    0.000 
#
# Total GULP energy -148673.680585 kJ/mol
# GULP energy per Si atom -12389.473382 kJ/mol
# Density = 2.450382 g / cm^3
# Si number density = 24.559714 Si / 1000 Ang^3
#
#
#
# Elastic Constant Matrix: (Units=GPa)
#
#
# Indices 1 2 3 4 5 6 
#
# 1 90.3930 37.2002 26.8622 3.4175 11.8271 25.0867
# 2 37.2002 67.7041 1.6173 -0.2022 10.6876 9.4034
# 3 26.8622 1.6173 108.5592 2.2361 23.8091 15.3389
# 4 3.4175 -0.2022 2.2361 38.5939 -5.5214 -7.3997
# 5 11.8271 10.6876 23.8091 -5.5214 28.2441 -0.2693
# 6 25.0867 9.4034 15.3389 -7.3997 -0.2693 49.5574
#
#
#
# Elastic Compliance Matrix: (Units=1/GPa)
#
#
# Indices 1 2 3 4 5 6 
#
# 1 0.017667 -0.008226 -0.002563 -0.003221 -0.002823 -0.007086
# 2 -0.008226 0.020501 0.003495 -0.000603 -0.007386 -0.000938
# 3 -0.002563 0.003495 0.012996 -0.002945 -0.011817 -0.003892
# 4 -0.003221 -0.000603 -0.002945 0.029122 0.009820 0.007058
# 5 -0.002823 -0.007386 -0.011817 0.009820 0.051342 0.008233
# 6 -0.007086 -0.000938 -0.003892 0.007058 0.008233 0.026247
#
#
# Mechanical properties :
#
#
# Convention : Reuss Voigt Hill
#
# Bulk Modulus (GPa) = 27.33988 44.22396 35.78192
# Shear Modulus (GPa) = 27.07758 36.67751 31.87755
#
# Velocity S-wave (km/s) = 3.32402 3.86865 3.60663
# Velocity P-wave (km/s) = 5.08806 6.16450 5.65196
#
# Compressibility (1/GPa) = 0.03657661
#
# Stress axis : x y z
#
# Youngs Moduli (GPa) = 56.60196 48.77852 76.94682
#
# Poissons Ratio (x) = 0.40125 0.19718
# Poissons Ratio (y) = 0.46561 -0.26892
# Poissons Ratio (z) = 0.14504 -0.17047
#
# Static dielectric constant tensor:
#      x y z
#    x -2.639220 0.864150 -6.332540 
#    y 0.864150 4.186130 0.843360 
#    z -6.332540 0.843360 -1.985850 
# 
# 
# High freq. dielectric constant tensor:
#      x y z
#    x 1.958020 -0.011550 0.012300 
#    y -0.011550 1.979510 -0.012310 
#    z 0.012300 -0.012310 1.984220 
# 
# From -- ./inp_files/114727.got.cif
#   From: 2010.06.25/outbox.cif.g09.slc.cpg/sg2_58_cif.got.tgz:114727.got - 2010.06.27 13:26:56.
