data_PCOD8022770
_publ_section_title
;
Structure prediction by ZEFSAII (Michael W. Deem and Ramdas Pophale) SiO2 
 PCOD8022770
Probable space group: P -1
;
_chemical_formula_sum "Si O2"
_cell_formula_units_Z 14
_cell_length_a 17.724292
_cell_length_b 5.011591
_cell_length_c 11.448792
_cell_angle_alpha 109.094116
_cell_angle_beta 126.199951
_cell_angle_gamma 101.661179
_cell_volume 663.151492
_symmetry_space_group_name_H-M "P -1"
_symmetry_group_IT_number 2
_symmetry_cell_setting 'triclinic'
loop_
_space_group_symop_operation_xyz
x,y,z
-x,-y,-z
loop_
_atom_site_type_symbol
_atom_site_label
_atom_site_fract_x
_atom_site_fract_y
_atom_site_fract_z
Si Si1 0.259778 0.561597 0.125514
Si Si2 0.314785 0.761219 0.458675
Si Si3 0.202921 0.156472 0.439810
Si Si4 0.674644 0.944384 0.945221
Si Si5 0.984734 0.791374 0.069313
Si Si6 0.510821 0.961851 0.172622
Si Si7 0.320986 0.627641 0.809385
O O1 0.327231 0.692256 0.326012
O O2 0.280710 0.870857 0.111492
O O3 0.303982 0.355107 0.068122
O O4 0.131448 0.329884 0.996914
O O5 0.277828 0.434171 0.453912
O O6 0.222814 0.855955 0.399137
O O7 0.432894 0.057047 0.658002
O O8 0.232064 0.284221 0.619362
O O9 0.075501 0.016818 0.281107
O O10 0.544856 0.816053 0.821263
O O11 0.737437 0.211257 0.146952
O O12 0.000000 0.500000 0.000000
O O13 0.000000 0.000000 0.000000
O O14 0.607880 0.121858 0.191836
O O15 0.409633 0.611001 0.977192
#
# Coordination Sequence:
#
# PCOD8022770 Si02
#       7
#     2   2   2   2   2   2   2
#     4  12  23  38  59  89 127 153 198 244 310 352
#     4  11  22  36  62  93 117 158 200 249 294 352
#     4  11  21  39  64  90 115 150 213 255 283 346
#     4  10  23  39  58  88 128 160 187 249 295 359
#     4  12  22  41  64  89 115 158 200 251 300 353
#     4   8  19  41  62  89 118 165 203 242 286 351
#     4   8  19  42  62  89 118 162 207 239 288 355
#
# _framework density 21.111312999999999
#
# number of rings (size 3 to 8) (size 9 to 14) (size 15 to 20)
#    0.857    0.857    2.857    1.714    0.000    6.286 
#    0.000    1.429    0.000    0.000    0.000    0.000 
#    0.000    0.000    0.000    0.000    0.000    0.000 
#
# Total GULP energy -173441.226046 kJ/mol
# GULP energy per Si atom -12388.659003 kJ/mol
# Density = 2.106326 g / cm^3
# Si number density = 21.111313 Si / 1000 Ang^3
#
#
#
# Elastic Constant Matrix: (Units=GPa)
#
#
# Indices 1 2 3 4 5 6 
#
# 1 78.0154 10.8118 43.9082 -11.6320 -15.8686 -5.1480
# 2 10.8118 55.1894 10.3356 -0.5590 -0.8258 -11.3686
# 3 43.9082 10.3356 169.9191 -0.8716 -1.6582 3.4779
# 4 -11.6320 -0.5590 -0.8716 12.7221 -8.9156 4.3511
# 5 -15.8686 -0.8258 -1.6582 -8.9156 30.4184 -0.2391
# 6 -5.1480 -11.3686 3.4779 4.3511 -0.2391 26.6908
#
#
#
# Elastic Compliance Matrix: (Units=1/GPa)
#
#
# Indices 1 2 3 4 5 6 
#
# 1 0.030601 -0.004299 -0.007046 0.049173 0.029854 -0.002760
# 2 -0.004299 0.020864 -0.000446 -0.009401 -0.004380 0.009609
# 3 -0.007046 -0.000446 0.007642 -0.009944 -0.006194 -0.000979
# 4 0.049173 -0.009401 -0.009944 0.185697 0.079104 -0.022788
# 5 0.029854 -0.004380 -0.006194 0.079104 0.071118 -0.007559
# 6 -0.002760 0.009609 -0.000979 -0.022788 -0.007559 0.044801
#
#
# Mechanical properties :
#
#
# Convention : Reuss Voigt Hill
#
# Bulk Modulus (GPa) = 28.14937 48.13723 38.14330
# Shear Modulus (GPa) = 12.62158 29.83747 21.22953
#
# Velocity S-wave (km/s) = 2.44777 3.76352 3.17456
# Velocity P-wave (km/s) = 4.62077 6.46039 5.61641
#
# Compressibility (1/GPa) = 0.03552477
#
# Stress axis : x y z
#
# Youngs Moduli (GPa) = 32.67836 47.93015 130.86253
#
# Poissons Ratio (x) = 0.20606 0.92206
# Poissons Ratio (y) = 0.14049 0.05834
# Poissons Ratio (z) = 0.23025 0.02137
#
# Static dielectric constant tensor:
#      x y z
#    x 3.623340 -0.043090 -0.010250 
#    y -0.043090 3.473260 -0.086360 
#    z -0.010250 -0.086360 4.347570 
# 
# 
# High freq. dielectric constant tensor:
#      x y z
#    x 1.812270 -0.005670 -0.013030 
#    y -0.005670 1.808620 -0.010740 
#    z -0.013030 -0.010740 1.838060 
# 
# From -- ./inp_files/440726.got.cif
#   From: 2010.06.25/outbox.cif.g09.slc.cpg/sg2_221_cif.got.tgz:440726.got - 2010.06.27 13:26:56.
