data_PCOD8022958
_publ_section_title
;
Structure prediction by ZEFSAII (Michael W. Deem and Ramdas Pophale) SiO2 
 PCOD8022958
Probable space group: P -1
;
_chemical_formula_sum "Si O2"
_cell_formula_units_Z 8
_cell_length_a 15.032029
_cell_length_b 7.946854
_cell_length_c 13.535502
_cell_angle_alpha 31.404891
_cell_angle_beta 18.294159
_cell_angle_gamma 35.536934
_cell_volume 264.415337
_symmetry_space_group_name_H-M "P -1"
_symmetry_group_IT_number 2
_symmetry_cell_setting 'triclinic'
loop_
_space_group_symop_operation_xyz
x,y,z
-x,-y,-z
loop_
_atom_site_type_symbol
_atom_site_label
_atom_site_fract_x
_atom_site_fract_y
_atom_site_fract_z
Si Si1 0.305661 0.931365 0.555426
Si Si2 0.987223 0.450214 0.745183
Si Si3 0.211740 0.555093 0.657971
Si Si4 0.482447 0.205272 0.041053
O O1 0.116329 0.692271 0.801875
O O2 0.575164 0.748228 0.408824
O O3 0.119109 0.099903 0.752654
O O4 0.418330 0.212165 0.223171
O O5 0.962930 0.471841 0.880858
O O6 0.684307 0.502951 0.986200
O O7 0.184906 0.740359 0.353127
O O8 0.392560 0.851456 0.271650
#
# Coordination Sequence:
#
# PCOD8022958 Si02
#       4
#     2   2   2   2
#     4   9  21  40  61  89 122 156 196 243 297 350
#     4  12  21  42  63  88 118 158 198 244 291 350
#     4   9  21  40  61  89 122 156 196 243 297 350
#     4  10  23  40  63  88 120 154 200 244 291 348
#
# _framework density 30.255431000000002
#
# number of rings (size 3 to 8) (size 9 to 14) (size 15 to 20)
#    1.500    0.500    0.000    3.750    0.000    0.000 
#    0.000   15.000    0.000    0.000    0.000    0.000 
#    0.000    0.000    0.000    0.000    0.000    0.000 
#
# Total GULP energy -99260.481530 kJ/mol
# GULP energy per Si atom -12407.560191 kJ/mol
# Density = 3.018657 g / cm^3
# Si number density = 30.255431 Si / 1000 Ang^3
#
#
#
# Elastic Constant Matrix: (Units=GPa)
#
#
# Indices 1 2 3 4 5 6 
#
# 1 149.8468 32.4969 33.5550 -1.2128 42.5043 -26.3546
# 2 32.4969 155.9271 8.6634 4.0370 13.5981 -16.4912
# 3 33.5550 8.6634 109.6116 -12.5600 10.1009 -4.7646
# 4 -1.2128 4.0370 -12.5600 38.5170 -4.1758 -19.2711
# 5 42.5043 13.5981 10.1009 -4.1758 38.4856 7.7377
# 6 -26.3546 -16.4912 -4.7646 -19.2711 7.7377 42.3189
#
#
#
# Elastic Compliance Matrix: (Units=1/GPa)
#
#
# Indices 1 2 3 4 5 6 
#
# 1 0.014983 0.000036 -0.001598 0.005462 -0.018573 0.015048
# 2 0.000036 0.007057 -0.000028 0.000756 -0.003187 0.003696
# 3 -0.001598 -0.000028 0.010300 0.004368 -0.000920 0.002311
# 4 0.005462 0.000756 0.004368 0.038128 -0.007934 0.023002
# 5 -0.018573 -0.003187 -0.000920 -0.007934 0.052246 -0.026078
# 6 0.015048 0.003696 0.002311 0.023002 -0.026078 0.049945
#
#
# Mechanical properties :
#
#
# Convention : Reuss Voigt Hill
#
# Bulk Modulus (GPa) = 34.29305 62.75735 48.52520
# Shear Modulus (GPa) = 26.94583 46.57565 36.76074
#
# Velocity S-wave (km/s) = 2.98755 3.92779 3.48949
# Velocity P-wave (km/s) = 4.82283 6.43099 5.68407
#
# Compressibility (1/GPa) = 0.02916043
#
# Stress axis : x y z
#
# Youngs Moduli (GPa) = 66.74363 141.71220 97.08593
#
# Poissons Ratio (x) = -0.00511 0.15513
# Poissons Ratio (y) = -0.00241 0.00269
# Poissons Ratio (z) = 0.10665 0.00393
#
# Static dielectric constant tensor:
#      x y z
#    x 5.736980 -0.014800 0.362780 
#    y -0.014800 5.024770 -0.604070 
#    z 0.362780 -0.604070 5.840630 
# 
# 
# High freq. dielectric constant tensor:
#      x y z
#    x 2.270370 0.001080 0.023930 
#    y 0.001080 2.230410 -0.043060 
#    z 0.023930 -0.043060 2.289410 
# 
# From -- ./inp_files/15424.got.cif
#   From: 2010.06.25/outbox.cif.g09.slc.cpg/sg2_8_cif.got.tgz:15424.got - 2010.06.27 13:26:56.
