data_PCOD8022925
_publ_section_title
;
Structure prediction by ZEFSAII (Michael W. Deem and Ramdas Pophale) SiO2 
 PCOD8022925
Probable space group: P -1
;
_chemical_formula_sum "Si O2"
_cell_formula_units_Z 10
_cell_length_a 9.433661
_cell_length_b 11.709598
_cell_length_c 14.834657
_cell_angle_alpha 151.632554
_cell_angle_beta 44.804709
_cell_angle_gamma 118.666059
_cell_volume 494.850172
_symmetry_space_group_name_H-M "P -1"
_symmetry_group_IT_number 2
_symmetry_cell_setting 'triclinic'
loop_
_space_group_symop_operation_xyz
x,y,z
-x,-y,-z
loop_
_atom_site_type_symbol
_atom_site_label
_atom_site_fract_x
_atom_site_fract_y
_atom_site_fract_z
Si Si1 0.749938 0.788018 0.236665
Si Si2 0.913883 0.186368 0.756210
Si Si3 0.256888 0.101240 0.228248
Si Si4 0.067704 0.944388 0.794532
Si Si5 0.273043 0.609277 0.624713
O O1 0.869805 0.821662 0.296005
O O2 0.500000 0.000000 0.500000
O O3 0.854059 0.854881 0.148688
O O4 0.763586 0.494089 0.011927
O O5 0.755998 0.105429 0.835712
O O6 0.000000 0.000000 0.500000
O O7 0.194456 0.375129 0.499689
O O8 0.057466 0.173398 0.297332
O O9 0.500000 0.000000 0.000000
O O10 0.273723 0.700240 0.582502
O O11 0.887319 0.121962 0.070002
O O12 0.500000 0.500000 0.500000
#
# Coordination Sequence:
#
# PCOD8022925 Si02
#       5
#     2   2   2   2   2
#     4  10  23  41  64  89 124 167 208 254 309 367
#     4  10  23  43  63  90 128 164 210 257 304 376
#     4  11  22  39  63  92 126 161 200 255 314 362
#     4  10  23  40  60  92 124 161 205 254 307 371
#     4  11  22  39  63  89 124 160 202 256 311 365
#
# _framework density 20.208138000000002
#
# number of rings (size 3 to 8) (size 9 to 14) (size 15 to 20)
#    0.000    1.600    2.000    1.800    2.800    4.000 
#    0.000    0.000    0.000    0.000    0.000    0.000 
#    0.000    0.000    0.000    0.000    0.000    0.000 
#
# Total GULP energy -123924.472547 kJ/mol
# GULP energy per Si atom -12392.447255 kJ/mol
# Density = 2.016214 g / cm^3
# Si number density = 20.208138 Si / 1000 Ang^3
#
#
#
# Elastic Constant Matrix: (Units=GPa)
#
#
# Indices 1 2 3 4 5 6 
#
# 1 131.3718 76.0395 59.0205 18.7373 -3.9402 -8.2078
# 2 76.0395 142.0206 42.6901 19.2617 -6.4424 -4.1180
# 3 59.0205 42.6901 94.3167 16.5783 -6.6261 -1.8860
# 4 18.7373 19.2617 16.5783 40.4236 -0.0681 3.8132
# 5 -3.9402 -6.4424 -6.6261 -0.0681 39.1695 12.1134
# 6 -8.2078 -4.1180 -1.8860 3.8132 12.1134 30.6592
#
#
#
# Elastic Compliance Matrix: (Units=1/GPa)
#
#
# Indices 1 2 3 4 5 6 
#
# 1 0.013785 -0.005327 -0.005950 -0.001738 -0.001564 0.003443
# 2 -0.005327 0.010519 -0.000983 -0.002114 0.001100 -0.000246
# 3 -0.005950 -0.000983 0.015426 -0.002974 0.002244 -0.001293
# 4 -0.001738 -0.002114 -0.002974 0.028207 0.000452 -0.004619
# 5 -0.001564 0.001100 0.002244 0.000452 0.029611 -0.011888
# 6 0.003443 -0.000246 -0.001293 -0.004619 -0.011888 0.038697
#
#
# Mechanical properties :
#
#
# Convention : Reuss Voigt Hill
#
# Bulk Modulus (GPa) = 65.75790 80.35660 73.05725
# Shear Modulus (GPa) = 30.15033 34.71438 32.43236
#
# Velocity S-wave (km/s) = 3.86682 4.14918 4.01049
# Velocity P-wave (km/s) = 7.24895 7.92497 7.59449
#
# Compressibility (1/GPa) = 0.01520730
#
# Stress axis : x y z
#
# Youngs Moduli (GPa) = 72.54309 95.06897 64.82683
#
# Poissons Ratio (x) = 0.50646 0.38574
# Poissons Ratio (y) = 0.38646 0.06374
# Poissons Ratio (z) = 0.43166 0.09348
#
# Static dielectric constant tensor:
#      x y z
#    x 3.796480 0.097240 0.186220 
#    y 0.097240 3.379700 0.001360 
#    z 0.186220 0.001360 3.435520 
# 
# 
# High freq. dielectric constant tensor:
#      x y z
#    x 1.801320 -0.005540 0.005390 
#    y -0.005540 1.800330 0.016830 
#    z 0.005390 0.016830 1.784120 
# 
# From -- ./inp_files/2233.got.cif
#   From: 2010.06.25/outbox.cif.g09.slc.cpg/sg2_2_cif.got.tgz:2233.got - 2010.06.27 13:26:56.
