data_PCOD8022627
_publ_section_title
;
Structure prediction by ZEFSAII (Michael W. Deem and Ramdas Pophale) SiO2 
 PCOD8022627
Probable space group: P -1
;
_chemical_formula_sum "Si O2"
_cell_formula_units_Z 14
_cell_length_a 16.060867
_cell_length_b 13.715608
_cell_length_c 13.630613
_cell_angle_alpha 158.508541
_cell_angle_beta 129.005628
_cell_angle_gamma 41.787956
_cell_volume 707.097199
_symmetry_space_group_name_H-M "P -1"
_symmetry_group_IT_number 2
_symmetry_cell_setting 'triclinic'
loop_
_space_group_symop_operation_xyz
x,y,z
-x,-y,-z
loop_
_atom_site_type_symbol
_atom_site_label
_atom_site_fract_x
_atom_site_fract_y
_atom_site_fract_z
Si Si1 0.835866 0.430592 0.322610
Si Si2 0.085539 0.264940 0.945043
Si Si3 0.062801 0.166565 0.512112
Si Si4 0.213259 0.676690 0.605103
Si Si5 0.154115 0.730026 0.345839
Si Si6 0.588252 0.631755 0.694006
Si Si7 0.864756 0.938773 0.749263
O O1 0.766895 0.390470 0.327393
O O2 0.788500 0.796440 0.608317
O O3 0.988307 0.243834 0.277333
O O4 0.799044 0.300560 0.079259
O O5 0.135223 0.441040 0.081427
O O6 0.953330 0.534075 0.157644
O O7 0.189419 0.018788 0.873570
O O8 0.060154 0.052025 0.648839
O O9 0.143839 0.086306 0.397576
O O10 0.913394 0.302830 0.506556
O O11 0.137192 0.835872 0.319022
O O12 0.342283 0.395302 0.383380
O O13 0.301899 0.587603 0.349539
O O14 0.500000 0.500000 0.500000
O O15 0.500000 0.000000 0.000000
#
# Coordination Sequence:
#
# PCOD8022627 Si02
#       7
#     2   2   2   2   2   2   2
#     4   9  19  33  48  75 107 144 170 213 263 312
#     4  11  21  33  49  82 107 143 179 206 258 330
#     4  11  22  34  56  83 112 146 175 214 273 320
#     4  10  23  35  59  78 112 144 181 217 271 319
#     4  11  24  36  55  77 112 146 177 219 266 323
#     4  11  23  39  54  78 106 140 185 223 258 314
#     4   9  20  30  49  76 111 136 175 212 256 324
#
# _framework density 19.799258999999999
#
# number of rings (size 3 to 8) (size 9 to 14) (size 15 to 20)
#    0.000    1.714    2.857    2.571   12.000    0.000 
#    0.000    0.000    0.000    0.000    0.000    6.000 
#    0.000    0.000    0.000    0.000    0.000    0.000 
#
# Total GULP energy -173458.184598 kJ/mol
# GULP energy per Si atom -12389.870328 kJ/mol
# Density = 1.975419 g / cm^3
# Si number density = 19.799259 Si / 1000 Ang^3
#
#
#
# Elastic Constant Matrix: (Units=GPa)
#
#
# Indices 1 2 3 4 5 6 
#
# 1 115.3974 51.6422 63.3856 -0.2675 -0.0459 31.5931
# 2 51.6422 68.9603 42.7060 -6.9722 -1.3639 20.8318
# 3 63.3856 42.7060 140.6466 -7.3867 8.8349 17.8622
# 4 -0.2675 -6.9722 -7.3867 29.8240 2.2831 -0.1762
# 5 -0.0459 -1.3639 8.8349 2.2831 32.8783 -1.6538
# 6 31.5931 20.8318 17.8622 -0.1762 -1.6538 38.6936
#
#
#
# Elastic Compliance Matrix: (Units=1/GPa)
#
#
# Indices 1 2 3 4 5 6 
#
# 1 0.016511 -0.007737 -0.004360 -0.002837 0.000704 -0.007286
# 2 -0.007737 0.024274 -0.003043 0.004727 0.001220 -0.005274
# 3 -0.004360 -0.003043 0.010250 0.002021 -0.003009 0.000347
# 4 -0.002837 0.004727 0.002021 0.035323 -0.002860 -0.001123
# 5 0.000704 0.001220 -0.003009 -0.002860 0.031549 0.001493
# 6 -0.007286 -0.005274 0.000347 -0.001123 0.001493 0.034531
#
#
# Mechanical properties :
#
#
# Convention : Reuss Voigt Hill
#
# Bulk Modulus (GPa) = 48.17632 71.16356 59.66994
# Shear Modulus (GPa) = 26.36636 31.43054 28.89845
#
# Velocity S-wave (km/s) = 3.65318 3.98862 3.82458
# Velocity P-wave (km/s) = 6.49458 7.56523 7.05026
#
# Compressibility (1/GPa) = 0.02075708
#
# Stress axis : x y z
#
# Youngs Moduli (GPa) = 60.56444 41.19601 97.56203
#
# Poissons Ratio (x) = 0.31872 0.42536
# Poissons Ratio (y) = 0.46857 0.29684
# Poissons Ratio (z) = 0.26406 0.12534
#
# Static dielectric constant tensor:
#      x y z
#    x 3.586240 0.318010 0.154230 
#    y 0.318010 3.636000 -0.064750 
#    z 0.154230 -0.064750 3.984860 
# 
# 
# High freq. dielectric constant tensor:
#      x y z
#    x 1.749550 0.035840 0.020600 
#    y 0.035840 1.734180 -0.016360 
#    z 0.020600 -0.016360 1.790700 
# 
# From -- ./inp_files/538782.got.cif
#   From: 2010.06.25/outbox.cif.g09.slc.cpg/sg2_270_cif.got.tgz:538782.got - 2010.06.27 13:26:56.
