data_PCOD8022236
_publ_section_title
;
Structure prediction by ZEFSAII (Michael W. Deem and Ramdas Pophale) SiO2 
 PCOD8022236
Probable space group: P -1
;
_chemical_formula_sum "Si O2"
_cell_formula_units_Z 14
_cell_length_a 12.927671
_cell_length_b 9.125542
_cell_length_c 11.178802
_cell_angle_alpha 144.444340
_cell_angle_beta 50.157101
_cell_angle_gamma 124.909639
_cell_volume 584.940111
_symmetry_space_group_name_H-M "P -1"
_symmetry_group_IT_number 2
_symmetry_cell_setting 'triclinic'
loop_
_space_group_symop_operation_xyz
x,y,z
-x,-y,-z
loop_
_atom_site_type_symbol
_atom_site_label
_atom_site_fract_x
_atom_site_fract_y
_atom_site_fract_z
Si Si1 0.527412 0.800327 0.172584
Si Si2 0.689023 0.145258 0.444033
Si Si3 0.423825 0.848539 0.840406
Si Si4 0.036592 0.748398 0.567742
Si Si5 0.121758 0.842719 0.099183
Si Si6 0.658567 0.581938 0.575273
Si Si7 0.950654 0.671720 0.329797
O O1 0.414785 0.916961 0.411919
O O2 0.668571 0.923419 0.211172
O O3 0.525500 0.895436 0.100719
O O4 0.500000 0.500000 0.000000
O O5 0.828730 0.110252 0.381074
O O6 0.678290 0.426561 0.580592
O O7 0.543608 0.784945 0.803491
O O8 0.397062 0.617458 0.615306
O O9 0.281790 0.873959 0.030632
O O10 0.000000 0.500000 0.500000
O O11 0.052605 0.668114 0.363694
O O12 0.914436 0.919915 0.793650
O O13 0.027483 0.863318 0.302299
O O14 0.072942 0.597738 0.895810
O O15 0.802625 0.736233 0.530525
#
# Coordination Sequence:
#
# PCOD8022236 Si02
#       7
#     2   2   2   2   2   2   2
#     4  10  23  43  67  97 133 174 228 283 337 401
#     4  10  23  44  65  99 135 177 223 277 342 407
#     4   9  20  40  69  98 131 174 226 286 333 394
#     4  12  25  42  70  98 141 186 219 278 349 412
#     4  10  24  44  67 104 134 178 234 281 335 407
#     4   9  18  41  69  96 133 176 222 278 341 397
#     4  10  22  45  69 100 136 179 230 278 341 409
#
# _framework density 23.934073999999999
#
# number of rings (size 3 to 8) (size 9 to 14) (size 15 to 20)
#    0.000    2.000    1.429    0.429    4.000    1.714 
#   10.286    1.429    0.000    0.000    0.000    0.000 
#    0.000    0.000    0.000    0.000    0.000    0.000 
#
# Total GULP energy -173535.360923 kJ/mol
# GULP energy per Si atom -12395.382923 kJ/mol
# Density = 2.387960 g / cm^3
# Si number density = 23.934074 Si / 1000 Ang^3
#
#
#
# Elastic Constant Matrix: (Units=GPa)
#
#
# Indices 1 2 3 4 5 6 
#
# 1 182.7890 61.1545 59.9258 4.8057 -5.2022 4.7630
# 2 61.1545 155.4895 52.7466 7.5945 -6.5059 2.5508
# 3 59.9258 52.7466 100.6871 -9.9872 -26.7109 -7.5569
# 4 4.8057 7.5945 -9.9872 33.5449 -8.4150 0.7577
# 5 -5.2022 -6.5059 -26.7109 -8.4150 30.7113 -1.8682
# 6 4.7630 2.5508 -7.5569 0.7577 -1.8682 34.1320
#
#
#
# Elastic Compliance Matrix: (Units=1/GPa)
#
#
# Indices 1 2 3 4 5 6 
#
# 1 0.007867 -0.000953 -0.006284 -0.004134 -0.005627 -0.002634
# 2 -0.000953 0.008936 -0.006093 -0.004919 -0.005040 -0.002051
# 3 -0.006284 -0.006093 0.025621 0.015944 0.024784 0.008007
# 4 -0.004134 -0.004919 0.015944 0.042168 0.023974 0.004851
# 5 -0.005627 -0.005040 0.024784 0.023974 0.059235 0.009359
# 6 -0.002634 -0.002051 0.008007 0.004851 0.009359 0.031996
#
#
# Mechanical properties :
#
#
# Convention : Reuss Voigt Hill
#
# Bulk Modulus (GPa) = 63.43253 87.40219 75.41736
# Shear Modulus (GPa) = 24.06887 37.35354 30.71120
#
# Velocity S-wave (km/s) = 3.17461 3.95484 3.58601
# Velocity P-wave (km/s) = 6.32440 7.57967 6.98031
#
# Compressibility (1/GPa) = 0.01576478
#
# Stress axis : x y z
#
# Youngs Moduli (GPa) = 127.11766 111.90690 39.03045
#
# Poissons Ratio (x) = 0.10662 0.24525
# Poissons Ratio (y) = 0.12111 0.23782
# Poissons Ratio (z) = 0.79875 0.68187
#
# Static dielectric constant tensor:
#      x y z
#    x 4.352440 0.137510 0.199040 
#    y 0.137510 4.615460 -0.103430 
#    z 0.199040 -0.103430 4.506550 
# 
# 
# High freq. dielectric constant tensor:
#      x y z
#    x 1.962390 0.015560 0.027070 
#    y 0.015560 1.958110 0.009960 
#    z 0.027070 0.009960 1.961220 
# 
# From -- ./inp_files/420160.got.cif
#   From: 2010.06.25/outbox.cif.g09.slc.cpg/sg2_211_cif.got.tgz:420160.got - 2010.06.27 13:26:56.
