data_PCOD8022696
_publ_section_title
;
Structure prediction by ZEFSAII (Michael W. Deem and Ramdas Pophale) SiO2 
 PCOD8022696
Probable space group: P -1
;
_chemical_formula_sum "Si O2"
_cell_formula_units_Z 16
_cell_length_a 8.198166
_cell_length_b 8.535543
_cell_length_c 11.590828
_cell_angle_alpha 83.721163
_cell_angle_beta 106.349393
_cell_angle_gamma 65.900456
_cell_volume 686.753531
_symmetry_space_group_name_H-M "P -1"
_symmetry_group_IT_number 2
_symmetry_cell_setting 'triclinic'
loop_
_space_group_symop_operation_xyz
x,y,z
-x,-y,-z
loop_
_atom_site_type_symbol
_atom_site_label
_atom_site_fract_x
_atom_site_fract_y
_atom_site_fract_z
Si Si1 0.547741 0.721306 0.201004
Si Si2 0.854468 0.727238 0.122273
Si Si3 0.086506 0.986756 0.765302
Si Si4 0.913212 0.643814 0.710598
Si Si5 0.825682 0.914184 0.865824
Si Si6 0.656350 0.795804 0.446492
Si Si7 0.271967 0.897254 0.480567
Si Si8 0.290308 0.660405 0.704947
O O1 0.650405 0.727345 0.101307
O O2 0.693623 0.709243 0.334583
O O3 0.532319 0.535593 0.218733
O O4 0.347705 0.894290 0.157362
O O5 0.865449 0.854685 0.212981
O O6 0.029940 0.532118 0.189284
O O7 0.868616 0.785372 0.992256
O O8 0.933512 0.032581 0.627130
O O9 0.009313 0.944717 0.873211
O O10 0.280977 0.811318 0.780803
O O11 0.795255 0.815370 0.755472
O O12 0.771447 0.651748 0.579407
O O13 0.095390 0.646293 0.686993
O O14 0.431009 0.858571 0.417800
O O15 0.720985 0.951791 0.447168
O O16 0.310355 0.722338 0.575400
#
# Coordination Sequence:
#
# PCOD8022696 Si02
#       8
#     2   2   2   2   2   2   2   2
#     4  11  24  40  63  94 126 159 209 249 307 368
#     4  11  25  39  67  91 120 169 209 250 303 360
#     4  11  22  41  60  90 126 162 208 249 305 360
#     4  10  23  41  65  94 123 157 210 254 303 367
#     4  11  21  46  63  87 126 166 207 256 298 358
#     4  11  21  39  63  91 126 158 202 251 316 370
#     4  11  21  38  62  90 125 166 194 252 316 364
#     4  10  23  38  60  93 129 159 196 256 307 365
#
# _framework density 23.298024000000002
#
# number of rings (size 3 to 8) (size 9 to 14) (size 15 to 20)
#    0.000    1.250    3.750    3.000    3.500    2.500 
#    0.000    0.625    0.000    0.000    0.000    0.000 
#    0.000    0.000    0.000    0.000    0.000    0.000 
#
# Total GULP energy -198341.138632 kJ/mol
# GULP energy per Si atom -12396.321165 kJ/mol
# Density = 2.324500 g / cm^3
# Si number density = 23.298024 Si / 1000 Ang^3
#
#
#
# Elastic Constant Matrix: (Units=GPa)
#
#
# Indices 1 2 3 4 5 6 
#
# 1 36.8704 28.5573 19.9366 -10.5415 -12.4946 4.3761
# 2 28.5573 130.4986 26.9402 -32.5163 -10.6145 -5.1236
# 3 19.9366 26.9402 75.5464 -33.1432 -18.7077 6.3570
# 4 -10.5415 -32.5163 -33.1432 42.2138 7.8666 -1.4853
# 5 -12.4946 -10.6145 -18.7077 7.8666 30.8700 -5.7448
# 6 4.3761 -5.1236 6.3570 -1.4853 -5.7448 32.1243
#
#
#
# Elastic Compliance Matrix: (Units=1/GPa)
#
#
# Indices 1 2 3 4 5 6 
#
# 1 0.039023 -0.007287 -0.006184 -0.002628 0.009528 -0.003672
# 2 -0.007287 0.011059 0.001127 0.007663 0.000125 0.002910
# 3 -0.006184 0.001127 0.023749 0.016463 0.007798 -0.001522
# 4 -0.002628 0.007663 0.016463 0.041688 0.001004 0.000430
# 5 0.009528 0.000125 0.007798 0.001004 0.041632 0.004671
# 6 -0.003672 0.002910 -0.001522 0.000430 0.004671 0.033250
#
#
# Mechanical properties :
#
#
# Convention : Reuss Voigt Hill
#
# Bulk Modulus (GPa) = 20.34921 43.75374 32.05148
# Shear Modulus (GPa) = 21.60116 32.20703 26.90410
#
# Velocity S-wave (km/s) = 3.04825 3.72209 3.40189
# Velocity P-wave (km/s) = 4.59808 6.10678 5.40532
#
# Compressibility (1/GPa) = 0.04914195
#
# Stress axis : x y z
#
# Youngs Moduli (GPa) = 25.62591 90.42797 42.10783
#
# Poissons Ratio (x) = 0.65894 0.26041
# Poissons Ratio (y) = 0.18673 -0.04747
# Poissons Ratio (z) = 0.15848 -0.10194
#
# Static dielectric constant tensor:
#      x y z
#    x 3.943490 0.004010 -0.285180 
#    y 0.004010 4.578670 -0.106410 
#    z -0.285180 -0.106410 4.040400 
# 
# 
# High freq. dielectric constant tensor:
#      x y z
#    x 1.903280 -0.001830 -0.029330 
#    y -0.001830 1.933130 -0.010310 
#    z -0.029330 -0.010310 1.914060 
# 
# From -- ./inp_files/382022.got.cif
#   From: 2010.06.25/outbox.cif.g09.slc.cpg/sg2_192_cif.got.tgz:382022.got - 2010.06.27 13:26:56.
