data_PCOD8022629
_publ_section_title
;
Structure prediction by ZEFSAII (Michael W. Deem and Ramdas Pophale) SiO2 
 PCOD8022629
Probable space group: P -1
;
_chemical_formula_sum "Si O2"
_cell_formula_units_Z 14
_cell_length_a 9.099958
_cell_length_b 15.402160
_cell_length_c 9.501498
_cell_angle_alpha 46.337397
_cell_angle_beta 115.573463
_cell_angle_gamma 85.956130
_cell_volume 717.139966
_symmetry_space_group_name_H-M "P -1"
_symmetry_group_IT_number 2
_symmetry_cell_setting 'triclinic'
loop_
_space_group_symop_operation_xyz
x,y,z
-x,-y,-z
loop_
_atom_site_type_symbol
_atom_site_label
_atom_site_fract_x
_atom_site_fract_y
_atom_site_fract_z
Si Si1 0.702938 0.845643 0.239807
Si Si2 0.321825 0.573256 0.654980
Si Si3 0.769231 0.632035 0.263557
Si Si4 0.733666 0.505614 0.975739
Si Si5 0.716840 0.870882 0.775560
Si Si6 0.959463 0.879050 0.105575
Si Si7 0.128056 0.292189 0.240197
O O1 0.703648 0.726044 0.275137
O O2 0.858413 0.875928 0.210056
O O3 0.758395 0.781689 0.488240
O O4 0.500000 0.000000 0.000000
O O5 0.356538 0.437953 0.729025
O O6 0.520615 0.567674 0.751930
O O7 0.160682 0.721303 0.342997
O O8 0.242299 0.570710 0.779641
O O9 0.000000 0.500000 0.500000
O O10 0.716481 0.740150 0.991738
O O11 0.774732 0.628910 0.874591
O O12 0.894983 0.392474 0.057778
O O13 0.841128 0.821837 0.737265
O O14 0.500000 0.000000 0.500000
O O15 0.814406 0.924375 0.862526
O O16 0.000000 0.000000 0.000000
#
# Coordination Sequence:
#
# PCOD8022629 Si02
#       7
#     2   2   2   2   2   2   2
#     4  11  24  42  66  93 131 172 215 269 339 388
#     4  11  21  42  65  97 126 175 225 270 331 391
#     4  11  20  42  68  93 125 177 222 268 317 403
#     4  10  23  35  67  96 129 164 212 283 330 380
#     4  11  24  40  68  96 129 178 221 260 333 406
#     4  11  25  44  65  93 132 177 219 270 328 401
#     4  11  21  42  61  97 126 163 216 274 326 387
#
# _framework density 19.521989999999999
#
# number of rings (size 3 to 8) (size 9 to 14) (size 15 to 20)
#    0.000    1.143    5.714    1.714    6.000    0.000 
#    2.571    2.143    0.000    0.000    0.000    0.000 
#    0.000    0.000    0.000    0.000    0.000    0.000 
#
# Total GULP energy -173575.869366 kJ/mol
# GULP energy per Si atom -12398.276383 kJ/mol
# Density = 1.947756 g / cm^3
# Si number density = 19.521990 Si / 1000 Ang^3
#
#
#
# Elastic Constant Matrix: (Units=GPa)
#
#
# Indices 1 2 3 4 5 6 
#
# 1 105.1709 42.6937 40.6470 -4.9466 9.2881 8.6228
# 2 42.6937 115.7032 52.5352 -7.2023 -0.6025 -3.3033
# 3 40.6470 52.5352 138.6868 -1.0749 16.8856 -2.8654
# 4 -4.9466 -7.2023 -1.0749 34.4548 -0.9568 -5.6621
# 5 9.2881 -0.6025 16.8856 -0.9568 29.1895 1.8163
# 6 8.6228 -3.3033 -2.8654 -5.6621 1.8163 32.4238
#
#
#
# Elastic Compliance Matrix: (Units=1/GPa)
#
#
# Indices 1 2 3 4 5 6 
#
# 1 0.012333 -0.003774 -0.001936 0.000249 -0.002647 -0.003644
# 2 -0.003774 0.011987 -0.003812 0.002288 0.003599 0.002086
# 3 -0.001936 -0.003812 0.009883 -0.000721 -0.005276 0.001170
# 4 0.000249 0.002288 -0.000721 0.030424 0.001049 0.005357
# 5 -0.002647 0.003599 -0.005276 0.001049 0.038347 -0.001361
# 6 -0.003644 0.002086 0.001170 0.005357 -0.001361 0.033138
#
#
# Mechanical properties :
#
#
# Convention : Reuss Voigt Hill
#
# Bulk Modulus (GPa) = 65.96840 70.14588 68.05714
# Shear Modulus (GPa) = 31.20929 34.12595 32.66762
#
# Velocity S-wave (km/s) = 4.00268 4.18554 4.09513
# Velocity P-wave (km/s) = 7.43150 7.70506 7.56952
#
# Compressibility (1/GPa) = 0.01515877
#
# Stress axis : x y z
#
# Youngs Moduli (GPa) = 81.08421 83.42449 101.18570
#
# Poissons Ratio (x) = 0.31485 0.19589
# Poissons Ratio (y) = 0.30601 0.38571
# Poissons Ratio (z) = 0.15698 0.31801
#
# Static dielectric constant tensor:
#      x y z
#    x 3.452200 -0.095160 0.092300 
#    y -0.095160 3.900600 -0.160300 
#    z 0.092300 -0.160300 3.890120 
# 
# 
# High freq. dielectric constant tensor:
#      x y z
#    x 1.747120 -0.003580 0.003050 
#    y -0.003580 1.766110 0.000730 
#    z 0.003050 0.000730 1.775840 
# 
# From -- ./inp_files/189525.got.cif
#   From: 2010.06.25/outbox.cif.g09.slc.cpg/sg2_95_cif.got.tgz:189525.got - 2010.06.27 13:26:56.
