data_PCOD8022890
_publ_section_title
;
Structure prediction by ZEFSAII (Michael W. Deem and Ramdas Pophale) SiO2 
 PCOD8022890
Probable space group: P -1
;
_chemical_formula_sum "Si O2"
_cell_formula_units_Z 16
_cell_length_a 15.996145
_cell_length_b 13.529498
_cell_length_c 24.370570
_cell_angle_alpha 20.691843
_cell_angle_beta 24.135346
_cell_angle_gamma 32.527191
_cell_volume 759.976947
_symmetry_space_group_name_H-M "P -1"
_symmetry_group_IT_number 2
_symmetry_cell_setting 'triclinic'
loop_
_space_group_symop_operation_xyz
x,y,z
-x,-y,-z
loop_
_atom_site_type_symbol
_atom_site_label
_atom_site_fract_x
_atom_site_fract_y
_atom_site_fract_z
Si Si1 0.194987 0.939587 0.450117
Si Si2 0.922990 0.286363 0.610407
Si Si3 0.388774 0.831416 0.735570
Si Si4 0.395488 0.980396 0.895470
Si Si5 0.535160 0.582694 0.668009
Si Si6 0.293301 0.331164 0.286097
Si Si7 0.221183 0.226283 0.972512
Si Si8 0.062712 0.368085 0.884718
O O1 0.383605 0.884588 0.325787
O O2 0.265681 0.203716 0.308493
O O3 0.140259 0.670015 0.659798
O O4 0.000000 0.000000 0.500000
O O5 0.700476 0.352401 0.687792
O O6 0.000000 0.500000 0.500000
O O7 0.072878 0.307616 0.458470
O O8 0.915819 0.973066 0.801239
O O9 0.471000 0.629986 0.744488
O O10 0.546333 0.842024 0.686151
O O11 0.365469 0.136555 0.565667
O O12 0.169734 0.712845 0.952201
O O13 0.375443 0.039095 0.942519
O O14 0.214327 0.136982 0.891713
O O15 0.376449 0.652869 0.063748
O O16 0.339441 0.470334 0.809204
O O17 0.071058 0.373384 0.943753
#
# Coordination Sequence:
#
# PCOD8022890 Si02
#       8
#     2   2   2   2   2   2   2   2
#     4  12  27  46  70  97 127 170 225 286 326 379
#     4  12  21  41  63 100 134 176 210 259 332 399
#     4  11  23  40  62  98 138 170 219 263 326 386
#     4  10  23  47  66  94 130 176 221 267 325 387
#     4  11  23  37  63  98 139 179 210 261 320 398
#     4  12  25  42  70  97 135 173 217 272 329 392
#     4  10  23  39  69  94 134 173 217 262 318 398
#     4  10  24  45  68  94 133 170 222 270 323 392
#
# _framework density 21.053270999999999
#
# number of rings (size 3 to 8) (size 9 to 14) (size 15 to 20)
#    0.750    0.250    2.500    4.125    5.250    0.500 
#    0.000    1.250    0.000    0.000    0.000    0.000 
#    0.000    0.000    0.000    0.000    0.000    0.000 
#
# Total GULP energy -198453.463361 kJ/mol
# GULP energy per Si atom -12403.341460 kJ/mol
# Density = 2.100535 g / cm^3
# Si number density = 21.053271 Si / 1000 Ang^3
#
#
#
# Elastic Constant Matrix: (Units=GPa)
#
#
# Indices 1 2 3 4 5 6 
#
# 1 98.3554 25.7066 13.2294 -0.3866 -12.4563 -7.8730
# 2 25.7066 62.8211 27.1538 11.4686 3.2502 -15.7977
# 3 13.2294 27.1538 119.9393 1.2724 4.5920 -5.6310
# 4 -0.3866 11.4686 1.2724 39.6219 -8.8465 -3.2889
# 5 -12.4563 3.2502 4.5920 -8.8465 30.0098 -7.3662
# 6 -7.8730 -15.7977 -5.6310 -3.2889 -7.3662 36.7555
#
#
#
# Elastic Compliance Matrix: (Units=1/GPa)
#
#
# Indices 1 2 3 4 5 6 
#
# 1 0.012828 -0.005608 -0.000374 0.003629 0.007580 0.002124
# 2 -0.005608 0.023162 -0.004062 -0.007137 -0.004711 0.006549
# 3 -0.000374 -0.004062 0.009308 0.000578 -0.001109 -0.000571
# 4 0.003629 -0.007137 0.000578 0.030192 0.011794 0.002864
# 5 0.007580 -0.004711 -0.001109 0.011794 0.042852 0.009072
# 6 0.002124 0.006549 -0.000571 0.002864 0.009072 0.032464
#
#
# Mechanical properties :
#
#
# Convention : Reuss Voigt Hill
#
# Bulk Modulus (GPa) = 39.66707 45.92170 42.79438
# Shear Modulus (GPa) = 27.88670 35.61248 31.74959
#
# Velocity S-wave (km/s) = 3.64342 4.11730 3.88759
# Velocity P-wave (km/s) = 6.04827 6.66801 6.36569
#
# Compressibility (1/GPa) = 0.02520983
#
# Stress axis : x y z
#
# Youngs Moduli (GPa) = 77.95722 43.17384 107.43506
#
# Poissons Ratio (x) = 0.24212 0.04021
# Poissons Ratio (y) = 0.43718 0.43637
# Poissons Ratio (z) = 0.02918 0.17536
#
# Static dielectric constant tensor:
#      x y z
#    x 3.699990 -0.103080 0.032060 
#    y -0.103080 3.921100 0.130530 
#    z 0.032060 0.130530 3.973430 
# 
# 
# High freq. dielectric constant tensor:
#      x y z
#    x 1.815590 -0.010000 0.000940 
#    y -0.010000 1.822540 0.001600 
#    z 0.000940 0.001600 1.839710 
# 
# From -- ./inp_files/328474.got.cif
#   From: 2010.06.25/outbox.cif.g09.slc.cpg/sg2_165_cif.got.tgz:328474.got - 2010.06.27 13:26:56.
