data_PCOD8022921
_publ_section_title
;
Structure prediction by ZEFSAII (Michael W. Deem and Ramdas Pophale) SiO2 
 PCOD8022921
Probable space group: P -1
;
_chemical_formula_sum "Si O2"
_cell_formula_units_Z 14
_cell_length_a 6.719686
_cell_length_b 10.912822
_cell_length_c 8.559693
_cell_angle_alpha 92.902331
_cell_angle_beta 92.661871
_cell_angle_gamma 72.826898
_cell_volume 598.608887
_symmetry_space_group_name_H-M "P -1"
_symmetry_group_IT_number 2
_symmetry_cell_setting 'triclinic'
loop_
_space_group_symop_operation_xyz
x,y,z
-x,-y,-z
loop_
_atom_site_type_symbol
_atom_site_label
_atom_site_fract_x
_atom_site_fract_y
_atom_site_fract_z
Si Si1 0.177886 0.131853 0.388371
Si Si2 0.960137 0.978874 0.173842
Si Si3 0.729383 0.484798 0.657274
Si Si4 0.346749 0.756338 0.195524
Si Si5 0.088375 0.589534 0.659003
Si Si6 0.412843 0.052930 0.703717
Si Si7 0.422415 0.618178 0.889267
O O1 0.250469 0.066854 0.554634
O O2 0.090713 0.286284 0.406124
O O3 0.990252 0.089195 0.298508
O O4 0.390940 0.075786 0.293545
O O5 0.118400 0.846550 0.228876
O O6 0.726592 0.967759 0.159819
O O7 0.000000 0.000000 0.000000
O O8 0.651549 0.373161 0.724645
O O9 0.725807 0.471204 0.466469
O O10 0.578232 0.612509 0.746132
O O11 0.969224 0.484985 0.695955
O O12 0.518010 0.817721 0.276733
O O13 0.392838 0.740992 0.008905
O O14 0.194048 0.623393 0.819063
O O15 0.500000 0.500000 0.000000
#
# Coordination Sequence:
#
# PCOD8022921 Si02
#       7
#     2   2   2   2   2   2   2
#     4  10  23  41  66  95 125 168 211 257 314 375
#     4  11  23  40  65  97 128 162 209 261 316 379
#     4  10  24  42  64  94 125 167 215 260 313 370
#     4  10  23  41  64  93 128 168 208 258 316 377
#     4  11  23  41  66  94 127 165 212 265 309 370
#     4  10  23  43  65  93 129 166 208 260 318 373
#     4  10  23  40  60  89 126 166 208 255 311 370
#
# _framework density 23.387557999999999
#
# number of rings (size 3 to 8) (size 9 to 14) (size 15 to 20)
#    0.000    1.714    0.000    2.571    0.000   19.429 
#    0.000    0.000    0.000    0.000    0.000    0.000 
#    0.000    0.000    0.000    0.000    0.000    0.000 
#
# Total GULP energy -173449.626271 kJ/mol
# GULP energy per Si atom -12389.259019 kJ/mol
# Density = 2.333433 g / cm^3
# Si number density = 23.387558 Si / 1000 Ang^3
#
#
#
# Elastic Constant Matrix: (Units=GPa)
#
#
# Indices 1 2 3 4 5 6 
#
# 1 125.3076 36.2363 52.8999 1.8649 -21.4703 19.1335
# 2 36.2363 66.7528 26.1988 11.5363 -8.3181 3.2824
# 3 52.8999 26.1988 108.6399 20.9040 -3.4390 15.3471
# 4 1.8649 11.5363 20.9040 34.4908 -3.9173 1.4659
# 5 -21.4703 -8.3181 -3.4390 -3.9173 46.4683 -5.9056
# 6 19.1335 3.2824 15.3471 1.4659 -5.9056 29.8150
#
#
#
# Elastic Compliance Matrix: (Units=1/GPa)
#
#
# Indices 1 2 3 4 5 6 
#
# 1 0.013087 -0.005075 -0.005325 0.004928 0.004596 -0.004430
# 2 -0.005075 0.019205 -0.001445 -0.005277 0.000835 0.002311
# 3 -0.005325 -0.001445 0.014133 -0.007952 -0.002835 -0.003869
# 4 0.004928 -0.005277 -0.007952 0.035723 0.003820 0.000512
# 5 0.004596 0.000835 -0.002835 0.003820 0.024292 0.003042
# 6 -0.004430 0.002311 -0.003869 0.000512 0.003042 0.038698
#
#
# Mechanical properties :
#
#
# Convention : Reuss Voigt Hill
#
# Bulk Modulus (GPa) = 43.98593 59.04114 51.51354
# Shear Modulus (GPa) = 28.34362 34.51250 31.42806
#
# Velocity S-wave (km/s) = 3.48503 3.84562 3.66976
# Velocity P-wave (km/s) = 5.91964 6.70954 6.32693
#
# Compressibility (1/GPa) = 0.02273454
#
# Stress axis : x y z
#
# Youngs Moduli (GPa) = 76.41319 52.06981 70.75578
#
# Poissons Ratio (x) = 0.26425 0.37680
# Poissons Ratio (y) = 0.38780 0.10223
# Poissons Ratio (z) = 0.40692 0.07523
#
# Static dielectric constant tensor:
#      x y z
#    x -2.511310 3.999310 3.135800 
#    y 3.999310 1.542910 -1.515280 
#    z 3.135800 -1.515280 2.960140 
# 
# 
# High freq. dielectric constant tensor:
#      x y z
#    x 1.932610 -0.005400 -0.003580 
#    y -0.005400 1.909680 0.020810 
#    z -0.003580 0.020810 1.932550 
# 
# From -- ./inp_files/36739.got.cif
#   From: 2010.06.25/outbox.cif.g09.slc.cpg/sg2_19_cif.got.tgz:36739.got - 2010.06.27 13:26:56.
