data_PCOD8022524
_publ_section_title
;
Structure prediction by ZEFSAII (Michael W. Deem and Ramdas Pophale) SiO2 
 PCOD8022524
Probable space group: P -1
;
_chemical_formula_sum "Si O2"
_cell_formula_units_Z 16
_cell_length_a 12.198822
_cell_length_b 12.895500
_cell_length_c 11.061159
_cell_angle_alpha 156.631047
_cell_angle_beta 104.556033
_cell_angle_gamma 75.652133
_cell_volume 667.367650
_symmetry_space_group_name_H-M "P -1"
_symmetry_group_IT_number 2
_symmetry_cell_setting 'triclinic'
loop_
_space_group_symop_operation_xyz
x,y,z
-x,-y,-z
loop_
_atom_site_type_symbol
_atom_site_label
_atom_site_fract_x
_atom_site_fract_y
_atom_site_fract_z
Si Si1 0.004421 0.778370 0.864945
Si Si2 0.651912 0.698148 0.014496
Si Si3 0.405703 0.732804 0.639085
Si Si4 0.557762 0.068933 0.897763
Si Si5 0.190548 0.025668 0.805181
Si Si6 0.739648 0.521267 0.093495
Si Si7 0.927380 0.253842 0.716412
Si Si8 0.239113 0.910980 0.189891
O O1 0.000000 0.500000 0.500000
O O2 0.120498 0.804450 0.998694
O O3 0.898141 0.804349 0.955417
O O4 0.000000 0.000000 0.000000
O O5 0.640612 0.519830 0.703609
O O6 0.536798 0.881108 0.179682
O O7 0.768416 0.837659 0.163558
O O8 0.656223 0.551445 0.987227
O O9 0.519341 0.819350 0.695793
O O10 0.302091 0.953509 0.837172
O O11 0.433648 0.692068 0.746136
O O12 0.680548 0.008487 0.811271
O O13 0.128968 0.775586 0.464098
O O14 0.778528 0.812963 0.447896
O O15 0.839987 0.314980 0.864748
O O16 0.691690 0.337468 0.990356
O O17 0.000000 0.000000 0.500000
O O18 0.000000 0.500000 0.000000
#
# Coordination Sequence:
#
# PCOD8022524 Si02
#       8
#     2   2   2   2   2   2   2   2
#     4  12  28  48  73 107 150 196 241 294 368 444
#     4  11  24  44  76 103 143 187 255 302 366 421
#     4  10  22  46  73 103 139 181 260 308 359 425
#     4  10  25  44  72 106 138 196 244 309 365 427
#     4  11  24  42  72 107 139 189 244 305 365 424
#     4  12  26  46  70 108 152 191 239 300 364 447
#     4  12  24  42  71 100 140 190 243 293 349 419
#     4  12  28  48  72 108 157 193 240 292 374 447
#
# _framework density 23.974791
#
# number of rings (size 3 to 8) (size 9 to 14) (size 15 to 20)
#    0.000    0.750    1.250    5.625    7.000    1.000 
#    0.000    0.000    0.000    0.000    0.000    0.000 
#    0.000    0.000    0.000    0.000    0.000    0.000 
#
# Total GULP energy -198270.368513 kJ/mol
# GULP energy per Si atom -12391.898032 kJ/mol
# Density = 2.392022 g / cm^3
# Si number density = 23.974791 Si / 1000 Ang^3
#
#
#
# Elastic Constant Matrix: (Units=GPa)
#
#
# Indices 1 2 3 4 5 6 
#
# 1 108.6037 26.5871 23.5761 -12.9160 3.3036 0.5146
# 2 26.5871 137.6138 31.6059 -0.6133 8.3278 -11.4927
# 3 23.5761 31.6059 153.9340 -5.0733 12.3195 -2.1188
# 4 -12.9160 -0.6133 -5.0733 38.3154 1.9445 1.9775
# 5 3.3036 8.3278 12.3195 1.9445 27.5124 -7.7609
# 6 0.5146 -11.4927 -2.1188 1.9775 -7.7609 24.8290
#
#
#
# Elastic Compliance Matrix: (Units=1/GPa)
#
#
# Indices 1 2 3 4 5 6 
#
# 1 0.010329 -0.001827 -0.001041 0.003452 -0.000951 -0.001721
# 2 -0.001827 0.008264 -0.001346 -0.000819 -0.000598 0.003626
# 3 -0.001041 -0.001346 0.007186 0.000784 -0.003021 -0.000995
# 4 0.003452 -0.000819 0.000784 0.027723 -0.003518 -0.003691
# 5 -0.000951 -0.000598 -0.003021 -0.003518 0.041870 0.012852
# 6 -0.001721 0.003626 -0.000995 -0.003691 0.012852 0.046216
#
#
# Mechanical properties :
#
#
# Convention : Reuss Voigt Hill
#
# Bulk Modulus (GPa) = 57.63385 62.63219 60.13302
# Shear Modulus (GPa) = 32.09262 39.35684 35.72473
#
# Velocity S-wave (km/s) = 3.66266 4.05605 3.86436
# Velocity P-wave (km/s) = 6.47906 6.93659 6.71173
#
# Compressibility (1/GPa) = 0.01735091
#
# Stress axis : x y z
#
# Youngs Moduli (GPa) = 96.81862 121.00158 139.15945
#
# Poissons Ratio (x) = 0.22111 0.14480
# Poissons Ratio (y) = 0.17692 0.18733
# Poissons Ratio (z) = 0.10075 0.16289
#
# Static dielectric constant tensor:
#      x y z
#    x 4.099350 -0.597650 0.042560 
#    y -0.597650 4.110140 -0.232400 
#    z 0.042560 -0.232400 4.365100 
# 
# 
# High freq. dielectric constant tensor:
#      x y z
#    x 1.952430 -0.007950 0.006310 
#    y -0.007950 1.958150 -0.003420 
#    z 0.006310 -0.003420 1.959540 
# 
# From -- ./inp_files/434392.got.cif
#   From: 2010.06.25/outbox.cif.g09.slc.cpg/sg2_218_cif.got.tgz:434392.got - 2010.06.27 13:26:56.
