data_PCOD8022001
_publ_section_title
;
Structure prediction by ZEFSAII (Michael W. Deem and Ramdas Pophale) SiO2 
 PCOD8022001
Probable space group: P -1
;
_chemical_formula_sum "Si O2"
_cell_formula_units_Z 16
_cell_length_a 5.470834
_cell_length_b 11.046115
_cell_length_c 12.316648
_cell_angle_alpha 104.477768
_cell_angle_beta 112.430481
_cell_angle_gamma 81.917403
_cell_volume 665.302628
_symmetry_space_group_name_H-M "P -1"
_symmetry_group_IT_number 2
_symmetry_cell_setting 'triclinic'
loop_
_space_group_symop_operation_xyz
x,y,z
-x,-y,-z
loop_
_atom_site_type_symbol
_atom_site_label
_atom_site_fract_x
_atom_site_fract_y
_atom_site_fract_z
Si Si1 0.932176 0.748062 0.324430
Si Si2 0.564831 0.845212 0.097279
Si Si3 0.238086 0.089556 0.073145
Si Si4 0.979648 0.764637 0.585930
Si Si5 0.167964 0.518386 0.199450
Si Si6 0.609552 0.703663 0.693605
Si Si7 0.712517 0.391679 0.980106
Si Si8 0.194099 0.982199 0.426696
O O1 0.864257 0.752627 0.441669
O O2 0.009920 0.604541 0.279033
O O3 0.166235 0.839987 0.350592
O O4 0.687788 0.799082 0.221412
O O5 0.336216 0.747387 0.014755
O O6 0.482931 0.991986 0.120346
O O7 0.750427 0.832108 0.019639
O O8 0.240227 0.190532 0.191786
O O9 0.000000 0.000000 0.000000
O O10 0.296480 0.735220 0.630159
O O11 0.793779 0.681929 0.611943
O O12 0.917645 0.908504 0.649366
O O13 0.390303 0.430637 0.277012
O O14 0.286306 0.610309 0.151367
O O15 0.988560 0.421898 0.085974
O O16 0.500000 0.500000 0.000000
O O17 0.500000 0.000000 0.500000
O O18 0.000000 0.000000 0.500000
#
# Coordination Sequence:
#
# PCOD8022001 Si02
#       8
#     2   2   2   2   2   2   2   2
#     4  11  25  47  72 110 140 192 258 299 368 444
#     4  11  25  44  76 109 147 188 246 319 369 454
#     4  11  27  46  72 111 145 191 245 310 387 444
#     4  11  27  48  73 108 147 203 244 305 371 442
#     4  11  27  43  73 108 144 200 245 315 366 447
#     4  12  28  48  75 104 158 197 244 306 377 442
#     4  11  23  45  70 107 148 189 250 303 383 439
#     4  10  22  44  72 100 140 184 243 306 357 424
#
# _framework density 24.049206000000002
#
# number of rings (size 3 to 8) (size 9 to 14) (size 15 to 20)
#    0.000    1.000    1.250    3.750   12.250    5.000 
#    0.000    0.000    0.000    0.000    0.000    0.000 
#    0.000    0.000    0.000    0.000    0.000    0.000 
#
# Total GULP energy -198231.737190 kJ/mol
# GULP energy per Si atom -12389.483574 kJ/mol
# Density = 2.399447 g / cm^3
# Si number density = 24.049206 Si / 1000 Ang^3
#
#
#
# Elastic Constant Matrix: (Units=GPa)
#
#
# Indices 1 2 3 4 5 6 
#
# 1 134.5416 24.8885 40.5700 -15.5413 -0.1935 10.5611
# 2 24.8885 127.0293 44.1269 -13.6760 -4.8926 6.6663
# 3 40.5700 44.1269 117.1283 -12.0910 -9.4240 -0.8710
# 4 -15.5413 -13.6760 -12.0910 32.0358 -3.8047 4.8763
# 5 -0.1935 -4.8926 -9.4240 -3.8047 33.4371 -6.7603
# 6 10.5611 6.6663 -0.8710 4.8763 -6.7603 44.3797
#
#
#
# Elastic Compliance Matrix: (Units=1/GPa)
#
#
# Indices 1 2 3 4 5 6 
#
# 1 0.008913 -0.000333 -0.002696 0.003459 -0.000897 -0.002641
# 2 -0.000333 0.009446 -0.003103 0.003012 0.000514 -0.001653
# 3 -0.002696 -0.003103 0.011081 0.001679 0.003173 0.001624
# 4 0.003459 0.003012 0.001679 0.035997 0.004105 -0.004573
# 5 -0.000897 0.000514 0.003173 0.004105 0.032282 0.004665
# 6 -0.002641 -0.001653 0.001624 -0.004573 0.004665 0.024654
#
#
# Mechanical properties :
#
#
# Convention : Reuss Voigt Hill
#
# Bulk Modulus (GPa) = 58.22457 66.42999 62.32728
# Shear Modulus (GPa) = 35.62159 39.91144 37.76651
#
# Velocity S-wave (km/s) = 3.85281 4.07821 3.96711
# Velocity P-wave (km/s) = 6.63742 7.06103 6.85250
#
# Compressibility (1/GPa) = 0.01717488
#
# Stress axis : x y z
#
# Youngs Moduli (GPa) = 112.19616 105.86039 90.24064
#
# Poissons Ratio (x) = 0.03527 0.24333
# Poissons Ratio (y) = 0.03738 0.28005
# Poissons Ratio (z) = 0.30253 0.32853
#
# Static dielectric constant tensor:
#      x y z
#    x 4.302180 0.095650 -0.030130 
#    y 0.095650 4.967300 0.043600 
#    z -0.030130 0.043600 4.424230 
# 
# 
# High freq. dielectric constant tensor:
#      x y z
#    x 1.950730 0.003840 -0.002170 
#    y 0.003840 1.976140 -0.004210 
#    z -0.002170 -0.004210 1.946500 
# 
# From -- ./inp_files/365092.got.cif
#   From: 2010.06.25/outbox.cif.g09.slc.cpg/sg2_183_cif.got.tgz:365092.got - 2010.06.27 13:26:56.
