data_PCOD8022070
_publ_section_title
;
Structure prediction by ZEFSAII (Michael W. Deem and Ramdas Pophale) SiO2 
 PCOD8022070
Probable space group: P -1
;
_chemical_formula_sum "Si O2"
_cell_formula_units_Z 16
_cell_length_a 8.224006
_cell_length_b 27.231124
_cell_length_c 14.318162
_cell_angle_alpha 21.876974
_cell_angle_beta 140.758680
_cell_angle_gamma 130.303453
_cell_volume 719.818962
_symmetry_space_group_name_H-M "P -1"
_symmetry_group_IT_number 2
_symmetry_cell_setting 'triclinic'
loop_
_space_group_symop_operation_xyz
x,y,z
-x,-y,-z
loop_
_atom_site_type_symbol
_atom_site_label
_atom_site_fract_x
_atom_site_fract_y
_atom_site_fract_z
Si Si1 0.714188 0.958157 0.284241
Si Si2 0.240018 0.518510 0.132536
Si Si3 0.123940 0.246137 0.129840
Si Si4 0.802293 0.499737 0.650851
Si Si5 0.114943 0.012717 0.888406
Si Si6 0.299157 0.742535 0.632666
Si Si7 0.722432 0.262080 0.763424
Si Si8 0.075742 0.727323 0.365481
O O1 0.913432 0.867980 0.611168
O O2 0.870544 0.913811 0.333866
O O3 0.421541 0.931093 0.202159
O O4 0.645392 0.121713 0.978104
O O5 0.117223 0.566995 0.093888
O O6 0.480045 0.376036 0.504691
O O7 0.350828 0.630059 0.935569
O O8 0.000000 0.500000 0.000000
O O9 0.442595 0.206649 0.332090
O O10 0.000469 0.401988 0.837224
O O11 0.996356 0.234659 0.993136
O O12 0.500000 0.500000 0.500000
O O13 0.840254 0.653138 0.391022
O O14 0.964255 0.127124 0.694572
O O15 0.960239 0.895585 0.017085
O O16 0.260717 0.679349 0.625609
O O17 0.751897 0.315198 0.578114
#
# Coordination Sequence:
#
# PCOD8022070 Si02
#       8
#     2   2   2   2   2   2   2   2
#     4  10  22  44  74 100 139 174 228 278 338 397
#     4  12  25  43  71 100 130 180 232 283 335 403
#     4  12  26  44  68 101 138 184 221 278 344 408
#     4  12  27  46  67  98 135 179 225 282 344 399
#     4  10  22  45  71 106 134 174 226 289 327 397
#     4  12  25  42  72 103 135 178 231 276 339 406
#     4  11  26  45  66 102 143 176 223 282 343 397
#     4  11  25  45  68  98 135 178 223 282 334 400
#
# _framework density 22.227812
#
# number of rings (size 3 to 8) (size 9 to 14) (size 15 to 20)
#    0.000    0.750    3.750    3.000    3.500    2.000 
#    2.250    1.250    0.000    0.000    0.000    0.000 
#    0.000    0.000    0.000    0.000    0.000    0.000 
#
# Total GULP energy -198396.033429 kJ/mol
# GULP energy per Si atom -12399.752089 kJ/mol
# Density = 2.217722 g / cm^3
# Si number density = 22.227812 Si / 1000 Ang^3
#
#
#
# Elastic Constant Matrix: (Units=GPa)
#
#
# Indices 1 2 3 4 5 6 
#
# 1 92.5565 44.1309 32.0461 -0.2123 -7.7585 -3.5947
# 2 44.1309 112.8602 28.9739 2.8764 -9.2387 5.7020
# 3 32.0461 28.9739 82.2411 -2.6622 -11.8615 4.9493
# 4 -0.2123 2.8764 -2.6622 33.1466 0.7508 -4.6165
# 5 -7.7585 -9.2387 -11.8615 0.7508 34.0993 -1.7068
# 6 -3.5947 5.7020 4.9493 -4.6165 -1.7068 42.6396
#
#
#
# Elastic Compliance Matrix: (Units=1/GPa)
#
#
# Indices 1 2 3 4 5 6 
#
# 1 0.014631 -0.004756 -0.004048 0.000502 0.000742 0.002423
# 2 -0.004756 0.011451 -0.001933 -0.001461 0.001289 -0.001815
# 3 -0.004048 -0.001933 0.015080 0.001050 0.003699 -0.001571
# 4 0.000502 -0.001461 0.001050 0.030872 -0.000424 0.003441
# 5 0.000742 0.001289 0.003699 -0.000424 0.031174 0.000663
# 6 0.002423 -0.001815 -0.001571 0.003441 0.000663 0.024481
#
#
# Mechanical properties :
#
#
# Convention : Reuss Voigt Hill
#
# Bulk Modulus (GPa) = 50.79447 55.32886 53.06166
# Shear Modulus (GPa) = 32.10772 34.14424 33.12598
#
# Velocity S-wave (km/s) = 3.80476 3.92357 3.86462
# Velocity P-wave (km/s) = 6.49638 6.74326 6.62097
#
# Compressibility (1/GPa) = 0.01968718
#
# Stress axis : x y z
#
# Youngs Moduli (GPa) = 68.34758 87.32810 66.31385
#
# Poissons Ratio (x) = 0.41536 0.26844
# Poissons Ratio (y) = 0.32508 0.12819
# Poissons Ratio (z) = 0.27667 0.16881
#
# Static dielectric constant tensor:
#      x y z
#    x 3.752420 0.080640 0.166930 
#    y 0.080640 3.910220 -0.282360 
#    z 0.166930 -0.282360 3.400530 
# 
# 
# High freq. dielectric constant tensor:
#      x y z
#    x 1.888020 -0.009180 -0.020860 
#    y -0.009180 1.876800 -0.007620 
#    z -0.020860 -0.007620 1.865830 
# 
# From -- ./inp_files/508994.got.cif
#   From: 2010.06.25/outbox.cif.g09.slc.cpg/sg2_255_cif.got.tgz:508994.got - 2010.06.27 13:26:56.
