data_PCOD8022772
_publ_section_title
;
Structure prediction by ZEFSAII (Michael W. Deem and Ramdas Pophale) SiO2 
 PCOD8022772
Probable space group: P -1
;
_chemical_formula_sum "Si O2"
_cell_formula_units_Z 14
_cell_length_a 9.288881
_cell_length_b 5.162782
_cell_length_c 17.764499
_cell_angle_alpha 111.394798
_cell_angle_beta 51.380433
_cell_angle_gamma 106.758060
_cell_volume 617.587873
_symmetry_space_group_name_H-M "P -1"
_symmetry_group_IT_number 2
_symmetry_cell_setting 'triclinic'
loop_
_space_group_symop_operation_xyz
x,y,z
-x,-y,-z
loop_
_atom_site_type_symbol
_atom_site_label
_atom_site_fract_x
_atom_site_fract_y
_atom_site_fract_z
Si Si1 0.916305 0.115379 0.321712
Si Si2 0.849752 0.926729 0.979217
Si Si3 0.439593 0.891203 0.163827
Si Si4 0.737758 0.551064 0.713732
Si Si5 0.477549 0.813344 0.561089
Si Si6 0.829289 0.115140 0.525817
Si Si7 0.858060 0.300530 0.871838
O O1 0.733732 0.170790 0.338514
O O2 0.873700 0.120170 0.424336
O O3 0.085382 0.354385 0.280385
O O4 0.981275 0.816140 0.244265
O O5 0.889884 0.633953 0.897377
O O6 0.861925 0.171688 0.940003
O O7 0.655818 0.909242 0.082726
O O8 0.000000 0.000000 0.000000
O O9 0.392395 0.672915 0.222348
O O10 0.342542 0.790581 0.107065
O O11 0.374583 0.187094 0.242950
O O12 0.802480 0.421762 0.600158
O O13 0.500000 0.500000 0.500000
O O14 0.500000 0.000000 0.500000
O O15 0.635093 0.922463 0.581333
O O16 0.000000 0.000000 0.500000
#
# Coordination Sequence:
#
# PCOD8022772 Si02
#       7
#     2   2   2   2   2   2   2
#     4  10  23  42  64  96 132 171 217 260 315 385
#     4  12  26  44  68  98 129 163 211 273 329 378
#     4  11  24  44  67  96 129 169 218 260 317 390
#     4  11  23  40  67  98 128 171 216 266 314 371
#     4  10  23  39  59  86 124 168 211 258 310 365
#     4  11  22  40  66  97 133 173 216 265 312 372
#     4  11  23  43  69  95 126 173 212 258 322 391
#
# _framework density 22.668837
#
# number of rings (size 3 to 8) (size 9 to 14) (size 15 to 20)
#    0.000    1.143    0.000    6.857    0.000   10.286 
#    0.000    0.000    0.000    1.714    0.000    0.000 
#    0.000    0.000    0.000    0.000    0.000    0.000 
#
# Total GULP energy -173610.947981 kJ/mol
# GULP energy per Si atom -12400.781999 kJ/mol
# Density = 2.261724 g / cm^3
# Si number density = 22.668837 Si / 1000 Ang^3
#
#
#
# Elastic Constant Matrix: (Units=GPa)
#
#
# Indices 1 2 3 4 5 6 
#
# 1 139.9782 22.8651 38.8674 6.8195 -28.2700 32.2188
# 2 22.8651 92.1314 19.8485 27.9074 -11.3742 4.6683
# 3 38.8674 19.8485 110.2090 20.9191 -15.7519 20.3342
# 4 6.8195 27.9074 20.9191 42.9398 -10.0614 9.2435
# 5 -28.2700 -11.3742 -15.7519 -10.0614 39.6346 -9.3243
# 6 32.2188 4.6683 20.3342 9.2435 -9.3243 29.6165
#
#
#
# Elastic Compliance Matrix: (Units=1/GPa)
#
#
# Indices 1 2 3 4 5 6 
#
# 1 0.011252 -0.002508 -0.001633 0.004099 0.005263 -0.010346
# 2 -0.002508 0.014302 -0.000561 -0.009325 0.000661 0.003978
# 3 -0.001633 -0.000561 0.011453 -0.003707 0.001237 -0.004451
# 4 0.004099 -0.009325 -0.003707 0.033720 0.005134 -0.009352
# 5 0.005263 0.000661 0.001237 0.005134 0.031342 0.001586
# 6 -0.010346 0.003978 -0.004451 -0.009352 0.001586 0.050867
#
#
# Mechanical properties :
#
#
# Convention : Reuss Voigt Hill
#
# Bulk Modulus (GPa) = 36.22946 56.16452 46.19699
# Shear Modulus (GPa) = 29.14740 39.82067 34.48404
#
# Velocity S-wave (km/s) = 3.58968 4.19576 3.90450
# Velocity P-wave (km/s) = 5.76176 6.94999 6.38358
#
# Compressibility (1/GPa) = 0.02760185
#
# Stress axis : x y z
#
# Youngs Moduli (GPa) = 88.87443 69.91999 87.31705
#
# Poissons Ratio (x) = 0.17538 0.14262
# Poissons Ratio (y) = 0.22292 0.04895
# Poissons Ratio (z) = 0.14517 0.03920
#
# Static dielectric constant tensor:
#      x y z
#    x 4.745450 0.342600 -0.575640 
#    y 0.342600 4.223040 -0.044670 
#    z -0.575640 -0.044670 4.155610 
# 
# 
# High freq. dielectric constant tensor:
#      x y z
#    x 1.898690 0.005810 -0.013180 
#    y 0.005810 1.901180 0.008260 
#    z -0.013180 0.008260 1.897910 
# 
# From -- ./inp_files/553800.got.cif
#   From: 2010.06.25/outbox.cif.g09.slc.cpg/sg2_277_cif.got.tgz:553800.got - 2010.06.27 13:26:56.
