data_PCOD8022211
_publ_section_title
;
Structure prediction by ZEFSAII (Michael W. Deem and Ramdas Pophale) SiO2 
 PCOD8022211
Probable space group: P -1
;
_chemical_formula_sum "Si O2"
_cell_formula_units_Z 14
_cell_length_a 9.215091
_cell_length_b 9.327532
_cell_length_c 22.832613
_cell_angle_alpha 152.969828
_cell_angle_beta 131.943014
_cell_angle_gamma 58.466005
_cell_volume 648.020897
_symmetry_space_group_name_H-M "P -1"
_symmetry_group_IT_number 2
_symmetry_cell_setting 'triclinic'
loop_
_space_group_symop_operation_xyz
x,y,z
-x,-y,-z
loop_
_atom_site_type_symbol
_atom_site_label
_atom_site_fract_x
_atom_site_fract_y
_atom_site_fract_z
Si Si1 0.633136 0.244971 0.373387
Si Si2 0.642143 0.913025 0.956521
Si Si3 0.452140 0.185852 0.913133
Si Si4 0.451566 0.224560 0.619430
Si Si5 0.022009 0.229910 0.533941
Si Si6 0.093573 0.998674 0.838792
Si Si7 0.334966 0.058916 0.327446
O O1 0.438454 0.130533 0.318874
O O2 0.679644 0.630699 0.524883
O O3 0.823738 0.113622 0.399642
O O4 0.588073 0.126768 0.252655
O O5 0.551225 0.600798 0.778970
O O6 0.647836 0.189580 0.008621
O O7 0.500000 0.000000 0.000000
O O8 0.843882 0.885782 0.035120
O O9 0.259007 0.154965 0.892194
O O10 0.500000 0.500000 0.000000
O O11 0.214258 0.169014 0.530063
O O12 0.500000 0.000000 0.500000
O O13 0.532968 0.141337 0.674147
O O14 0.050830 0.610562 0.692976
O O15 0.000000 0.000000 0.500000
O O16 0.893557 0.123761 0.813717
#
# Coordination Sequence:
#
# PCOD8022211 Si02
#       7
#     2   2   2   2   2   2   2
#     4  10  23  41  61  96 135 169 222 274 331 395
#     4  10  22  45  68  92 135 179 221 271 331 408
#     4  11  24  40  69  94 130 173 228 273 322 399
#     4  12  24  40  69 102 135 170 229 281 331 387
#     4  11  22  40  70  96 129 183 223 265 338 407
#     4  10  24  44  68  95 131 181 225 267 337 405
#     4  10  23  41  65  96 135 171 217 286 333 387
#
# _framework density 21.604243
#
# number of rings (size 3 to 8) (size 9 to 14) (size 15 to 20)
#    0.000    1.429    4.286    0.857    8.000    1.714 
#    0.000    0.714    0.000    0.000    0.000    0.000 
#    0.000    0.000    0.000    0.000    0.000    0.000 
#
# Total GULP energy -173452.666918 kJ/mol
# GULP energy per Si atom -12389.476208 kJ/mol
# Density = 2.155507 g / cm^3
# Si number density = 21.604243 Si / 1000 Ang^3
#
#
#
# Elastic Constant Matrix: (Units=GPa)
#
#
# Indices 1 2 3 4 5 6 
#
# 1 80.5160 30.5440 43.2186 -13.8191 7.1699 -11.9064
# 2 30.5440 121.2024 27.2777 -18.2299 6.3966 6.9328
# 3 43.2186 27.2777 92.8130 -17.1002 -5.8812 3.1927
# 4 -13.8191 -18.2299 -17.1002 39.5128 3.4121 6.5021
# 5 7.1699 6.3966 -5.8812 3.4121 30.8598 -0.3245
# 6 -11.9064 6.9328 3.1927 6.5021 -0.3245 41.3136
#
#
#
# Elastic Compliance Matrix: (Units=1/GPa)
#
#
# Indices 1 2 3 4 5 6 
#
# 1 0.019980 -0.002949 -0.008810 0.001211 -0.005773 0.006698
# 2 -0.002949 0.010067 -0.000886 0.003916 -0.002036 -0.003103
# 3 -0.008810 -0.000886 0.016298 0.003836 0.004868 -0.004215
# 4 0.001211 0.003916 0.003836 0.030418 -0.003782 -0.005422
# 5 -0.005773 -0.002036 0.004868 -0.003782 0.035505 -0.000824
# 6 0.006698 -0.003103 -0.004215 -0.005422 -0.000824 0.027829
#
#
# Mechanical properties :
#
#
# Convention : Reuss Voigt Hill
#
# Bulk Modulus (GPa) = 47.49646 55.17912 51.33779
# Shear Modulus (GPa) = 29.00147 35.23665 32.11906
#
# Velocity S-wave (km/s) = 3.66785 4.04295 3.85996
# Velocity P-wave (km/s) = 6.32218 6.88406 6.60909
#
# Compressibility (1/GPa) = 0.02105420
#
# Stress axis : x y z
#
# Youngs Moduli (GPa) = 50.05029 99.33213 61.35841
#
# Poissons Ratio (x) = 0.29289 0.54058
# Poissons Ratio (y) = 0.14758 0.05439
# Poissons Ratio (z) = 0.44096 0.08806
#
# Static dielectric constant tensor:
#      x y z
#    x 3.794360 -0.220510 0.138470 
#    y -0.220510 4.418550 -0.349820 
#    z 0.138470 -0.349820 4.192900 
# 
# 
# High freq. dielectric constant tensor:
#      x y z
#    x 1.826810 -0.003130 -0.002210 
#    y -0.003130 1.874420 -0.009160 
#    z -0.002210 -0.009160 1.846470 
# 
# From -- ./inp_files/299530.got.cif
#   From: 2010.06.25/outbox.cif.g09.slc.cpg/sg2_150_cif.got.tgz:299530.got - 2010.06.27 13:26:56.
