data_PCOD8022685
_publ_section_title
;
Structure prediction by ZEFSAII (Michael W. Deem and Ramdas Pophale) SiO2 
 PCOD8022685
Probable space group: P -1
;
_chemical_formula_sum "Si O2"
_cell_formula_units_Z 14
_cell_length_a 13.457157
_cell_length_b 7.759847
_cell_length_c 14.659155
_cell_angle_alpha 90.148002
_cell_angle_beta 30.288178
_cell_angle_gamma 107.183164
_cell_volume 628.187723
_symmetry_space_group_name_H-M "P -1"
_symmetry_group_IT_number 2
_symmetry_cell_setting 'triclinic'
loop_
_space_group_symop_operation_xyz
x,y,z
-x,-y,-z
loop_
_atom_site_type_symbol
_atom_site_label
_atom_site_fract_x
_atom_site_fract_y
_atom_site_fract_z
Si Si1 0.892361 0.517645 0.250615
Si Si2 0.629972 0.818631 0.732549
Si Si3 0.309476 0.971136 0.939670
Si Si4 0.857655 0.939446 0.744359
Si Si5 0.164180 0.381582 0.125392
Si Si6 0.370679 0.221594 0.720947
Si Si7 0.053352 0.796440 0.880635
O O1 0.618776 0.432981 0.489748
O O2 0.897227 0.384321 0.161476
O O3 0.058638 0.766505 0.095740
O O4 0.011303 0.483370 0.246307
O O5 0.705305 0.905364 0.775657
O O6 0.515928 0.930331 0.777663
O O7 0.441272 0.565494 0.880358
O O8 0.860638 0.869131 0.492310
O O9 0.262982 0.018228 0.077616
O O10 0.402569 0.166134 0.798217
O O11 0.845652 0.726302 0.772086
O O12 0.043731 0.195519 0.143149
O O13 0.295556 0.023525 0.714722
O O14 0.165991 0.266585 0.876057
#
# Coordination Sequence:
#
# PCOD8022685 Si02
#       7
#     2   2   2   2   2   2   2
#     4   9  21  36  54  83 114 142 182 223 267 323
#     4  10  23  38  57  83 110 142 185 231 271 321
#     4  11  22  35  58  86 109 143 185 224 272 326
#     4  11  21  38  59  80 110 148 181 224 280 322
#     4   9  19  40  55  80 112 142 180 227 266 324
#     4  11  20  38  60  78 113 150 176 227 273 317
#     4   9  21  38  56  83 112 143 188 219 266 334
#
# _framework density 22.286332999999999
#
# number of rings (size 3 to 8) (size 9 to 14) (size 15 to 20)
#    0.857    1.143    1.429    2.143    2.000    0.571 
#    0.000    2.857    0.000    9.429    0.000    0.000 
#    0.000    0.000    0.000    0.000    0.000    0.000 
#
# Total GULP energy -173517.754987 kJ/mol
# GULP energy per Si atom -12394.125356 kJ/mol
# Density = 2.223561 g / cm^3
# Si number density = 22.286333 Si / 1000 Ang^3
#
#
#
# Elastic Constant Matrix: (Units=GPa)
#
#
# Indices 1 2 3 4 5 6 
#
# 1 54.3367 -2.8302 21.3923 2.2464 -7.7708 9.5986
# 2 -2.8302 41.6903 0.9492 9.8928 3.5583 9.9674
# 3 21.3923 0.9492 87.6161 -3.9402 -8.5674 5.1210
# 4 2.2464 9.8928 -3.9402 27.4796 3.0216 1.0237
# 5 -7.7708 3.5583 -8.5674 3.0216 23.8197 -1.6882
# 6 9.5986 9.9674 5.1210 1.0237 -1.6882 26.5749
#
#
#
# Elastic Compliance Matrix: (Units=1/GPa)
#
#
# Indices 1 2 3 4 5 6 
#
# 1 0.022937 0.004296 -0.004854 -0.004357 0.005047 -0.008472
# 2 0.004296 0.030034 -0.001435 -0.010565 -0.003135 -0.012332
# 3 -0.004854 -0.001435 0.013025 0.002456 0.002995 -0.000123
# 4 -0.004357 -0.010565 0.002456 0.041218 -0.003960 0.003224
# 5 0.005047 -0.003135 0.002995 -0.003960 0.045807 0.001838
# 6 -0.008472 -0.012332 -0.000123 0.003224 0.001838 0.045331
#
#
# Mechanical properties :
#
#
# Convention : Reuss Voigt Hill
#
# Bulk Modulus (GPa) = 16.12656 24.74064 20.43360
# Shear Modulus (GPa) = 22.42080 26.51697 24.46888
#
# Velocity S-wave (km/s) = 3.17524 3.45313 3.31710
# Velocity P-wave (km/s) = 4.54914 5.19848 4.88461
#
# Compressibility (1/GPa) = 0.06200951
#
# Stress axis : x y z
#
# Youngs Moduli (GPa) = 43.59726 33.29597 76.77748
#
# Poissons Ratio (x) = -0.14305 0.37268
# Poissons Ratio (y) = -0.18731 0.11019
# Poissons Ratio (z) = 0.21162 0.04779
#
# Static dielectric constant tensor:
#      x y z
#    x 3.885360 0.003230 -0.152440 
#    y 0.003230 3.782750 -0.050140 
#    z -0.152440 -0.050140 3.802690 
# 
# 
# High freq. dielectric constant tensor:
#      x y z
#    x 1.877740 -0.002550 -0.012220 
#    y -0.002550 1.860620 -0.002410 
#    z -0.012220 -0.002410 1.871600 
# 
# From -- ./inp_files/479663.got.cif
#   From: 2010.06.25/outbox.cif.g09.slc.cpg/sg2_240_cif.got.tgz:479663.got - 2010.06.27 13:26:56.
