data_PCOD8022702
_publ_section_title
;
Structure prediction by ZEFSAII (Michael W. Deem and Ramdas Pophale) SiO2 
 PCOD8022702
Probable space group: P -1
;
_chemical_formula_sum "Si O2"
_cell_formula_units_Z 16
_cell_length_a 24.280936
_cell_length_b 9.404939
_cell_length_c 15.202842
_cell_angle_alpha 29.763269
_cell_angle_beta 151.095327
_cell_angle_gamma 132.679732
_cell_volume 782.817699
_symmetry_space_group_name_H-M "P -1"
_symmetry_group_IT_number 2
_symmetry_cell_setting 'triclinic'
loop_
_space_group_symop_operation_xyz
x,y,z
-x,-y,-z
loop_
_atom_site_type_symbol
_atom_site_label
_atom_site_fract_x
_atom_site_fract_y
_atom_site_fract_z
Si Si1 0.315148 0.749740 0.565293
Si Si2 0.865087 0.684765 0.899330
Si Si3 0.381223 0.691015 0.356078
Si Si4 0.765884 0.202530 0.073984
Si Si5 0.618727 0.306694 0.977900
Si Si6 0.234196 0.329046 0.415615
Si Si7 0.570958 0.691026 0.879926
Si Si8 0.134913 0.471886 0.381741
O O1 0.428481 0.771803 0.656721
O O2 0.234768 0.626337 0.455555
O O3 0.234468 0.084479 0.302298
O O4 0.353226 0.534717 0.818539
O O5 0.829932 0.766853 0.705049
O O6 0.863741 0.350202 0.100023
O O7 0.000054 0.689308 0.103560
O O8 0.499986 0.404967 0.698272
O O9 0.272280 0.624410 0.290921
O O10 0.394965 0.005173 0.238074
O O11 0.353174 0.694849 0.210750
O O12 0.830217 0.841220 0.347379
O O13 0.727712 0.304929 0.065949
O O14 0.604972 0.539658 0.913563
O O15 0.646741 0.962495 0.236594
O O16 0.136222 0.408934 0.313480
#
# Coordination Sequence:
#
# PCOD8022702 Si02
#       8
#     2   2   2   2   2   2   2   2
#     4  11  23  40  61  90 117 161 201 242 299 355
#     4  11  22  42  64  87 120 160 202 246 292 348
#     4  11  21  38  60  90 124 159 191 244 300 358
#     4  10  23  38  61  93 121 150 205 242 298 353
#     4  11  21  38  60  90 124 159 191 244 300 358
#     4  10  23  38  61  93 121 150 205 242 298 353
#     4  11  23  40  61  86 127 156 194 248 299 356
#     4  11  22  42  64  87 120 160 202 246 292 348
#
# _framework density 20.438984999999999
#
# number of rings (size 3 to 8) (size 9 to 14) (size 15 to 20)
#    0.000    1.250    2.500    3.750    0.000    3.000 
#    0.000    0.000    0.000    1.500    0.000    0.000 
#    0.000    0.000    0.000    0.000    0.000    0.000 
#
# Total GULP energy -198404.190953 kJ/mol
# GULP energy per Si atom -12400.261935 kJ/mol
# Density = 2.039247 g / cm^3
# Si number density = 20.438985 Si / 1000 Ang^3
#
#
#
# Elastic Constant Matrix: (Units=GPa)
#
#
# Indices 1 2 3 4 5 6 
#
# 1 94.2840 36.0969 44.7421 -2.0041 -1.3342 -14.1581
# 2 36.0969 110.7609 40.2065 -2.2653 -0.6897 8.0828
# 3 44.7421 40.2065 101.1353 3.6807 3.0653 2.0706
# 4 -2.0041 -2.2653 3.6807 30.6891 2.1233 0.5973
# 5 -1.3342 -0.6897 3.0653 2.1233 35.3180 -5.2447
# 6 -14.1581 8.0828 2.0706 0.5973 -5.2447 35.6367
#
#
#
# Elastic Compliance Matrix: (Units=1/GPa)
#
#
# Indices 1 2 3 4 5 6 
#
# 1 0.016030 -0.003606 -0.005926 0.001191 0.002140 0.007826
# 2 -0.003606 0.011587 -0.002960 0.001073 -0.000304 -0.003952
# 3 -0.005926 -0.002960 0.013871 -0.002094 -0.001763 -0.002713
# 4 0.001191 0.001073 -0.002094 0.033128 -0.001814 -0.000471
# 5 0.002140 -0.000304 -0.001763 -0.001814 0.029451 0.005386
# 6 0.007826 -0.003952 -0.002713 -0.000471 0.005386 0.033025
#
#
# Mechanical properties :
#
#
# Convention : Reuss Voigt Hill
#
# Bulk Modulus (GPa) = 60.59454 60.91901 60.75678
# Shear Modulus (GPa) = 29.83700 32.67108 31.25404
#
# Velocity S-wave (km/s) = 3.82489 4.00242 3.91466
# Velocity P-wave (km/s) = 7.01550 7.15746 7.08684
#
# Compressibility (1/GPa) = 0.01650314
#
# Stress axis : x y z
#
# Youngs Moduli (GPa) = 62.38284 86.30706 72.09062
#
# Poissons Ratio (x) = 0.31125 0.42724
# Poissons Ratio (y) = 0.22497 0.21337
# Poissons Ratio (z) = 0.36971 0.25545
#
# Static dielectric constant tensor:
#      x y z
#    x 3.680190 -0.038920 -0.221200 
#    y -0.038920 3.547770 0.008560 
#    z -0.221200 0.008560 3.786350 
# 
# 
# High freq. dielectric constant tensor:
#      x y z
#    x 1.804280 -0.001330 -0.014250 
#    y -0.001330 1.791800 -0.001560 
#    z -0.014250 -0.001560 1.801870 
# 
# From -- ./inp_files/179446.got.cif
#   From: 2010.06.25/outbox.cif.g09.slc.cpg/sg2_90_cif.got.tgz:179446.got - 2010.06.27 13:26:56.
