data_PCOD8022414
_publ_section_title
;
Structure prediction by ZEFSAII (Michael W. Deem and Ramdas Pophale) SiO2 
 PCOD8022414
Probable space group: P -1
;
_chemical_formula_sum "Si O2"
_cell_formula_units_Z 16
_cell_length_a 22.044486
_cell_length_b 18.460651
_cell_length_c 12.052580
_cell_angle_alpha 149.291114
_cell_angle_beta 152.177152
_cell_angle_gamma 19.269156
_cell_volume 745.525359
_symmetry_space_group_name_H-M "P -1"
_symmetry_group_IT_number 2
_symmetry_cell_setting 'triclinic'
loop_
_space_group_symop_operation_xyz
x,y,z
-x,-y,-z
loop_
_atom_site_type_symbol
_atom_site_label
_atom_site_fract_x
_atom_site_fract_y
_atom_site_fract_z
Si Si1 0.551819 0.864379 0.214099
Si Si2 0.080256 0.048822 0.109570
Si Si3 0.817514 0.008601 0.266890
Si Si4 0.034313 0.860560 0.202926
Si Si5 0.862549 0.492262 0.815519
Si Si6 0.793136 0.535487 0.369923
Si Si7 0.456026 0.258895 0.560786
Si Si8 0.128271 0.465490 0.870345
O O1 0.627470 0.720456 0.255461
O O2 0.729676 0.745324 0.257213
O O3 0.466015 0.090309 0.402194
O O4 0.386505 0.908821 0.941239
O O5 0.961687 0.292850 0.267631
O O6 0.323816 0.860379 0.264365
O O7 0.038633 0.031677 0.894574
O O8 0.000000 0.000000 0.000000
O O9 0.797911 0.167991 0.518285
O O10 0.849124 0.017375 0.198984
O O11 0.009844 0.758992 0.295328
O O12 0.126961 0.626422 0.034204
O O13 0.666756 0.625318 0.599537
O O14 0.783901 0.611153 0.964339
O O15 0.000000 0.500000 0.000000
O O16 0.672551 0.558228 0.306251
O O17 0.904495 0.583251 0.659662
#
# Coordination Sequence:
#
# PCOD8022414 Si02
#       8
#     2   2   2   2   2   2   2   2
#     4  12  22  41  71 104 127 177 230 275 347 393
#     4  12  28  47  68 102 138 178 226 284 339 405
#     4  10  23  42  71  96 135 183 221 283 331 404
#     4  10  22  46  65  95 137 174 225 279 335 394
#     4  11  22  43  64 101 138 174 229 274 331 408
#     4  12  24  45  72 100 138 171 228 283 333 408
#     4  12  25  44  72 100 135 183 224 276 347 396
#     4  11  22  41  70  97 136 176 220 287 330 400
#
# _framework density 21.461376000000001
#
# number of rings (size 3 to 8) (size 9 to 14) (size 15 to 20)
#    0.000    0.750    5.000    3.000    1.750    2.500 
#    6.750    0.000    0.000    0.000    0.000    0.000 
#    0.000    0.000    0.000    0.000    0.000    0.000 
#
# Total GULP energy -198422.365661 kJ/mol
# GULP energy per Si atom -12401.397854 kJ/mol
# Density = 2.141253 g / cm^3
# Si number density = 21.461376 Si / 1000 Ang^3
#
#
#
# Elastic Constant Matrix: (Units=GPa)
#
#
# Indices 1 2 3 4 5 6 
#
# 1 139.3405 45.1473 47.5736 -20.6288 -13.2476 7.4091
# 2 45.1473 85.0013 37.2447 -23.1643 -9.6792 -2.9956
# 3 47.5736 37.2447 103.7177 -15.7432 -0.8844 -3.8999
# 4 -20.6288 -23.1643 -15.7432 37.0960 0.8067 1.2225
# 5 -13.2476 -9.6792 -0.8844 0.8067 43.4353 -6.0424
# 6 7.4091 -2.9956 -3.8999 1.2225 -6.0424 35.3774
#
#
#
# Elastic Compliance Matrix: (Units=1/GPa)
#
#
# Indices 1 2 3 4 5 6 
#
# 1 0.009913 -0.003143 -0.003153 0.002252 0.001877 -0.002447
# 2 -0.003143 0.017463 -0.003590 0.007503 0.002998 0.001994
# 3 -0.003153 -0.003590 0.012625 0.001343 -0.001324 0.001475
# 4 0.002252 0.007503 0.001343 0.033446 0.001688 -0.000556
# 5 0.001877 0.002998 -0.001324 0.001688 0.024745 0.003883
# 6 -0.002447 0.001994 0.001475 -0.000556 0.003883 0.029793
#
#
# Mechanical properties :
#
#
# Convention : Reuss Voigt Hill
#
# Bulk Modulus (GPa) = 49.43093 65.33228 57.38161
# Shear Modulus (GPa) = 32.36258 36.38800 34.37529
#
# Velocity S-wave (km/s) = 3.88744 4.12213 4.00650
# Velocity P-wave (km/s) = 6.57511 7.29135 6.94247
#
# Compressibility (1/GPa) = 0.02023025
#
# Stress axis : x y z
#
# Youngs Moduli (GPa) = 100.87481 57.26401 79.20873
#
# Poissons Ratio (x) = 0.17996 0.24972
# Poissons Ratio (y) = 0.31702 0.28436
# Poissons Ratio (z) = 0.31803 0.20558
#
# Static dielectric constant tensor:
#      x y z
#    x 3.968390 0.041230 -0.184530 
#    y 0.041230 3.785330 0.013120 
#    z -0.184530 0.013120 4.025100 
# 
# 
# High freq. dielectric constant tensor:
#      x y z
#    x 1.853210 -0.002760 -0.008660 
#    y -0.002760 1.832290 -0.001590 
#    z -0.008660 -0.001590 1.848230 
# 
# From -- ./inp_files/472529.got.cif
#   From: 2010.06.25/outbox.cif.g09.slc.cpg/sg2_237_cif.got.tgz:472529.got - 2010.06.27 13:26:56.
