data_PCOD8022593
_publ_section_title
;
Structure prediction by ZEFSAII (Michael W. Deem and Ramdas Pophale) SiO2 
 PCOD8022593
Probable space group: P -1
;
_chemical_formula_sum "Si O2"
_cell_formula_units_Z 16
_cell_length_a 18.323487
_cell_length_b 8.382620
_cell_length_c 7.285624
_cell_angle_alpha 77.449663
_cell_angle_beta 46.519731
_cell_angle_gamma 100.194235
_cell_volume 703.358550
_symmetry_space_group_name_H-M "P -1"
_symmetry_group_IT_number 2
_symmetry_cell_setting 'triclinic'
loop_
_space_group_symop_operation_xyz
x,y,z
-x,-y,-z
loop_
_atom_site_type_symbol
_atom_site_label
_atom_site_fract_x
_atom_site_fract_y
_atom_site_fract_z
Si Si1 0.709041 0.337834 0.209871
Si Si2 0.411080 0.316678 0.114954
Si Si3 0.789955 0.926314 0.889014
Si Si4 0.901358 0.223034 0.336957
Si Si5 0.231143 0.985762 0.719197
Si Si6 0.148785 0.448606 0.759745
Si Si7 0.471862 0.292772 0.649299
Si Si8 0.216567 0.367544 0.277780
O O1 0.747416 0.472397 0.292025
O O2 0.576013 0.257616 0.409999
O O3 0.740200 0.173674 0.221220
O O4 0.777379 0.456229 0.883985
O O5 0.346200 0.162740 0.416544
O O6 0.337904 0.378032 0.094286
O O7 0.500000 0.500000 0.000000
O O8 0.473619 0.250060 0.875220
O O9 0.840013 0.806732 0.722227
O O10 0.841982 0.123507 0.651552
O O11 0.830323 0.958915 0.024083
O O12 0.653383 0.846691 0.171499
O O13 0.867327 0.383462 0.330882
O O14 0.854813 0.078894 0.285399
O O15 0.036549 0.303942 0.095207
O O16 0.165479 0.346162 0.576893
O O17 0.500000 0.500000 0.500000
#
# Coordination Sequence:
#
# PCOD8022593 Si02
#       8
#     2   2   2   2   2   2   2   2
#     4  11  24  42  67 101 128 172 225 264 323 392
#     4  11  22  39  64  90 133 180 209 261 327 380
#     4  11  23  40  66  93 137 171 212 265 328 389
#     4  10  22  48  65  96 130 175 214 279 331 378
#     4  11  24  42  65  97 132 171 221 264 324 391
#     4  10  24  43  72  91 132 170 225 274 325 384
#     4  11  20  40  63  92 135 169 209 261 324 387
#     4  11  23  41  66  98 128 169 219 266 323 385
#
# _framework density 22.747999
#
# number of rings (size 3 to 8) (size 9 to 14) (size 15 to 20)
#    0.000    1.250    5.000    2.250    1.750    2.500 
#    2.250    5.000    0.000    0.000    0.000    0.000 
#    0.000    0.000    0.000    0.000    0.000    0.000 
#
# Total GULP energy -198237.156039 kJ/mol
# GULP energy per Si atom -12389.822252 kJ/mol
# Density = 2.269622 g / cm^3
# Si number density = 22.747999 Si / 1000 Ang^3
#
#
#
# Elastic Constant Matrix: (Units=GPa)
#
#
# Indices 1 2 3 4 5 6 
#
# 1 45.4365 6.8217 28.3234 -3.6195 19.9601 1.1856
# 2 6.8217 69.0368 23.8618 -5.1431 6.9395 14.1831
# 3 28.3234 23.8618 117.0399 -20.3556 17.6415 3.4596
# 4 -3.6195 -5.1431 -20.3556 43.6356 1.4622 12.8820
# 5 19.9601 6.9395 17.6415 1.4622 42.1152 2.7254
# 6 1.1856 14.1831 3.4596 12.8820 2.7254 33.1371
#
#
#
# Elastic Compliance Matrix: (Units=1/GPa)
#
#
# Indices 1 2 3 4 5 6 
#
# 1 0.030930 0.000067 -0.005600 0.000269 -0.012357 0.000361
# 2 0.000067 0.017482 -0.002519 0.003430 -0.001430 -0.008438
# 3 -0.005600 -0.002519 0.011671 0.005290 -0.001884 -0.001841
# 4 0.000269 0.003430 0.005290 0.029867 -0.003079 -0.013387
# 5 -0.012357 -0.001430 -0.001884 -0.003079 0.030738 -0.000080
# 6 0.000361 -0.008438 -0.001841 -0.013387 -0.000080 0.039179
#
#
# Mechanical properties :
#
#
# Convention : Reuss Voigt Hill
#
# Bulk Modulus (GPa) = 22.73780 38.83631 30.78706
# Shear Modulus (GPa) = 26.22881 35.27798 30.75340
#
# Velocity S-wave (km/s) = 3.39929 3.94231 3.68083
# Velocity P-wave (km/s) = 5.04224 6.15077 5.62388
#
# Compressibility (1/GPa) = 0.04397963
#
# Stress axis : x y z
#
# Youngs Moduli (GPa) = 32.33118 57.20253 85.68012
#
# Poissons Ratio (x) = -0.00385 0.47981
# Poissons Ratio (y) = -0.00218 0.21582
# Poissons Ratio (z) = 0.18106 0.14409
#
# Static dielectric constant tensor:
#      x y z
#    x 3.007170 -0.021820 -0.912960 
#    y -0.021820 4.111610 -0.236230 
#    z -0.912960 -0.236230 3.134550 
# 
# 
# High freq. dielectric constant tensor:
#      x y z
#    x 1.894740 0.009450 0.022670 
#    y 0.009450 1.891800 -0.007450 
#    z 0.022670 -0.007450 1.902020 
# 
# From -- ./inp_files/342664.got.cif
#   From: 2010.06.25/outbox.cif.g09.slc.cpg/sg2_172_cif.got.tgz:342664.got - 2010.06.27 13:26:56.
