data_PCOD8022417
_publ_section_title
;
Structure prediction by ZEFSAII (Michael W. Deem and Ramdas Pophale) SiO2 
 PCOD8022417
Probable space group: P -1
;
_chemical_formula_sum "Si O2"
_cell_formula_units_Z 12
_cell_length_a 21.944730
_cell_length_b 10.069386
_cell_length_c 6.634749
_cell_angle_alpha 133.516698
_cell_angle_beta 48.681683
_cell_angle_gamma 146.708456
_cell_volume 570.211916
_symmetry_space_group_name_H-M "P -1"
_symmetry_group_IT_number 2
_symmetry_cell_setting 'triclinic'
loop_
_space_group_symop_operation_xyz
x,y,z
-x,-y,-z
loop_
_atom_site_type_symbol
_atom_site_label
_atom_site_fract_x
_atom_site_fract_y
_atom_site_fract_z
Si Si1 0.657419 0.081083 0.061088
Si Si2 0.443377 0.578086 0.814571
Si Si3 0.932552 0.340779 0.177609
Si Si4 0.125894 0.498763 0.188833
Si Si5 0.718605 0.552054 0.313842
Si Si6 0.288447 0.157556 0.042789
O O1 0.770837 0.210406 0.818223
O O2 0.542634 0.872155 0.968947
O O3 0.660812 0.960660 0.127715
O O4 0.663865 0.310636 0.331868
O O5 0.500000 0.500000 0.500000
O O6 0.360140 0.547702 0.812334
O O7 0.380516 0.409024 0.974511
O O8 0.894364 0.469269 0.503800
O O9 0.010356 0.342192 0.153940
O O10 0.000000 0.500000 0.000000
O O11 0.825045 0.046159 0.050666
O O12 0.162644 0.342720 0.925662
O O13 0.738206 0.769262 0.619586
#
# Coordination Sequence:
#
# PCOD8022417 Si02
#       6
#     2   2   2   2   2   2
#     4  10  22  46  65  96 137 172 217 268 332 386
#     4  12  24  42  69  97 136 178 215 272 330 389
#     4  11  21  42  72  93 131 177 215 271 334 386
#     4   9  23  43  66  96 127 174 217 264 330 389
#     4  10  25  44  65 103 132 172 222 269 330 392
#     4  12  25  42  70 100 131 172 228 270 324 396
#
# _framework density 21.044808
#
# number of rings (size 3 to 8) (size 9 to 14) (size 15 to 20)
#    1.000    0.333    3.333    2.000    0.000    4.000 
#    0.000    1.667    0.000    0.000    0.000    0.000 
#    0.000    0.000    0.000    0.000    0.000    0.000 
#
# Total GULP energy -148742.518065 kJ/mol
# GULP energy per Si atom -12395.209839 kJ/mol
# Density = 2.099691 g / cm^3
# Si number density = 21.044808 Si / 1000 Ang^3
#
#
#
# Elastic Constant Matrix: (Units=GPa)
#
#
# Indices 1 2 3 4 5 6 
#
# 1 127.4906 20.5621 33.7066 7.1535 1.9920 7.1057
# 2 20.5621 45.3149 14.3909 0.9416 14.0748 4.5905
# 3 33.7066 14.3909 79.8960 -6.7488 7.4793 3.2442
# 4 7.1535 0.9416 -6.7488 27.0505 3.5572 1.8446
# 5 1.9920 14.0748 7.4793 3.5572 31.1656 7.6435
# 6 7.1057 4.5905 3.2442 1.8446 7.6435 42.3200
#
#
#
# Elastic Compliance Matrix: (Units=1/GPa)
#
#
# Indices 1 2 3 4 5 6 
#
# 1 0.009738 -0.003827 -0.003941 -0.003705 0.002783 -0.001259
# 2 -0.003827 0.028258 -0.002251 0.001062 -0.012069 -0.000116
# 3 -0.003941 -0.002251 0.015317 0.005337 -0.003028 0.000046
# 4 -0.003705 0.001062 0.005337 0.040065 -0.005956 -0.000573
# 5 0.002783 -0.012069 -0.003028 -0.005956 0.040220 -0.005931
# 6 -0.001259 -0.000116 0.000046 -0.000573 -0.005931 0.024946
#
#
# Mechanical properties :
#
#
# Convention : Reuss Voigt Hill
#
# Bulk Modulus (GPa) = 30.05365 43.33562 36.69463
# Shear Modulus (GPa) = 26.36121 32.37667 29.36894
#
# Velocity S-wave (km/s) = 3.54308 3.92658 3.73975
# Velocity P-wave (km/s) = 5.57223 6.41827 6.01015
#
# Compressibility (1/GPa) = 0.03327383
#
# Stress axis : x y z
#
# Youngs Moduli (GPa) = 102.69572 35.38865 65.28764
#
# Poissons Ratio (x) = 0.13543 0.25731
# Poissons Ratio (y) = 0.39300 0.14696
# Poissons Ratio (z) = 0.40474 0.07966
#
# Static dielectric constant tensor:
#      x y z
#    x 3.776410 0.072140 -0.009610 
#    y 0.072140 3.678460 -0.119970 
#    z -0.009610 -0.119970 3.786090 
# 
# 
# High freq. dielectric constant tensor:
#      x y z
#    x 1.833490 0.013580 0.000100 
#    y 0.013580 1.821900 -0.000930 
#    z 0.000100 -0.000930 1.817560 
# 
# From -- ./inp_files/107527.got.cif
#   From: 2010.06.25/outbox.cif.g09.slc.cpg/sg2_54_cif.got.tgz:107527.got - 2010.06.27 13:26:56.
