data_PCOD8022560
_publ_section_title
;
Structure prediction by ZEFSAII (Michael W. Deem and Ramdas Pophale) SiO2 
 PCOD8022560
Probable space group: P -1
;
_chemical_formula_sum "Si O2"
_cell_formula_units_Z 16
_cell_length_a 11.118604
_cell_length_b 20.218893
_cell_length_c 17.973199
_cell_angle_alpha 158.283289
_cell_angle_beta 39.918230
_cell_angle_gamma 150.018945
_cell_volume 731.359416
_symmetry_space_group_name_H-M "P -1"
_symmetry_group_IT_number 2
_symmetry_cell_setting 'triclinic'
loop_
_space_group_symop_operation_xyz
x,y,z
-x,-y,-z
loop_
_atom_site_type_symbol
_atom_site_label
_atom_site_fract_x
_atom_site_fract_y
_atom_site_fract_z
Si Si1 0.757829 0.377942 0.938328
Si Si2 0.200002 0.202211 0.171473
Si Si3 0.449022 0.892246 0.108878
Si Si4 0.152107 0.198018 0.858350
Si Si5 0.007023 0.532335 0.841349
Si Si6 0.796374 0.695388 0.563210
Si Si7 0.510470 0.550719 0.172532
Si Si8 0.725303 0.404673 0.538323
O O1 0.555467 0.144066 0.837322
O O2 0.789386 0.325449 0.783368
O O3 0.673243 0.533526 0.134984
O O4 0.000000 0.500000 0.000000
O O5 0.091466 0.199240 0.298412
O O6 0.325033 0.447712 0.329770
O O7 0.392800 0.168136 0.065915
O O8 0.000000 0.000000 0.000000
O O9 0.558322 0.153625 0.316364
O O10 0.192335 0.733384 0.022857
O O11 0.307464 0.239980 0.754583
O O12 0.326506 0.300200 0.955166
O O13 0.914513 0.921097 0.689594
O O14 0.073693 0.357585 0.058742
O O15 0.109267 0.439262 0.645667
O O16 0.500000 0.500000 0.500000
O O17 0.356650 0.605512 0.348323
O O18 0.000000 0.500000 0.500000
#
# Coordination Sequence:
#
# PCOD8022560 Si02
#       8
#     2   2   2   2   2   2   2   2
#     4   9  20  43  69  97 136 176 225 288 341 400
#     4  12  25  45  64  97 142 177 232 288 339 413
#     4  11  23  41  66  96 138 180 221 289 337 405
#     4  10  25  45  69  97 140 178 230 290 344 408
#     4  10  24  44  65  99 133 178 229 279 345 410
#     4  12  27  43  70 100 139 189 229 285 351 418
#     4  10  22  47  69 102 139 178 229 294 341 413
#     4  12  26  39  69 103 132 182 229 272 356 408
#
# _framework density 21.877068999999999
#
# number of rings (size 3 to 8) (size 9 to 14) (size 15 to 20)
#    0.000    1.250    3.750    0.750    5.250    0.500 
#    0.000    3.750    0.000    0.000    0.000    0.000 
#    0.000    0.000    0.000    0.000    0.000    0.000 
#
# Total GULP energy -198293.949536 kJ/mol
# GULP energy per Si atom -12393.371846 kJ/mol
# Density = 2.182728 g / cm^3
# Si number density = 21.877069 Si / 1000 Ang^3
#
#
#
# Elastic Constant Matrix: (Units=GPa)
#
#
# Indices 1 2 3 4 5 6 
#
# 1 91.5279 31.9125 42.1042 -4.6983 -1.1289 -3.1000
# 2 31.9125 141.6430 72.1015 -15.6597 -2.7653 -10.3271
# 3 42.1042 72.1015 126.5261 -6.5852 -12.3794 -12.6814
# 4 -4.6983 -15.6597 -6.5852 49.1607 0.0733 -6.9429
# 5 -1.1289 -2.7653 -12.3794 0.0733 29.0741 -1.6032
# 6 -3.1000 -10.3271 -12.6814 -6.9429 -1.6032 32.8393
#
#
#
# Elastic Compliance Matrix: (Units=1/GPa)
#
#
# Indices 1 2 3 4 5 6 
#
# 1 0.013068 -0.000952 -0.003976 0.000331 -0.001310 -0.000596
# 2 -0.000952 0.010448 -0.005460 0.002734 -0.001286 0.001602
# 3 -0.003976 -0.005460 0.013171 0.000098 0.005114 0.003264
# 4 0.000331 0.002734 0.000098 0.022050 0.000569 0.005618
# 5 -0.001310 -0.001286 0.005114 0.000569 0.036583 0.003353
# 6 -0.000596 0.001602 0.003264 0.005618 0.003353 0.033511
#
#
# Mechanical properties :
#
#
# Convention : Reuss Voigt Hill
#
# Bulk Modulus (GPa) = 62.85827 72.43704 67.64765
# Shear Modulus (GPa) = 32.27692 36.45341 34.36516
#
# Velocity S-wave (km/s) = 3.84523 4.08644 3.96767
# Velocity P-wave (km/s) = 6.96486 7.44635 7.20963
#
# Compressibility (1/GPa) = 0.01590881
#
# Stress axis : x y z
#
# Youngs Moduli (GPa) = 76.52531 95.71417 75.92653
#
# Poissons Ratio (x) = 0.09116 0.30191
# Poissons Ratio (y) = 0.07289 0.41454
# Poissons Ratio (z) = 0.30429 0.52257
#
# Static dielectric constant tensor:
#      x y z
#    x 3.744380 -0.181520 -0.042640 
#    y -0.181520 4.495560 -0.059610 
#    z -0.042640 -0.059610 3.767700 
# 
# 
# High freq. dielectric constant tensor:
#      x y z
#    x 1.860990 -0.004550 -0.006310 
#    y -0.004550 1.879370 -0.010890 
#    z -0.006310 -0.010890 1.842190 
# 
# From -- ./inp_files/428888.got.cif
#   From: 2010.06.25/outbox.cif.g09.slc.cpg/sg2_215_cif.got.tgz:428888.got - 2010.06.27 13:26:56.
