data_PCOD8022969
_publ_section_title
;
Structure prediction by ZEFSAII (Michael W. Deem and Ramdas Pophale) SiO2 
 PCOD8022969
Probable space group: P -1
;
_chemical_formula_sum "Si O2"
_cell_formula_units_Z 16
_cell_length_a 21.669113
_cell_length_b 8.904194
_cell_length_c 15.302643
_cell_angle_alpha 68.159122
_cell_angle_beta 160.492086
_cell_angle_gamma 119.865886
_cell_volume 805.266113
_symmetry_space_group_name_H-M "P -1"
_symmetry_group_IT_number 2
_symmetry_cell_setting 'triclinic'
loop_
_space_group_symop_operation_xyz
x,y,z
-x,-y,-z
loop_
_atom_site_type_symbol
_atom_site_label
_atom_site_fract_x
_atom_site_fract_y
_atom_site_fract_z
Si Si1 0.832224 0.371582 0.736673
Si Si2 0.568598 0.614788 0.802497
Si Si3 0.791996 0.973410 0.770691
Si Si4 0.573469 0.266791 0.795567
Si Si5 0.588393 0.577507 0.192549
Si Si6 0.410508 0.093803 0.792423
Si Si7 0.027345 0.671843 0.791092
Si Si8 0.922271 0.972083 0.135865
O O1 0.618834 0.358249 0.494040
O O2 0.790851 0.165229 0.722233
O O3 0.923800 0.475640 0.744575
O O4 0.000000 0.500000 0.000000
O O5 0.578058 0.450415 0.798657
O O6 0.500338 0.581731 0.819633
O O7 0.788838 0.800111 0.057527
O O8 0.592613 0.817465 0.486902
O O9 0.809706 0.907749 0.905641
O O10 0.000000 0.000000 0.000000
O O11 0.519984 0.124960 0.836224
O O12 0.799800 0.315261 0.049335
O O13 0.512200 0.717442 0.094817
O O14 0.837003 0.676634 0.485025
O O15 0.500000 0.500000 0.000000
O O16 0.160589 0.004111 0.456424
O O17 0.500000 0.000000 0.000000
O O18 0.108849 0.849796 0.924323
#
# Coordination Sequence:
#
# PCOD8022969 Si02
#       8
#     2   2   2   2   2   2   2   2
#     4  11  22  40  61  87 125 168 202 246 306 355
#     4  10  24  41  62  92 129 160 207 255 303 371
#     4  12  24  39  65  90 131 165 209 250 301 374
#     4  11  24  41  61  98 126 161 210 253 308 366
#     4   9  21  43  65  87 122 162 206 258 311 363
#     4  10  23  43  65  87 124 159 205 264 309 363
#     4  10  23  40  63  93 126 161 209 252 304 373
#     4  11  23  43  61  92 127 167 204 253 311 362
#
# _framework density 19.869209999999999
#
# number of rings (size 3 to 8) (size 9 to 14) (size 15 to 20)
#    0.000    1.500    2.500    2.250    3.500    6.500 
#    0.000    5.000    0.000    0.000    0.000    0.000 
#    0.000    0.000    0.000    0.000    0.000    0.000 
#
# Total GULP energy -198212.129942 kJ/mol
# GULP energy per Si atom -12388.258121 kJ/mol
# Density = 1.982399 g / cm^3
# Si number density = 19.869210 Si / 1000 Ang^3
#
#
#
# Elastic Constant Matrix: (Units=GPa)
#
#
# Indices 1 2 3 4 5 6 
#
# 1 123.0948 27.3485 68.6431 -3.4999 9.2168 -3.1422
# 2 27.3485 80.2979 39.8880 -3.0443 8.9600 6.8443
# 3 68.6431 39.8880 84.6460 -0.4332 5.6699 4.8605
# 4 -3.4999 -3.0443 -0.4332 36.5064 -2.6424 1.9289
# 5 9.2168 8.9600 5.6699 -2.6424 50.0541 1.9490
# 6 -3.1422 6.8443 4.8605 1.9289 1.9490 25.8436
#
#
#
# Elastic Compliance Matrix: (Units=1/GPa)
#
#
# Indices 1 2 3 4 5 6 
#
# 1 0.015515 0.001177 -0.013255 0.001090 -0.001669 0.004112
# 2 0.001177 0.016829 -0.008587 0.001404 -0.002079 -0.002647
# 3 -0.013255 -0.008587 0.026783 -0.001364 0.001042 -0.004351
# 4 0.001090 0.001404 -0.001364 0.027802 0.001254 -0.002152
# 5 -0.001669 -0.002079 0.001042 0.001254 0.020665 -0.001500
# 6 0.004112 -0.002647 -0.004351 -0.002152 -0.001500 0.040987
#
#
# Mechanical properties :
#
#
# Convention : Reuss Voigt Hill
#
# Bulk Modulus (GPa) = 56.18827 62.19975 59.19401
# Shear Modulus (GPa) = 25.53078 32.62478 29.07778
#
# Velocity S-wave (km/s) = 3.58850 4.05653 3.82967
# Velocity P-wave (km/s) = 6.74613 7.30158 7.02934
#
# Compressibility (1/GPa) = 0.01779731
#
# Stress axis : x y z
#
# Youngs Moduli (GPa) = 64.45439 59.42155 37.33768
#
# Poissons Ratio (x) = -0.06996 0.49492
# Poissons Ratio (y) = -0.07589 0.32061
# Poissons Ratio (z) = 0.85436 0.51023
#
# Static dielectric constant tensor:
#      x y z
#    x 3.944340 2.674620 0.525140 
#    y 2.674620 -4.857260 -1.478550 
#    z 0.525140 -1.478550 3.426450 
# 
# 
# High freq. dielectric constant tensor:
#      x y z
#    x 1.779970 -0.002870 0.005970 
#    y -0.002870 1.777850 0.000450 
#    z 0.005970 0.000450 1.783830 
# 
# From -- ./inp_files/178707.got.cif
#   From: 2010.06.25/outbox.cif.g09.slc.cpg/sg2_90_cif.got.tgz:178707.got - 2010.06.27 13:26:56.
