data_PCOD8022441
_publ_section_title
;
Structure prediction by ZEFSAII (Michael W. Deem and Ramdas Pophale) SiO2 
 PCOD8022441
Probable space group: P -1
;
_chemical_formula_sum "Si O2"
_cell_formula_units_Z 16
_cell_length_a 5.329615
_cell_length_b 12.760219
_cell_length_c 16.618946
_cell_angle_alpha 43.013266
_cell_angle_beta 104.700866
_cell_angle_gamma 90.279618
_cell_volume 717.248378
_symmetry_space_group_name_H-M "P -1"
_symmetry_group_IT_number 2
_symmetry_cell_setting 'triclinic'
loop_
_space_group_symop_operation_xyz
x,y,z
-x,-y,-z
loop_
_atom_site_type_symbol
_atom_site_label
_atom_site_fract_x
_atom_site_fract_y
_atom_site_fract_z
Si Si1 0.510504 0.525743 0.773371
Si Si2 0.168525 0.001575 0.259463
Si Si3 0.692637 0.824546 0.604523
Si Si4 0.097408 0.639164 0.974921
Si Si5 0.747481 0.970160 0.376627
Si Si6 0.229230 0.707383 0.787659
Si Si7 0.362407 0.436678 0.641976
Si Si8 0.869994 0.300764 0.650002
O O1 0.542356 0.691210 0.649192
O O2 0.309105 0.560877 0.814206
O O3 0.397935 0.444482 0.736775
O O4 0.784845 0.413566 0.897480
O O5 0.489015 0.930458 0.338409
O O6 0.111841 0.186798 0.124650
O O7 0.990693 0.975930 0.335228
O O8 0.095227 0.888789 0.248195
O O9 0.901237 0.774375 0.723357
O O10 0.500000 0.000000 0.500000
O O11 0.862379 0.837896 0.529013
O O12 0.315646 0.662793 0.912569
O O13 0.000000 0.500000 0.000000
O O14 0.639566 0.149719 0.307330
O O15 0.656927 0.364789 0.667919
O O16 0.232271 0.608754 0.493615
O O17 0.163067 0.324405 0.679151
#
# Coordination Sequence:
#
# PCOD8022441 Si02
#       8
#     2   2   2   2   2   2   2   2
#     4  12  25  40  65  96 132 183 223 269 333 394
#     4  11  24  43  71  94 131 182 222 272 335 398
#     4  12  23  38  59  94 138 171 220 270 327 397
#     4  11  23  45  63  95 138 184 227 265 318 397
#     4  11  23  38  64  99 131 171 219 267 331 403
#     4  11  24  39  63  89 138 181 215 268 321 401
#     4  10  24  41  70  97 132 164 222 282 344 397
#     4  10  22  46  67  97 129 167 216 290 348 392
#
# _framework density 22.307476000000001
#
# number of rings (size 3 to 8) (size 9 to 14) (size 15 to 20)
#    0.000    1.000    2.500    4.500    5.250    2.000 
#    0.000    1.250    0.000    0.000    0.000    0.000 
#    0.000    0.000    0.000    0.000    0.000    0.000 
#
# Total GULP energy -198237.627925 kJ/mol
# GULP energy per Si atom -12389.851745 kJ/mol
# Density = 2.225670 g / cm^3
# Si number density = 22.307476 Si / 1000 Ang^3
#
#
#
# Elastic Constant Matrix: (Units=GPa)
#
#
# Indices 1 2 3 4 5 6 
#
# 1 81.8637 10.3687 7.0880 1.1362 1.4198 14.2367
# 2 10.3687 115.6020 37.9848 2.9805 -1.0856 18.5431
# 3 7.0880 37.9848 90.5221 5.2555 -5.3768 8.5053
# 4 1.1362 2.9805 5.2555 41.9560 4.3886 -2.9929
# 5 1.4198 -1.0856 -5.3768 4.3886 22.7900 1.1679
# 6 14.2367 18.5431 8.5053 -2.9929 1.1679 35.6082
#
#
#
# Elastic Compliance Matrix: (Units=1/GPa)
#
#
# Indices 1 2 3 4 5 6 
#
# 1 0.013184 -0.000203 -0.000469 -0.000587 -0.000568 -0.005084
# 2 -0.000203 0.010745 -0.004033 -0.000572 -0.000081 -0.004596
# 3 -0.000469 -0.004033 0.013184 -0.001782 0.003348 -0.001121
# 4 -0.000587 -0.000572 -0.001782 0.024907 -0.005373 0.003228
# 5 -0.000568 -0.000081 0.003348 -0.005373 0.045862 -0.002486
# 6 -0.005084 -0.004596 -0.001121 0.003228 -0.002486 0.033130
#
#
# Mechanical properties :
#
#
# Convention : Reuss Voigt Hill
#
# Bulk Modulus (GPa) = 36.09724 44.31897 40.20811
# Shear Modulus (GPa) = 31.31742 35.57393 33.44568
#
# Velocity S-wave (km/s) = 3.75093 3.99771 3.87628
# Velocity P-wave (km/s) = 5.91406 6.42023 6.17234
#
# Compressibility (1/GPa) = 0.02770295
#
# Stress axis : x y z
#
# Youngs Moduli (GPa) = 75.84999 93.06735 75.85177
#
# Poissons Ratio (x) = 0.01890 0.03558
# Poissons Ratio (y) = 0.01540 0.30588
# Poissons Ratio (z) = 0.03558 0.37530
#
# Static dielectric constant tensor:
#      x y z
#    x 4.019640 0.016900 -0.283380 
#    y 0.016900 4.063200 -0.119240 
#    z -0.283380 -0.119240 4.473000 
# 
# 
# High freq. dielectric constant tensor:
#      x y z
#    x 1.886850 0.004880 -0.009580 
#    y 0.004880 1.865220 -0.006850 
#    z -0.009580 -0.006850 1.870270 
# 
# From -- ./inp_files/482667.got.cif
#   From: 2010.06.25/outbox.cif.g09.slc.cpg/sg2_242_cif.got.tgz:482667.got - 2010.06.27 13:26:56.
