data_PCOD8022310
_publ_section_title
;
Structure prediction by ZEFSAII (Michael W. Deem and Ramdas Pophale) SiO2 
 PCOD8022310
Probable space group: P -1
;
_chemical_formula_sum "Si O2"
_cell_formula_units_Z 16
_cell_length_a 5.157540
_cell_length_b 8.890734
_cell_length_c 16.260083
_cell_angle_alpha 103.995411
_cell_angle_beta 103.460079
_cell_angle_gamma 92.446874
_cell_volume 699.708685
_symmetry_space_group_name_H-M "P -1"
_symmetry_group_IT_number 2
_symmetry_cell_setting 'triclinic'
loop_
_space_group_symop_operation_xyz
x,y,z
-x,-y,-z
loop_
_atom_site_type_symbol
_atom_site_label
_atom_site_fract_x
_atom_site_fract_y
_atom_site_fract_z
Si Si1 0.767405 0.434228 0.220159
Si Si2 0.504846 0.874683 0.777543
Si Si3 0.229415 0.568674 0.966545
Si Si4 0.273482 0.934022 0.035707
Si Si5 0.846434 0.190303 0.568708
Si Si6 0.595475 0.615461 0.368955
Si Si7 0.768874 0.660096 0.655673
Si Si8 0.087521 0.899656 0.612049
O O1 0.624624 0.257924 0.186912
O O2 0.843570 0.480913 0.139094
O O3 0.578717 0.556016 0.263981
O O4 0.029162 0.447020 0.299365
O O5 0.730726 0.803892 0.731721
O O6 0.285020 0.932859 0.707790
O O7 0.644584 0.018075 0.858741
O O8 0.500000 0.500000 0.000000
O O9 0.248332 0.750816 0.004439
O O10 0.000000 0.500000 0.000000
O O11 0.500000 0.000000 0.000000
O O12 0.000000 0.000000 0.000000
O O13 0.607832 0.257677 0.609555
O O14 0.745934 0.124897 0.462850
O O15 0.101857 0.313509 0.582747
O O16 0.925937 0.049415 0.612031
O O17 0.505802 0.456221 0.395240
O O18 0.886917 0.740351 0.591272
#
# Coordination Sequence:
#
# PCOD8022310 Si02
#       8
#     2   2   2   2   2   2   2   2
#     4  10  22  47  70  99 147 181 231 297 358 413
#     4  10  23  43  75 103 137 186 247 284 352 417
#     4  12  28  46  71 108 146 184 229 301 373 424
#     4  12  25  48  78 104 139 191 242 292 348 439
#     4  11  26  46  70 104 148 184 237 292 364 411
#     4  11  24  44  72 101 136 193 230 289 349 425
#     4  10  22  45  71 102 133 192 232 293 342 415
#     4  10  26  45  70 104 145 188 232 304 349 416
#
# _framework density 22.866655999999999
#
# number of rings (size 3 to 8) (size 9 to 14) (size 15 to 20)
#    0.000    1.250    2.500    1.500    8.750    3.000 
#    2.250    0.000    0.000    0.000    0.000    0.000 
#    0.000    0.000    0.000    0.000    0.000    0.000 
#
# Total GULP energy -198357.472538 kJ/mol
# GULP energy per Si atom -12397.342034 kJ/mol
# Density = 2.281461 g / cm^3
# Si number density = 22.866656 Si / 1000 Ang^3
#
#
#
# Elastic Constant Matrix: (Units=GPa)
#
#
# Indices 1 2 3 4 5 6 
#
# 1 126.1736 39.3424 35.9971 -2.4461 -13.1256 -8.9603
# 2 39.3424 100.8753 47.1836 3.7910 -9.7737 -7.1535
# 3 35.9971 47.1836 118.3910 -6.2300 -16.4716 -4.5760
# 4 -2.4461 3.7910 -6.2300 36.9524 1.2039 -7.0438
# 5 -13.1256 -9.7737 -16.4716 1.2039 38.5752 9.7562
# 6 -8.9603 -7.1535 -4.5760 -7.0438 9.7562 38.0415
#
#
#
# Elastic Compliance Matrix: (Units=1/GPa)
#
#
# Indices 1 2 3 4 5 6 
#
# 1 0.009486 -0.002811 -0.001454 0.000868 0.001540 0.001297
# 2 -0.002811 0.013272 -0.004467 -0.002159 0.000363 0.000803
# 3 -0.001454 -0.004467 0.011209 0.002100 0.003159 -0.000255
# 4 0.000868 -0.002159 0.002100 0.028865 -0.001733 0.005840
# 5 0.001540 0.000363 0.003159 -0.001733 0.029748 -0.007139
# 6 0.001297 0.000803 -0.000255 0.005840 -0.007139 0.029625
#
#
# Mechanical properties :
#
#
# Convention : Reuss Voigt Hill
#
# Bulk Modulus (GPa) = 60.59310 65.60956 63.10133
# Shear Modulus (GPa) = 34.44245 37.57491 36.00868
#
# Velocity S-wave (km/s) = 3.88523 4.05806 3.97258
# Velocity P-wave (km/s) = 6.83247 7.12121 6.97833
#
# Compressibility (1/GPa) = 0.01650353
#
# Stress axis : x y z
#
# Youngs Moduli (GPa) = 105.41853 75.34529 89.21397
#
# Poissons Ratio (x) = 0.21180 0.12971
# Poissons Ratio (y) = 0.29634 0.39851
# Poissons Ratio (z) = 0.15327 0.33656
#
# Static dielectric constant tensor:
#      x y z
#    x 4.279840 -0.035610 -0.224910 
#    y -0.035610 4.063410 0.119960 
#    z -0.224910 0.119960 4.088770 
# 
# 
# High freq. dielectric constant tensor:
#      x y z
#    x 1.916880 -0.001470 -0.014820 
#    y -0.001470 1.903340 0.010960 
#    z -0.014820 0.010960 1.896380 
# 
# From -- ./inp_files/480682.got.cif
#   From: 2010.06.25/outbox.cif.g09.slc.cpg/sg2_241_cif.got.tgz:480682.got - 2010.06.27 13:26:56.
