data_PCOD8022402
_publ_section_title
;
Structure prediction by ZEFSAII (Michael W. Deem and Ramdas Pophale) SiO2 
 PCOD8022402
Probable space group: P -1
;
_chemical_formula_sum "Si O2"
_cell_formula_units_Z 14
_cell_length_a 12.737963
_cell_length_b 14.701335
_cell_length_c 5.055464
_cell_angle_alpha 89.741559
_cell_angle_beta 77.452212
_cell_angle_gamma 141.249320
_cell_volume 554.488469
_symmetry_space_group_name_H-M "P -1"
_symmetry_group_IT_number 2
_symmetry_cell_setting 'triclinic'
loop_
_space_group_symop_operation_xyz
x,y,z
-x,-y,-z
loop_
_atom_site_type_symbol
_atom_site_label
_atom_site_fract_x
_atom_site_fract_y
_atom_site_fract_z
Si Si1 0.816567 0.104986 0.896163
Si Si2 0.613811 0.383396 0.094826
Si Si3 0.342699 0.862055 0.392208
Si Si4 0.180143 0.314966 0.875750
Si Si5 0.518186 0.798746 0.303611
Si Si6 0.988228 0.555491 0.758631
Si Si7 0.049286 0.137684 0.467700
O O1 0.683803 0.094136 0.858540
O O2 0.867342 0.071960 0.624444
O O3 0.007865 0.266880 0.914008
O O4 0.714343 0.977757 0.182120
O O5 0.533221 0.267088 0.373580
O O6 0.638681 0.503570 0.183242
O O7 0.486833 0.286889 0.908038
O O8 0.807174 0.489483 0.870014
O O9 0.377610 0.781551 0.284729
O O10 0.155819 0.739670 0.658164
O O11 0.500000 0.000000 0.500000
O O12 0.142074 0.224386 0.142420
O O13 0.198035 0.260474 0.613158
O O14 0.000000 0.500000 0.500000
O O15 0.000000 0.500000 0.000000
O O16 0.000000 0.000000 0.500000
#
# Coordination Sequence:
#
# PCOD8022402 Si02
#       7
#     2   2   2   2   2   2   2
#     4  10  27  41  68  98 135 172 231 280 328 388
#     4  12  24  43  63  93 137 179 226 268 324 395
#     4  12  26  43  63  95 139 182 231 273 321 382
#     4  10  24  42  72 102 127 170 221 282 328 396
#     4  12  26  41  61  94 140 188 218 264 330 389
#     4  12  25  42  60  87 124 179 234 270 314 379
#     4  10  22  45  77 104 127 162 222 288 348 397
#
# _framework density 25.248498999999999
#
# number of rings (size 3 to 8) (size 9 to 14) (size 15 to 20)
#    0.857    0.000    2.857    3.429   10.000    0.000 
#    0.000    0.000    0.000    5.143    0.000    0.000 
#    0.000    0.000    0.000    0.000    0.000    0.000 
#
# Total GULP energy -173506.602921 kJ/mol
# GULP energy per Si atom -12393.328780 kJ/mol
# Density = 2.519103 g / cm^3
# Si number density = 25.248499 Si / 1000 Ang^3
#
#
#
# Elastic Constant Matrix: (Units=GPa)
#
#
# Indices 1 2 3 4 5 6 
#
# 1 19.1851 0.4992 1.0684 -0.2370 6.9483 -8.9933
# 2 0.4992 106.9523 37.9360 -3.6218 1.6510 -1.3933
# 3 1.0684 37.9360 135.2396 -0.2987 17.9782 11.3839
# 4 -0.2370 -3.6218 -0.2987 53.3371 1.4482 -4.8025
# 5 6.9483 1.6510 17.9782 1.4482 24.1764 -6.7848
# 6 -8.9933 -1.3933 11.3839 -4.8025 -6.7848 33.2332
#
#
#
# Elastic Compliance Matrix: (Units=1/GPa)
#
#
# Indices 1 2 3 4 5 6 
#
# 1 0.064301 0.000123 0.000173 0.002011 -0.014626 0.014651
# 2 0.000123 0.010608 -0.003491 0.000842 0.002428 0.002291
# 3 0.000173 -0.003491 0.009980 -0.000426 -0.008711 -0.005358
# 4 0.002011 0.000842 -0.000426 0.019131 -0.000514 0.003385
# 5 -0.014626 0.002428 -0.008711 -0.000514 0.054782 0.010238
# 6 0.014651 0.002291 -0.005358 0.003385 0.010238 0.038566
#
#
# Mechanical properties :
#
#
# Convention : Reuss Voigt Hill
#
# Bulk Modulus (GPa) = 12.73877 37.82048 25.27962
# Shear Modulus (GPa) = 21.74635 36.94090 29.34363
#
# Velocity S-wave (km/s) = 2.93796 3.82919 3.41279
# Velocity P-wave (km/s) = 4.07003 5.87895 5.05605
#
# Compressibility (1/GPa) = 0.07850052
#
# Stress axis : x y z
#
# Youngs Moduli (GPa) = 15.55193 94.26546 100.19902
#
# Poissons Ratio (x) = -0.01162 -0.01732
# Poissons Ratio (y) = -0.00192 0.34975
# Poissons Ratio (z) = -0.00269 0.32904
#
# Static dielectric constant tensor:
#      x y z
#    x 4.140450 0.011100 -0.289370 
#    y 0.011100 4.844850 -0.121150 
#    z -0.289370 -0.121150 4.497340 
# 
# 
# High freq. dielectric constant tensor:
#      x y z
#    x 1.962370 -0.001660 -0.010860 
#    y -0.001660 2.025210 0.000610 
#    z -0.010860 0.000610 2.022360 
# 
# From -- ./inp_files/97736.got.cif
#   From: 2010.06.25/outbox.cif.g09.slc.cpg/sg2_49_cif.got.tgz:97736.got - 2010.06.27 13:26:56.
