data_PCOD8022264
_publ_section_title
;
Structure prediction by ZEFSAII (Michael W. Deem and Ramdas Pophale) SiO2 
 PCOD8022264
Probable space group: P -1
;
_chemical_formula_sum "Si O2"
_cell_formula_units_Z 16
_cell_length_a 14.121601
_cell_length_b 7.951080
_cell_length_c 11.541681
_cell_angle_alpha 92.639990
_cell_angle_beta 102.170017
_cell_angle_gamma 34.048054
_cell_volume 689.403862
_symmetry_space_group_name_H-M "P -1"
_symmetry_group_IT_number 2
_symmetry_cell_setting 'triclinic'
loop_
_space_group_symop_operation_xyz
x,y,z
-x,-y,-z
loop_
_atom_site_type_symbol
_atom_site_label
_atom_site_fract_x
_atom_site_fract_y
_atom_site_fract_z
Si Si1 0.539494 0.817034 0.774777
Si Si2 0.155184 0.496864 0.006544
Si Si3 0.774179 0.993016 0.002041
Si Si4 0.092666 0.228496 0.437864
Si Si5 0.448241 0.612514 0.832407
Si Si6 0.805925 0.479518 0.235908
Si Si7 0.483957 0.723327 0.513583
Si Si8 0.248506 0.717344 0.606613
O O1 0.509679 0.715485 0.858938
O O2 0.550004 0.718095 0.647422
O O3 0.380697 0.180552 0.753965
O O4 0.724283 0.633748 0.855153
O O5 0.200858 0.540776 0.904933
O O6 0.951412 0.828580 0.999187
O O7 0.185330 0.260008 0.970460
O O8 0.615415 0.242314 0.875712
O O9 0.702648 0.195440 0.103242
O O10 0.000000 0.500000 0.500000
O O11 0.968433 0.372132 0.299353
O O12 0.275805 0.054072 0.441915
O O13 0.106796 0.026648 0.501881
O O14 0.365859 0.698976 0.688424
O O15 0.838556 0.259375 0.309269
O O16 0.500000 0.500000 0.500000
O O17 0.621160 0.593013 0.446925
#
# Coordination Sequence:
#
# PCOD8022264 Si02
#       8
#     2   2   2   2   2   2   2   2
#     4  12  23  45  70 102 139 180 225 286 341 403
#     4  11  26  46  69 103 134 181 229 281 342 407
#     4  10  25  45  68 100 136 180 227 278 343 408
#     4  11  22  46  69  99 132 181 233 278 339 398
#     4  11  22  44  70  97 137 178 224 279 344 402
#     4  12  25  43  69 102 143 176 227 286 344 402
#     4  10  22  45  69  95 133 179 230 274 335 401
#     4  11  25  44  67 102 134 184 224 277 346 401
#
# _framework density 23.208456999999999
#
# number of rings (size 3 to 8) (size 9 to 14) (size 15 to 20)
#    0.000    1.000    5.000    1.500    5.250    1.000 
#    6.750    0.000    0.000    0.000    0.000    0.000 
#    0.000    0.000    0.000    0.000    0.000    0.000 
#
# Total GULP energy -198317.386895 kJ/mol
# GULP energy per Si atom -12394.836681 kJ/mol
# Density = 2.315563 g / cm^3
# Si number density = 23.208457 Si / 1000 Ang^3
#
#
#
# Elastic Constant Matrix: (Units=GPa)
#
#
# Indices 1 2 3 4 5 6 
#
# 1 72.5766 29.1227 28.2813 4.4965 -6.0102 -11.0517
# 2 29.1227 134.8690 35.5731 -5.6954 9.4315 -21.4023
# 3 28.2813 35.5731 119.4125 -1.7071 25.8089 -17.8767
# 4 4.4965 -5.6954 -1.7071 28.2073 0.5638 -2.5240
# 5 -6.0102 9.4315 25.8089 0.5638 37.8851 -6.1671
# 6 -11.0517 -21.4023 -17.8767 -2.5240 -6.1671 26.3441
#
#
#
# Elastic Compliance Matrix: (Units=1/GPa)
#
#
# Indices 1 2 3 4 5 6 
#
# 1 0.018028 -0.002787 -0.004524 -0.003534 0.007273 0.003593
# 2 -0.002787 0.009396 -0.000967 0.002826 -0.001221 0.005792
# 3 -0.004524 -0.000967 0.012079 0.001757 -0.008117 0.003781
# 4 -0.003534 0.002826 0.001757 0.037188 -0.002192 0.005055
# 5 0.007273 -0.001221 -0.008117 -0.002192 0.034120 0.004329
# 6 0.003593 0.005792 0.003781 0.005055 0.004329 0.048236
#
#
# Mechanical properties :
#
#
# Convention : Reuss Voigt Hill
#
# Bulk Modulus (GPa) = 43.58115 56.97915 50.28015
# Shear Modulus (GPa) = 27.28462 34.07938 30.68200
#
# Velocity S-wave (km/s) = 3.43247 3.83613 3.63990
# Velocity P-wave (km/s) = 5.87606 6.65023 6.27509
#
# Compressibility (1/GPa) = 0.02294570
#
# Stress axis : x y z
#
# Youngs Moduli (GPa) = 55.46817 106.43387 82.78532
#
# Poissons Ratio (x) = 0.29667 0.37453
# Poissons Ratio (y) = 0.15461 0.08008
# Poissons Ratio (z) = 0.25094 0.10295
#
# Static dielectric constant tensor:
#      x y z
#    x 3.751310 0.226320 -0.321490 
#    y 0.226320 3.718180 0.343980 
#    z -0.321490 0.343980 4.103220 
# 
# 
# High freq. dielectric constant tensor:
#      x y z
#    x 1.907080 -0.004600 0.004230 
#    y -0.004600 1.921840 -0.002100 
#    z 0.004230 -0.002100 1.922720 
# 
# From -- ./inp_files/217516.got.cif
#   From: 2010.06.25/outbox.cif.g09.slc.cpg/sg2_109_cif.got.tgz:217516.got - 2010.06.27 13:26:56.
