data_PCOD8022038
_publ_section_title
;
Structure prediction by ZEFSAII (Michael W. Deem and Ramdas Pophale) SiO2 
 PCOD8022038
Probable space group: P -1
;
_chemical_formula_sum "Si O2"
_cell_formula_units_Z 12
_cell_length_a 8.582039
_cell_length_b 12.674431
_cell_length_c 10.428101
_cell_angle_alpha 35.346734
_cell_angle_beta 102.470052
_cell_angle_gamma 120.893798
_cell_volume 513.944521
_symmetry_space_group_name_H-M "P -1"
_symmetry_group_IT_number 2
_symmetry_cell_setting 'triclinic'
loop_
_space_group_symop_operation_xyz
x,y,z
-x,-y,-z
loop_
_atom_site_type_symbol
_atom_site_label
_atom_site_fract_x
_atom_site_fract_y
_atom_site_fract_z
Si Si1 0.320873 0.969334 0.295375
Si Si2 0.714774 0.712868 0.484180
Si Si3 0.945639 0.538883 0.314651
Si Si4 0.758191 0.154702 0.143714
Si Si5 0.273940 0.270720 0.825277
Si Si6 0.948355 0.146045 0.419106
O O1 0.225989 0.704278 0.533895
O O2 0.253831 0.013295 0.375051
O O3 0.557688 0.121487 0.178962
O O4 0.239437 0.041194 0.094633
O O5 0.499998 0.478131 0.687213
O O6 0.787488 0.763172 0.300373
O O7 0.866818 0.686467 0.617951
O O8 0.707512 0.912037 0.339396
O O9 0.866234 0.690820 0.156898
O O10 0.000000 0.500000 0.500000
O O11 0.141184 0.671784 0.128942
O O12 0.907862 0.268433 0.179911
O O13 0.000000 0.000000 0.500000
#
# Coordination Sequence:
#
# PCOD8022038 Si02
#       6
#     2   2   2   2   2   2
#     4  12  26  45  72 106 138 183 233 288 347 410
#     4  10  22  44  73 100 141 187 228 285 349 405
#     4  12  27  45  73 106 140 185 233 285 350 411
#     4  11  25  47  69 104 144 181 235 288 339 416
#     4  11  24  44  70 105 141 179 232 289 345 407
#     4  10  23  46  71 100 139 188 233 278 349 417
#
# _framework density 23.348822999999999
#
# number of rings (size 3 to 8) (size 9 to 14) (size 15 to 20)
#    0.000    1.000    1.667    4.500    7.000    4.000 
#    3.000    2.500    0.000    0.000    0.000    0.000 
#    0.000    0.000    0.000    0.000    0.000    0.000 
#
# Total GULP energy -148819.126905 kJ/mol
# GULP energy per Si atom -12401.593909 kJ/mol
# Density = 2.329568 g / cm^3
# Si number density = 23.348823 Si / 1000 Ang^3
#
#
#
# Elastic Constant Matrix: (Units=GPa)
#
#
# Indices 1 2 3 4 5 6 
#
# 1 169.7140 55.9760 48.0365 15.8985 -19.0291 -1.6445
# 2 55.9760 114.8790 44.7674 23.1641 -4.1630 9.3140
# 3 48.0365 44.7674 93.6559 19.3705 -16.5044 5.7822
# 4 15.8985 23.1641 19.3705 42.5554 -8.3972 3.8716
# 5 -19.0291 -4.1630 -16.5044 -8.3972 41.1551 6.1026
# 6 -1.6445 9.3140 5.7822 3.8716 6.1026 36.4684
#
#
#
# Elastic Compliance Matrix: (Units=1/GPa)
#
#
# Indices 1 2 3 4 5 6 
#
# 1 0.007749 -0.002911 -0.002270 0.000065 0.002233 0.001072
# 2 -0.002911 0.012578 -0.003917 -0.004243 -0.002229 -0.001899
# 3 -0.002270 -0.003917 0.015199 -0.002906 0.004343 -0.001930
# 4 0.000065 -0.004243 -0.002906 0.028198 0.004516 -0.002202
# 5 0.002233 -0.002229 0.004343 0.004516 0.028551 -0.005276
# 6 0.001072 -0.001899 -0.001930 -0.002202 -0.005276 0.029377
#
#
# Mechanical properties :
#
#
# Convention : Reuss Voigt Hill
#
# Bulk Modulus (GPa) = 57.69736 75.08986 66.39361
# Shear Modulus (GPa) = 34.33457 39.33372 36.83414
#
# Velocity S-wave (km/s) = 3.83888 4.10886 3.97616
# Velocity P-wave (km/s) = 6.66438 7.39866 7.04110
#
# Compressibility (1/GPa) = 0.01733182
#
# Stress axis : x y z
#
# Youngs Moduli (GPa) = 129.04401 79.50075 65.79170
#
# Poissons Ratio (x) = 0.23140 0.14932
# Poissons Ratio (y) = 0.37561 0.25774
# Poissons Ratio (z) = 0.29288 0.31144
#
# Static dielectric constant tensor:
#      x y z
#    x 4.503180 0.021610 0.073400 
#    y 0.021610 4.467330 0.246780 
#    z 0.073400 0.246780 4.241410 
# 
# 
# High freq. dielectric constant tensor:
#      x y z
#    x 1.943960 -0.003790 -0.001000 
#    y -0.003790 1.924580 0.007430 
#    z -0.001000 0.007430 1.922410 
# 
# From -- ./inp_files/183872.got.cif
#   From: 2010.06.25/outbox.cif.g09.slc.cpg/sg2_92_cif.got.tgz:183872.got - 2010.06.27 13:26:56.
