data_PCOD8022798
_publ_section_title
;
Structure prediction by ZEFSAII (Michael W. Deem and Ramdas Pophale) SiO2 
 PCOD8022798
Probable space group: P -1
;
_chemical_formula_sum "Si O2"
_cell_formula_units_Z 16
_cell_length_a 11.459120
_cell_length_b 10.996133
_cell_length_c 7.003920
_cell_angle_alpha 95.457107
_cell_angle_beta 71.404708
_cell_angle_gamma 67.979328
_cell_volume 751.943934
_symmetry_space_group_name_H-M "P -1"
_symmetry_group_IT_number 2
_symmetry_cell_setting 'triclinic'
loop_
_space_group_symop_operation_xyz
x,y,z
-x,-y,-z
loop_
_atom_site_type_symbol
_atom_site_label
_atom_site_fract_x
_atom_site_fract_y
_atom_site_fract_z
Si Si1 0.138376 0.799233 0.805046
Si Si2 0.757123 0.796122 0.870011
Si Si3 0.709612 0.645870 0.545327
Si Si4 0.280500 0.777879 0.353563
Si Si5 0.645001 0.492308 0.880431
Si Si6 0.142453 0.983873 0.158782
Si Si7 0.960438 0.424880 0.177110
Si Si8 0.591150 0.712572 0.211030
O O1 0.260079 0.753559 0.582099
O O2 0.108461 0.673654 0.872037
O O3 0.184202 0.861305 0.968614
O O4 0.013072 0.912767 0.772655
O O5 0.712357 0.772566 0.678220
O O6 0.901849 0.668205 0.801026
O O7 0.762829 0.938823 0.906209
O O8 0.648024 0.809020 0.092899
O O9 0.639245 0.574524 0.703336
O O10 0.860552 0.538557 0.389802
O O11 0.613550 0.709105 0.423528
O O12 0.254687 0.664484 0.227980
O O13 0.171844 0.920788 0.347153
O O14 0.433010 0.764789 0.249351
O O15 0.500000 0.500000 0.000000
O O16 0.683127 0.561423 0.052125
O O17 0.000000 0.500000 0.000000
#
# Coordination Sequence:
#
# PCOD8022798 Si02
#       8
#     2   2   2   2   2   2   2   2
#     4  10  23  43  64  92 121 161 211 253 310 366
#     4  10  23  42  59  91 127 163 208 255 307 362
#     4  11  21  39  63  90 128 160 203 257 315 370
#     4  11  22  39  64  90 124 167 207 248 310 371
#     4   9  21  37  59  93 128 157 199 253 311 369
#     4  10  24  43  62  87 126 165 208 259 294 364
#     4  11  21  40  67  94 122 160 203 263 319 364
#     4  10  23  39  62  95 126 163 204 255 314 367
#
# _framework density 21.278182999999999
#
# number of rings (size 3 to 8) (size 9 to 14) (size 15 to 20)
#    0.000    1.750    2.500    0.750    1.750    6.500 
#    6.750    1.250    0.000    0.000    0.000    0.000 
#    0.000    0.000    0.000    0.000    0.000    0.000 
#
# Total GULP energy -198331.356568 kJ/mol
# GULP energy per Si atom -12395.709786 kJ/mol
# Density = 2.122975 g / cm^3
# Si number density = 21.278183 Si / 1000 Ang^3
#
#
#
# Elastic Constant Matrix: (Units=GPa)
#
#
# Indices 1 2 3 4 5 6 
#
# 1 81.0489 41.5612 48.2659 -7.8466 6.2440 27.7723
# 2 41.5612 94.2210 43.1308 -12.0431 7.6044 25.2636
# 3 48.2659 43.1308 128.6113 -14.9095 -1.8767 23.4633
# 4 -7.8466 -12.0431 -14.9095 26.8650 -2.4285 -2.0473
# 5 6.2440 7.6044 -1.8767 -2.4285 38.3691 -5.1054
# 6 27.7723 25.2636 23.4633 -2.0473 -5.1054 38.6694
#
#
#
# Elastic Compliance Matrix: (Units=1/GPa)
#
#
# Indices 1 2 3 4 5 6 
#
# 1 0.021050 -0.003992 -0.004695 0.000599 -0.004181 -0.010182
# 2 -0.003992 0.015869 -0.002258 0.003922 -0.003202 -0.006346
# 3 -0.004695 -0.002258 0.011015 0.003786 0.001804 -0.001397
# 4 0.000599 0.003922 0.003786 0.041174 0.001530 -0.002908
# 5 -0.004181 -0.003202 0.001804 0.001530 0.028608 0.007858
# 6 -0.010182 -0.006346 -0.001397 -0.002908 0.007858 0.039050
#
#
# Mechanical properties :
#
#
# Convention : Reuss Voigt Hill
#
# Bulk Modulus (GPa) = 38.39723 63.31077 50.85400
# Shear Modulus (GPa) = 26.68972 32.17560 29.43266
#
# Velocity S-wave (km/s) = 3.54548 3.89284 3.72322
# Velocity P-wave (km/s) = 5.90298 7.07277 6.51419
#
# Compressibility (1/GPa) = 0.02604355
#
# Stress axis : x y z
#
# Youngs Moduli (GPa) = 47.50519 63.01572 90.78672
#
# Poissons Ratio (x) = 0.25156 0.42626
# Poissons Ratio (y) = 0.18964 0.20500
# Poissons Ratio (z) = 0.22304 0.14230
#
# Static dielectric constant tensor:
#      x y z
#    x 3.782880 0.290410 -0.082250 
#    y 0.290410 3.884880 0.033440 
#    z -0.082250 0.033440 3.789490 
# 
# 
# High freq. dielectric constant tensor:
#      x y z
#    x 1.832960 0.015360 -0.004680 
#    y 0.015360 1.829780 -0.003440 
#    z -0.004680 -0.003440 1.839470 
# 
# From -- ./inp_files/70370.got.cif
#   From: 2010.06.25/outbox.cif.g09.slc.cpg/sg2_36_cif.got.tgz:70370.got - 2010.06.27 13:26:56.
