data_PCOD8022050
_publ_section_title
;
Structure prediction by ZEFSAII (Michael W. Deem and Ramdas Pophale) SiO2 
 PCOD8022050
Probable space group: P -1
;
_chemical_formula_sum "Si O2"
_cell_formula_units_Z 14
_cell_length_a 11.293459
_cell_length_b 11.621333
_cell_length_c 8.992990
_cell_angle_alpha 51.109285
_cell_angle_beta 37.845719
_cell_angle_gamma 60.586143
_cell_volume 563.610915
_symmetry_space_group_name_H-M "P -1"
_symmetry_group_IT_number 2
_symmetry_cell_setting 'triclinic'
loop_
_space_group_symop_operation_xyz
x,y,z
-x,-y,-z
loop_
_atom_site_type_symbol
_atom_site_label
_atom_site_fract_x
_atom_site_fract_y
_atom_site_fract_z
Si Si1 0.695433 0.591611 0.229729
Si Si2 0.004419 0.486863 0.776729
Si Si3 0.053722 0.218339 0.550725
Si Si4 0.538058 0.187002 0.881325
Si Si5 0.524965 0.668235 0.884060
Si Si6 0.198240 0.782050 0.938314
Si Si7 0.750571 0.040105 0.557596
O O1 0.500000 0.500000 0.500000
O O2 0.803951 0.589537 0.282886
O O3 0.632587 0.755729 0.107481
O O4 0.838102 0.512949 0.039613
O O5 0.059712 0.643550 0.519270
O O6 0.911594 0.375163 0.841123
O O7 0.255015 0.277414 0.372016
O O8 0.092326 0.091766 0.488915
O O9 0.924009 0.141044 0.870577
O O10 0.739181 0.153831 0.617920
O O11 0.576221 0.309350 0.871573
O O12 0.462417 0.037422 0.160322
O O13 0.418050 0.764043 0.787407
O O14 0.500000 0.500000 0.000000
O O15 0.207223 0.872763 0.705128
#
# Coordination Sequence:
#
# PCOD8022050 Si02
#       7
#     2   2   2   2   2   2   2
#     4  11  23  42  74 100 142 180 234 300 359 412
#     4  11  24  42  68 111 135 179 243 296 350 425
#     4  11  24  45  70 103 147 184 243 293 351 430
#     4  10  22  44  73 103 142 189 237 294 355 427
#     4  11  23  43  74 106 144 186 233 297 361 411
#     4  12  25  43  72 106 141 192 238 290 360 424
#     4  10  23  47  68 101 148 190 240 287 355 426
#
# _framework density 24.839829999999999
#
# number of rings (size 3 to 8) (size 9 to 14) (size 15 to 20)
#    0.000    1.143    4.286    1.714    2.000    4.571 
#    0.000    7.143    0.000    0.000    0.000    0.000 
#    0.000    0.000    0.000    0.000    0.000    0.000 
#
# Total GULP energy -173480.042012 kJ/mol
# GULP energy per Si atom -12391.431572 kJ/mol
# Density = 2.478329 g / cm^3
# Si number density = 24.839830 Si / 1000 Ang^3
#
#
#
# Elastic Constant Matrix: (Units=GPa)
#
#
# Indices 1 2 3 4 5 6 
#
# 1 100.6908 32.9361 18.3552 -3.9611 -3.7194 -16.4827
# 2 32.9361 138.5554 41.4616 5.4910 14.9311 4.9292
# 3 18.3552 41.4616 135.2614 10.9826 19.8777 -6.3159
# 4 -3.9611 5.4910 10.9826 32.1125 -4.5825 13.1826
# 5 -3.7194 14.9311 19.8777 -4.5825 39.1132 6.4625
# 6 -16.4827 4.9292 -6.3159 13.1826 6.4625 31.2998
#
#
#
# Elastic Compliance Matrix: (Units=1/GPa)
#
#
# Indices 1 2 3 4 5 6 
#
# 1 0.012178 -0.003105 -0.000601 -0.000236 0.001537 0.006563
# 2 -0.003105 0.008937 -0.002102 -0.000326 -0.002202 -0.002875
# 3 -0.000601 -0.002102 0.009778 -0.006317 -0.005935 0.005874
# 4 -0.000236 -0.000326 -0.006317 0.044327 0.012230 -0.022542
# 5 0.001537 -0.002202 -0.005935 0.012230 0.032986 -0.012003
# 6 0.006563 -0.002875 0.005874 -0.022542 -0.012003 0.049016
#
#
# Mechanical properties :
#
#
# Convention : Reuss Voigt Hill
#
# Bulk Modulus (GPa) = 51.87443 62.22372 57.04908
# Shear Modulus (GPa) = 28.52845 39.28876 33.90860
#
# Velocity S-wave (km/s) = 3.39262 3.98135 3.69872
# Velocity P-wave (km/s) = 6.02291 6.79995 6.42319
#
# Compressibility (1/GPa) = 0.01927732
#
# Stress axis : x y z
#
# Youngs Moduli (GPa) = 82.11285 111.89551 102.26630
#
# Poissons Ratio (x) = 0.34741 0.06147
# Poissons Ratio (y) = 0.25494 0.21499
# Poissons Ratio (z) = 0.04936 0.23524
#
# Static dielectric constant tensor:
#      x y z
#    x 4.621510 -0.076920 0.208330 
#    y -0.076920 5.221290 0.108080 
#    z 0.208330 0.108080 4.495650 
# 
# 
# High freq. dielectric constant tensor:
#      x y z
#    x 1.971720 -0.004200 0.006900 
#    y -0.004200 1.998710 0.014200 
#    z 0.006900 0.014200 1.994940 
# 
# From -- ./inp_files/261391.got.cif
#   From: 2010.06.25/outbox.cif.g09.slc.cpg/sg2_131_cif.got.tgz:261391.got - 2010.06.27 13:26:56.
