data_PCOD8022690
_publ_section_title
;
Structure prediction by ZEFSAII (Michael W. Deem and Ramdas Pophale) SiO2 
 PCOD8022690
Probable space group: P -1
;
_chemical_formula_sum "Si O2"
_cell_formula_units_Z 14
_cell_length_a 5.286378
_cell_length_b 20.060008
_cell_length_c 7.580286
_cell_angle_alpha 125.863703
_cell_angle_beta 64.045865
_cell_angle_gamma 103.112309
_cell_volume 585.266487
_symmetry_space_group_name_H-M "P -1"
_symmetry_group_IT_number 2
_symmetry_cell_setting 'triclinic'
loop_
_space_group_symop_operation_xyz
x,y,z
-x,-y,-z
loop_
_atom_site_type_symbol
_atom_site_label
_atom_site_fract_x
_atom_site_fract_y
_atom_site_fract_z
Si Si1 0.432312 0.308075 0.394500
Si Si2 0.777937 0.447233 0.384014
Si Si3 0.384310 0.983042 0.782606
Si Si4 0.964065 0.674035 0.141196
Si Si5 0.794507 0.912262 0.302470
Si Si6 0.345504 0.872186 0.913616
Si Si7 0.556814 0.745700 0.074665
O O1 0.685889 0.371432 0.418171
O O2 0.181061 0.341371 0.649399
O O3 0.543857 0.220114 0.298599
O O4 0.329618 0.299883 0.209664
O O5 0.500000 0.500000 0.500000
O O6 0.000000 0.500000 0.500000
O O7 0.925253 0.413505 0.107241
O O8 0.696821 0.943569 0.573967
O O9 0.220848 0.912789 0.831307
O O10 0.217340 0.006755 0.692919
O O11 0.407795 0.066661 0.018249
O O12 0.741412 0.715934 0.138544
O O13 0.228203 0.730741 0.181463
O O14 0.583025 0.843328 0.190875
O O15 0.109456 0.871838 0.138606
#
# Coordination Sequence:
#
# PCOD8022690 Si02
#       7
#     2   2   2   2   2   2   2
#     4  11  25  46  74 101 140 187 224 286 352 410
#     4  11  25  47  74 107 141 173 226 285 342 423
#     4  10  23  38  59  96 127 182 235 286 336 398
#     4  11  26  46  73 109 137 184 229 280 347 420
#     4  11  21  39  62  88 134 186 227 289 343 384
#     4  11  22  42  61  94 132 177 234 281 338 406
#     4  11  24  44  69 104 145 182 242 283 333 413
#
# _framework density 23.920725999999998
#
# number of rings (size 3 to 8) (size 9 to 14) (size 15 to 20)
#    0.000    1.143    1.429    5.143    0.000    6.857 
#   10.286    0.000    0.000    0.000    0.000    0.000 
#    0.000    0.000    0.000    0.000    0.000    0.000 
#
# Total GULP energy -173550.394074 kJ/mol
# GULP energy per Si atom -12396.456720 kJ/mol
# Density = 2.386628 g / cm^3
# Si number density = 23.920726 Si / 1000 Ang^3
#
#
#
# Elastic Constant Matrix: (Units=GPa)
#
#
# Indices 1 2 3 4 5 6 
#
# 1 119.1505 40.3308 32.0022 2.2470 0.2088 13.0748
# 2 40.3308 112.9812 55.8726 4.2559 5.4967 19.1523
# 3 32.0022 55.8726 161.8359 -13.4325 -11.4069 19.0543
# 4 2.2470 4.2559 -13.4325 51.4328 3.1556 2.7786
# 5 0.2088 5.4967 -11.4069 3.1556 29.4389 -0.6490
# 6 13.0748 19.1523 19.0543 2.7786 -0.6490 26.3231
#
#
#
# Elastic Compliance Matrix: (Units=1/GPa)
#
#
# Indices 1 2 3 4 5 6 
#
# 1 0.009772 -0.002732 -0.000731 -0.000276 0.000136 -0.002304
# 2 -0.002732 0.012736 -0.003616 -0.001367 -0.003729 -0.005239
# 3 -0.000731 -0.003616 0.008418 0.002485 0.003603 -0.003273
# 4 -0.000276 -0.001367 0.002485 0.020434 -0.001033 -0.002850
# 5 0.000136 -0.003729 0.003603 -0.001033 0.036194 0.001038
# 6 -0.002304 -0.005239 -0.003273 -0.002850 0.001038 0.045641
#
#
# Mechanical properties :
#
#
# Convention : Reuss Voigt Hill
#
# Bulk Modulus (GPa) = 59.64336 72.26432 65.95384
# Shear Modulus (GPa) = 32.69212 39.15640 35.92426
#
# Velocity S-wave (km/s) = 3.70088 4.05028 3.87952
# Velocity P-wave (km/s) = 6.57647 7.22139 6.90646
#
# Compressibility (1/GPa) = 0.01676633
#
# Stress axis : x y z
#
# Youngs Moduli (GPa) = 102.33590 78.51954 118.79837
#
# Poissons Ratio (x) = 0.21455 0.08684
# Poissons Ratio (y) = 0.27962 0.42957
# Poissons Ratio (z) = 0.07480 0.28393
#
# Static dielectric constant tensor:
#      x y z
#    x 3.915310 0.147020 -0.066000 
#    y 0.147020 4.521340 -0.093110 
#    z -0.066000 -0.093110 4.602660 
# 
# 
# High freq. dielectric constant tensor:
#      x y z
#    x 1.933610 0.006490 -0.002810 
#    y 0.006490 1.949340 -0.003490 
#    z -0.002810 -0.003490 1.959010 
# 
# From -- ./inp_files/141560.got.cif
#   From: 2010.06.25/outbox.cif.g09.slc.cpg/sg2_71_cif.got.tgz:141560.got - 2010.06.27 13:26:56.
