data_PCOD8022639
_publ_section_title
;
Structure prediction by ZEFSAII (Michael W. Deem and Ramdas Pophale) SiO2 
 PCOD8022639
Probable space group: P -1
;
_chemical_formula_sum "Si O2"
_cell_formula_units_Z 14
_cell_length_a 12.721870
_cell_length_b 8.678156
_cell_length_c 19.250425
_cell_angle_alpha 134.905979
_cell_angle_beta 23.907847
_cell_angle_gamma 135.076165
_cell_volume 595.318473
_symmetry_space_group_name_H-M "P -1"
_symmetry_group_IT_number 2
_symmetry_cell_setting 'triclinic'
loop_
_space_group_symop_operation_xyz
x,y,z
-x,-y,-z
loop_
_atom_site_type_symbol
_atom_site_label
_atom_site_fract_x
_atom_site_fract_y
_atom_site_fract_z
Si Si1 0.688447 0.476164 0.500741
Si Si2 0.760998 0.597313 0.144227
Si Si3 0.005861 0.647052 0.611527
Si Si4 0.294984 0.050426 0.403740
Si Si5 0.281331 0.984171 0.234371
Si Si6 0.439914 0.697799 0.943982
Si Si7 0.457928 0.009391 0.629517
O O1 0.484951 0.514929 0.695591
O O2 0.965508 0.492077 0.379789
O O3 0.712410 0.687349 0.503247
O O4 0.594568 0.244449 0.443796
O O5 0.706036 0.535151 0.076197
O O6 0.773991 0.866533 0.218122
O O7 0.000000 0.500000 0.000000
O O8 0.256560 0.859008 0.530473
O O9 0.000000 0.500000 0.500000
O O10 0.727145 0.714627 0.809664
O O11 0.995873 0.928857 0.571629
O O12 0.362930 0.968797 0.260613
O O13 0.516264 0.991840 0.302558
O O14 0.519894 0.137942 0.095342
O O15 0.247409 0.749974 0.138287
#
# Coordination Sequence:
#
# PCOD8022639 Si02
#       7
#     2   2   2   2   2   2   2
#     4  11  24  42  67  98 134 186 218 270 328 408
#     4  11  24  42  68  98 134 170 229 277 327 397
#     4  11  19  39  69  97 126 172 233 270 322 395
#     4  11  22  44  64  98 137 177 221 270 341 396
#     4  10  23  36  69 101 134 169 222 284 329 389
#     4  11  21  41  68 101 128 173 226 281 325 388
#     4  11  24  41  69  96 134 185 217 269 335 405
#
# _framework density 23.516825000000001
#
# number of rings (size 3 to 8) (size 9 to 14) (size 15 to 20)
#    0.000    1.143    5.714    2.143    4.000    2.286 
#    0.000    3.571    0.000    0.000    0.000    0.000 
#    0.000    0.000    0.000    0.000    0.000    0.000 
#
# Total GULP energy -173433.711263 kJ/mol
# GULP energy per Si atom -12388.122233 kJ/mol
# Density = 2.346330 g / cm^3
# Si number density = 23.516825 Si / 1000 Ang^3
#
#
#
# Elastic Constant Matrix: (Units=GPa)
#
#
# Indices 1 2 3 4 5 6 
#
# 1 151.3573 18.2324 58.6446 14.3901 -7.5746 -11.6635
# 2 18.2324 76.6057 9.7750 15.4422 3.9359 -1.4468
# 3 58.6446 9.7750 105.8807 18.0236 11.3612 0.6365
# 4 14.3901 15.4422 18.0236 24.8924 0.9342 1.0066
# 5 -7.5746 3.9359 11.3612 0.9342 46.5797 10.5642
# 6 -11.6635 -1.4468 0.6365 1.0066 10.5642 38.6724
#
#
#
# Elastic Compliance Matrix: (Units=1/GPa)
#
#
# Indices 1 2 3 4 5 6 
#
# 1 0.009091 -0.001419 -0.005013 -0.000921 0.002351 0.002153
# 2 -0.001419 0.015259 0.001178 -0.009465 -0.001814 0.000865
# 3 -0.005013 0.001178 0.013860 -0.007701 -0.004053 -0.000388
# 4 -0.000921 -0.009465 -0.007701 0.052175 0.002030 -0.002418
# 5 0.002351 -0.001814 -0.004053 0.002030 0.024309 -0.005986
# 6 0.002153 0.000865 -0.000388 -0.002418 -0.005986 0.028244
#
#
# Mechanical properties :
#
#
# Convention : Reuss Voigt Hill
#
# Bulk Modulus (GPa) = 36.09716 56.34975 46.22346
# Shear Modulus (GPa) = 30.73508 38.50835 34.62172
#
# Velocity S-wave (km/s) = 3.61908 4.05097 3.84110
# Velocity P-wave (km/s) = 5.73119 6.77451 6.27457
#
# Compressibility (1/GPa) = 0.02770301
#
# Stress axis : x y z
#
# Youngs Moduli (GPa) = 109.99687 65.53604 72.14802
#
# Poissons Ratio (x) = 0.09296 0.36166
# Poissons Ratio (y) = 0.15603 -0.08497
# Poissons Ratio (z) = 0.55139 -0.07718
#
# Static dielectric constant tensor:
#      x y z
#    x 4.651960 -0.181050 0.008430 
#    y -0.181050 4.342190 0.246270 
#    z 0.008430 0.246270 4.136340 
# 
# 
# High freq. dielectric constant tensor:
#      x y z
#    x 1.941800 0.000730 0.008960 
#    y 0.000730 1.925300 0.024600 
#    z 0.008960 0.024600 1.903670 
# 
# From -- ./inp_files/566894.got.cif
#   From: 2010.06.25/outbox.cif.g09.slc.cpg/sg2_284_cif.got.tgz:566894.got - 2010.06.27 13:26:56.
