data_PCOD8022832
_publ_section_title
;
Structure prediction by ZEFSAII (Michael W. Deem and Ramdas Pophale) SiO2 
 PCOD8022832
Probable space group: P -1
;
_chemical_formula_sum "Si O2"
_cell_formula_units_Z 16
_cell_length_a 8.487422
_cell_length_b 11.867680
_cell_length_c 13.687081
_cell_angle_alpha 73.970686
_cell_angle_beta 120.458340
_cell_angle_gamma 143.437047
_cell_volume 684.496905
_symmetry_space_group_name_H-M "P -1"
_symmetry_group_IT_number 2
_symmetry_cell_setting 'triclinic'
loop_
_space_group_symop_operation_xyz
x,y,z
-x,-y,-z
loop_
_atom_site_type_symbol
_atom_site_label
_atom_site_fract_x
_atom_site_fract_y
_atom_site_fract_z
Si Si1 0.260121 0.801433 0.709218
Si Si2 0.440800 0.693781 0.171685
Si Si3 0.912947 0.420819 0.600435
Si Si4 0.894539 0.056141 0.843024
Si Si5 0.780599 0.255603 0.068726
Si Si6 0.337767 0.434808 0.798913
Si Si7 0.998220 0.864630 0.928300
Si Si8 0.704564 0.924670 0.400086
O O1 0.332366 0.838944 0.837813
O O2 0.999910 0.573129 0.661326
O O3 0.576237 0.930108 0.723461
O O4 0.160505 0.875474 0.617499
O O5 0.603794 0.651035 0.227614
O O6 0.558815 0.817543 0.275817
O O7 0.081983 0.487406 0.119139
O O8 0.467970 0.793805 0.059431
O O9 0.554258 0.213572 0.562279
O O10 0.000000 0.500000 0.500000
O O11 0.121065 0.413772 0.680970
O O12 0.142178 0.287037 0.863460
O O13 0.996831 0.986991 0.836497
O O14 0.841202 0.011198 0.951850
O O15 0.819583 0.150808 0.052845
O O16 0.642915 0.650115 0.882069
O O17 0.000000 0.000000 0.500000
#
# Coordination Sequence:
#
# PCOD8022832 Si02
#       8
#     2   2   2   2   2   2   2   2
#     4  12  26  47  76 105 144 192 241 306 371 443
#     4  10  24  45  73 110 147 196 234 298 370 441
#     4  12  29  52  74 102 146 194 251 315 371 432
#     4  11  23  39  67 107 145 185 236 284 360 436
#     4  10  23  44  73 107 152 189 237 294 374 442
#     4  11  24  44  70  98 144 186 242 298 359 429
#     4  10  23  39  65 107 146 192 226 286 356 440
#     4  12  29  50  76 110 148 192 256 309 365 447
#
# _framework density 23.374832999999999
#
# number of rings (size 3 to 8) (size 9 to 14) (size 15 to 20)
#    0.000    1.000    3.750    1.125    7.000    6.000 
#    0.000    0.000    0.000    0.000    0.000    0.000 
#    0.000    0.000    0.000    0.000    0.000    0.000 
#
# Total GULP energy -198259.407283 kJ/mol
# GULP energy per Si atom -12391.212955 kJ/mol
# Density = 2.332163 g / cm^3
# Si number density = 23.374833 Si / 1000 Ang^3
#
#
#
# Elastic Constant Matrix: (Units=GPa)
#
#
# Indices 1 2 3 4 5 6 
#
# 1 101.5494 35.7362 72.7537 -8.6529 33.2203 -6.0589
# 2 35.7362 115.8051 51.1572 -19.1160 26.2179 -16.7822
# 3 72.7537 51.1572 110.7657 -24.3303 25.1240 -1.6823
# 4 -8.6529 -19.1160 -24.3303 35.1783 -0.4179 2.3256
# 5 33.2203 26.2179 25.1240 -0.4179 53.5821 -0.3979
# 6 -6.0589 -16.7822 -1.6823 2.3256 -0.3979 41.3137
#
#
#
# Elastic Compliance Matrix: (Units=1/GPa)
#
#
# Indices 1 2 3 4 5 6 
#
# 1 0.021710 0.000871 -0.013820 -0.004040 -0.007414 0.003131
# 2 0.000871 0.012703 -0.004539 0.003603 -0.004563 0.004856
# 3 -0.013820 -0.004539 0.022183 0.009714 0.000438 -0.003510
# 4 -0.004040 0.003603 0.009714 0.036120 -0.003537 -0.000801
# 5 -0.007414 -0.004563 0.000438 -0.003537 0.025241 -0.002481
# 6 0.003131 0.004856 -0.003510 -0.000801 -0.002481 0.026515
#
#
# Mechanical properties :
#
#
# Convention : Reuss Voigt Hill
#
# Bulk Modulus (GPa) = 46.25336 71.93492 59.09414
# Shear Modulus (GPa) = 26.78726 37.24635 32.01680
#
# Velocity S-wave (km/s) = 3.38892 3.99612 3.70498
# Velocity P-wave (km/s) = 5.92821 7.22034 6.60594
#
# Compressibility (1/GPa) = 0.02162005
#
# Stress axis : x y z
#
# Youngs Moduli (GPa) = 46.06091 78.72137 45.07961
#
# Poissons Ratio (x) = -0.06857 0.62302
# Poissons Ratio (y) = -0.04012 0.20461
# Poissons Ratio (z) = 0.63658 0.35731
#
# Static dielectric constant tensor:
#      x y z
#    x 4.397960 -0.060010 0.298290 
#    y -0.060010 4.610540 -0.074940 
#    z 0.298290 -0.074940 4.023840 
# 
# 
# High freq. dielectric constant tensor:
#      x y z
#    x 1.932690 -0.000710 0.025150 
#    y -0.000710 1.956750 -0.001300 
#    z 0.025150 -0.001300 1.906570 
# 
# From -- ./inp_files/500315.got.cif
#   From: 2010.06.25/outbox.cif.g09.slc.cpg/sg2_251_cif.got.tgz:500315.got - 2010.06.27 13:26:56.
