data_PCOD8022647
_publ_section_title
;
Structure prediction by ZEFSAII (Michael W. Deem and Ramdas Pophale) SiO2 
 PCOD8022647
Probable space group: P -1
;
_chemical_formula_sum "Si O2"
_cell_formula_units_Z 16
_cell_length_a 12.198996
_cell_length_b 15.262365
_cell_length_c 8.758042
_cell_angle_alpha 79.758283
_cell_angle_beta 89.656100
_cell_angle_gamma 31.084546
_cell_volume 793.404960
_symmetry_space_group_name_H-M "P -1"
_symmetry_group_IT_number 2
_symmetry_cell_setting 'triclinic'
loop_
_space_group_symop_operation_xyz
x,y,z
-x,-y,-z
loop_
_atom_site_type_symbol
_atom_site_label
_atom_site_fract_x
_atom_site_fract_y
_atom_site_fract_z
Si Si1 0.160586 0.067489 0.729380
Si Si2 0.741987 0.825794 0.482016
Si Si3 0.292698 0.082234 0.002537
Si Si4 0.895547 0.480696 0.952037
Si Si5 0.814026 0.482833 0.273653
Si Si6 0.508921 0.731691 0.651701
Si Si7 0.319149 0.554439 0.451560
Si Si8 0.539266 0.820928 0.327249
O O1 0.200802 0.120605 0.601981
O O2 0.893404 0.244977 0.683804
O O3 0.283952 0.893277 0.708230
O O4 0.270700 0.014704 0.906918
O O5 0.732657 0.757460 0.372261
O O6 0.934437 0.663685 0.648709
O O7 0.500000 0.000000 0.500000
O O8 0.321680 0.018982 0.190654
O O9 0.076337 0.294410 0.922045
O O10 0.500000 0.000000 0.000000
O O11 0.703751 0.635075 0.783666
O O12 0.800747 0.485429 0.089514
O O13 0.000000 0.500000 0.000000
O O14 0.745474 0.444902 0.385555
O O15 0.639982 0.681803 0.250969
O O16 0.576966 0.587353 0.629709
O O17 0.463682 0.829910 0.482083
O O18 0.500000 0.500000 0.500000
#
# Coordination Sequence:
#
# PCOD8022647 Si02
#       8
#     2   2   2   2   2   2   2   2
#     4  11  22  38  62  91 129 165 210 259 319 381
#     4  11  19  32  54  88 126 167 202 244 308 389
#     4  12  23  36  56  93 135 177 207 250 306 386
#     4  12  24  38  59  96 139 176 207 248 313 396
#     4  10  23  37  60  88 126 168 214 263 315 377
#     4  11  23  41  65  94 125 168 213 265 320 388
#     4  10  24  47  69  92 121 164 226 285 327 361
#     4  11  21  35  56  87 130 168 209 244 311 386
#
# _framework density 20.166248
#
# number of rings (size 3 to 8) (size 9 to 14) (size 15 to 20)
#    0.000    1.000    3.750    4.125    1.750    0.500 
#    0.000    0.625    0.000    3.750    0.000    0.000 
#    0.000    0.000    0.000    0.000    0.000    0.000 
#
# Total GULP energy -198298.469355 kJ/mol
# GULP energy per Si atom -12393.654335 kJ/mol
# Density = 2.012035 g / cm^3
# Si number density = 20.166248 Si / 1000 Ang^3
#
#
#
# Elastic Constant Matrix: (Units=GPa)
#
#
# Indices 1 2 3 4 5 6 
#
# 1 84.8542 37.9631 29.1815 0.6653 20.4023 -8.5795
# 2 37.9631 121.2527 36.4997 -0.5359 9.1927 1.0757
# 3 29.1815 36.4997 117.5396 -4.4815 9.4023 -3.5656
# 4 0.6653 -0.5359 -4.4815 35.4618 0.2215 4.6638
# 5 20.4023 9.1927 9.4023 0.2215 22.8905 -2.2883
# 6 -8.5795 1.0757 -3.5656 4.6638 -2.2883 22.1274
#
#
#
# Elastic Compliance Matrix: (Units=1/GPa)
#
#
# Indices 1 2 3 4 5 6 
#
# 1 0.018049 -0.004108 -0.002040 -0.001341 -0.013006 0.005807
# 2 -0.004108 0.010212 -0.002234 0.000274 0.000228 -0.002484
# 3 -0.002040 -0.002234 0.009873 0.001192 -0.001299 0.000523
# 4 -0.001341 0.000274 0.001192 0.029242 -0.000341 -0.006540
# 5 -0.013006 0.000228 -0.001299 -0.000341 0.055782 0.000577
# 6 0.005807 -0.002484 0.000523 -0.006540 0.000577 0.049087
#
#
# Mechanical properties :
#
#
# Convention : Reuss Voigt Hill
#
# Bulk Modulus (GPa) = 46.79554 58.99279 52.89417
# Shear Modulus (GPa) = 25.49278 30.76275 28.12776
#
# Velocity S-wave (km/s) = 3.55932 3.90995 3.73875
# Velocity P-wave (km/s) = 6.33616 7.04985 6.70251
#
# Compressibility (1/GPa) = 0.02136956
#
# Stress axis : x y z
#
# Youngs Moduli (GPa) = 55.40355 97.92291 101.28381
#
# Poissons Ratio (x) = 0.40231 0.20661
# Poissons Ratio (y) = 0.22762 0.22629
# Poissons Ratio (z) = 0.11302 0.21879
#
# Static dielectric constant tensor:
#      x y z
#    x 3.405200 0.085800 0.204190 
#    y 0.085800 3.797930 -0.078970 
#    z 0.204190 -0.078970 4.001560 
# 
# 
# High freq. dielectric constant tensor:
#      x y z
#    x 1.730030 0.010010 0.005090 
#    y 0.010010 1.808960 -0.003810 
#    z 0.005090 -0.003810 1.801480 
# 
# From -- ./inp_files/179494.got.cif
#   From: 2010.06.25/outbox.cif.g09.slc.cpg/sg2_90_cif.got.tgz:179494.got - 2010.06.27 13:26:56.
