data_PCOD8022540
_publ_section_title
;
Structure prediction by ZEFSAII (Michael W. Deem and Ramdas Pophale) SiO2 
 PCOD8022540
Probable space group: P -1
;
_chemical_formula_sum "Si O2"
_cell_formula_units_Z 16
_cell_length_a 19.788040
_cell_length_b 16.678813
_cell_length_c 11.912785
_cell_angle_alpha 143.498321
_cell_angle_beta 149.905747
_cell_angle_gamma 20.450212
_cell_volume 688.288046
_symmetry_space_group_name_H-M "P -1"
_symmetry_group_IT_number 2
_symmetry_cell_setting 'triclinic'
loop_
_space_group_symop_operation_xyz
x,y,z
-x,-y,-z
loop_
_atom_site_type_symbol
_atom_site_label
_atom_site_fract_x
_atom_site_fract_y
_atom_site_fract_z
Si Si1 0.202368 0.643039 0.024542
Si Si2 0.469740 0.391636 0.558821
Si Si3 0.920680 0.621695 0.349315
Si Si4 0.709482 0.297749 0.159259
Si Si5 0.815516 0.921580 0.959907
Si Si6 0.059554 0.094121 0.269090
Si Si7 0.911008 0.474018 0.941830
Si Si8 0.332764 0.257001 0.676012
O O1 0.313286 0.429785 0.877767
O O2 0.060463 0.843549 0.952527
O O3 0.403658 0.581344 0.289166
O O4 0.030087 0.725377 0.963549
O O5 0.296851 0.580676 0.619708
O O6 0.328211 0.408844 0.293436
O O7 0.668436 0.140572 0.617338
O O8 0.001150 0.708877 0.550912
O O9 0.704661 0.794285 0.318959
O O10 0.138245 0.366934 0.431466
O O11 0.861430 0.606898 0.127936
O O12 0.713590 0.154692 0.072872
O O13 0.950230 0.093277 0.210253
O O14 0.500000 0.500000 0.000000
O O15 0.582457 0.023503 0.717857
O O16 0.906228 0.793289 0.066866
O O17 0.000000 0.500000 0.000000
#
# Coordination Sequence:
#
# PCOD8022540 Si02
#       8
#     2   2   2   2   2   2   2   2
#     4  11  21  44  71 111 135 173 242 301 365 411
#     4  12  25  44  70 102 147 190 230 294 348 431
#     4  10  23  48  70 104 141 187 239 290 359 423
#     4  12  22  43  74 112 141 170 237 304 358 418
#     4  12  25  44  74 106 141 187 231 302 362 408
#     4  11  23  41  74 105 141 184 229 301 367 404
#     4  12  30  50  66 103 149 197 247 274 339 447
#     4  10  22  46  76 103 138 173 239 315 349 413
#
# _framework density 23.246079999999999
#
# number of rings (size 3 to 8) (size 9 to 14) (size 15 to 20)
#    0.000    0.750    5.000    2.625    1.750    3.000 
#    2.250    0.000    0.000    0.000    0.000    0.000 
#    0.000    0.000    0.000    0.000    0.000    0.000 
#
# Total GULP energy -198237.944902 kJ/mol
# GULP energy per Si atom -12389.871556 kJ/mol
# Density = 2.319317 g / cm^3
# Si number density = 23.246080 Si / 1000 Ang^3
#
#
#
# Elastic Constant Matrix: (Units=GPa)
#
#
# Indices 1 2 3 4 5 6 
#
# 1 145.6584 41.0748 57.8669 -9.4427 7.9508 -5.5415
# 2 41.0748 81.3384 28.9724 -9.4639 0.6671 -2.6255
# 3 57.8669 28.9724 169.7055 -5.0706 7.2339 -15.4278
# 4 -9.4427 -9.4639 -5.0706 32.3822 -7.5020 -0.3812
# 5 7.9508 0.6671 7.2339 -7.5020 34.2628 -3.7394
# 6 -5.5415 -2.6255 -15.4278 -0.3812 -3.7394 52.0814
#
#
#
# Elastic Compliance Matrix: (Units=1/GPa)
#
#
# Indices 1 2 3 4 5 6 
#
# 1 0.008934 -0.003558 -0.002358 0.000892 -0.001312 -0.000015
# 2 -0.003558 0.014949 -0.001290 0.003499 0.001587 0.000132
# 3 -0.002358 -0.001290 0.007104 -0.000108 -0.000762 0.001733
# 4 0.000892 0.003499 -0.000108 0.033842 0.007268 0.001009
# 5 -0.001312 0.001587 -0.000762 0.007268 0.031433 0.002025
# 6 -0.000015 0.000132 0.001733 0.001009 0.002025 0.019872
#
#
# Mechanical properties :
#
#
# Convention : Reuss Voigt Hill
#
# Bulk Modulus (GPa) = 60.33034 72.50336 66.41685
# Shear Modulus (GPa) = 36.74572 41.66449 39.20510
#
# Velocity S-wave (km/s) = 3.98015 4.23818 4.11119
# Velocity P-wave (km/s) = 6.86523 7.43012 7.15325
#
# Compressibility (1/GPa) = 0.01657541
#
# Stress axis : x y z
#
# Youngs Moduli (GPa) = 111.92875 66.89505 140.77472
#
# Poissons Ratio (x) = 0.23800 0.33192
# Poissons Ratio (y) = 0.39822 0.18160
# Poissons Ratio (z) = 0.26391 0.08630
#
# Static dielectric constant tensor:
#      x y z
#    x 4.309430 0.145030 0.240210 
#    y 0.145030 4.191810 0.053820 
#    z 0.240210 0.053820 4.009550 
# 
# 
# High freq. dielectric constant tensor:
#      x y z
#    x 1.921190 -0.001150 0.028750 
#    y -0.001150 1.931560 0.016880 
#    z 0.028750 0.016880 1.908890 
# 
# From -- ./inp_files/472442.got.cif
#   From: 2010.06.25/outbox.cif.g09.slc.cpg/sg2_237_cif.got.tgz:472442.got - 2010.06.27 13:26:56.
