data_PCOD8022247
_publ_section_title
;
Structure prediction by ZEFSAII (Michael W. Deem and Ramdas Pophale) SiO2 
 PCOD8022247
Probable space group: P -1
;
_chemical_formula_sum "Si O2"
_cell_formula_units_Z 14
_cell_length_a 9.537313
_cell_length_b 8.661709
_cell_length_c 8.558632
_cell_angle_alpha 106.644252
_cell_angle_beta 75.197786
_cell_angle_gamma 108.478048
_cell_volume 631.836107
_symmetry_space_group_name_H-M "P -1"
_symmetry_group_IT_number 2
_symmetry_cell_setting 'triclinic'
loop_
_space_group_symop_operation_xyz
x,y,z
-x,-y,-z
loop_
_atom_site_type_symbol
_atom_site_label
_atom_site_fract_x
_atom_site_fract_y
_atom_site_fract_z
Si Si1 0.825490 0.984428 0.038615
Si Si2 0.055020 0.256775 0.473247
Si Si3 0.147013 0.937113 0.282556
Si Si4 0.337900 0.461373 0.615678
Si Si5 0.801871 0.267743 0.344780
Si Si6 0.397022 0.875999 0.376668
Si Si7 0.589681 0.668545 0.113481
O O1 0.729158 0.788532 0.011567
O O2 0.773534 0.084260 0.224060
O O3 0.805400 0.082875 0.914981
O O4 0.000000 0.000000 0.000000
O O5 0.224654 0.355751 0.488507
O O6 0.959867 0.230641 0.656173
O O7 0.975260 0.337236 0.378469
O O8 0.056529 0.076987 0.353775
O O9 0.303659 0.986697 0.345906
O O10 0.500000 0.500000 0.500000
O O11 0.263884 0.615044 0.718273
O O12 0.343340 0.371789 0.752623
O O13 0.709049 0.265499 0.528926
O O14 0.476404 0.782853 0.203722
O O15 0.500000 0.000000 0.500000
O O16 0.500000 0.500000 0.000000
#
# Coordination Sequence:
#
# PCOD8022247 Si02
#       7
#     2   2   2   2   2   2   2
#     4  12  25  46  70 102 140 188 233 293 350 426
#     4  10  22  45  69 103 137 178 238 294 342 428
#     4  10  23  39  74  97 134 181 234 282 357 406
#     4  12  26  44  71 100 140 186 231 292 356 412
#     4  11  24  43  73 102 137 184 239 286 354 422
#     4  11  22  44  70 101 136 184 240 291 339 426
#     4  12  29  46  67 106 152 179 235 299 358 409
#
# _framework density 22.157647999999998
#
# number of rings (size 3 to 8) (size 9 to 14) (size 15 to 20)
#    0.000    0.857    4.286    2.143    6.000    0.571 
#    5.143    1.429    0.000    0.000    0.000    0.000 
#    0.000    0.000    0.000    0.000    0.000    0.000 
#
# Total GULP energy -173450.842011 kJ/mol
# GULP energy per Si atom -12389.345858 kJ/mol
# Density = 2.210722 g / cm^3
# Si number density = 22.157648 Si / 1000 Ang^3
#
#
#
# Elastic Constant Matrix: (Units=GPa)
#
#
# Indices 1 2 3 4 5 6 
#
# 1 156.2986 46.0129 38.0221 -6.6104 5.8231 2.2645
# 2 46.0129 89.8399 32.4524 3.6729 -5.1845 11.5939
# 3 38.0221 32.4524 88.2610 -4.2735 -1.1666 8.5139
# 4 -6.6104 3.6729 -4.2735 39.5677 -2.6131 6.7048
# 5 5.8231 -5.1845 -1.1666 -2.6131 34.5135 0.9476
# 6 2.2645 11.5939 8.5139 6.7048 0.9476 45.9751
#
#
#
# Elastic Compliance Matrix: (Units=1/GPa)
#
#
# Indices 1 2 3 4 5 6 
#
# 1 0.008110 -0.003618 -0.002207 0.001192 -0.001918 0.000787
# 2 -0.003618 0.014896 -0.003709 -0.001756 0.002664 -0.002690
# 3 -0.002207 -0.003709 0.013913 0.001816 0.000473 -0.001807
# 4 0.001192 -0.001756 0.001816 0.026600 0.001717 -0.003867
# 5 -0.001918 0.002664 0.000473 0.001717 0.029886 -0.001531
# 6 0.000787 -0.002690 -0.001807 -0.003867 -0.001531 0.023321
#
#
# Mechanical properties :
#
#
# Convention : Reuss Voigt Hill
#
# Bulk Modulus (GPa) = 56.01628 63.04158 59.52893
# Shear Modulus (GPa) = 35.27471 38.53874 36.90672
#
# Velocity S-wave (km/s) = 3.99430 4.17501 4.08566
# Velocity P-wave (km/s) = 6.82702 7.19403 7.01293
#
# Compressibility (1/GPa) = 0.01785195
#
# Stress axis : x y z
#
# Youngs Moduli (GPa) = 123.29821 67.13140 71.87443
#
# Poissons Ratio (x) = 0.24285 0.15865
# Poissons Ratio (y) = 0.44604 0.26658
# Poissons Ratio (z) = 0.27216 0.24899
#
# Static dielectric constant tensor:
#      x y z
#    x 4.137120 0.864980 -0.499330 
#    y 0.864980 2.707510 -0.046530 
#    z -0.499330 -0.046530 4.507610 
# 
# 
# High freq. dielectric constant tensor:
#      x y z
#    x 1.899080 -0.005190 0.001290 
#    y -0.005190 1.858440 -0.008110 
#    z 0.001290 -0.008110 1.860840 
# 
# From -- ./inp_files/157650.got.cif
#   From: 2010.06.25/outbox.cif.g09.slc.cpg/sg2_79_cif.got.tgz:157650.got - 2010.06.27 13:26:56.
