data_PCOD8022505
_publ_section_title
;
Structure prediction by ZEFSAII (Michael W. Deem and Ramdas Pophale) SiO2 
 PCOD8022505
Probable space group: P -1
;
_chemical_formula_sum "Si O2"
_cell_formula_units_Z 14
_cell_length_a 19.349239
_cell_length_b 8.130422
_cell_length_c 8.168334
_cell_angle_alpha 56.510222
_cell_angle_beta 137.721085
_cell_angle_gamma 135.377239
_cell_volume 606.383076
_symmetry_space_group_name_H-M "P -1"
_symmetry_group_IT_number 2
_symmetry_cell_setting 'triclinic'
loop_
_space_group_symop_operation_xyz
x,y,z
-x,-y,-z
loop_
_atom_site_type_symbol
_atom_site_label
_atom_site_fract_x
_atom_site_fract_y
_atom_site_fract_z
Si Si1 0.271925 0.160101 0.015679
Si Si2 0.122732 0.036688 0.119659
Si Si3 0.878849 0.394800 0.533054
Si Si4 0.464798 0.080526 0.555687
Si Si5 0.329795 0.591188 0.699513
Si Si6 0.293595 0.506697 0.310995
Si Si7 0.842545 0.271753 0.177190
O O1 0.355035 0.429062 0.949189
O O2 0.226992 0.990785 0.871733
O O3 0.154161 0.115935 0.939440
O O4 0.353731 0.113356 0.306388
O O5 0.236762 0.239144 0.310256
O O6 0.114019 0.795226 0.245961
O O7 0.000000 0.000000 0.000000
O O8 0.807136 0.481509 0.463694
O O9 0.808476 0.280281 0.301480
O O10 0.013672 0.622869 0.625621
O O11 0.588159 0.324037 0.691371
O O12 0.500000 0.000000 0.500000
O O13 0.423254 0.873930 0.732445
O O14 0.337548 0.530144 0.560120
O O15 0.192805 0.574380 0.076962
#
# Coordination Sequence:
#
# PCOD8022505 Si02
#       7
#     2   2   2   2   2   2   2
#     4  12  25  45  72 101 137 177 230 271 344 398
#     4  12  25  43  68 102 136 181 222 279 336 407
#     4  11  24  43  66  99 141 173 231 275 342 397
#     4  10  22  46  71  97 136 176 229 280 331 398
#     4  11  24  44  70 101 134 181 221 280 336 404
#     4  11  23  44  70  97 140 173 226 279 337 391
#     4  11  23  42  68  99 135 180 220 287 329 406
#
# _framework density 23.087713999999998
#
# number of rings (size 3 to 8) (size 9 to 14) (size 15 to 20)
#    0.000    0.857    5.714    1.714    4.000    4.571 
#    2.571    1.429    0.000    0.000    0.000    0.000 
#    0.000    0.000    0.000    0.000    0.000    0.000 
#
# Total GULP energy -173540.733030 kJ/mol
# GULP energy per Si atom -12395.766645 kJ/mol
# Density = 2.303517 g / cm^3
# Si number density = 23.087714 Si / 1000 Ang^3
#
#
#
# Elastic Constant Matrix: (Units=GPa)
#
#
# Indices 1 2 3 4 5 6 
#
# 1 74.6455 23.2985 14.8831 -2.4313 1.9682 11.4332
# 2 23.2985 131.9705 28.8256 -6.2376 0.4300 11.3709
# 3 14.8831 28.8256 51.3684 -10.8975 -1.2457 4.8678
# 4 -2.4313 -6.2376 -10.8975 46.1813 5.6489 -2.8339
# 5 1.9682 0.4300 -1.2457 5.6489 31.3844 -3.4851
# 6 11.4332 11.3709 4.8678 -2.8339 -3.4851 29.3617
#
#
#
# Elastic Compliance Matrix: (Units=1/GPa)
#
#
# Indices 1 2 3 4 5 6 
#
# 1 0.015329 -0.001587 -0.003169 -0.000272 -0.001576 -0.005042
# 2 -0.001587 0.009009 -0.004395 0.000016 -0.000445 -0.002193
# 3 -0.003169 -0.004395 0.023931 0.004819 0.000282 -0.000533
# 4 -0.000272 0.000016 0.004819 0.023319 -0.003868 0.001092
# 5 -0.001576 -0.000445 0.000282 -0.003868 0.033153 0.004301
# 6 -0.005042 -0.002193 -0.000533 0.001092 0.004301 0.037575
#
#
# Mechanical properties :
#
#
# Convention : Reuss Voigt Hill
#
# Bulk Modulus (GPa) = 33.36983 43.55541 38.46262
# Shear Modulus (GPa) = 29.30712 34.11729 31.71221
#
# Velocity S-wave (km/s) = 3.56670 3.84829 3.71017
# Velocity P-wave (km/s) = 5.60774 6.21707 5.92025
#
# Compressibility (1/GPa) = 0.02996719
#
# Stress axis : x y z
#
# Youngs Moduli (GPa) = 65.23629 111.00188 41.78628
#
# Poissons Ratio (x) = 0.17620 0.13240
# Poissons Ratio (y) = 0.10355 0.18365
# Poissons Ratio (z) = 0.20671 0.48785
#
# Static dielectric constant tensor:
#      x y z
#    x 4.601720 0.484630 0.247990 
#    y 0.484630 4.871290 0.074270 
#    z 0.247990 0.074270 4.138310 
# 
# 
# High freq. dielectric constant tensor:
#      x y z
#    x 1.916060 0.008830 0.005200 
#    y 0.008830 1.924960 -0.011100 
#    z 0.005200 -0.011100 1.884500 
# 
# From -- ./inp_files/233312.got.cif
#   From: 2010.06.25/outbox.cif.g09.slc.cpg/sg2_117_cif.got.tgz:233312.got - 2010.06.27 13:26:56.
