data_PCOD8022858
_publ_section_title
;
Structure prediction by ZEFSAII (Michael W. Deem and Ramdas Pophale) SiO2 
 PCOD8022858
Probable space group: P -1
;
_chemical_formula_sum "Si O2"
_cell_formula_units_Z 16
_cell_length_a 6.275373
_cell_length_b 8.697188
_cell_length_c 19.972369
_cell_angle_alpha 60.523287
_cell_angle_beta 50.335904
_cell_angle_gamma 85.359473
_cell_volume 684.857758
_symmetry_space_group_name_H-M "P -1"
_symmetry_group_IT_number 2
_symmetry_cell_setting 'triclinic'
loop_
_space_group_symop_operation_xyz
x,y,z
-x,-y,-z
loop_
_atom_site_type_symbol
_atom_site_label
_atom_site_fract_x
_atom_site_fract_y
_atom_site_fract_z
Si Si1 0.240513 0.122289 0.526718
Si Si2 0.233333 0.509614 0.635232
Si Si3 0.332761 0.404059 0.258791
Si Si4 0.348897 0.013233 0.392578
Si Si5 0.133862 0.111717 0.694488
Si Si6 0.422957 0.572919 0.067340
Si Si7 0.129478 0.322319 0.838769
Si Si8 0.788138 0.965298 0.923936
O O1 0.453826 0.323365 0.466599
O O2 0.397958 0.017141 0.464768
O O3 0.074167 0.021484 0.650062
O O4 0.976474 0.132870 0.528579
O O5 0.218811 0.338555 0.625079
O O6 0.201587 0.433482 0.731905
O O7 0.975162 0.591449 0.650969
O O8 0.396953 0.223133 0.311396
O O9 0.326273 0.410449 0.177806
O O10 0.592301 0.597261 0.186045
O O11 0.583754 0.938353 0.325581
O O12 0.858297 0.019389 0.819260
O O13 0.163702 0.649170 0.081260
O O14 0.500000 0.500000 0.000000
O O15 0.719876 0.743786 0.995180
O O16 0.062722 0.098999 0.884979
O O17 0.500000 0.000000 0.000000
#
# Coordination Sequence:
#
# PCOD8022858 Si02
#       8
#     2   2   2   2   2   2   2   2
#     4  11  25  44  68  99 142 182 218 277 341 405
#     4  10  23  43  69  94 135 180 226 268 334 402
#     4  11  24  42  70  97 133 182 222 277 345 392
#     4  11  27  42  66 103 140 176 226 275 339 404
#     4  11  25  43  70  99 136 178 227 281 329 403
#     4  10  23  39  66  96 131 172 222 280 340 399
#     4   9  20  42  65  91 133 171 224 275 329 402
#     4   9  21  44  67  95 130 175 224 278 332 392
#
# _framework density 23.362515999999999
#
# number of rings (size 3 to 8) (size 9 to 14) (size 15 to 20)
#    0.000    1.750    1.250    1.500    8.750    3.500 
#    0.000    0.000    0.000    0.000    0.000    0.000 
#    0.000    0.000    0.000    0.000    0.000    0.000 
#
# Total GULP energy -198236.307188 kJ/mol
# GULP energy per Si atom -12389.769199 kJ/mol
# Density = 2.330934 g / cm^3
# Si number density = 23.362516 Si / 1000 Ang^3
#
#
#
# Elastic Constant Matrix: (Units=GPa)
#
#
# Indices 1 2 3 4 5 6 
#
# 1 72.1136 33.0137 36.9551 5.6551 -9.7544 17.3052
# 2 33.0137 108.9633 63.0799 12.8071 7.0583 -0.5761
# 3 36.9551 63.0799 121.0891 16.8444 -8.4200 12.6412
# 4 5.6551 12.8071 16.8444 49.1373 9.6714 0.8331
# 5 -9.7544 7.0583 -8.4200 9.6714 27.7911 -0.8410
# 6 17.3052 -0.5761 12.6412 0.8331 -0.8410 23.0874
#
#
#
# Elastic Compliance Matrix: (Units=1/GPa)
#
#
# Indices 1 2 3 4 5 6 
#
# 1 0.022902 -0.007080 -0.000560 -0.002277 0.009957 -0.016591
# 2 -0.007080 0.016701 -0.008361 0.000991 -0.009304 0.009926
# 3 -0.000560 -0.008361 0.014661 -0.004151 0.007590 -0.007390
# 4 -0.002277 0.000991 -0.004151 0.023799 -0.010507 0.002763
# 5 0.009957 -0.009304 0.007590 -0.010507 0.047502 -0.009742
# 6 -0.016591 0.009926 -0.007390 0.002763 -0.009742 0.059589
#
#
# Mechanical properties :
#
#
# Convention : Reuss Voigt Hill
#
# Bulk Modulus (GPa) = 44.91662 63.14036 54.02849
# Shear Modulus (GPa) = 22.26408 31.27765 26.77087
#
# Velocity S-wave (km/s) = 3.09039 3.66293 3.38877
# Velocity P-wave (km/s) = 5.65700 6.70630 6.20387
#
# Compressibility (1/GPa) = 0.02226347
#
# Stress axis : x y z
#
# Youngs Moduli (GPa) = 43.66441 59.87594 68.20597
#
# Poissons Ratio (x) = 0.42390 0.03821
# Poissons Ratio (y) = 0.30912 0.57025
# Poissons Ratio (z) = 0.02446 0.50061
#
# Static dielectric constant tensor:
#      x y z
#    x 4.709970 0.471050 -0.944530 
#    y 0.471050 5.075340 -0.498240 
#    z -0.944530 -0.498240 5.513640 
# 
# 
# High freq. dielectric constant tensor:
#      x y z
#    x 1.907060 0.015200 -0.002190 
#    y 0.015200 1.923430 0.005130 
#    z -0.002190 0.005130 1.940790 
# 
# From -- ./inp_files/582320.got.cif
#   From: 2010.06.25/outbox.cif.g09.slc.cpg/sg2_292_cif.got.tgz:582320.got - 2010.06.27 13:26:56.
