data_PCOD8022206
_publ_section_title
;
Structure prediction by ZEFSAII (Michael W. Deem and Ramdas Pophale) SiO2 
 PCOD8022206
Probable space group: P -1
;
_chemical_formula_sum "Si O2"
_cell_formula_units_Z 16
_cell_length_a 15.169378
_cell_length_b 23.223121
_cell_length_c 23.121214
_cell_angle_alpha 12.236595
_cell_angle_beta 26.502735
_cell_angle_gamma 26.510130
_cell_volume 752.462759
_symmetry_space_group_name_H-M "P -1"
_symmetry_group_IT_number 2
_symmetry_cell_setting 'triclinic'
loop_
_space_group_symop_operation_xyz
x,y,z
-x,-y,-z
loop_
_atom_site_type_symbol
_atom_site_label
_atom_site_fract_x
_atom_site_fract_y
_atom_site_fract_z
Si Si1 0.462032 0.233940 0.064766
Si Si2 0.752565 0.646689 0.181428
Si Si3 0.982629 0.426949 0.515886
Si Si4 0.773832 0.160197 0.045469
Si Si5 0.469789 0.326084 0.487780
Si Si6 0.216772 0.512998 0.041823
Si Si7 0.557563 0.184039 0.707280
Si Si8 0.416473 0.009339 0.476183
O O1 0.434123 0.421909 0.838872
O O2 0.690677 0.212008 0.977236
O O3 0.288344 0.369203 0.079454
O O4 0.446919 0.924384 0.359782
O O5 0.724320 0.341934 0.479681
O O6 0.659692 0.714507 0.233533
O O7 0.984872 0.670267 0.020986
O O8 0.634078 0.859065 0.994816
O O9 0.770776 0.566468 0.475257
O O10 0.000000 0.500000 0.500000
O O11 0.035593 0.094382 0.806457
O O12 0.151704 0.563683 0.248986
O O13 0.584800 0.095312 0.253132
O O14 0.540750 0.232011 0.602140
O O15 0.228417 0.271541 0.320749
O O16 0.358072 0.724921 0.769383
O O17 0.500000 0.000000 0.500000
#
# Coordination Sequence:
#
# PCOD8022206 Si02
#       8
#     2   2   2   2   2   2   2   2
#     4  11  21  38  57  87 125 162 199 244 300 375
#     4  10  22  45  68  86 120 157 213 247 321 371
#     4  12  21  35  58  86 121 165 205 240 291 371
#     4  11  21  37  55  83 123 165 201 240 299 357
#     4  12  23  36  60  91 127 155 207 254 310 361
#     4  11  23  42  68  87 118 173 206 242 311 376
#     4  10  23  42  65  93 119 156 195 275 313 357
#     4  11  24  40  61  92 127 159 206 259 297 352
#
# _framework density 21.26351
#
# number of rings (size 3 to 8) (size 9 to 14) (size 15 to 20)
#    0.000    1.000    2.500    6.000    0.000    2.000 
#    0.000    3.750    0.000    0.000    0.000    0.000 
#    0.000    0.000    0.000    0.000    0.000    0.000 
#
# Total GULP energy -198356.010873 kJ/mol
# GULP energy per Si atom -12397.250680 kJ/mol
# Density = 2.121511 g / cm^3
# Si number density = 21.263510 Si / 1000 Ang^3
#
#
#
# Elastic Constant Matrix: (Units=GPa)
#
#
# Indices 1 2 3 4 5 6 
#
# 1 90.4204 32.0483 12.3031 -0.5100 19.2445 6.7978
# 2 32.0483 87.9828 15.6425 2.5235 -3.5563 -6.9580
# 3 12.3031 15.6425 90.4053 -5.0406 14.2927 2.0485
# 4 -0.5100 2.5235 -5.0406 30.2159 -1.5610 -1.6423
# 5 19.2445 -3.5563 14.2927 -1.5610 28.9952 2.8488
# 6 6.7978 -6.9580 2.0485 -1.6423 2.8488 17.9850
#
#
#
# Elastic Compliance Matrix: (Units=1/GPa)
#
#
# Indices 1 2 3 4 5 6 
#
# 1 0.016515 -0.007246 0.001013 0.000055 -0.011628 -0.007314
# 2 -0.007246 0.015508 -0.003110 -0.001128 0.007415 0.007815
# 3 0.001013 -0.003110 0.012724 0.001940 -0.007050 -0.001741
# 4 0.000055 -0.001128 0.001940 0.033664 0.000453 0.002324
# 5 -0.011628 0.007415 -0.007050 0.000453 0.046543 0.000736
# 6 -0.007314 0.007815 -0.001741 0.002324 0.000736 0.061684
#
#
# Mechanical properties :
#
#
# Convention : Reuss Voigt Hill
#
# Bulk Modulus (GPa) = 38.36930 43.19958 40.78444
# Shear Modulus (GPa) = 23.36363 29.36021 26.36192
#
# Velocity S-wave (km/s) = 3.31836 3.71991 3.52486
# Velocity P-wave (km/s) = 5.72415 6.22983 5.98233
#
# Compressibility (1/GPa) = 0.02606250
#
# Stress axis : x y z
#
# Youngs Moduli (GPa) = 60.55247 64.48237 78.59347
#
# Poissons Ratio (x) = 0.46722 -0.07964
# Poissons Ratio (y) = 0.43874 0.24439
# Poissons Ratio (z) = -0.06136 0.20051
#
# Static dielectric constant tensor:
#      x y z
#    x 3.574420 -0.278960 0.193010 
#    y -0.278960 3.783850 -0.388040 
#    z 0.193010 -0.388040 4.329780 
# 
# 
# High freq. dielectric constant tensor:
#      x y z
#    x 1.810720 -0.000990 0.016190 
#    y -0.000990 1.825220 -0.003940 
#    z 0.016190 -0.003940 1.861290 
# 
# From -- ./inp_files/612379.got.cif
#   From: 2010.06.25/outbox.cif.g09.slc.cpg/sg2_307_cif.got.tgz:612379.got - 2010.06.27 13:26:56.
