data_PCOD8022571
_publ_section_title
;
Structure prediction by ZEFSAII (Michael W. Deem and Ramdas Pophale) SiO2 
 PCOD8022571
Probable space group: P -1
;
_chemical_formula_sum "Si O2"
_cell_formula_units_Z 16
_cell_length_a 18.202150
_cell_length_b 5.052254
_cell_length_c 8.756986
_cell_angle_alpha 106.079929
_cell_angle_beta 94.437155
_cell_angle_gamma 120.576236
_cell_volume 642.602813
_symmetry_space_group_name_H-M "P -1"
_symmetry_group_IT_number 2
_symmetry_cell_setting 'triclinic'
loop_
_space_group_symop_operation_xyz
x,y,z
-x,-y,-z
loop_
_atom_site_type_symbol
_atom_site_label
_atom_site_fract_x
_atom_site_fract_y
_atom_site_fract_z
Si Si1 0.117055 0.057777 0.496605
Si Si2 0.600135 0.825494 0.175465
Si Si3 0.991698 0.024065 0.249044
Si Si4 0.459641 0.373927 0.308178
Si Si5 0.921377 0.510273 0.917701
Si Si6 0.767541 0.220059 0.476763
Si Si7 0.611020 0.245853 0.968573
Si Si8 0.271637 0.852146 0.209632
O O1 0.049585 0.892349 0.313526
O O2 0.162862 0.450969 0.551506
O O3 0.191520 0.984892 0.497019
O O4 0.060994 0.923575 0.620993
O O5 0.514464 0.671759 0.245755
O O6 0.687168 0.986397 0.316062
O O7 0.595216 0.539997 0.023003
O O8 0.601241 0.093915 0.111363
O O9 0.061728 0.380023 0.240032
O O10 0.924169 0.790504 0.069042
O O11 0.500000 0.500000 0.500000
O O12 0.461918 0.056165 0.202314
O O13 0.354316 0.240718 0.272534
O O14 0.820674 0.189365 0.861800
O O15 0.000000 0.500000 0.000000
O O16 0.734059 0.283493 0.640540
O O17 0.707924 0.366960 0.934221
#
# Coordination Sequence:
#
# PCOD8022571 Si02
#       8
#     2   2   2   2   2   2   2   2
#     4  11  26  44  70 103 140 185 239 295 354 422
#     4  12  23  47  70 109 139 190 230 297 343 424
#     4  10  25  42  67  99 138 185 236 297 358 418
#     4  10  22  47  71 106 145 190 231 286 360 421
#     4  11  23  44  69 100 141 188 237 294 357 424
#     4  12  25  44  71 102 146 184 237 288 356 427
#     4  10  26  43  74 102 144 182 242 287 351 415
#     4  10  24  45  68 104 143 187 236 292 352 427
#
# _framework density 24.898741000000001
#
# number of rings (size 3 to 8) (size 9 to 14) (size 15 to 20)
#    0.750    0.500    2.500    2.250    5.250    2.000 
#    2.250    2.500    0.000    0.000    0.000    0.000 
#    0.000    0.000    0.000    0.000    0.000    0.000 
#
# Total GULP energy -198276.204167 kJ/mol
# GULP energy per Si atom -12392.262760 kJ/mol
# Density = 2.484207 g / cm^3
# Si number density = 24.898741 Si / 1000 Ang^3
#
#
#
# Elastic Constant Matrix: (Units=GPa)
#
#
# Indices 1 2 3 4 5 6 
#
# 1 105.7529 50.6734 51.0111 -13.8726 8.2326 26.0947
# 2 50.6734 87.7355 46.9657 -6.5798 4.5567 23.8930
# 3 51.0111 46.9657 149.6156 -10.8471 2.1578 26.2749
# 4 -13.8726 -6.5798 -10.8471 35.9002 18.3260 3.2553
# 5 8.2326 4.5567 2.1578 18.3260 27.5300 -2.3529
# 6 26.0947 23.8930 26.2749 3.2553 -2.3529 50.3873
#
#
#
# Elastic Compliance Matrix: (Units=1/GPa)
#
#
# Indices 1 2 3 4 5 6 
#
# 1 0.017303 -0.005559 -0.001899 0.012258 -0.012840 -0.006726
# 2 -0.005559 0.017497 -0.002654 0.002056 -0.002761 -0.004296
# 3 -0.001899 -0.002654 0.008821 0.002471 -0.001550 -0.002590
# 4 0.012258 0.002056 0.002471 0.057233 -0.043524 -0.014341
# 5 -0.012840 -0.002761 -0.001550 -0.043524 0.070988 0.014894
# 6 -0.006726 -0.004296 -0.002590 -0.014341 0.014894 0.028339
#
#
# Mechanical properties :
#
#
# Convention : Reuss Voigt Hill
#
# Bulk Modulus (GPa) = 42.74232 71.15606 56.94919
# Shear Modulus (GPa) = 21.91028 35.72710 28.81869
#
# Velocity S-wave (km/s) = 2.96966 3.79211 3.40580
# Velocity P-wave (km/s) = 5.38165 6.91474 6.19580
#
# Compressibility (1/GPa) = 0.02339602
#
# Stress axis : x y z
#
# Youngs Moduli (GPa) = 57.79312 57.15361 113.36974
#
# Poissons Ratio (x) = 0.31773 0.21533
# Poissons Ratio (y) = 0.32128 0.30085
# Poissons Ratio (z) = 0.10977 0.15167
#
# Static dielectric constant tensor:
#      x y z
#    x 4.332460 0.382990 -0.070310 
#    y 0.382990 4.392540 0.120270 
#    z -0.070310 0.120270 4.916500 
# 
# 
# High freq. dielectric constant tensor:
#      x y z
#    x 1.985440 0.023060 -0.003140 
#    y 0.023060 1.980800 -0.002450 
#    z -0.003140 -0.002450 2.014340 
# 
# From -- ./inp_files/340408.got.cif
#   From: 2010.06.25/outbox.cif.g09.slc.cpg/sg2_171_cif.got.tgz:340408.got - 2010.06.27 13:26:56.
