data_PCOD8022187
_publ_section_title
;
Structure prediction by ZEFSAII (Michael W. Deem and Ramdas Pophale) SiO2 
 PCOD8022187
Probable space group: P -1
;
_chemical_formula_sum "Si O2"
_cell_formula_units_Z 12
_cell_length_a 16.570589
_cell_length_b 5.459952
_cell_length_c 8.746269
_cell_angle_alpha 114.878437
_cell_angle_beta 140.882767
_cell_angle_gamma 70.049812
_cell_volume 452.767580
_symmetry_space_group_name_H-M "P -1"
_symmetry_group_IT_number 2
_symmetry_cell_setting 'triclinic'
loop_
_space_group_symop_operation_xyz
x,y,z
-x,-y,-z
loop_
_atom_site_type_symbol
_atom_site_label
_atom_site_fract_x
_atom_site_fract_y
_atom_site_fract_z
Si Si1 0.859688 0.513807 0.858943
Si Si2 0.497537 0.211346 0.349047
Si Si3 0.687952 0.135550 0.856104
Si Si4 0.053174 0.650941 0.761473
Si Si5 0.584658 0.632575 0.030187
Si Si6 0.802234 0.896348 0.610376
O O1 0.782177 0.746576 0.709855
O O2 0.791363 0.222060 0.678775
O O3 0.874832 0.569558 0.078580
O O4 0.000000 0.500000 0.000000
O O5 0.500000 0.500000 0.500000
O O6 0.622022 0.066060 0.573276
O O7 0.506353 0.183146 0.169215
O O8 0.360967 0.091439 0.161963
O O9 0.643852 0.420853 0.939702
O O10 0.842218 0.126395 0.071768
O O11 0.000000 0.500000 0.500000
O O12 0.942427 0.813559 0.731402
O O13 0.500000 0.500000 0.000000
O O14 0.697590 0.793182 0.313132
#
# Coordination Sequence:
#
# PCOD8022187 Si02
#       6
#     2   2   2   2   2   2
#     4  10  24  46  68 101 149 185 231 282 362 426
#     4   9  22  43  65  97 133 180 229 290 346 417
#     4  10  22  45  67  99 139 177 238 289 359 411
#     4  11  22  43  73 103 137 183 234 296 350 425
#     4  11  25  42  69  99 137 185 239 290 349 429
#     4  11  25  48  69 109 143 189 232 293 361 425
#
# _framework density 26.503665000000002
#
# number of rings (size 3 to 8) (size 9 to 14) (size 15 to 20)
#    0.000    1.667    1.667    2.000    4.667    4.667 
#   15.000    8.333    0.000    0.000    0.000    0.000 
#    0.000    0.000    0.000    0.000    0.000    0.000 
#
# Total GULP energy -148677.274945 kJ/mol
# GULP energy per Si atom -12389.772912 kJ/mol
# Density = 2.644334 g / cm^3
# Si number density = 26.503665 Si / 1000 Ang^3
#
#
#
# Elastic Constant Matrix: (Units=GPa)
#
#
# Indices 1 2 3 4 5 6 
#
# 1 110.9744 49.7910 85.9921 -15.8041 2.6222 39.3658
# 2 49.7910 149.3399 86.1656 -5.2159 -4.9045 33.4312
# 3 85.9921 86.1656 236.3405 -6.1687 -17.0924 38.0851
# 4 -15.8041 -5.2159 -6.1687 40.4104 13.8457 4.4657
# 5 2.6222 -4.9045 -17.0924 13.8457 68.6737 -2.7945
# 6 39.3658 33.4312 38.0851 4.4657 -2.7945 49.5624
#
#
#
# Elastic Compliance Matrix: (Units=1/GPa)
#
#
# Indices 1 2 3 4 5 6 
#
# 1 0.018488 -0.000670 -0.004661 0.009180 -0.004242 -0.011716
# 2 -0.000670 0.009264 -0.002497 0.001093 -0.000314 -0.003914
# 3 -0.004661 -0.002497 0.006879 -0.001858 0.002102 0.000387
# 4 0.009180 0.001093 -0.001858 0.031880 -0.007565 -0.009900
# 5 -0.004242 -0.000314 0.002102 -0.007565 0.016896 0.003600
# 6 -0.011716 -0.003914 0.000387 -0.009900 0.003600 0.032920
#
#
# Mechanical properties :
#
#
# Convention : Reuss Voigt Hill
#
# Bulk Modulus (GPa) = 52.70613 104.50581 78.60597
# Shear Modulus (GPa) = 36.15081 50.04305 43.09693
#
# Velocity S-wave (km/s) = 3.69723 4.35001 4.03684
# Velocity P-wave (km/s) = 6.17702 8.04651 7.17293
#
# Compressibility (1/GPa) = 0.01897312
#
# Stress axis : x y z
#
# Youngs Moduli (GPa) = 54.09020 107.93900 145.37245
#
# Poissons Ratio (x) = 0.07234 0.67765
# Poissons Ratio (y) = 0.03625 0.36304
# Poissons Ratio (z) = 0.25214 0.26955
#
# Static dielectric constant tensor:
#      x y z
#    x 5.187450 0.349770 -0.074340 
#    y 0.349770 5.711310 -0.661760 
#    z -0.074340 -0.661760 5.665790 
# 
# 
# High freq. dielectric constant tensor:
#      x y z
#    x 2.085790 0.006380 0.003630 
#    y 0.006380 2.067630 -0.000800 
#    z 0.003630 -0.000800 2.085120 
# 
# From -- ./inp_files/30730.got.cif
#   From: 2010.06.25/outbox.cif.g09.slc.cpg/sg2_16_cif.got.tgz:30730.got - 2010.06.27 13:26:56.
