data_PCOD8022835
_publ_section_title
;
Structure prediction by ZEFSAII (Michael W. Deem and Ramdas Pophale) SiO2 
 PCOD8022835
Probable space group: P -1
;
_chemical_formula_sum "Si O2"
_cell_formula_units_Z 14
_cell_length_a 9.038133
_cell_length_b 20.006614
_cell_length_c 14.518270
_cell_angle_alpha 29.584888
_cell_angle_beta 32.969294
_cell_angle_gamma 50.990979
_cell_volume 654.505152
_symmetry_space_group_name_H-M "P -1"
_symmetry_group_IT_number 2
_symmetry_cell_setting 'triclinic'
loop_
_space_group_symop_operation_xyz
x,y,z
-x,-y,-z
loop_
_atom_site_type_symbol
_atom_site_label
_atom_site_fract_x
_atom_site_fract_y
_atom_site_fract_z
Si Si1 0.651592 0.386382 0.743469
Si Si2 0.301566 0.076748 0.803079
Si Si3 0.714434 0.901380 0.817239
Si Si4 0.321194 0.634406 0.845854
Si Si5 0.653899 0.460124 0.379063
Si Si6 0.284805 0.548003 0.167456
Si Si7 0.610031 0.867808 0.108137
O O1 0.534980 0.519194 0.634021
O O2 0.684480 0.357201 0.869290
O O3 0.960059 0.421248 0.487808
O O4 0.401707 0.252737 0.986844
O O5 0.515867 0.210786 0.471797
O O6 0.234828 0.125742 0.881475
O O7 0.456976 0.962760 0.872404
O O8 0.000000 0.000000 0.000000
O O9 0.813607 0.886868 0.888454
O O10 0.000000 0.000000 0.500000
O O11 0.474400 0.523353 0.872561
O O12 0.327204 0.653332 0.931179
O O13 0.988912 0.567576 0.064935
O O14 0.500000 0.500000 0.500000
O O15 0.642080 0.293886 0.580425
O O16 0.500000 0.000000 0.000000
#
# Coordination Sequence:
#
# PCOD8022835 Si02
#       7
#     2   2   2   2   2   2   2
#     4  11  22  41  62  97 130 167 211 272 333 372
#     4  11  25  43  63  92 133 176 215 268 324 392
#     4  11  23  40  63  91 128 170 213 264 320 389
#     4  11  23  43  65  96 126 175 229 263 325 399
#     4  12  22  40  72  98 129 166 223 282 315 383
#     4  10  23  39  65  90 131 166 211 272 328 388
#     4  10  24  44  66  93 135 175 213 267 338 384
#
# _framework density 21.390208000000001
#
# number of rings (size 3 to 8) (size 9 to 14) (size 15 to 20)
#    0.000    1.143    2.857    2.571    0.000   10.286 
#    0.000    1.429    0.000    0.000    0.000    0.000 
#    0.000    0.000    0.000    0.000    0.000    0.000 
#
# Total GULP energy -173516.044091 kJ/mol
# GULP energy per Si atom -12394.003149 kJ/mol
# Density = 2.134152 g / cm^3
# Si number density = 21.390208 Si / 1000 Ang^3
#
#
#
# Elastic Constant Matrix: (Units=GPa)
#
#
# Indices 1 2 3 4 5 6 
#
# 1 144.3939 41.8744 78.3154 8.5071 10.4767 22.5587
# 2 41.8744 72.3457 45.2245 -4.1977 -5.0783 8.1213
# 3 78.3154 45.2245 156.6827 9.9073 0.2167 21.4798
# 4 8.5071 -4.1977 9.9073 38.5476 -3.8155 -4.8277
# 5 10.4767 -5.0783 0.2167 -3.8155 42.6451 8.5006
# 6 22.5587 8.1213 21.4798 -4.8277 8.5006 37.5501
#
#
#
# Elastic Compliance Matrix: (Units=1/GPa)
#
#
# Indices 1 2 3 4 5 6 
#
# 1 0.010962 -0.003999 -0.003702 -0.002588 -0.002720 -0.003320
# 2 -0.003999 0.018984 -0.003785 0.004305 0.003608 0.000198
# 3 -0.003702 -0.003785 0.009908 -0.002452 0.000812 -0.003124
# 4 -0.002588 0.004305 -0.002452 0.028516 0.002699 0.005082
# 5 -0.002720 0.003608 0.000812 0.002699 0.025802 -0.005105
# 6 -0.003320 0.000198 -0.003124 0.005082 -0.005105 0.032178
#
#
# Mechanical properties :
#
#
# Convention : Reuss Voigt Hill
#
# Bulk Modulus (GPa) = 59.23919 78.25010 68.74464
# Shear Modulus (GPa) = 32.26876 37.61576 34.94226
#
# Velocity S-wave (km/s) = 3.88825 4.19806 4.04612
# Velocity P-wave (km/s) = 6.92190 7.75628 7.35094
#
# Compressibility (1/GPa) = 0.01688072
#
# Stress axis : x y z
#
# Youngs Moduli (GPa) = 91.22708 52.67607 100.93304
#
# Poissons Ratio (x) = 0.21064 0.37369
# Poissons Ratio (y) = 0.36480 0.38204
# Poissons Ratio (z) = 0.33775 0.19938
#
# Static dielectric constant tensor:
#      x y z
#    x 4.417910 0.112370 0.396700 
#    y 0.112370 3.910690 0.055350 
#    z 0.396700 0.055350 3.922280 
# 
# 
# High freq. dielectric constant tensor:
#      x y z
#    x 1.857990 0.005180 0.016740 
#    y 0.005180 1.835950 0.001870 
#    z 0.016740 0.001870 1.835480 
# 
# From -- ./inp_files/159842.got.cif
#   From: 2010.06.25/outbox.cif.g09.slc.cpg/sg2_80_cif.got.tgz:159842.got - 2010.06.27 13:26:56.
