data_PCOD8022101
_publ_section_title
;
Structure prediction by ZEFSAII (Michael W. Deem and Ramdas Pophale) SiO2 
 PCOD8022101
Probable space group: P -1
;
_chemical_formula_sum "Si O2"
_cell_formula_units_Z 14
_cell_length_a 9.268235
_cell_length_b 11.210935
_cell_length_c 8.330272
_cell_angle_alpha 90.939799
_cell_angle_beta 89.324572
_cell_angle_gamma 44.060184
_cell_volume 601.496409
_symmetry_space_group_name_H-M "P -1"
_symmetry_group_IT_number 2
_symmetry_cell_setting 'triclinic'
loop_
_space_group_symop_operation_xyz
x,y,z
-x,-y,-z
loop_
_atom_site_type_symbol
_atom_site_label
_atom_site_fract_x
_atom_site_fract_y
_atom_site_fract_z
Si Si1 0.330518 0.425148 0.916910
Si Si2 0.083769 0.937777 0.763417
Si Si3 0.146976 0.144832 0.347688
Si Si4 0.587585 0.142825 0.424532
Si Si5 0.600195 0.845286 0.878183
Si Si6 0.762146 0.273130 0.940039
Si Si7 0.833644 0.509529 0.427517
O O1 0.552302 0.350328 0.858537
O O2 0.207441 0.455857 0.761385
O O3 0.329667 0.311197 0.027773
O O4 0.221177 0.595952 0.022363
O O5 0.215843 0.884575 0.598981
O O6 0.907609 0.944106 0.741374
O O7 0.238438 0.800956 0.896145
O O8 0.961475 0.128613 0.824539
O O9 0.205344 0.211231 0.218353
O O10 0.942645 0.314998 0.450193
O O11 0.348783 0.997549 0.452082
O O12 0.567142 0.093077 0.251156
O O13 0.384123 0.340106 0.476250
O O14 0.500000 0.000000 0.000000
O O15 0.000000 0.500000 0.500000
#
# Coordination Sequence:
#
# PCOD8022101 Si02
#       7
#     2   2   2   2   2   2   2
#     4  11  24  47  75 110 147 191 247 310 363 437
#     4  11  23  47  73 109 142 194 249 299 370 438
#     4  12  27  49  74 109 152 194 242 307 368 443
#     4  12  27  48  72 105 151 197 242 302 371 437
#     4  12  26  44  75 107 144 195 244 299 372 431
#     4  10  22  44  77 109 147 185 247 316 361 428
#     4  12  27  48  71 105 152 195 242 298 370 448
#
# _framework density 23.275283999999999
#
# number of rings (size 3 to 8) (size 9 to 14) (size 15 to 20)
#    0.000    0.571    4.286    3.429    4.000    2.286 
#    0.000    0.000    0.000    0.000    0.000    0.000 
#    0.000    0.000    0.000    0.000    0.000    0.000 
#
# Total GULP energy -173555.045438 kJ/mol
# GULP energy per Si atom -12396.788960 kJ/mol
# Density = 2.322231 g / cm^3
# Si number density = 23.275284 Si / 1000 Ang^3
#
#
#
# Elastic Constant Matrix: (Units=GPa)
#
#
# Indices 1 2 3 4 5 6 
#
# 1 124.9666 50.7973 62.0703 1.6329 2.6506 6.8965
# 2 50.7973 185.2441 50.8828 23.9095 -4.6021 11.3772
# 3 62.0703 50.8828 84.5839 0.7914 12.4663 2.3139
# 4 1.6329 23.9095 0.7914 32.9679 -10.1856 8.3221
# 5 2.6506 -4.6021 12.4663 -10.1856 44.1883 1.5028
# 6 6.8965 11.3772 2.3139 8.3221 1.5028 36.7309
#
#
#
# Elastic Compliance Matrix: (Units=1/GPa)
#
#
# Indices 1 2 3 4 5 6 
#
# 1 0.013055 -0.001071 -0.009208 0.001501 0.002116 -0.001966
# 2 -0.001071 0.007398 -0.003718 -0.004768 0.000812 -0.000809
# 3 -0.009208 -0.003718 0.021637 0.000386 -0.005907 0.001672
# 4 0.001501 -0.004768 0.000386 0.038281 0.008395 -0.007846
# 5 0.002116 0.000812 -0.005907 0.008395 0.026300 -0.003255
# 6 -0.001966 -0.000809 0.001672 -0.007846 -0.003255 0.029650
#
#
# Mechanical properties :
#
#
# Convention : Reuss Voigt Hill
#
# Bulk Modulus (GPa) = 70.93466 80.25505 75.59485
# Shear Modulus (GPa) = 29.58307 38.18037 33.88172
#
# Velocity S-wave (km/s) = 3.56899 4.05456 3.81950
# Velocity P-wave (km/s) = 6.89392 7.51498 7.21114
#
# Compressibility (1/GPa) = 0.01409748
#
# Stress axis : x y z
#
# Youngs Moduli (GPa) = 76.59837 135.16351 46.21652
#
# Poissons Ratio (x) = 0.14478 0.42556
# Poissons Ratio (y) = 0.08205 0.17181
# Poissons Ratio (z) = 0.70532 0.50247
#
# Static dielectric constant tensor:
#      x y z
#    x 4.135370 0.075130 0.222750 
#    y 0.075130 4.757340 -0.022840 
#    z 0.222750 -0.022840 4.241260 
# 
# 
# High freq. dielectric constant tensor:
#      x y z
#    x 1.920710 -0.002170 0.019860 
#    y -0.002170 1.938350 -0.000220 
#    z 0.019860 -0.000220 1.916020 
# 
# From -- ./inp_files/187557.got.cif
#   From: 2010.06.25/outbox.cif.g09.slc.cpg/sg2_94_cif.got.tgz:187557.got - 2010.06.27 13:26:56.
