data_PCOD8022376
_publ_section_title
;
Structure prediction by ZEFSAII (Michael W. Deem and Ramdas Pophale) SiO2 
 PCOD8022376
Probable space group: P -1
;
_chemical_formula_sum "Si O2"
_cell_formula_units_Z 16
_cell_length_a 9.446554
_cell_length_b 7.755215
_cell_length_c 23.871479
_cell_angle_alpha 33.477355
_cell_angle_beta 129.344572
_cell_angle_gamma 130.904365
_cell_volume 712.740900
_symmetry_space_group_name_H-M "P -1"
_symmetry_group_IT_number 2
_symmetry_cell_setting 'triclinic'
loop_
_space_group_symop_operation_xyz
x,y,z
-x,-y,-z
loop_
_atom_site_type_symbol
_atom_site_label
_atom_site_fract_x
_atom_site_fract_y
_atom_site_fract_z
Si Si1 0.305831 0.385279 0.774184
Si Si2 0.827867 0.351609 0.039209
Si Si3 0.843927 0.646580 0.444168
Si Si4 0.943916 0.613447 0.594920
Si Si5 0.521684 0.354518 0.139617
Si Si6 0.108439 0.352005 0.910077
Si Si7 0.890861 0.634380 0.695303
Si Si8 0.499626 0.362502 0.713852
O O1 0.405448 0.640110 0.779114
O O2 0.452898 0.373828 0.764495
O O3 0.130099 0.483181 0.675598
O O4 0.245542 0.035092 0.885033
O O5 0.893686 0.395528 0.108796
O O6 0.667991 0.533269 0.939292
O O7 0.000000 0.500000 0.000000
O O8 0.805128 0.498280 0.537718
O O9 0.652262 0.534952 0.390611
O O10 0.000000 0.500000 0.500000
O O11 0.936768 0.035091 0.357420
O O12 0.827517 0.489367 0.656476
O O13 0.000000 0.000000 0.500000
O O14 0.676114 0.600216 0.070803
O O15 0.479339 0.988337 0.203962
O O16 0.984140 0.392922 0.815357
O O17 0.000000 0.000000 0.000000
O O18 0.700496 0.645490 0.677260
#
# Coordination Sequence:
#
# PCOD8022376 Si02
#       8
#     2   2   2   2   2   2   2   2
#     4  12  24  46  72 101 145 187 243 296 358 435
#     4  12  28  43  69 106 142 193 248 295 363 435
#     4  11  22  46  72 102 143 183 237 304 354 417
#     4  10  22  45  73  97 140 187 232 300 358 416
#     4  12  25  48  69 103 150 190 241 300 361 426
#     4  12  24  44  73 100 148 194 236 298 362 431
#     4  11  25  45  72 105 141 187 240 291 366 429
#     4  12  26  46  74 108 143 191 238 299 366 432
#
# _framework density 22.448550000000001
#
# number of rings (size 3 to 8) (size 9 to 14) (size 15 to 20)
#    0.000    0.500    5.000    3.000    5.250    1.000 
#    2.250    0.000    0.000    0.000    0.000    0.000 
#    0.000    0.000    0.000    0.000    0.000    0.000 
#
# Total GULP energy -198354.726130 kJ/mol
# GULP energy per Si atom -12397.170383 kJ/mol
# Density = 2.239746 g / cm^3
# Si number density = 22.448550 Si / 1000 Ang^3
#
#
#
# Elastic Constant Matrix: (Units=GPa)
#
#
# Indices 1 2 3 4 5 6 
#
# 1 160.1767 24.0018 41.4174 9.5375 -16.2201 7.9536
# 2 24.0018 42.8742 5.3440 10.6605 -13.9836 -3.7299
# 3 41.4174 5.3440 113.3270 16.5772 -3.5035 0.1976
# 4 9.5375 10.6605 16.5772 18.7954 -8.0456 3.2508
# 5 -16.2201 -13.9836 -3.5035 -8.0456 50.6718 5.9703
# 6 7.9536 -3.7299 0.1976 3.2508 5.9703 44.0369
#
#
#
# Elastic Compliance Matrix: (Units=1/GPa)
#
#
# Indices 1 2 3 4 5 6 
#
# 1 0.007765 -0.004118 -0.002886 0.002046 0.001725 -0.002123
# 2 -0.004118 0.031242 0.002612 -0.016770 0.004347 0.004027
# 3 -0.002886 0.002612 0.011298 -0.010845 -0.001341 0.001674
# 4 0.002046 -0.016770 -0.010845 0.076310 0.008397 -0.008513
# 5 0.001725 0.004347 -0.001341 0.008397 0.023163 -0.003697
# 6 -0.002123 0.004027 0.001674 -0.008513 -0.003697 0.024555
#
#
# Mechanical properties :
#
#
# Convention : Reuss Voigt Hill
#
# Bulk Modulus (GPa) = 24.08461 50.87825 37.48143
# Shear Modulus (GPa) = 25.38657 39.07513 32.23085
#
# Velocity S-wave (km/s) = 3.36650 4.17664 3.79326
# Velocity P-wave (km/s) = 5.08559 6.78032 5.99316
#
# Compressibility (1/GPa) = 0.04152029
#
# Stress axis : x y z
#
# Youngs Moduli (GPa) = 128.78977 32.00857 88.51488
#
# Poissons Ratio (x) = 0.13181 0.25544
# Poissons Ratio (y) = 0.53037 -0.23122
# Poissons Ratio (z) = 0.37167 -0.08361
#
# Static dielectric constant tensor:
#      x y z
#    x 4.371720 -0.366640 -0.105490 
#    y -0.366640 4.497810 0.256520 
#    z -0.105490 0.256520 3.310990 
# 
# 
# High freq. dielectric constant tensor:
#      x y z
#    x 1.899610 -0.013300 -0.006060 
#    y -0.013300 1.872350 0.014000 
#    z -0.006060 0.014000 1.897750 
# 
# From -- ./inp_files/356364.got.cif
#   From: 2010.06.25/outbox.cif.g09.slc.cpg/sg2_179_cif.got.tgz:356364.got - 2010.06.27 13:26:56.
