data_PCOD8022680
_publ_section_title
;
Structure prediction by ZEFSAII (Michael W. Deem and Ramdas Pophale) SiO2 
 PCOD8022680
Probable space group: P -1
;
_chemical_formula_sum "Si O2"
_cell_formula_units_Z 12
_cell_length_a 8.480466
_cell_length_b 4.994668
_cell_length_c 16.483025
_cell_angle_alpha 98.354995
_cell_angle_beta 142.154201
_cell_angle_gamma 76.833488
_cell_volume 416.396930
_symmetry_space_group_name_H-M "P -1"
_symmetry_group_IT_number 2
_symmetry_cell_setting 'triclinic'
loop_
_space_group_symop_operation_xyz
x,y,z
-x,-y,-z
loop_
_atom_site_type_symbol
_atom_site_label
_atom_site_fract_x
_atom_site_fract_y
_atom_site_fract_z
Si Si1 0.218175 0.560891 0.015984
Si Si2 0.026847 0.039618 0.856594
Si Si3 0.449389 0.551689 0.710789
Si Si4 0.242388 0.706739 0.381230
Si Si5 0.749989 0.967842 0.448820
Si Si6 0.776003 0.389938 0.210926
O O1 0.176953 0.256688 0.966925
O O2 0.264027 0.572196 0.134629
O O3 0.493038 0.585010 0.085129
O O4 0.997822 0.809874 0.903427
O O5 0.753105 0.194999 0.708506
O O6 0.185283 0.890872 0.836955
O O7 0.481279 0.792707 0.671290
O O8 0.237612 0.676153 0.700839
O O9 0.322771 0.327832 0.602266
O O10 0.500000 0.500000 0.500000
O O11 0.215961 0.978399 0.438993
O O12 0.995430 0.561926 0.284979
O O13 0.000000 0.000000 0.500000
#
# Coordination Sequence:
#
# PCOD8022680 Si02
#       6
#     2   2   2   2   2   2
#     4  10  23  37  71 104 133 158 231 291 346 374
#     4  12  22  41  65 101 140 170 215 291 341 387
#     4  10  24  37  69 102 125 168 216 292 335 375
#     4  12  29  44  66 100 144 188 219 262 339 414
#     4  12  22  44  66  95 136 175 229 272 324 399
#     4  10  23  39  67 107 132 169 224 283 341 384
#
# _framework density 28.818657999999999
#
# number of rings (size 3 to 8) (size 9 to 14) (size 15 to 20)
#    1.000    0.000    3.333    3.500    4.667    0.667 
#    0.000    0.000    0.000    6.000    0.000    0.000 
#    0.000    0.000    0.000    0.000    0.000    0.000 
#
# Total GULP energy -148741.626610 kJ/mol
# GULP energy per Si atom -12395.135551 kJ/mol
# Density = 2.875307 g / cm^3
# Si number density = 28.818658 Si / 1000 Ang^3
#
#
#
# Elastic Constant Matrix: (Units=GPa)
#
#
# Indices 1 2 3 4 5 6 
#
# 1 60.5347 -2.3748 21.5552 -5.9728 -16.6239 6.2058
# 2 -2.3748 99.8901 46.5960 6.9029 26.7317 35.0023
# 3 21.5552 46.5960 133.4376 8.2821 -30.9562 -4.6391
# 4 -5.9728 6.9029 8.2821 66.5663 -2.5677 -12.0855
# 5 -16.6239 26.7317 -30.9562 -2.5677 8.0525 -35.5093
# 6 6.2058 35.0023 -4.6391 -12.0855 -35.5093 23.0268
#
#
#
# Elastic Compliance Matrix: (Units=1/GPa)
#
#
# Indices 1 2 3 4 5 6 
#
# 1 0.019221 0.002340 -0.003374 0.001365 0.003274 -0.003652
# 2 0.002340 0.005724 -0.000116 0.000954 0.009200 0.005333
# 3 -0.003374 -0.000116 0.007022 -0.002322 -0.004366 -0.005451
# 4 0.001365 0.000954 -0.002322 0.015232 -0.003578 0.000191
# 5 0.003274 0.009200 -0.004366 -0.003578 -0.000820 -0.018889
# 6 -0.003652 0.005333 -0.005451 0.000191 -0.018889 0.006179
#
#
# Mechanical properties :
#
#
# Convention : Reuss Voigt Hill
#
# Bulk Modulus (GPa) = 33.70912 47.26834 40.48873
# Shear Modulus (GPa) = 77.22332 34.73486 55.97909
#
# Velocity S-wave (km/s) = 5.18213 3.47550 4.41212
# Velocity P-wave (km/s) = 6.89408 5.70465 6.32738
#
# Compressibility (1/GPa) = 0.02966556
#
# Stress axis : x y z
#
# Youngs Moduli (GPa) = 52.02686 174.69307 142.41950
#
# Poissons Ratio (x) = -0.40878 0.48054
# Poissons Ratio (y) = -0.12174 0.01657
# Poissons Ratio (z) = 0.17555 0.02033
#
# Static dielectric constant tensor:
#      x y z
#    x 5.557830 -0.234550 -0.405930 
#    y -0.234550 5.535380 -0.386330 
#    z -0.405930 -0.386330 6.008480 
# 
# 
# High freq. dielectric constant tensor:
#      x y z
#    x 2.172830 -0.013250 -0.014840 
#    y -0.013250 2.176690 -0.008530 
#    z -0.014840 -0.008530 2.194690 
# 
# From -- ./inp_files/592848.got.cif
#   From: 2010.06.25/outbox.cif.g09.slc.cpg/sg2_297_cif.got.tgz:592848.got - 2010.06.27 13:26:56.
