data_PCOD8022233
_publ_section_title
;
Structure prediction by ZEFSAII (Michael W. Deem and Ramdas Pophale) SiO2 
 PCOD8022233
Probable space group: P -1
;
_chemical_formula_sum "Si O2"
_cell_formula_units_Z 16
_cell_length_a 8.020538
_cell_length_b 11.832820
_cell_length_c 18.556341
_cell_angle_alpha 126.705618
_cell_angle_beta 130.544729
_cell_angle_gamma 33.031826
_cell_volume 723.556085
_symmetry_space_group_name_H-M "P -1"
_symmetry_group_IT_number 2
_symmetry_cell_setting 'triclinic'
loop_
_space_group_symop_operation_xyz
x,y,z
-x,-y,-z
loop_
_atom_site_type_symbol
_atom_site_label
_atom_site_fract_x
_atom_site_fract_y
_atom_site_fract_z
Si Si1 0.115378 0.681206 0.957380
Si Si2 0.139886 0.359647 0.398324
Si Si3 0.753644 0.894814 0.795886
Si Si4 0.057451 0.163915 0.767634
Si Si5 0.192803 0.428820 0.099892
Si Si6 0.124864 0.227822 0.477637
Si Si7 0.831547 0.063166 0.550770
Si Si8 0.077398 0.998784 0.859917
O O1 0.028253 0.773877 0.888112
O O2 0.955611 0.603790 0.893642
O O3 0.500000 0.500000 0.000000
O O4 0.970976 0.847331 0.042270
O O5 0.209725 0.263361 0.302837
O O6 0.966337 0.327437 0.390747
O O7 0.450548 0.231096 0.490056
O O8 0.945430 0.598892 0.426659
O O9 0.801775 0.010569 0.803509
O O10 0.409841 0.053193 0.799988
O O11 0.834690 0.399998 0.815393
O O12 0.876253 0.177775 0.656047
O O13 0.065109 0.052782 0.794307
O O14 0.567739 0.228465 0.111155
O O15 0.000000 0.500000 0.000000
O O16 0.500000 0.000000 0.500000
O O17 0.966864 0.164301 0.444407
O O18 0.000000 0.000000 0.500000
#
# Coordination Sequence:
#
# PCOD8022233 Si02
#       8
#     2   2   2   2   2   2   2   2
#     4  12  25  48  72 104 141 184 231 293 352 416
#     4  10  22  45  68  99 136 179 234 285 339 414
#     4  12  25  45  73 104 140 183 237 286 352 416
#     4  12  26  46  72 106 141 189 233 284 356 415
#     4  12  24  45  74 102 142 183 230 290 349 417
#     4   9  21  42  67  93 135 182 224 283 346 399
#     4  11  23  42  67  99 140 177 229 285 338 404
#     4  12  26  48  72 102 145 182 233 290 350 423
#
# _framework density 22.113005999999999
#
# number of rings (size 3 to 8) (size 9 to 14) (size 15 to 20)
#    0.000    0.750    3.750    3.750    0.000    5.500 
#    4.500    0.000    0.000    0.000    0.000    0.000 
#    0.000    0.000    0.000    0.000    0.000    0.000 
#
# Total GULP energy -198329.975831 kJ/mol
# GULP energy per Si atom -12395.623489 kJ/mol
# Density = 2.206268 g / cm^3
# Si number density = 22.113006 Si / 1000 Ang^3
#
#
#
# Elastic Constant Matrix: (Units=GPa)
#
#
# Indices 1 2 3 4 5 6 
#
# 1 137.7725 43.1495 29.4786 1.2845 -3.9152 10.2208
# 2 43.1495 125.0338 46.8202 18.6715 -1.4485 -2.7777
# 3 29.4786 46.8202 142.8219 7.9255 -14.1771 -0.0014
# 4 1.2845 18.6715 7.9255 34.9086 -3.1132 6.4174
# 5 -3.9152 -1.4485 -14.1771 -3.1132 34.5074 6.2448
# 6 10.2208 -2.7777 -0.0014 6.4174 6.2448 30.4219
#
#
#
# Elastic Compliance Matrix: (Units=1/GPa)
#
#
# Indices 1 2 3 4 5 6 
#
# 1 0.008730 -0.003166 -0.000750 0.002418 0.001499 -0.004040
# 2 -0.003166 0.011143 -0.002892 -0.006101 -0.002326 0.003845
# 3 -0.000750 -0.002892 0.008437 0.000096 0.003401 -0.000730
# 4 0.002418 -0.006101 0.000096 0.033984 0.004849 -0.009534
# 5 0.001499 -0.002326 0.003401 0.004849 0.032405 -0.008391
# 6 -0.004040 0.003845 -0.000730 -0.009534 -0.008391 0.038313
#
#
# Mechanical properties :
#
#
# Convention : Reuss Voigt Hill
#
# Bulk Modulus (GPa) = 68.04801 71.61388 69.83094
# Shear Modulus (GPa) = 32.99834 39.04623 36.02229
#
# Velocity S-wave (km/s) = 3.86717 4.20665 4.04048
# Velocity P-wave (km/s) = 7.12598 7.48667 7.30855
#
# Compressibility (1/GPa) = 0.01469551
#
# Stress axis : x y z
#
# Youngs Moduli (GPa) = 114.54863 89.74492 118.53114
#
# Poissons Ratio (x) = 0.28409 0.08885
# Poissons Ratio (y) = 0.36261 0.34276
# Poissons Ratio (z) = 0.08586 0.25952
#
# Static dielectric constant tensor:
#      x y z
#    x 4.417620 0.762760 -0.087610 
#    y 0.762760 3.943660 0.204060 
#    z -0.087610 0.204060 3.923400 
# 
# 
# High freq. dielectric constant tensor:
#      x y z
#    x 1.888790 0.007270 -0.008730 
#    y 0.007270 1.874240 0.010270 
#    z -0.008730 0.010270 1.870260 
# 
# From -- ./inp_files/559961.got.cif
#   From: 2010.06.25/outbox.cif.g09.slc.cpg/sg2_280_cif.got.tgz:559961.got - 2010.06.27 13:26:56.
