data_PCOD8022565
_publ_section_title
;
Structure prediction by ZEFSAII (Michael W. Deem and Ramdas Pophale) SiO2 
 PCOD8022565
Probable space group: P -1
;
_chemical_formula_sum "Si O2"
_cell_formula_units_Z 16
_cell_length_a 23.029607
_cell_length_b 14.240605
_cell_length_c 16.721338
_cell_angle_alpha 157.583712
_cell_angle_beta 159.726066
_cell_angle_gamma 30.103862
_cell_volume 724.524145
_symmetry_space_group_name_H-M "P -1"
_symmetry_group_IT_number 2
_symmetry_cell_setting 'triclinic'
loop_
_space_group_symop_operation_xyz
x,y,z
-x,-y,-z
loop_
_atom_site_type_symbol
_atom_site_label
_atom_site_fract_x
_atom_site_fract_y
_atom_site_fract_z
Si Si1 0.896609 0.651229 0.142496
Si Si2 0.176289 0.879285 0.154562
Si Si3 0.022754 0.139353 0.875979
Si Si4 0.405666 0.152667 0.783354
Si Si5 0.208677 0.325949 0.802273
Si Si6 0.209074 0.989796 0.847118
Si Si7 0.273244 0.062972 0.260079
Si Si8 0.430700 0.608140 0.074900
O O1 0.774529 0.642928 0.055879
O O2 0.804681 0.821313 0.094680
O O3 0.083429 0.756747 0.487297
O O4 0.907518 0.377780 0.903013
O O5 0.270831 0.950822 0.416292
O O6 0.291205 0.985174 0.314610
O O7 0.156266 0.583602 0.896616
O O8 0.000000 0.000000 0.000000
O O9 0.162169 0.132594 0.980465
O O10 0.101221 0.179188 0.098007
O O11 0.931966 0.878777 0.555982
O O12 0.375002 0.213116 0.885698
O O13 0.351097 0.398929 0.861919
O O14 0.598017 0.091581 0.965600
O O15 0.418872 0.254619 0.575437
O O16 0.290976 0.809887 0.032491
O O17 0.500000 0.500000 0.000000
#
# Coordination Sequence:
#
# PCOD8022565 Si02
#       8
#     2   2   2   2   2   2   2   2
#     4  10  22  47  69  97 127 169 216 273 341 387
#     4  12  26  41  61  91 133 179 217 255 317 391
#     4  11  23  42  69  95 131 172 219 269 325 390
#     4  12  24  41  65  98 133 171 216 272 322 385
#     4  11  25  43  63  94 135 172 220 266 322 397
#     4  10  24  42  73  99 126 164 220 280 329 388
#     4  11  23  37  61  93 125 166 209 256 315 381
#     4  11  22  38  59  90 128 163 207 263 316 371
#
# _framework density 22.083459999999999
#
# number of rings (size 3 to 8) (size 9 to 14) (size 15 to 20)
#    0.000    1.000    2.500    4.125    3.500    4.500 
#    0.000    2.500    0.000    0.000    0.000    0.000 
#    0.000    0.000    0.000    0.000    0.000    0.000 
#
# Total GULP energy -198272.656876 kJ/mol
# GULP energy per Si atom -12392.041055 kJ/mol
# Density = 2.203320 g / cm^3
# Si number density = 22.083460 Si / 1000 Ang^3
#
#
#
# Elastic Constant Matrix: (Units=GPa)
#
#
# Indices 1 2 3 4 5 6 
#
# 1 140.1905 35.4993 18.6644 9.4424 2.9058 -15.4160
# 2 35.4993 79.3802 37.0184 12.2536 -5.8372 -10.4526
# 3 18.6644 37.0184 80.4877 13.7148 0.0351 -4.7758
# 4 9.4424 12.2536 13.7148 34.7109 -1.3832 1.2879
# 5 2.9058 -5.8372 0.0351 -1.3832 27.4191 2.2852
# 6 -15.4160 -10.4526 -4.7758 1.2879 2.2852 40.9380
#
#
#
# Elastic Compliance Matrix: (Units=1/GPa)
#
#
# Indices 1 2 3 4 5 6 
#
# 1 0.008378 -0.003350 -0.000045 -0.001244 -0.001867 0.002438
# 2 -0.003350 0.018443 -0.007095 -0.002731 0.003946 0.002486
# 3 -0.000045 -0.007095 0.016406 -0.004047 -0.001757 0.000311
# 4 -0.001244 -0.002731 -0.004047 0.031867 0.001390 -0.002718
# 5 -0.001867 0.003946 -0.001757 0.001390 0.037752 -0.002052
# 6 0.002438 0.002486 0.000311 -0.002718 -0.002052 0.026216
#
#
# Mechanical properties :
#
#
# Convention : Reuss Voigt Hill
#
# Bulk Modulus (GPa) = 44.94559 53.60253 49.27406
# Shear Modulus (GPa) = 29.85819 34.53867 32.19843
#
# Velocity S-wave (km/s) = 3.68103 3.95904 3.82256
# Velocity P-wave (km/s) = 6.20189 6.72489 6.46867
#
# Compressibility (1/GPa) = 0.02224912
#
# Stress axis : x y z
#
# Youngs Moduli (GPa) = 119.36101 54.21999 60.95168
#
# Poissons Ratio (x) = 0.18165 0.00272
# Poissons Ratio (y) = 0.39989 0.43242
# Poissons Ratio (z) = 0.00532 0.38467
#
# Static dielectric constant tensor:
#      x y z
#    x 4.654600 -0.101360 -0.627330 
#    y -0.101360 3.827830 -0.138560 
#    z -0.627330 -0.138560 4.365250 
# 
# 
# High freq. dielectric constant tensor:
#      x y z
#    x 1.885340 -0.010340 0.008200 
#    y -0.010340 1.860730 0.025370 
#    z 0.008200 0.025370 1.861890 
# 
# From -- ./inp_files/138527.got.cif
#   From: 2010.06.25/outbox.cif.g09.slc.cpg/sg2_70_cif.got.tgz:138527.got - 2010.06.27 13:26:56.
