data_PCOD8022133
_publ_section_title
;
Structure prediction by ZEFSAII (Michael W. Deem and Ramdas Pophale) SiO2 
 PCOD8022133
Probable space group: P -1
;
_chemical_formula_sum "Si O2"
_cell_formula_units_Z 16
_cell_length_a 11.663750
_cell_length_b 6.370354
_cell_length_c 11.672427
_cell_angle_alpha 101.369617
_cell_angle_beta 96.169677
_cell_angle_gamma 124.021511
_cell_volume 678.944105
_symmetry_space_group_name_H-M "P -1"
_symmetry_group_IT_number 2
_symmetry_cell_setting 'triclinic'
loop_
_space_group_symop_operation_xyz
x,y,z
-x,-y,-z
loop_
_atom_site_type_symbol
_atom_site_label
_atom_site_fract_x
_atom_site_fract_y
_atom_site_fract_z
Si Si1 0.818902 0.436253 0.427122
Si Si2 0.365247 0.005750 0.465865
Si Si3 0.685781 0.929138 0.005147
Si Si4 0.669398 0.652597 0.344144
Si Si5 0.712976 0.206138 0.807922
Si Si6 0.047616 0.829256 0.653680
Si Si7 0.476335 0.639993 0.141159
Si Si8 0.994778 0.788486 0.893256
O O1 0.766556 0.231324 0.502820
O O2 0.684584 0.419681 0.357193
O O3 0.895190 0.353226 0.339593
O O4 0.933796 0.723798 0.526752
O O5 0.307488 0.963954 0.324713
O O6 0.500000 0.000000 0.500000
O O7 0.387993 0.271422 0.545970
O O8 0.649108 0.633854 0.964273
O O9 0.658440 0.016743 0.891885
O O10 0.579530 0.887613 0.091486
O O11 0.850322 0.152891 0.078856
O O12 0.560381 0.560935 0.218402
O O13 0.824552 0.875235 0.334593
O O14 0.602288 0.275905 0.778841
O O15 0.872513 0.478149 0.876974
O O16 0.973424 0.833975 0.763195
O O17 0.000000 0.000000 0.000000
#
# Coordination Sequence:
#
# PCOD8022133 Si02
#       8
#     2   2   2   2   2   2   2   2
#     4  10  23  43  68  96 133 182 222 280 344 408
#     4  11  24  40  64 102 140 167 220 285 341 412
#     4  11  26  46  68  97 132 188 233 277 338 405
#     4  11  23  41  72 100 132 181 224 277 350 410
#     4  12  25  46  70  97 141 183 225 284 351 405
#     4  10  22  45  65  96 139 171 231 285 333 412
#     4  11  24  46  68 100 138 175 236 284 328 418
#     4  12  24  47  69  98 139 181 227 293 340 403
#
# _framework density 23.566005000000001
#
# number of rings (size 3 to 8) (size 9 to 14) (size 15 to 20)
#    0.000    1.000    5.000    1.125    1.750    2.500 
#    9.000    0.000    0.000    0.000    0.000    0.000 
#    0.000    0.000    0.000    0.000    0.000    0.000 
#
# Total GULP energy -198305.235154 kJ/mol
# GULP energy per Si atom -12394.077197 kJ/mol
# Density = 2.351237 g / cm^3
# Si number density = 23.566005 Si / 1000 Ang^3
#
#
#
# Elastic Constant Matrix: (Units=GPa)
#
#
# Indices 1 2 3 4 5 6 
#
# 1 80.5577 27.3777 29.2817 -13.3869 -0.9372 6.3344
# 2 27.3777 61.2390 27.5143 -10.3418 3.4387 13.4224
# 3 29.2817 27.5143 128.1552 -4.7398 -6.5403 1.9999
# 4 -13.3869 -10.3418 -4.7398 30.9214 -5.4733 5.2497
# 5 -0.9372 3.4387 -6.5403 -5.4733 39.3657 0.4937
# 6 6.3344 13.4224 1.9999 5.2497 0.4937 34.6569
#
#
#
# Elastic Compliance Matrix: (Units=1/GPa)
#
#
# Indices 1 2 3 4 5 6 
#
# 1 0.015962 -0.004864 -0.002313 0.005437 0.001198 -0.001741
# 2 -0.004864 0.023213 -0.003591 0.006295 -0.001754 -0.008822
# 3 -0.002313 -0.003591 0.009138 -0.000742 0.001656 0.001375
# 4 0.005437 0.006295 -0.000742 0.039169 0.005020 -0.009393
# 5 0.001198 -0.001754 0.001656 0.005020 0.026567 -0.000774
# 6 -0.001741 -0.008822 0.001375 -0.009393 -0.000774 0.033944
#
#
# Mechanical properties :
#
#
# Convention : Reuss Voigt Hill
#
# Bulk Modulus (GPa) = 37.34815 48.69992 43.02404
# Shear Modulus (GPa) = 28.01821 33.37400 30.69610
#
# Velocity S-wave (km/s) = 3.45182 3.76732 3.61301
# Velocity P-wave (km/s) = 5.63644 6.29553 5.97508
#
# Compressibility (1/GPa) = 0.02677509
#
# Stress axis : x y z
#
# Youngs Moduli (GPa) = 62.65005 43.07962 109.42990
#
# Poissons Ratio (x) = 0.20955 0.25315
# Poissons Ratio (y) = 0.30474 0.39300
# Poissons Ratio (z) = 0.14493 0.15471
#
# Static dielectric constant tensor:
#      x y z
#    x 4.242590 0.220250 -0.181350 
#    y 0.220250 4.081660 0.035100 
#    z -0.181350 0.035100 4.341990 
# 
# 
# High freq. dielectric constant tensor:
#      x y z
#    x 1.931350 0.021630 -0.003500 
#    y 0.021630 1.923920 0.003790 
#    z -0.003500 0.003790 1.940010 
# 
# From -- ./inp_files/94504.got.cif
#   From: 2010.06.25/outbox.cif.g09.slc.cpg/sg2_48_cif.got.tgz:94504.got - 2010.06.27 13:26:56.
