data_PCOD8022794
_publ_section_title
;
Structure prediction by ZEFSAII (Michael W. Deem and Ramdas Pophale) SiO2 
 PCOD8022794
Probable space group: P -1
;
_chemical_formula_sum "Si O2"
_cell_formula_units_Z 14
_cell_length_a 24.715401
_cell_length_b 14.251805
_cell_length_c 6.845594
_cell_angle_alpha 51.765182
_cell_angle_beta 51.715437
_cell_angle_gamma 20.693359
_cell_volume 662.080775
_symmetry_space_group_name_H-M "P -1"
_symmetry_group_IT_number 2
_symmetry_cell_setting 'triclinic'
loop_
_space_group_symop_operation_xyz
x,y,z
-x,-y,-z
loop_
_atom_site_type_symbol
_atom_site_label
_atom_site_fract_x
_atom_site_fract_y
_atom_site_fract_z
Si Si1 0.591406 0.962850 0.242553
Si Si2 0.880504 0.481022 0.466558
Si Si3 0.158648 0.184660 0.396228
Si Si4 0.203427 0.387967 0.093778
Si Si5 0.013226 0.120659 0.319539
Si Si6 0.280319 0.852102 0.902446
Si Si7 0.432098 0.741841 0.057909
O O1 0.761153 0.721566 0.268368
O O2 0.500000 0.000000 0.500000
O O3 0.499731 0.228530 0.134922
O O4 0.626061 0.877849 0.046712
O O5 0.785786 0.589259 0.733222
O O6 0.010155 0.378008 0.353810
O O7 0.963721 0.237220 0.498230
O O8 0.133790 0.361859 0.275359
O O9 0.167559 0.092651 0.692404
O O10 0.314948 0.914455 0.277459
O O11 0.098325 0.648979 0.888243
O O12 0.000000 0.000000 0.500000
O O13 0.187314 0.894608 0.175085
O O14 0.346598 0.847274 0.909670
O O15 0.423171 0.569968 0.831641
#
# Coordination Sequence:
#
# PCOD8022794 Si02
#       7
#     2   2   2   2   2   2   2
#     4  10  24  41  63  91 128 164 207 252 309 376
#     4  11  22  40  67  92 120 163 205 262 311 355
#     4  11  21  40  67  98 119 152 216 261 308 365
#     4  10  23  40  67  94 121 158 207 265 307 363
#     4  11  25  40  61  92 129 166 208 250 309 372
#     4  11  22  40  65  89 129 164 205 256 305 370
#     4  10  23  39  62  92 126 169 200 253 315 362
#
# _framework density 21.145455999999999
#
# number of rings (size 3 to 8) (size 9 to 14) (size 15 to 20)
#    0.000    1.429    2.857    1.714    6.000    2.857 
#    0.000    0.000    0.000    0.000    0.000    0.000 
#    0.000    0.000    0.000    0.000    0.000    0.000 
#
# Total GULP energy -173602.743576 kJ/mol
# GULP energy per Si atom -12400.195970 kJ/mol
# Density = 2.109733 g / cm^3
# Si number density = 21.145456 Si / 1000 Ang^3
#
#
#
# Elastic Constant Matrix: (Units=GPa)
#
#
# Indices 1 2 3 4 5 6 
#
# 1 61.5365 27.8460 42.5499 7.8163 -8.4312 24.8423
# 2 27.8460 81.8684 27.1752 5.1217 -0.9718 24.0313
# 3 42.5499 27.1752 106.8724 11.2246 -10.8358 22.2360
# 4 7.8163 5.1217 11.2246 38.1504 3.4829 4.1226
# 5 -8.4312 -0.9718 -10.8358 3.4829 40.8040 2.7829
# 6 24.8423 24.0313 22.2360 4.1226 2.7829 37.3614
#
#
#
# Elastic Compliance Matrix: (Units=1/GPa)
#
#
# Indices 1 2 3 4 5 6 
#
# 1 0.029019 -0.003484 -0.007220 -0.002427 0.005080 -0.012867
# 2 -0.003484 0.015908 -0.001143 -0.000296 -0.000129 -0.007192
# 3 -0.007220 -0.001143 0.013518 -0.002303 0.002433 -0.002436
# 4 -0.002427 -0.000296 -0.002303 0.027706 -0.003511 0.000379
# 5 0.005080 -0.000129 0.002433 -0.003511 0.026934 -0.006362
# 6 -0.012867 -0.007192 -0.002436 0.000379 -0.006362 0.041830
#
#
# Mechanical properties :
#
#
# Convention : Reuss Voigt Hill
#
# Bulk Modulus (GPa) = 28.77828 49.49108 39.13468
# Shear Modulus (GPa) = 26.28924 33.44355 29.86639
#
# Velocity S-wave (km/s) = 3.52981 3.98124 3.76230
# Velocity P-wave (km/s) = 5.50018 6.67754 6.11725
#
# Compressibility (1/GPa) = 0.03474843
#
# Stress axis : x y z
#
# Youngs Moduli (GPa) = 34.46076 62.86318 73.97649
#
# Poissons Ratio (x) = 0.21904 0.53413
# Poissons Ratio (y) = 0.12007 0.08457
# Poissons Ratio (z) = 0.24882 0.07186
#
# Static dielectric constant tensor:
#      x y z
#    x 3.724140 0.251940 0.188120 
#    y 0.251940 3.942530 0.297050 
#    z 0.188120 0.297050 3.851470 
# 
# 
# High freq. dielectric constant tensor:
#      x y z
#    x 1.817160 0.017770 0.006130 
#    y 0.017770 1.838440 0.017540 
#    z 0.006130 0.017540 1.830250 
# 
# From -- ./inp_files/71083.got.cif
#   From: 2010.06.25/outbox.cif.g09.slc.cpg/sg2_36_cif.got.tgz:71083.got - 2010.06.27 13:26:56.
