data_PCOD8022760
_publ_section_title
;
Structure prediction by ZEFSAII (Michael W. Deem and Ramdas Pophale) SiO2 
 PCOD8022760
Probable space group: P -1
;
_chemical_formula_sum "Si O2"
_cell_formula_units_Z 14
_cell_length_a 8.932277
_cell_length_b 9.559063
_cell_length_c 11.660027
_cell_angle_alpha 120.214914
_cell_angle_beta 130.912604
_cell_angle_gamma 58.039097
_cell_volume 618.991566
_symmetry_space_group_name_H-M "P -1"
_symmetry_group_IT_number 2
_symmetry_cell_setting 'triclinic'
loop_
_space_group_symop_operation_xyz
x,y,z
-x,-y,-z
loop_
_atom_site_type_symbol
_atom_site_label
_atom_site_fract_x
_atom_site_fract_y
_atom_site_fract_z
Si Si1 0.561985 0.007356 0.903612
Si Si2 0.325238 0.647456 0.910911
Si Si3 0.755108 0.749335 0.513384
Si Si4 0.185892 0.613069 0.571529
Si Si5 0.003639 0.175065 0.023208
Si Si6 0.763038 0.106120 0.439932
Si Si7 0.703408 0.112481 0.679436
O O1 0.371564 0.002805 0.727276
O O2 0.761491 0.841990 0.905252
O O3 0.500000 0.000000 0.000000
O O4 0.613347 0.180476 0.976367
O O5 0.294932 0.604531 0.746723
O O6 0.500000 0.500000 0.000000
O O7 0.103311 0.675017 0.877454
O O8 0.774454 0.581582 0.530780
O O9 0.532437 0.806654 0.360180
O O10 0.937700 0.706067 0.492229
O O11 0.775721 0.909614 0.665101
O O12 0.286220 0.711901 0.573224
O O13 0.854707 0.206894 0.849042
O O14 0.000000 0.000000 0.000000
O O15 0.702115 0.140008 0.554597
O O16 0.000000 0.000000 0.500000
#
# Coordination Sequence:
#
# PCOD8022760 Si02
#       7
#     2   2   2   2   2   2   2
#     4  11  23  43  66  95 129 178 215 262 330 384
#     4  11  24  41  69  94 132 168 221 268 319 383
#     4  10  23  38  68  91 129 165 215 271 315 379
#     4  11  23  43  61  99 128 169 215 267 325 378
#     4  10  23  40  67  95 128 170 219 265 316 385
#     4  12  25  40  67  95 133 170 213 267 326 389
#     4  11  23  41  66  98 125 167 222 263 321 387
#
# _framework density 22.617432000000001
#
# number of rings (size 3 to 8) (size 9 to 14) (size 15 to 20)
#    0.000    1.143    2.857    3.429   12.000    0.571 
#    0.000    0.714    3.143    0.000    0.000    0.000 
#    0.000    0.000    0.000    0.000    0.000    0.000 
#
# Total GULP energy -173553.296865 kJ/mol
# GULP energy per Si atom -12396.664062 kJ/mol
# Density = 2.256595 g / cm^3
# Si number density = 22.617432 Si / 1000 Ang^3
#
#
#
# Elastic Constant Matrix: (Units=GPa)
#
#
# Indices 1 2 3 4 5 6 
#
# 1 108.2008 45.2123 30.9176 -15.0158 4.6353 -2.6058
# 2 45.2123 116.4342 14.4575 -0.5776 3.2515 -5.3979
# 3 30.9176 14.4575 101.3007 -18.1017 4.5492 9.8836
# 4 -15.0158 -0.5776 -18.1017 32.3954 2.3144 7.7917
# 5 4.6353 3.2515 4.5492 2.3144 41.9009 -11.2957
# 6 -2.6058 -5.3979 9.8836 7.7917 -11.2957 39.6771
#
#
#
# Elastic Compliance Matrix: (Units=1/GPa)
#
#
# Indices 1 2 3 4 5 6 
#
# 1 0.012453 -0.004526 -0.002223 0.004652 -0.001175 -0.000492
# 2 -0.004526 0.010521 -0.000867 -0.002928 0.000497 0.002067
# 3 -0.002223 -0.000867 0.012757 0.007703 -0.003068 -0.005828
# 4 0.004652 -0.002928 0.007703 0.040596 -0.006561 -0.011852
# 5 -0.001175 0.000497 -0.003068 -0.006561 0.027299 0.009815
# 6 -0.000492 0.002067 -0.005828 -0.011852 0.009815 0.032026
#
#
# Mechanical properties :
#
#
# Convention : Reuss Voigt Hill
#
# Bulk Modulus (GPa) = 48.78510 56.34562 52.56536
# Shear Modulus (GPa) = 31.70253 38.48457 35.09355
#
# Velocity S-wave (km/s) = 3.74797 4.12945 3.94333
# Velocity P-wave (km/s) = 6.35187 6.90674 6.63511
#
# Compressibility (1/GPa) = 0.02049806
#
# Stress axis : x y z
#
# Youngs Moduli (GPa) = 80.30482 95.04574 78.39032
#
# Poissons Ratio (x) = 0.43021 0.17423
# Poissons Ratio (y) = 0.36349 0.06798
# Poissons Ratio (z) = 0.17849 0.08242
#
# Static dielectric constant tensor:
#      x y z
#    x 4.460500 -0.225510 -0.038270 
#    y -0.225510 4.282140 0.022070 
#    z -0.038270 0.022070 3.928370 
# 
# 
# High freq. dielectric constant tensor:
#      x y z
#    x 1.892800 -0.015390 0.008000 
#    y -0.015390 1.885140 -0.012040 
#    z 0.008000 -0.012040 1.895750 
# 
# From -- ./inp_files/158107.got.cif
#   From: 2010.06.25/outbox.cif.g09.slc.cpg/sg2_80_cif.got.tgz:158107.got - 2010.06.27 13:26:56.
