data_PCOD8022779
_publ_section_title
;
Structure prediction by ZEFSAII (Michael W. Deem and Ramdas Pophale) SiO2 
 PCOD8022779
Probable space group: P -1
;
_chemical_formula_sum "Si O2"
_cell_formula_units_Z 16
_cell_length_a 20.684095
_cell_length_b 8.452659
_cell_length_c 18.053864
_cell_angle_alpha 119.683702
_cell_angle_beta 19.409036
_cell_angle_gamma 130.267700
_cell_volume 714.248787
_symmetry_space_group_name_H-M "P -1"
_symmetry_group_IT_number 2
_symmetry_cell_setting 'triclinic'
loop_
_space_group_symop_operation_xyz
x,y,z
-x,-y,-z
loop_
_atom_site_type_symbol
_atom_site_label
_atom_site_fract_x
_atom_site_fract_y
_atom_site_fract_z
Si Si1 0.686184 0.100385 0.753568
Si Si2 0.299224 0.229255 0.655217
Si Si3 0.012468 0.517550 0.159143
Si Si4 0.200334 0.915353 0.812477
Si Si5 0.607142 0.423868 0.675179
Si Si6 0.315527 0.599825 0.991832
Si Si7 0.887799 0.526687 0.535678
Si Si8 0.579975 0.066044 0.273589
O O1 0.701060 0.290711 0.730508
O O2 0.968972 0.242478 0.512933
O O3 0.573600 0.867135 0.774332
O O4 0.500000 0.000000 0.000000
O O5 0.500000 0.500000 0.500000
O O6 0.376245 0.106602 0.489612
O O7 0.290023 0.153552 0.732502
O O8 0.039269 0.168347 0.898369
O O9 0.865066 0.267388 0.223091
O O10 0.821838 0.546967 0.409996
O O11 0.203683 0.544957 0.018117
O O12 0.152790 0.713028 0.990662
O O13 0.405039 0.958633 0.658905
O O14 0.390558 0.436644 0.891298
O O15 0.725101 0.541880 0.655053
O O16 0.496848 0.156658 0.739852
O O17 0.106305 0.536071 0.262464
#
# Coordination Sequence:
#
# PCOD8022779 Si02
#       8
#     2   2   2   2   2   2   2   2
#     4   9  18  40  69  91 121 159 192 243 296 351
#     4  11  24  40  63  84 112 156 204 261 308 358
#     4  11  24  41  59  87 121 158 207 252 300 364
#     4  11  25  40  61  87 116 156 211 256 305 366
#     4  11  25  39  60  89 126 161 197 251 298 358
#     4  10  23  39  61  89 123 160 198 243 300 355
#     4   9  20  41  64  91 124 155 198 241 293 359
#     4  12  25  39  60  86 121 160 204 258 309 354
#
# _framework density 22.401157999999999
#
# number of rings (size 3 to 8) (size 9 to 14) (size 15 to 20)
#    0.000    1.500    2.500    1.500    3.500    2.500 
#    0.000    5.625    0.000    0.000    0.000    0.000 
#    0.000    0.000    0.000    0.000    0.000    0.000 
#
# Total GULP energy -198341.957290 kJ/mol
# GULP energy per Si atom -12396.372331 kJ/mol
# Density = 2.235017 g / cm^3
# Si number density = 22.401158 Si / 1000 Ang^3
#
#
#
# Elastic Constant Matrix: (Units=GPa)
#
#
# Indices 1 2 3 4 5 6 
#
# 1 104.8443 17.8869 21.8286 -6.5814 -7.5927 11.1977
# 2 17.8869 91.6505 31.5250 -19.7060 -11.3245 4.4304
# 3 21.8286 31.5250 79.0439 -7.2103 -4.7633 -8.2660
# 4 -6.5814 -19.7060 -7.2103 39.9359 -14.4240 -2.8312
# 5 -7.5927 -11.3245 -4.7633 -14.4240 38.6598 -8.6584
# 6 11.1977 4.4304 -8.2660 -2.8312 -8.6584 28.8758
#
#
#
# Elastic Compliance Matrix: (Units=1/GPa)
#
#
# Indices 1 2 3 4 5 6 
#
# 1 0.010909 -0.000487 -0.003162 0.000991 0.000931 -0.004685
# 2 -0.000487 0.015598 -0.004854 0.009318 0.007238 -0.000510
# 3 -0.003162 -0.004854 0.016500 0.001382 0.002182 0.007484
# 4 0.000991 0.009318 0.001382 0.037407 0.018819 0.007892
# 5 0.000931 0.007238 0.002182 0.018819 0.038252 0.012468
# 6 -0.004685 -0.000510 0.007484 0.007892 0.012468 0.043181
#
#
# Mechanical properties :
#
#
# Convention : Reuss Voigt Hill
#
# Bulk Modulus (GPa) = 38.45775 46.44663 42.45219
# Shear Modulus (GPa) = 26.66380 35.11420 30.88900
#
# Velocity S-wave (km/s) = 3.45380 3.96348 3.71739
# Velocity P-wave (km/s) = 5.75413 6.45946 6.11697
#
# Compressibility (1/GPa) = 0.02600256
#
# Stress axis : x y z
#
# Youngs Moduli (GPa) = 91.66517 64.11055 60.60498
#
# Poissons Ratio (x) = 0.03122 0.19163
# Poissons Ratio (y) = 0.04464 0.29415
# Poissons Ratio (z) = 0.28983 0.31117
#
# Static dielectric constant tensor:
#      x y z
#    x 4.081310 0.043080 -0.070910 
#    y 0.043080 4.151910 -0.106040 
#    z -0.070910 -0.106040 4.410420 
# 
# 
# High freq. dielectric constant tensor:
#      x y z
#    x 1.881300 0.000370 0.003490 
#    y 0.000370 1.872530 -0.023440 
#    z 0.003490 -0.023440 1.891680 
# 
# From -- ./inp_files/577353.got.cif
#   From: 2010.06.25/outbox.cif.g09.slc.cpg/sg2_289_cif.got.tgz:577353.got - 2010.06.27 13:26:56.
