data_PCOD8022986
_publ_section_title
;
Structure prediction by ZEFSAII (Michael W. Deem and Ramdas Pophale) SiO2 
 PCOD8022986
Probable space group: P -1
;
_chemical_formula_sum "Si O2"
_cell_formula_units_Z 16
_cell_length_a 8.521595
_cell_length_b 15.547184
_cell_length_c 9.692989
_cell_angle_alpha 53.688517
_cell_angle_beta 60.474817
_cell_angle_gamma 97.879936
_cell_volume 712.302330
_symmetry_space_group_name_H-M "P -1"
_symmetry_group_IT_number 2
_symmetry_cell_setting 'triclinic'
loop_
_space_group_symop_operation_xyz
x,y,z
-x,-y,-z
loop_
_atom_site_type_symbol
_atom_site_label
_atom_site_fract_x
_atom_site_fract_y
_atom_site_fract_z
Si Si1 0.468494 0.746471 0.018706
Si Si2 0.062968 0.074095 0.700399
Si Si3 0.622161 0.351600 0.548931
Si Si4 0.927031 0.800989 0.693936
Si Si5 0.063877 0.653839 0.113031
Si Si6 0.861253 0.793068 0.179259
Si Si7 0.337500 0.023401 0.476558
Si Si8 0.879076 0.344540 0.214017
O O1 0.663011 0.730446 0.909813
O O2 0.544168 0.890710 0.795860
O O3 0.424924 0.732489 0.213026
O O4 0.224199 0.636441 0.154818
O O5 0.974770 0.101343 0.574692
O O6 0.098886 0.175914 0.704789
O O7 0.302821 0.105514 0.525309
O O8 0.893417 0.918549 0.969589
O O9 0.398198 0.336469 0.615122
O O10 0.673658 0.284181 0.469240
O O11 0.822401 0.509181 0.334792
O O12 0.946800 0.681030 0.776335
O O13 0.086657 0.889230 0.671122
O O14 0.029555 0.759959 0.089564
O O15 0.196706 0.717518 0.848685
O O16 0.500000 0.000000 0.500000
O O17 0.000000 0.500000 0.000000
#
# Coordination Sequence:
#
# PCOD8022986 Si02
#       8
#     2   2   2   2   2   2   2   2
#     4  11  23  41  69  99 130 171 229 276 329 395
#     4  10  23  40  64 106 133 173 219 278 332 404
#     4  11  24  42  67  97 131 174 232 284 322 392
#     4  11  23  42  69  94 139 175 218 270 346 394
#     4  11  24  45  67  93 134 185 224 268 342 397
#     4  11  23  42  69  95 142 172 225 275 336 394
#     4  11  22  40  71  97 137 180 216 267 341 409
#     4  10  24  44  66  94 131 174 227 273 329 399
#
# _framework density 22.462371999999998
#
# number of rings (size 3 to 8) (size 9 to 14) (size 15 to 20)
#    0.000    1.250    0.000    6.750    7.000    1.000 
#    0.000    3.750    0.000    0.000    0.000    0.000 
#    0.000    0.000    0.000    0.000    0.000    0.000 
#
# Total GULP energy -198312.032626 kJ/mol
# GULP energy per Si atom -12394.502039 kJ/mol
# Density = 2.241125 g / cm^3
# Si number density = 22.462372 Si / 1000 Ang^3
#
#
#
# Elastic Constant Matrix: (Units=GPa)
#
#
# Indices 1 2 3 4 5 6 
#
# 1 149.6332 55.6611 38.5999 17.2376 -6.3108 -8.1959
# 2 55.6611 126.2513 43.8737 29.1229 -0.1504 -5.0181
# 3 38.5999 43.8737 102.5244 27.4366 2.3663 -0.8179
# 4 17.2376 29.1229 27.4366 47.1914 8.5608 2.3347
# 5 -6.3108 -0.1504 2.3663 8.5608 40.6189 -7.7334
# 6 -8.1959 -5.0181 -0.8179 2.3347 -7.7334 39.1140
#
#
#
# Elastic Compliance Matrix: (Units=1/GPa)
#
#
# Indices 1 2 3 4 5 6 
#
# 1 0.008477 -0.002874 -0.001801 -0.000708 0.001901 0.001788
# 2 -0.002874 0.011166 -0.002466 -0.004642 0.000954 0.001244
# 3 -0.001801 -0.002466 0.012913 -0.005335 0.000065 -0.000092
# 4 -0.000708 -0.004642 -0.005335 0.028810 -0.006628 -0.003886
# 5 0.001901 0.000954 0.000065 -0.006628 0.027522 0.006359
# 6 0.001788 0.001244 -0.000092 -0.003886 0.006359 0.027588
#
#
# Mechanical properties :
#
#
# Convention : Reuss Voigt Hill
#
# Bulk Modulus (GPa) = 54.72923 72.74206 63.73564
# Shear Modulus (GPa) = 36.53650 41.40315 38.96982
#
# Velocity S-wave (km/s) = 4.03744 4.29793 4.16972
# Velocity P-wave (km/s) = 6.79355 7.55539 7.18458
#
# Compressibility (1/GPa) = 0.01827177
#
# Stress axis : x y z
#
# Youngs Moduli (GPa) = 117.97119 89.55509 77.44314
#
# Poissons Ratio (x) = 0.25742 0.13951
# Poissons Ratio (y) = 0.33910 0.19099
# Poissons Ratio (z) = 0.21251 0.22086
#
# Static dielectric constant tensor:
#      x y z
#    x 4.104550 0.008210 0.021010 
#    y 0.008210 4.261850 0.401010 
#    z 0.021010 0.401010 4.349910 
# 
# 
# High freq. dielectric constant tensor:
#      x y z
#    x 1.891560 0.000530 0.003900 
#    y 0.000530 1.873900 0.015620 
#    z 0.003900 0.015620 1.894920 
# 
# From -- ./inp_files/205871.got.cif
#   From: 2010.06.25/outbox.cif.g09.slc.cpg/sg2_103_cif.got.tgz:205871.got - 2010.06.27 13:26:56.
