data_PCOD8022312
_publ_section_title
;
Structure prediction by ZEFSAII (Michael W. Deem and Ramdas Pophale) SiO2 
 PCOD8022312
Probable space group: P -1
;
_chemical_formula_sum "Si O2"
_cell_formula_units_Z 16
_cell_length_a 11.327148
_cell_length_b 8.835882
_cell_length_c 9.359446
_cell_angle_alpha 95.985436
_cell_angle_beta 51.156268
_cell_angle_gamma 88.634829
_cell_volume 720.784146
_symmetry_space_group_name_H-M "P -1"
_symmetry_group_IT_number 2
_symmetry_cell_setting 'triclinic'
loop_
_space_group_symop_operation_xyz
x,y,z
-x,-y,-z
loop_
_atom_site_type_symbol
_atom_site_label
_atom_site_fract_x
_atom_site_fract_y
_atom_site_fract_z
Si Si1 0.340703 0.532673 0.049366
Si Si2 0.601531 0.843207 0.449328
Si Si3 0.204512 0.269610 0.981079
Si Si4 0.924086 0.347507 0.536757
Si Si5 0.343674 0.689618 0.762624
Si Si6 0.105598 0.564144 0.740330
Si Si7 0.890548 0.040113 0.956165
Si Si8 0.103927 0.212898 0.620243
O O1 0.278637 0.370131 0.052617
O O2 0.226149 0.640303 0.248036
O O3 0.500000 0.500000 0.000000
O O4 0.372313 0.615970 0.887432
O O5 0.502752 0.713460 0.569201
O O6 0.727047 0.871736 0.480460
O O7 0.500000 0.000000 0.500000
O O8 0.688225 0.770584 0.238779
O O9 0.047661 0.366394 0.052362
O O10 0.168067 0.115282 0.074038
O O11 0.882283 0.327316 0.400073
O O12 0.000000 0.500000 0.500000
O O13 0.052464 0.216202 0.491971
O O14 0.253549 0.576998 0.724931
O O15 0.254521 0.856834 0.861118
O O16 0.093207 0.387995 0.698914
O O17 0.975542 0.125730 0.781332
O O18 0.000000 0.000000 0.000000
#
# Coordination Sequence:
#
# PCOD8022312 Si02
#       8
#     2   2   2   2   2   2   2   2
#     4  12  28  47  72 105 144 182 234 298 356 413
#     4  12  26  42  66 108 149 186 230 290 347 420
#     4  12  24  44  72 102 144 179 235 293 345 413
#     4  10  22  45  71 102 139 175 232 296 347 411
#     4  12  25  43  72 102 140 188 234 283 357 416
#     4  11  24  44  77 109 131 180 245 295 346 415
#     4  12  21  41  70 102 139 182 231 288 340 414
#     4  11  22  43  73  97 142 185 232 286 347 413
#
# _framework density 22.198046000000001
#
# number of rings (size 3 to 8) (size 9 to 14) (size 15 to 20)
#    0.000    0.500    7.500    0.750    5.250    2.500 
#    0.000    1.250    5.500    0.000    0.000    0.000 
#    0.000    0.000    0.000    0.000    0.000    0.000 
#
# Total GULP energy -198355.332482 kJ/mol
# GULP energy per Si atom -12397.208280 kJ/mol
# Density = 2.214752 g / cm^3
# Si number density = 22.198046 Si / 1000 Ang^3
#
#
#
# Elastic Constant Matrix: (Units=GPa)
#
#
# Indices 1 2 3 4 5 6 
#
# 1 126.4493 30.5785 51.7455 -6.1477 -10.0616 -27.1638
# 2 30.5785 105.5444 35.7839 -8.0165 -6.8050 -7.4306
# 3 51.7455 35.7839 119.0819 -16.9505 -16.5427 -10.5908
# 4 -6.1477 -8.0165 -16.9505 35.4311 0.2269 -3.7889
# 5 -10.0616 -6.8050 -16.5427 0.2269 33.8374 -9.5193
# 6 -27.1638 -7.4306 -10.5908 -3.7889 -9.5193 45.6044
#
#
#
# Elastic Compliance Matrix: (Units=1/GPa)
#
#
# Indices 1 2 3 4 5 6 
#
# 1 0.011307 -0.001419 -0.003362 0.000703 0.003246 0.006459
# 2 -0.001419 0.010855 -0.002308 0.001170 0.000809 0.000654
# 3 -0.003362 -0.002308 0.012094 0.004848 0.004941 0.001864
# 4 0.000703 0.001170 0.004848 0.031460 0.004066 0.005197
# 5 0.003246 0.000809 0.004941 0.004066 0.036193 0.011105
# 6 0.006459 0.000654 0.001864 0.005197 0.011105 0.029064
#
#
# Mechanical properties :
#
#
# Convention : Reuss Voigt Hill
#
# Bulk Modulus (GPa) = 49.80346 65.25461 57.52904
# Shear Modulus (GPa) = 32.92840 38.50576 35.71708
#
# Velocity S-wave (km/s) = 3.85566 4.16943 4.01561
# Velocity P-wave (km/s) = 6.50432 7.25529 6.89004
#
# Compressibility (1/GPa) = 0.02007893
#
# Stress axis : x y z
#
# Youngs Moduli (GPa) = 88.44105 92.11963 82.68337
#
# Poissons Ratio (x) = 0.13070 0.27795
# Poissons Ratio (y) = 0.12548 0.19087
# Poissons Ratio (z) = 0.29731 0.21266
#
# Static dielectric constant tensor:
#      x y z
#    x 4.713410 -0.862840 0.869840 
#    y -0.862840 6.613540 -2.245300 
#    z 0.869840 -2.245300 6.574430 
# 
# 
# High freq. dielectric constant tensor:
#      x y z
#    x 1.872240 -0.013080 -0.009120 
#    y -0.013080 1.879410 -0.018170 
#    z -0.009120 -0.018170 1.876270 
# 
# From -- ./inp_files/243842.got.cif
#   From: 2010.06.25/outbox.cif.g09.slc.cpg/sg2_122_cif.got.tgz:243842.got - 2010.06.27 13:26:56.
