data_PCOD8022733
_publ_section_title
;
Structure prediction by ZEFSAII (Michael W. Deem and Ramdas Pophale) SiO2 
 PCOD8022733
Probable space group: P -1
;
_chemical_formula_sum "Si O2"
_cell_formula_units_Z 16
_cell_length_a 15.232373
_cell_length_b 13.780324
_cell_length_c 7.799472
_cell_angle_alpha 131.961972
_cell_angle_beta 95.731754
_cell_angle_gamma 120.200196
_cell_volume 772.659278
_symmetry_space_group_name_H-M "P -1"
_symmetry_group_IT_number 2
_symmetry_cell_setting 'triclinic'
loop_
_space_group_symop_operation_xyz
x,y,z
-x,-y,-z
loop_
_atom_site_type_symbol
_atom_site_label
_atom_site_fract_x
_atom_site_fract_y
_atom_site_fract_z
Si Si1 0.707102 0.002636 0.885837
Si Si2 0.770460 0.750464 0.098606
Si Si3 0.982490 0.194521 0.189525
Si Si4 0.596989 0.310411 0.462632
Si Si5 0.588032 0.723096 0.219899
Si Si6 0.243723 0.647121 0.753532
Si Si7 0.050127 0.084740 0.362352
Si Si8 0.412157 0.770866 0.243470
O O1 0.567106 0.851552 0.793240
O O2 0.683063 0.878497 0.577009
O O3 0.748707 0.189536 0.039418
O O4 0.841322 0.098060 0.124776
O O5 0.682440 0.781393 0.150338
O O6 0.824505 0.747186 0.283162
O O7 0.900421 0.944314 0.244630
O O8 0.677477 0.538972 0.731593
O O9 0.087693 0.425606 0.416582
O O10 0.067713 0.204929 0.353171
O O11 0.942707 0.057770 0.860570
O O12 0.650645 0.276078 0.284963
O O13 0.623038 0.278499 0.619095
O O14 0.492675 0.733416 0.151974
O O15 0.500000 0.500000 0.000000
O O16 0.279657 0.629380 0.926944
O O17 0.500000 0.000000 0.500000
#
# Coordination Sequence:
#
# PCOD8022733 Si02
#       8
#     2   2   2   2   2   2   2   2
#     4  11  23  40  64  93 134 167 213 272 323 383
#     4  11  20  42  64  95 127 168 217 273 328 378
#     4  11  23  41  62  93 126 175 217 261 329 389
#     4  11  23  42  69  98 128 171 216 271 326 384
#     4  11  21  38  67  95 129 167 210 274 330 378
#     4  12  24  44  67  94 132 178 215 265 326 397
#     4  10  23  38  65  89 130 169 216 270 323 392
#     4  11  23  41  66  97 130 173 214 262 330 385
#
# _framework density 20.707704
#
# number of rings (size 3 to 8) (size 9 to 14) (size 15 to 20)
#    0.000    1.000    7.500    1.500    0.000    1.000 
#    0.000    1.250    0.000    3.000    0.000    0.000 
#    0.000    0.000    0.000    0.000    0.000    0.000 
#
# Total GULP energy -198361.678515 kJ/mol
# GULP energy per Si atom -12397.604907 kJ/mol
# Density = 2.066057 g / cm^3
# Si number density = 20.707704 Si / 1000 Ang^3
#
#
#
# Elastic Constant Matrix: (Units=GPa)
#
#
# Indices 1 2 3 4 5 6 
#
# 1 109.3576 20.4533 44.6887 9.6778 -0.6255 0.0786
# 2 20.4533 34.2892 21.5702 -2.9601 -7.4378 5.1241
# 3 44.6887 21.5702 90.9687 21.6707 -2.2830 -3.4545
# 4 9.6778 -2.9601 21.6707 32.7228 -1.5422 -3.8335
# 5 -0.6255 -7.4378 -2.2830 -1.5422 37.1226 3.9301
# 6 0.0786 5.1241 -3.4545 -3.8335 3.9301 33.3842
#
#
#
# Elastic Compliance Matrix: (Units=1/GPa)
#
#
# Indices 1 2 3 4 5 6 
#
# 1 0.011951 -0.004596 -0.004574 -0.000945 -0.001063 0.000221
# 2 -0.004596 0.042800 -0.010786 0.011940 0.009112 -0.007376
# 3 -0.004574 -0.010786 0.018649 -0.011772 -0.001841 0.002461
# 4 -0.000945 0.011940 -0.011772 0.040003 0.003190 0.001169
# 5 -0.001063 0.009112 -0.001841 0.003190 0.029259 -0.004665
# 6 0.000221 -0.007376 0.002461 0.001169 -0.004665 0.032024
#
#
# Mechanical properties :
#
#
# Convention : Reuss Voigt Hill
#
# Bulk Modulus (GPa) = 29.86304 45.33777 37.60040
# Shear Modulus (GPa) = 22.14736 30.50613 26.32674
#
# Velocity S-wave (km/s) = 3.27390 3.84236 3.56947
# Velocity P-wave (km/s) = 5.36132 6.45188 5.93172
#
# Compressibility (1/GPa) = 0.03348621
#
# Stress axis : x y z
#
# Youngs Moduli (GPa) = 83.67828 23.36434 53.62239
#
# Poissons Ratio (x) = 0.10739 0.24527
# Poissons Ratio (y) = 0.38462 0.57839
# Poissons Ratio (z) = 0.38274 0.25202
#
# Static dielectric constant tensor:
#      x y z
#    x 3.742870 0.057460 -0.044880 
#    y 0.057460 3.491460 0.023260 
#    z -0.044880 0.023260 3.893370 
# 
# 
# High freq. dielectric constant tensor:
#      x y z
#    x 1.814920 0.002810 -0.001340 
#    y 0.002810 1.788080 0.015200 
#    z -0.001340 0.015200 1.824700 
# 
# From -- ./inp_files/314247.got.cif
#   From: 2010.06.25/outbox.cif.g09.slc.cpg/sg2_158_cif.got.tgz:314247.got - 2010.06.27 13:26:56.
