data_PCOD8022179
_publ_section_title
;
Structure prediction by ZEFSAII (Michael W. Deem and Ramdas Pophale) SiO2 
 PCOD8022179
Probable space group: P -1
;
_chemical_formula_sum "Si O2"
_cell_formula_units_Z 12
_cell_length_a 13.243515
_cell_length_b 10.591264
_cell_length_c 6.471560
_cell_angle_alpha 63.876247
_cell_angle_beta 77.501633
_cell_angle_gamma 125.091473
_cell_volume 512.884344
_symmetry_space_group_name_H-M "P -1"
_symmetry_group_IT_number 2
_symmetry_cell_setting 'triclinic'
loop_
_space_group_symop_operation_xyz
x,y,z
-x,-y,-z
loop_
_atom_site_type_symbol
_atom_site_label
_atom_site_fract_x
_atom_site_fract_y
_atom_site_fract_z
Si Si1 0.578068 0.945490 0.909860
Si Si2 0.207186 0.157765 0.406396
Si Si3 0.296519 0.549883 0.041078
Si Si4 0.015655 0.851952 0.353973
Si Si5 0.261827 0.011464 0.821869
Si Si6 0.809295 0.299411 0.230782
O O1 0.744522 0.162251 0.568747
O O2 0.460561 0.750039 0.941571
O O3 0.500000 0.000000 0.000000
O O4 0.611003 0.868735 0.135201
O O5 0.302017 0.388772 0.094186
O O6 0.052230 0.057871 0.673836
O O7 0.149264 0.985555 0.383359
O O8 0.316043 0.183796 0.503380
O O9 0.135599 0.409722 0.351353
O O10 0.273723 0.631589 0.798338
O O11 0.091040 0.884822 0.080539
O O12 0.246580 0.844120 0.843250
O O13 0.000000 0.500000 0.000000
#
# Coordination Sequence:
#
# PCOD8022179 Si02
#       6
#     2   2   2   2   2   2
#     4  12  27  45  64 101 144 177 218 275 345 399
#     4   9  21  43  69 101 133 175 229 280 325 396
#     4  10  22  45  67  96 137 176 219 280 334 388
#     4   9  21  43  70 101 132 176 228 275 330 397
#     4  12  23  42  69  98 138 173 228 275 332 406
#     4  12  27  44  72  98 131 181 232 279 327 398
#
# _framework density 23.397088
#
# number of rings (size 3 to 8) (size 9 to 14) (size 15 to 20)
#    1.000    0.333    1.667    4.000    2.333    2.000 
#    3.000    3.333    0.000    0.000    0.000    0.000 
#    0.000    0.000    0.000    0.000    0.000    0.000 
#
# Total GULP energy -148692.111569 kJ/mol
# GULP energy per Si atom -12391.009297 kJ/mol
# Density = 2.334383 g / cm^3
# Si number density = 23.397088 Si / 1000 Ang^3
#
#
#
# Elastic Constant Matrix: (Units=GPa)
#
#
# Indices 1 2 3 4 5 6 
#
# 1 112.4502 37.9528 45.5950 -0.8930 45.4768 11.9245
# 2 37.9528 68.6052 42.8420 -18.8620 5.0580 18.0715
# 3 45.5950 42.8420 86.6040 -4.4285 8.7589 -2.3114
# 4 -0.8930 -18.8620 -4.4285 29.4878 0.0951 -1.6012
# 5 45.4768 5.0580 8.7589 0.0951 50.0054 11.7271
# 6 11.9245 18.0715 -2.3114 -1.6012 11.7271 44.8017
#
#
#
# Elastic Compliance Matrix: (Units=1/GPa)
#
#
# Indices 1 2 3 4 5 6 
#
# 1 0.020965 -0.009707 -0.004673 -0.006080 -0.017852 0.002550
# 2 -0.009707 0.037674 -0.013994 0.020827 0.011060 -0.015486
# 3 -0.004673 -0.013994 0.020829 -0.005547 0.000220 0.007707
# 4 -0.006080 0.020827 -0.005547 0.045818 0.005946 -0.006988
# 5 -0.017852 0.011060 0.000220 0.005946 0.037230 -0.009231
# 6 0.002550 -0.015486 0.007707 -0.006988 -0.009231 0.030452
#
#
# Mechanical properties :
#
#
# Convention : Reuss Voigt Hill
#
# Bulk Modulus (GPa) = 44.01074 57.82655 50.91865
# Shear Modulus (GPa) = 19.43340 34.27695 26.85518
#
# Velocity S-wave (km/s) = 2.88512 3.83170 3.39160
# Velocity P-wave (km/s) = 5.47264 6.65919 6.09486
#
# Compressibility (1/GPa) = 0.02272173
#
# Stress axis : x y z
#
# Youngs Moduli (GPa) = 47.69921 26.54337 48.00939
#
# Poissons Ratio (x) = 0.25765 0.22434
# Poissons Ratio (y) = 0.46301 0.67182
# Poissons Ratio (z) = 0.22289 0.37143
#
# Static dielectric constant tensor:
#      x y z
#    x 4.344420 -0.033960 0.044150 
#    y -0.033960 4.049150 -0.048520 
#    z 0.044150 -0.048520 4.050700 
# 
# 
# High freq. dielectric constant tensor:
#      x y z
#    x 1.947660 -0.002160 0.005140 
#    y -0.002160 1.903080 0.000260 
#    z 0.005140 0.000260 1.905320 
# 
# From -- ./inp_files/91453.got.cif
#   From: 2010.06.25/outbox.cif.g09.slc.cpg/sg2_46_cif.got.tgz:91453.got - 2010.06.27 13:26:56.
