data_PCOD8022193
_publ_section_title
;
Structure prediction by ZEFSAII (Michael W. Deem and Ramdas Pophale) SiO2 
 PCOD8022193
Probable space group: P -1
;
_chemical_formula_sum "Si O2"
_cell_formula_units_Z 12
_cell_length_a 5.083867
_cell_length_b 14.599149
_cell_length_c 8.317622
_cell_angle_alpha 64.308563
_cell_angle_beta 59.658812
_cell_angle_gamma 82.745474
_cell_volume 476.686536
_symmetry_space_group_name_H-M "P -1"
_symmetry_group_IT_number 2
_symmetry_cell_setting 'triclinic'
loop_
_space_group_symop_operation_xyz
x,y,z
-x,-y,-z
loop_
_atom_site_type_symbol
_atom_site_label
_atom_site_fract_x
_atom_site_fract_y
_atom_site_fract_z
Si Si1 0.626697 0.753625 0.072138
Si Si2 0.165939 0.068079 0.613075
Si Si3 0.535592 0.962448 0.836537
Si Si4 0.381373 0.382333 0.111110
Si Si5 0.281976 0.798596 0.759559
Si Si6 0.147059 0.747957 0.486934
O O1 0.458245 0.835950 0.955982
O O2 0.647837 0.650032 0.042723
O O3 0.976117 0.805965 0.953879
O O4 0.448163 0.724207 0.314887
O O5 0.456050 0.100114 0.369807
O O6 0.048681 0.177407 0.612657
O O7 0.287181 0.018578 0.772665
O O8 0.898900 0.994072 0.662181
O O9 0.500000 0.000000 0.000000
O O10 0.617925 0.313661 0.168632
O O11 0.057746 0.359021 0.323595
O O12 0.500000 0.500000 0.000000
O O13 0.229374 0.811485 0.575457
#
# Coordination Sequence:
#
# PCOD8022193 Si02
#       6
#     2   2   2   2   2   2
#     4  11  25  41  69 104 132 187 236 279 347 415
#     4  11  22  42  65  98 149 189 224 281 337 401
#     4  12  24  38  69 103 145 190 233 277 337 411
#     4  10  25  47  69  97 137 178 231 299 357 413
#     4  10  23  45  68  99 139 180 234 289 343 415
#     4  10  22  45  68 101 140 182 229 291 339 419
#
# _framework density 25.173777000000001
#
# number of rings (size 3 to 8) (size 9 to 14) (size 15 to 20)
#    0.000    1.333    3.333    0.500    2.333    7.333 
#    0.000    1.667    0.000    0.000    0.000    0.000 
#    0.000    0.000    0.000    0.000    0.000    0.000 
#
# Total GULP energy -148739.685714 kJ/mol
# GULP energy per Si atom -12394.973809 kJ/mol
# Density = 2.511648 g / cm^3
# Si number density = 25.173777 Si / 1000 Ang^3
#
#
#
# Elastic Constant Matrix: (Units=GPa)
#
#
# Indices 1 2 3 4 5 6 
#
# 1 133.5105 36.5302 55.2612 -9.8653 -20.4785 1.6471
# 2 36.5302 162.3257 72.8535 -31.7887 -16.0681 18.1242
# 3 55.2612 72.8535 205.1569 18.0039 -46.7792 3.9438
# 4 -9.8653 -31.7887 18.0039 49.2382 -2.9498 -7.9316
# 5 -20.4785 -16.0681 -46.7792 -2.9498 44.0851 -8.4590
# 6 1.6471 18.1242 3.9438 -7.9316 -8.4590 29.7720
#
#
#
# Elastic Compliance Matrix: (Units=1/GPa)
#
#
# Indices 1 2 3 4 5 6 
#
# 1 0.008974 -0.000606 -0.001908 0.002482 0.002370 0.001459
# 2 -0.000606 0.009871 -0.004215 0.007071 -0.001440 -0.003942
# 3 -0.001908 -0.004215 0.008957 -0.005632 0.007089 0.001999
# 4 0.002482 0.007071 -0.005632 0.028081 0.000380 0.003893
# 5 0.002370 -0.001440 0.007089 0.000380 0.032564 0.009160
# 6 0.001459 -0.003942 0.001999 0.003893 0.009160 0.039283
#
#
# Mechanical properties :
#
#
# Convention : Reuss Voigt Hill
#
# Bulk Modulus (GPa) = 69.70972 92.25367 80.98170
# Shear Modulus (GPa) = 34.25354 47.04227 40.64791
#
# Velocity S-wave (km/s) = 3.69275 4.32754 4.02268
# Velocity P-wave (km/s) = 6.77741 7.85471 7.33586
#
# Compressibility (1/GPa) = 0.01434520
#
# Stress axis : x y z
#
# Youngs Moduli (GPa) = 111.42994 101.30558 111.64170
#
# Poissons Ratio (x) = 0.06137 0.21297
# Poissons Ratio (y) = 0.06751 0.47059
# Poissons Ratio (z) = 0.21257 0.42703
#
# Static dielectric constant tensor:
#      x y z
#    x 5.141170 0.095450 -0.319860 
#    y 0.095450 4.164490 0.142010 
#    z -0.319860 0.142010 4.905750 
# 
# 
# High freq. dielectric constant tensor:
#      x y z
#    x 2.024090 0.003640 -0.004890 
#    y 0.003640 1.973880 0.011240 
#    z -0.004890 0.011240 2.024390 
# 
# From -- ./inp_files/134009.got.cif
#   From: 2010.06.25/outbox.cif.g09.slc.cpg/sg2_68_cif.got.tgz:134009.got - 2010.06.27 13:26:56.
