data_PCOD8022445
_publ_section_title
;
Structure prediction by ZEFSAII (Michael W. Deem and Ramdas Pophale) SiO2 
 PCOD8022445
Probable space group: P -1
;
_chemical_formula_sum "Si O2"
_cell_formula_units_Z 16
_cell_length_a 6.123873
_cell_length_b 12.098374
_cell_length_c 11.265541
_cell_angle_alpha 112.196187
_cell_angle_beta 66.450787
_cell_angle_gamma 106.829354
_cell_volume 698.932533
_symmetry_space_group_name_H-M "P -1"
_symmetry_group_IT_number 2
_symmetry_cell_setting 'triclinic'
loop_
_space_group_symop_operation_xyz
x,y,z
-x,-y,-z
loop_
_atom_site_type_symbol
_atom_site_label
_atom_site_fract_x
_atom_site_fract_y
_atom_site_fract_z
Si Si1 0.578341 0.165775 0.460166
Si Si2 0.319960 0.165046 0.882268
Si Si3 0.159751 0.043995 0.637651
Si Si4 0.644218 0.978265 0.757490
Si Si5 0.201936 0.597279 0.842335
Si Si6 0.688176 0.774997 0.837395
Si Si7 0.308108 0.416247 0.927447
Si Si8 0.072432 0.617686 0.610395
O O1 0.322527 0.155954 0.580083
O O2 0.541405 0.117070 0.314519
O O3 0.710732 0.302813 0.477831
O O4 0.736405 0.079745 0.459901
O O5 0.151412 0.075388 0.793823
O O6 0.408946 0.289483 0.840492
O O7 0.539494 0.100660 0.855648
O O8 0.198042 0.202767 0.045914
O O9 0.884686 0.021884 0.643739
O O10 0.710376 0.908904 0.831685
O O11 0.409259 0.710950 0.873020
O O12 0.289144 0.476919 0.827682
O O13 0.163040 0.579903 0.703248
O O14 0.955255 0.614209 0.967277
O O15 0.850694 0.692391 0.698476
O O16 0.500000 0.500000 0.000000
O O17 0.000000 0.500000 0.500000
#
# Coordination Sequence:
#
# PCOD8022445 Si02
#       8
#     2   2   2   2   2   2   2   2
#     4  10  22  46  67  99 144 182 239 299 343 421
#     4  11  25  41  68 109 140 181 237 284 360 428
#     4  10  23  42  69 104 138 186 235 291 356 418
#     4  11  23  42  73 105 141 189 232 292 366 422
#     4  11  24  44  73  95 139 189 232 290 364 402
#     4  12  24  46  68 104 148 180 233 297 353 431
#     4  11  23  45  69  98 143 188 234 292 347 422
#     4  12  26  47  73 105 141 192 242 293 359 427
#
# _framework density 22.892052
#
# number of rings (size 3 to 8) (size 9 to 14) (size 15 to 20)
#    0.000    1.000    5.000    0.750    1.750    3.000 
#    2.250    0.000    0.000    0.000    0.000    0.000 
#    0.000    0.000    0.000    0.000    0.000    0.000 
#
# Total GULP energy -198347.507602 kJ/mol
# GULP energy per Si atom -12396.719225 kJ/mol
# Density = 2.283995 g / cm^3
# Si number density = 22.892052 Si / 1000 Ang^3
#
#
#
# Elastic Constant Matrix: (Units=GPa)
#
#
# Indices 1 2 3 4 5 6 
#
# 1 84.0482 62.6900 13.4153 -6.1179 -3.3225 -3.3025
# 2 62.6900 180.1744 48.1618 -7.8485 -5.3217 -10.0704
# 3 13.4153 48.1618 69.7070 -3.9274 5.4733 1.8514
# 4 -6.1179 -7.8485 -3.9274 39.3220 0.1399 -2.8720
# 5 -3.3225 -5.3217 5.4733 0.1399 34.7011 -7.4133
# 6 -3.3025 -10.0704 1.8514 -2.8720 -7.4133 52.3207
#
#
#
# Elastic Compliance Matrix: (Units=1/GPa)
#
#
# Indices 1 2 3 4 5 6 
#
# 1 0.016209 -0.005810 0.000936 0.001456 0.000513 0.000024
# 2 -0.005810 0.009220 -0.005440 0.000526 0.002126 0.001930
# 3 0.000936 -0.005440 0.018347 0.000748 -0.004107 -0.002178
# 4 0.001456 0.000526 0.000748 0.025956 0.000348 0.001641
# 5 0.000513 0.002126 -0.004107 0.000348 0.030904 0.004985
# 6 0.000024 0.001930 -0.002178 0.001641 0.004985 0.020359
#
#
# Mechanical properties :
#
#
# Convention : Reuss Voigt Hill
#
# Bulk Modulus (GPa) = 43.20259 64.71820 53.96040
# Shear Modulus (GPa) = 33.48062 39.24626 36.36344
#
# Velocity S-wave (km/s) = 3.82847 4.14503 3.98989
# Velocity P-wave (km/s) = 6.20131 7.15827 6.69690
#
# Compressibility (1/GPa) = 0.02314676
#
# Stress axis : x y z
#
# Youngs Moduli (GPa) = 61.69242 108.46392 54.50497
#
# Poissons Ratio (x) = 0.63020 -0.05101
# Poissons Ratio (y) = 0.35845 0.29653
# Poissons Ratio (z) = -0.05774 0.59009
#
# Static dielectric constant tensor:
#      x y z
#    x 4.206910 -0.137910 0.021990 
#    y -0.137910 4.271110 -0.186830 
#    z 0.021990 -0.186830 3.926000 
# 
# 
# High freq. dielectric constant tensor:
#      x y z
#    x 1.908180 -0.005440 0.008960 
#    y -0.005440 1.912320 -0.011570 
#    z 0.008960 -0.011570 1.889600 
# 
# From -- ./inp_files/364987.got.cif
#   From: 2010.06.25/outbox.cif.g09.slc.cpg/sg2_183_cif.got.tgz:364987.got - 2010.06.27 13:26:56.
