data_PCOD8022745
_publ_section_title
;
Structure prediction by ZEFSAII (Michael W. Deem and Ramdas Pophale) SiO2 
 PCOD8022745
Probable space group: P -1
;
_chemical_formula_sum "Si O2"
_cell_formula_units_Z 14
_cell_length_a 10.635071
_cell_length_b 11.828842
_cell_length_c 7.463842
_cell_angle_alpha 99.256306
_cell_angle_beta 86.007007
_cell_angle_gamma 146.190326
_cell_volume 512.150253
_symmetry_space_group_name_H-M "P -1"
_symmetry_group_IT_number 2
_symmetry_cell_setting 'triclinic'
loop_
_space_group_symop_operation_xyz
x,y,z
-x,-y,-z
loop_
_atom_site_type_symbol
_atom_site_label
_atom_site_fract_x
_atom_site_fract_y
_atom_site_fract_z
Si Si1 0.241139 0.058445 0.547713
Si Si2 0.461687 0.004794 0.209587
Si Si3 0.977827 0.925984 0.213797
Si Si4 0.324714 0.470172 0.015039
Si Si5 0.987242 0.279861 0.300291
Si Si6 0.327628 0.090195 0.014693
Si Si7 0.713910 0.290615 0.567215
O O1 0.159973 0.074481 0.395566
O O2 0.060752 0.817379 0.529318
O O3 0.207741 0.111431 0.749665
O O4 0.501807 0.218102 0.561259
O O5 0.352370 0.049631 0.202132
O O6 0.288486 0.788990 0.273535
O O7 0.685792 0.187675 0.365080
O O8 0.500000 0.000000 0.000000
O O9 0.859909 0.710817 0.160924
O O10 0.140968 0.052158 0.050217
O O11 0.429677 0.673378 0.006851
O O12 0.500000 0.500000 0.000000
O O13 0.200270 0.387402 0.198653
O O14 0.050615 0.459932 0.388090
O O15 0.752204 0.073248 0.156683
#
# Coordination Sequence:
#
# PCOD8022745 Si02
#       7
#     2   2   2   2   2   2   2
#     4  11  22  42  63  99 138 168 222 275 330 406
#     4  11  24  46  72  96 133 180 227 283 337 398
#     4  10  23  38  66  97 132 179 216 269 336 401
#     4  11  22  39  64  98 135 179 221 269 336 399
#     4  11  23  39  67  97 130 176 218 278 337 398
#     4  11  23  44  66  97 137 173 226 277 330 404
#     4  11  25  46  69  99 137 176 227 283 336 398
#
# _framework density 27.335726999999999
#
# number of rings (size 3 to 8) (size 9 to 14) (size 15 to 20)
#    0.000    1.143    1.429    5.143    2.000    2.857 
#    0.000   12.857    0.000    0.000    0.000    0.000 
#    0.000    0.000    0.000    0.000    0.000    0.000 
#
# Total GULP energy -173465.245480 kJ/mol
# GULP energy per Si atom -12390.374677 kJ/mol
# Density = 2.727351 g / cm^3
# Si number density = 27.335727 Si / 1000 Ang^3
#
#
#
# Elastic Constant Matrix: (Units=GPa)
#
#
# Indices 1 2 3 4 5 6 
#
# 1 59.0380 11.3627 13.8834 12.6803 -13.9595 0.1732
# 2 11.3627 180.6727 22.9448 16.8477 -11.3312 -11.6371
# 3 13.8834 22.9448 110.6594 18.3327 -23.0870 -3.9741
# 4 12.6803 16.8477 18.3327 28.3158 -13.7496 -3.3471
# 5 -13.9595 -11.3312 -23.0870 -13.7496 33.0248 5.4621
# 6 0.1732 -11.6371 -3.9741 -3.3471 5.4621 34.5426
#
#
#
# Elastic Compliance Matrix: (Units=1/GPa)
#
#
# Indices 1 2 3 4 5 6 
#
# 1 0.019717 -0.000413 -0.000267 -0.005753 0.005902 -0.001759
# 2 -0.000413 0.006012 -0.000680 -0.002760 -0.000015 0.001684
# 3 -0.000267 -0.000680 0.011053 -0.003832 0.005826 -0.000249
# 4 -0.005753 -0.002760 -0.003832 0.049031 0.014162 0.001170
# 5 0.005902 -0.000015 0.005826 0.014162 0.043546 -0.004878
# 6 -0.001759 0.001684 -0.000249 0.001170 -0.004878 0.030382
#
#
# Mechanical properties :
#
#
# Convention : Reuss Voigt Hill
#
# Bulk Modulus (GPa) = 29.35827 49.63911 39.49869
# Shear Modulus (GPa) = 28.76636 39.32192 34.04414
#
# Velocity S-wave (km/s) = 3.24749 3.79685 3.53286
# Velocity P-wave (km/s) = 4.98245 6.11718 5.57874
#
# Compressibility (1/GPa) = 0.03406195
#
# Stress axis : x y z
#
# Youngs Moduli (GPa) = 50.71829 166.33029 90.47559
#
# Poissons Ratio (x) = 0.06866 0.02414
# Poissons Ratio (y) = 0.02094 0.06154
# Poissons Ratio (z) = 0.01353 0.11313
#
# Static dielectric constant tensor:
#      x y z
#    x 6.227390 -0.053300 -0.075050 
#    y -0.053300 5.159450 0.225230 
#    z -0.075050 0.225230 5.472220 
# 
# 
# High freq. dielectric constant tensor:
#      x y z
#    x 2.132780 0.008640 -0.031530 
#    y 0.008640 2.091390 0.002800 
#    z -0.031530 0.002800 2.130610 
# 
# From -- ./inp_files/262692.got.cif
#   From: 2010.06.25/outbox.cif.g09.slc.cpg/sg2_132_cif.got.tgz:262692.got - 2010.06.27 13:26:56.
