data_PCOD8022472
_publ_section_title
;
Structure prediction by ZEFSAII (Michael W. Deem and Ramdas Pophale) SiO2 
 PCOD8022472
Probable space group: P -1
;
_chemical_formula_sum "Si O2"
_cell_formula_units_Z 14
_cell_length_a 9.955201
_cell_length_b 23.333948
_cell_length_c 9.354433
_cell_angle_alpha 45.684417
_cell_angle_beta 44.644782
_cell_angle_gamma 24.291457
_cell_volume 618.649201
_symmetry_space_group_name_H-M "P -1"
_symmetry_group_IT_number 2
_symmetry_cell_setting 'triclinic'
loop_
_space_group_symop_operation_xyz
x,y,z
-x,-y,-z
loop_
_atom_site_type_symbol
_atom_site_label
_atom_site_fract_x
_atom_site_fract_y
_atom_site_fract_z
Si Si1 0.532343 0.464552 0.373244
Si Si2 0.689657 0.233309 0.688859
Si Si3 0.281963 0.054353 0.767019
Si Si4 0.961023 0.124964 0.177878
Si Si5 0.797331 0.354044 0.947933
Si Si6 0.211285 0.256945 0.058317
Si Si7 0.233787 0.977051 0.519344
O O1 0.500000 0.500000 0.500000
O O2 0.520277 0.373469 0.519058
O O3 0.214595 0.611528 0.268333
O O4 0.880047 0.378742 0.194586
O O5 0.935866 0.167253 0.748236
O O6 0.394403 0.278602 0.890044
O O7 0.886738 0.122970 0.603559
O O8 0.447309 0.083801 0.555681
O O9 0.546661 0.895052 0.794150
O O10 0.207426 0.069364 0.963737
O O11 0.715970 0.135838 0.296677
O O12 0.743248 0.276583 0.129352
O O13 0.203811 0.007795 0.321643
O O14 0.500000 0.500000 0.000000
O O15 0.134121 0.261205 0.942632
#
# Coordination Sequence:
#
# PCOD8022472 Si02
#       7
#     2   2   2   2   2   2   2
#     4  11  25  47  68  97 133 181 232 271 322 403
#     4  12  25  43  68 101 136 177 223 272 343 400
#     4  12  23  42  67 103 141 172 213 283 349 393
#     4  11  23  40  66 102 132 168 229 276 335 397
#     4  10  22  46  69  91 136 183 221 269 326 396
#     4  11  24  43  71  95 137 179 216 283 338 392
#     4  11  23  39  67 101 134 169 219 274 339 399
#
# _framework density 22.629949
#
# number of rings (size 3 to 8) (size 9 to 14) (size 15 to 20)
#    0.000    0.857    4.286    3.000    0.000    1.143 
#    0.000    7.143    0.000    0.000    0.000    0.000 
#    0.000    0.000    0.000    0.000    0.000    0.000 
#
# Total GULP energy -173622.581527 kJ/mol
# GULP energy per Si atom -12401.612966 kJ/mol
# Density = 2.257844 g / cm^3
# Si number density = 22.629949 Si / 1000 Ang^3
#
#
#
# Elastic Constant Matrix: (Units=GPa)
#
#
# Indices 1 2 3 4 5 6 
#
# 1 126.5306 40.1628 79.1592 -9.4317 -31.6430 3.5800
# 2 40.1628 70.9456 48.1742 -10.9135 -21.1356 12.4525
# 3 79.1592 48.1742 121.9717 -1.8583 -26.2292 -0.5002
# 4 -9.4317 -10.9135 -1.8583 47.3613 7.6934 0.0531
# 5 -31.6430 -21.1356 -26.2292 7.6934 62.2415 0.6478
# 6 3.5800 12.4525 -0.5002 0.0531 0.6478 36.5589
#
#
#
# Elastic Compliance Matrix: (Units=1/GPa)
#
#
# Indices 1 2 3 4 5 6 
#
# 1 0.014330 -0.001147 -0.008122 0.001741 0.003270 -0.001184
# 2 -0.001147 0.022946 -0.007511 0.004187 0.003608 -0.007876
# 3 -0.008122 -0.007511 0.016537 -0.002801 0.000598 0.003573
# 4 0.001741 0.004187 -0.002801 0.022585 -0.001648 -0.001639
# 5 0.003270 0.003608 0.000598 -0.001648 0.019429 -0.001883
# 6 -0.001184 -0.007876 0.003573 -0.001639 -0.001883 0.030237
#
#
# Mechanical properties :
#
#
# Convention : Reuss Voigt Hill
#
# Bulk Modulus (GPa) = 49.37669 72.71559 61.04614
# Shear Modulus (GPa) = 30.05254 39.36244 34.70749
#
# Velocity S-wave (km/s) = 3.64813 4.17513 3.92049
# Velocity P-wave (km/s) = 6.29378 7.44611 6.89406
#
# Compressibility (1/GPa) = 0.02025247
#
# Stress axis : x y z
#
# Youngs Moduli (GPa) = 69.78587 43.57980 60.47107
#
# Poissons Ratio (x) = 0.05000 0.49114
# Poissons Ratio (y) = 0.08007 0.45420
# Poissons Ratio (z) = 0.56679 0.32733
#
# Static dielectric constant tensor:
#      x y z
#    x 4.419080 -0.020150 0.159750 
#    y -0.020150 4.106570 -0.344930 
#    z 0.159750 -0.344930 4.453110 
# 
# 
# High freq. dielectric constant tensor:
#      x y z
#    x 1.900850 0.013400 0.005600 
#    y 0.013400 1.876590 -0.007860 
#    z 0.005600 -0.007860 1.904020 
# 
# From -- ./inp_files/217806.got.cif
#   From: 2010.06.25/outbox.cif.g09.slc.cpg/sg2_109_cif.got.tgz:217806.got - 2010.06.27 13:26:56.
