data_PCOD8022788
_publ_section_title
;
Structure prediction by ZEFSAII (Michael W. Deem and Ramdas Pophale) SiO2 
 PCOD8022788
Probable space group: P -1
;
_chemical_formula_sum "Si O2"
_cell_formula_units_Z 16
_cell_length_a 9.693241
_cell_length_b 15.363357
_cell_length_c 12.273311
_cell_angle_alpha 134.213691
_cell_angle_beta 132.832539
_cell_angle_gamma 36.152721
_cell_volume 742.770429
_symmetry_space_group_name_H-M "P -1"
_symmetry_group_IT_number 2
_symmetry_cell_setting 'triclinic'
loop_
_space_group_symop_operation_xyz
x,y,z
-x,-y,-z
loop_
_atom_site_type_symbol
_atom_site_label
_atom_site_fract_x
_atom_site_fract_y
_atom_site_fract_z
Si Si1 0.375749 0.692074 0.228826
Si Si2 0.480702 0.845891 0.069241
Si Si3 0.723283 0.863511 0.425614
Si Si4 0.541182 0.842373 0.867348
Si Si5 0.803717 0.670162 0.491181
Si Si6 0.403153 0.639761 0.960631
Si Si7 0.138619 0.198735 0.170399
Si Si8 0.974202 0.022961 0.376431
O O1 0.547479 0.708447 0.405248
O O2 0.406008 0.536888 0.140238
O O3 0.102446 0.852674 0.239691
O O4 0.484400 0.662214 0.139039
O O5 0.641766 0.843279 0.246737
O O6 0.247662 0.019778 0.057501
O O7 0.628646 0.758090 0.959644
O O8 0.369495 0.762156 0.966723
O O9 0.855361 0.700175 0.422316
O O10 0.500000 0.000000 0.500000
O O11 0.907595 0.899402 0.534181
O O12 0.758972 0.743388 0.809954
O O13 0.306242 0.867352 0.715159
O O14 0.500000 0.000000 0.000000
O O15 0.781128 0.799704 0.663904
O O16 0.000000 0.500000 0.500000
O O17 0.150203 0.677031 0.884979
O O18 0.000000 0.000000 0.500000
#
# Coordination Sequence:
#
# PCOD8022788 Si02
#       8
#     2   2   2   2   2   2   2   2
#     4  11  22  40  62  95 130 168 211 266 334 384
#     4  11  21  39  63  97 132 163 223 269 322 392
#     4  12  23  40  68  97 126 172 224 277 323 382
#     4  10  23  39  61  96 131 170 212 264 329 387
#     4  12  23  40  63  95 131 165 217 275 327 383
#     4  11  23  37  65  95 132 166 210 268 330 387
#     4  11  22  39  65  94 129 173 213 267 324 386
#     4  12  24  43  69  96 134 173 225 273 323 397
#
# _framework density 21.540977000000002
#
# number of rings (size 3 to 8) (size 9 to 14) (size 15 to 20)
#    0.000    0.750    5.000    4.125    1.750    0.000 
#    0.000    1.250    0.000   10.500    0.000    0.000 
#    0.000    0.000    0.000    0.000    0.000    0.000 
#
# Total GULP energy -198260.481693 kJ/mol
# GULP energy per Si atom -12391.280106 kJ/mol
# Density = 2.149195 g / cm^3
# Si number density = 21.540977 Si / 1000 Ang^3
#
#
#
# Elastic Constant Matrix: (Units=GPa)
#
#
# Indices 1 2 3 4 5 6 
#
# 1 144.0697 50.7054 52.6701 -7.0391 5.7467 16.8546
# 2 50.7054 92.9512 27.4399 0.9787 -1.9666 18.2770
# 3 52.6701 27.4399 92.7526 -14.6332 0.4934 6.9685
# 4 -7.0391 0.9787 -14.6332 33.6475 2.4184 -0.8275
# 5 5.7467 -1.9666 0.4934 2.4184 31.9072 -9.1591
# 6 16.8546 18.2770 6.9685 -0.8275 -9.1591 27.7256
#
#
#
# Elastic Compliance Matrix: (Units=1/GPa)
#
#
# Indices 1 2 3 4 5 6 
#
# 1 0.010484 -0.003717 -0.004471 0.000492 -0.003187 -0.003837
# 2 -0.003717 0.014828 -0.002097 -0.002278 -0.000262 -0.007142
# 3 -0.004471 -0.002097 0.014768 0.005549 0.000206 0.000622
# 4 0.000492 -0.002278 0.005549 0.032501 -0.002822 -0.000154
# 5 -0.003187 -0.000262 0.000206 -0.002822 0.036099 0.013899
# 6 -0.003837 -0.007142 0.000622 -0.000154 0.013899 0.047539
#
#
# Mechanical properties :
#
#
# Convention : Reuss Voigt Hill
#
# Bulk Modulus (GPa) = 51.25700 65.71159 58.48429
# Shear Modulus (GPa) = 27.27857 31.91995 29.59926
#
# Velocity S-wave (km/s) = 3.56245 3.85362 3.71089
# Velocity P-wave (km/s) = 6.38500 7.09734 6.75057
#
# Compressibility (1/GPa) = 0.01950953
#
# Stress axis : x y z
#
# Youngs Moduli (GPa) = 95.38406 67.43946 67.71318
#
# Poissons Ratio (x) = 0.25069 0.30273
# Poissons Ratio (y) = 0.35457 0.14201
# Poissons Ratio (z) = 0.42644 0.14144
#
# Static dielectric constant tensor:
#      x y z
#    x 4.381630 0.236340 -0.328050 
#    y 0.236340 3.919060 -0.275120 
#    z -0.328050 -0.275120 4.457560 
# 
# 
# High freq. dielectric constant tensor:
#      x y z
#    x 1.841670 0.015410 -0.001580 
#    y 0.015410 1.823660 -0.009670 
#    z -0.001580 -0.009670 1.864500 
# 
# From -- ./inp_files/271605.got.cif
#   From: 2010.06.25/outbox.cif.g09.slc.cpg/sg2_136_cif.got.tgz:271605.got - 2010.06.27 13:26:56.
