data_PCOD8022740
_publ_section_title
;
Structure prediction by ZEFSAII (Michael W. Deem and Ramdas Pophale) SiO2 
 PCOD8022740
Probable space group: P -1
;
_chemical_formula_sum "Si O2"
_cell_formula_units_Z 16
_cell_length_a 13.586871
_cell_length_b 5.183554
_cell_length_c 13.431676
_cell_angle_alpha 64.804129
_cell_angle_beta 73.719758
_cell_angle_gamma 53.805856
_cell_volume 690.241215
_symmetry_space_group_name_H-M "P -1"
_symmetry_group_IT_number 2
_symmetry_cell_setting 'triclinic'
loop_
_space_group_symop_operation_xyz
x,y,z
-x,-y,-z
loop_
_atom_site_type_symbol
_atom_site_label
_atom_site_fract_x
_atom_site_fract_y
_atom_site_fract_z
Si Si1 0.644569 0.241564 0.014359
Si Si2 0.774941 0.080215 0.518388
Si Si3 0.768105 0.897951 0.237198
Si Si4 0.411944 0.156356 0.590674
Si Si5 0.277397 0.244960 0.109355
Si Si6 0.095808 0.892723 0.706405
Si Si7 0.837672 0.072989 0.724309
Si Si8 0.641281 0.802312 0.700849
O O1 0.725691 0.406344 0.949305
O O2 0.675946 0.943315 0.977576
O O3 0.500000 0.500000 0.000000
O O4 0.678345 0.087882 0.139794
O O5 0.657866 0.443096 0.463426
O O6 0.874077 0.953854 0.422987
O O7 0.840381 0.069703 0.604376
O O8 0.718808 0.850019 0.585192
O O9 0.685531 0.951778 0.349466
O O10 0.853455 0.501227 0.254302
O O11 0.850619 0.044797 0.218727
O O12 0.500000 0.000000 0.500000
O O13 0.498210 0.010060 0.686549
O O14 0.359851 0.042860 0.216431
O O15 0.152777 0.261077 0.173446
O O16 0.950159 0.095144 0.726161
O O17 0.709321 0.393304 0.751334
#
# Coordination Sequence:
#
# PCOD8022740 Si02
#       8
#     2   2   2   2   2   2   2   2
#     4  12  25  47  74 101 136 175 221 285 342 408
#     4  10  23  38  66 102 137 181 228 271 341 401
#     4  11  27  45  69 100 134 179 223 277 346 400
#     4  11  21  41  65 102 142 174 218 280 337 409
#     4  11  25  44  69 105 132 171 236 273 340 398
#     4  11  26  46  66  98 142 179 230 276 329 402
#     4  11  24  44  70  98 137 184 228 279 326 404
#     4  11  22  40  69 103 136 181 225 277 346 397
#
# _framework density 23.180302000000001
#
# number of rings (size 3 to 8) (size 9 to 14) (size 15 to 20)
#    0.000    1.000    2.500    3.375    5.250    3.500 
#    0.000    3.750    0.000    0.000    0.000    0.000 
#    0.000    0.000    0.000    0.000    0.000    0.000 
#
# Total GULP energy -198266.911487 kJ/mol
# GULP energy per Si atom -12391.681968 kJ/mol
# Density = 2.312754 g / cm^3
# Si number density = 23.180302 Si / 1000 Ang^3
#
#
#
# Elastic Constant Matrix: (Units=GPa)
#
#
# Indices 1 2 3 4 5 6 
#
# 1 117.6608 24.6181 16.6278 -2.2135 0.2187 7.0747
# 2 24.6181 55.9435 17.2281 -3.6786 -0.6463 12.3562
# 3 16.6278 17.2281 84.1094 -1.6260 3.5435 2.1230
# 4 -2.2135 -3.6786 -1.6260 25.2907 11.3568 4.7163
# 5 0.2187 -0.6463 3.5435 11.3568 33.9173 -4.2260
# 6 7.0747 12.3562 2.1230 4.7163 -4.2260 34.9043
#
#
#
# Elastic Compliance Matrix: (Units=1/GPa)
#
#
# Indices 1 2 3 4 5 6 
#
# 1 0.009467 -0.003661 -0.001086 0.000461 -0.000253 -0.000650
# 2 -0.003661 0.022648 -0.003537 0.005071 -0.001866 -0.007972
# 3 -0.001086 -0.003537 0.012907 0.000900 -0.001665 0.000364
# 4 0.000461 0.005071 0.000900 0.050663 -0.018336 -0.011009
# 5 -0.000253 -0.001866 -0.001665 -0.018336 0.036727 0.007737
# 6 -0.000650 -0.007972 0.000364 -0.011009 0.007737 0.034006
#
#
# Mechanical properties :
#
#
# Convention : Reuss Voigt Hill
#
# Bulk Modulus (GPa) = 35.14453 41.62909 38.38681
# Shear Modulus (GPa) = 25.97822 32.10509 29.04166
#
# Velocity S-wave (km/s) = 3.35132 3.72562 3.54342
# Velocity P-wave (km/s) = 5.49267 6.04192 5.77383
#
# Compressibility (1/GPa) = 0.02845393
#
# Stress axis : x y z
#
# Youngs Moduli (GPa) = 105.63523 44.15409 77.47837
#
# Poissons Ratio (x) = 0.16163 0.08412
# Poissons Ratio (y) = 0.38668 0.27408
# Poissons Ratio (z) = 0.11469 0.15619
#
# Static dielectric constant tensor:
#      x y z
#    x 4.316840 0.319780 0.052520 
#    y 0.319780 3.689640 -0.203540 
#    z 0.052520 -0.203540 4.503820 
# 
# 
# High freq. dielectric constant tensor:
#      x y z
#    x 1.928410 0.016010 -0.001190 
#    y 0.016010 1.891140 -0.001970 
#    z -0.001190 -0.001970 1.927930 
# 
# From -- ./inp_files/525207.got.cif
#   From: 2010.06.25/outbox.cif.g09.slc.cpg/sg2_263_cif.got.tgz:525207.got - 2010.06.27 13:26:56.
