data_PCOD8022738
_publ_section_title
;
Structure prediction by ZEFSAII (Michael W. Deem and Ramdas Pophale) SiO2 
 PCOD8022738
Probable space group: P -1
;
_chemical_formula_sum "Si O2"
_cell_formula_units_Z 12
_cell_length_a 9.208317
_cell_length_b 16.436216
_cell_length_c 5.328553
_cell_angle_alpha 123.902339
_cell_angle_beta 101.427569
_cell_angle_gamma 54.534483
_cell_volume 535.697753
_symmetry_space_group_name_H-M "P -1"
_symmetry_group_IT_number 2
_symmetry_cell_setting 'triclinic'
loop_
_space_group_symop_operation_xyz
x,y,z
-x,-y,-z
loop_
_atom_site_type_symbol
_atom_site_label
_atom_site_fract_x
_atom_site_fract_y
_atom_site_fract_z
Si Si1 0.721760 0.310074 0.165030
Si Si2 0.428396 0.449274 0.693215
Si Si3 0.896397 0.796381 0.813645
Si Si4 0.323906 0.130251 0.615240
Si Si5 0.592648 0.677665 0.122879
Si Si6 0.934464 0.473984 0.679790
O O1 0.607102 0.341883 0.432013
O O2 0.720846 0.427783 0.296449
O O3 0.931721 0.196266 0.069659
O O4 0.619041 0.274584 0.878877
O O5 0.335596 0.390637 0.699611
O O6 0.500000 0.500000 0.000000
O O7 0.774451 0.880107 0.681168
O O8 0.988096 0.663660 0.510835
O O9 0.792696 0.824094 0.090147
O O10 0.385373 0.215309 0.705259
O O11 0.500000 0.000000 0.500000
O O12 0.711719 0.573636 0.772301
O O13 0.000000 0.500000 0.500000
O O14 0.000000 0.500000 0.000000
#
# Coordination Sequence:
#
# PCOD8022738 Si02
#       6
#     2   2   2   2   2   2
#     4  10  23  38  66 101 137 177 216 276 350 405
#     4   9  19  36  61  98 145 171 211 258 351 414
#     4  12  25  46  72 100 136 177 231 289 338 409
#     4  12  29  50  70  95 136 187 236 286 337 393
#     4  11  24  41  69 100 141 179 220 280 338 415
#     4  12  23  38  65 109 138 171 220 273 346 409
#
# _framework density 22.400691999999999
#
# number of rings (size 3 to 8) (size 9 to 14) (size 15 to 20)
#    0.000    1.000    3.333    3.500   14.000    0.000 
#    0.000    1.667    0.000    0.000    0.000    0.000 
#    0.000    0.000    0.000    0.000    0.000    0.000 
#
# Total GULP energy -148678.664271 kJ/mol
# GULP energy per Si atom -12389.888689 kJ/mol
# Density = 2.234971 g / cm^3
# Si number density = 22.400692 Si / 1000 Ang^3
#
#
#
# Elastic Constant Matrix: (Units=GPa)
#
#
# Indices 1 2 3 4 5 6 
#
# 1 131.4986 74.8469 42.2817 -7.3991 -22.4235 -20.8642
# 2 74.8469 126.2240 42.3476 -18.1467 -18.8009 -12.7895
# 3 42.2817 42.3476 78.9787 -18.6753 -18.0962 1.0282
# 4 -7.3991 -18.1467 -18.6753 41.1959 1.4918 -2.6470
# 5 -22.4235 -18.8009 -18.0962 1.4918 31.2939 -12.1750
# 6 -20.8642 -12.7895 1.0282 -2.6470 -12.1750 39.3201
#
#
#
# Elastic Compliance Matrix: (Units=1/GPa)
#
#
# Indices 1 2 3 4 5 6 
#
# 1 0.014587 -0.005560 -0.003200 -0.001039 0.008668 0.008630
# 2 -0.005560 0.013439 -0.002553 0.003818 0.003537 0.002840
# 3 -0.003200 -0.002553 0.018790 0.006547 0.006507 -0.000564
# 4 -0.001039 0.003818 0.006547 0.028804 0.005592 0.004190
# 5 0.008668 0.003537 0.006507 0.005592 0.052420 0.022187
# 6 0.008630 0.002840 -0.000564 0.004190 0.022187 0.038102
#
#
# Mechanical properties :
#
#
# Convention : Reuss Voigt Hill
#
# Bulk Modulus (GPa) = 41.33902 72.85040 57.09471
# Shear Modulus (GPa) = 25.40230 34.17697 29.78964
#
# Velocity S-wave (km/s) = 3.37114 3.91027 3.65067
# Velocity P-wave (km/s) = 5.80062 7.27867 6.58127
#
# Compressibility (1/GPa) = 0.02419022
#
# Stress axis : x y z
#
# Youngs Moduli (GPa) = 68.55353 74.40796 53.21928
#
# Poissons Ratio (x) = 0.41371 0.17030
# Poissons Ratio (y) = 0.38116 0.13588
# Poissons Ratio (z) = 0.21937 0.18998
#
# Static dielectric constant tensor:
#      x y z
#    x 5.226390 -1.822820 1.194680 
#    y -1.822820 8.212780 -3.586750 
#    z 1.194680 -3.586750 6.504770 
# 
# 
# High freq. dielectric constant tensor:
#      x y z
#    x 1.903780 -0.017780 -0.000490 
#    y -0.017780 1.868460 -0.043060 
#    z -0.000490 -0.043060 1.877200 
# 
# From -- ./inp_files/25694.got.cif
#   From: 2010.06.25/outbox.cif.g09.slc.cpg/sg2_13_cif.got.tgz:25694.got - 2010.06.27 13:26:56.
