data_PCOD8022966
_publ_section_title
;
Structure prediction by ZEFSAII (Michael W. Deem and Ramdas Pophale) SiO2 
 PCOD8022966
Probable space group: P -1
;
_chemical_formula_sum "Si O2"
_cell_formula_units_Z 16
_cell_length_a 19.869845
_cell_length_b 12.644242
_cell_length_c 8.495019
_cell_angle_alpha 105.885398
_cell_angle_beta 48.271564
_cell_angle_gamma 143.665651
_cell_volume 759.496934
_symmetry_space_group_name_H-M "P -1"
_symmetry_group_IT_number 2
_symmetry_cell_setting 'triclinic'
loop_
_space_group_symop_operation_xyz
x,y,z
-x,-y,-z
loop_
_atom_site_type_symbol
_atom_site_label
_atom_site_fract_x
_atom_site_fract_y
_atom_site_fract_z
Si Si1 0.817792 0.590691 0.726885
Si Si2 0.549993 0.201162 0.541914
Si Si3 0.811039 0.291289 0.114999
Si Si4 0.744852 0.731294 0.083458
Si Si5 0.607853 0.523388 0.551423
Si Si6 0.098780 0.706756 0.358492
Si Si7 0.507528 0.894974 0.039477
Si Si8 0.922218 0.847391 0.414119
O O1 0.626291 0.328151 0.932178
O O2 0.862683 0.667326 0.505722
O O3 0.980328 0.687414 0.571872
O O4 0.806321 0.682704 0.893020
O O5 0.722118 0.319217 0.242781
O O6 0.579432 0.361981 0.536205
O O7 0.542813 0.153212 0.716425
O O8 0.358837 0.963018 0.656691
O O9 0.871709 0.292559 0.866521
O O10 0.000000 0.500000 0.000000
O O11 0.698196 0.660631 0.306386
O O12 0.582497 0.615307 0.189778
O O13 0.919701 0.997665 0.900882
O O14 0.740498 0.704616 0.558471
O O15 0.000000 0.500000 0.500000
O O16 0.290889 0.937928 0.232992
O O17 0.500000 0.000000 0.000000
O O18 0.000000 0.000000 0.500000
#
# Coordination Sequence:
#
# PCOD8022966 Si02
#       8
#     2   2   2   2   2   2   2   2
#     4  11  23  41  64  94 128 171 219 266 329 384
#     4  10  23  40  66  96 125 179 216 265 327 389
#     4  10  23  40  63  92 131 168 217 260 320 391
#     4  10  26  42  66  97 129 174 219 279 332 390
#     4  11  23  45  67  94 136 169 223 275 336 390
#     4  11  24  39  62  95 129 169 214 264 320 387
#     4  11  22  40  66  92 134 169 213 269 320 389
#     4  10  23  42  70  95 127 168 227 271 328 394
#
# _framework density 21.066576999999999
#
# number of rings (size 3 to 8) (size 9 to 14) (size 15 to 20)
#    0.000    1.500    2.500    1.125    5.250    5.000 
#    0.000    0.000    0.000    0.000    0.000    0.000 
#    0.000    0.000    0.000    0.000    0.000    0.000 
#
# Total GULP energy -198231.076334 kJ/mol
# GULP energy per Si atom -12389.442271 kJ/mol
# Density = 2.101863 g / cm^3
# Si number density = 21.066577 Si / 1000 Ang^3
#
#
#
# Elastic Constant Matrix: (Units=GPa)
#
#
# Indices 1 2 3 4 5 6 
#
# 1 117.6248 41.7018 42.2899 -16.2302 -24.2094 -2.9336
# 2 41.7018 83.2740 39.9666 -20.1304 -22.4574 3.3353
# 3 42.2899 39.9666 102.1889 -20.5131 -33.4235 -5.1316
# 4 -16.2302 -20.1304 -20.5131 44.3835 -2.6845 -9.7422
# 5 -24.2094 -22.4574 -33.4235 -2.6845 49.0270 -9.4810
# 6 -2.9336 3.3353 -5.1316 -9.7422 -9.4810 34.5829
#
#
#
# Elastic Compliance Matrix: (Units=1/GPa)
#
#
# Indices 1 2 3 4 5 6 
#
# 1 0.011503 -0.003466 -0.001422 0.002860 0.003852 0.002961
# 2 -0.003466 0.017822 -0.002586 0.006095 0.005165 0.000736
# 3 -0.001422 -0.002586 0.017710 0.009157 0.012376 0.008729
# 4 0.002860 0.006095 0.009157 0.034787 0.015251 0.014994
# 5 0.003852 0.005165 0.012376 0.015251 0.037055 0.016120
# 6 0.002961 0.000736 0.008729 0.014994 0.016120 0.039035
#
#
# Mechanical properties :
#
#
# Convention : Reuss Voigt Hill
#
# Bulk Modulus (GPa) = 31.16566 61.22272 46.19419
# Shear Modulus (GPa) = 27.23949 37.54064 32.39007
#
# Velocity S-wave (km/s) = 3.59976 4.22595 3.92536
# Velocity P-wave (km/s) = 5.66601 7.27573 6.52073
#
# Compressibility (1/GPa) = 0.03208660
#
# Stress axis : x y z
#
# Youngs Moduli (GPa) = 86.93286 56.10930 56.46430
#
# Poissons Ratio (x) = 0.19450 0.08029
# Poissons Ratio (y) = 0.30135 0.14602
# Poissons Ratio (z) = 0.12362 0.14511
#
# Static dielectric constant tensor:
#      x y z
#    x 4.291930 -0.504610 0.261560 
#    y -0.504610 4.727960 -0.946860 
#    z 0.261560 -0.946860 4.546610 
# 
# 
# High freq. dielectric constant tensor:
#      x y z
#    x 1.826030 -0.001740 -0.003390 
#    y -0.001740 1.821820 -0.025180 
#    z -0.003390 -0.025180 1.840190 
# 
# From -- ./inp_files/333365.got.cif
#   From: 2010.06.25/outbox.cif.g09.slc.cpg/sg2_167_cif.got.tgz:333365.got - 2010.06.27 13:26:56.
