data_PCOD8022831
_publ_section_title
;
Structure prediction by ZEFSAII (Michael W. Deem and Ramdas Pophale) SiO2 
 PCOD8022831
Probable space group: P -1
;
_chemical_formula_sum "Si O2"
_cell_formula_units_Z 16
_cell_length_a 11.380836
_cell_length_b 10.372151
_cell_length_c 11.689285
_cell_angle_alpha 50.446864
_cell_angle_beta 58.307682
_cell_angle_gamma 92.012025
_cell_volume 747.884143
_symmetry_space_group_name_H-M "P -1"
_symmetry_group_IT_number 2
_symmetry_cell_setting 'triclinic'
loop_
_space_group_symop_operation_xyz
x,y,z
-x,-y,-z
loop_
_atom_site_type_symbol
_atom_site_label
_atom_site_fract_x
_atom_site_fract_y
_atom_site_fract_z
Si Si1 0.698290 0.664244 0.796939
Si Si2 0.825796 0.812176 0.900247
Si Si3 0.594663 0.803163 0.579049
Si Si4 0.174749 0.534555 0.521762
Si Si5 0.021082 0.283383 0.520093
Si Si6 0.734952 0.254606 0.218449
Si Si7 0.512981 0.451068 0.651443
Si Si8 0.084584 0.440604 0.865801
O O1 0.774053 0.755137 0.828347
O O2 0.710099 0.831998 0.610885
O O3 0.814026 0.601714 0.711277
O O4 0.500000 0.500000 0.000000
O O5 0.949648 0.051114 0.705629
O O6 0.664889 0.729522 0.108868
O O7 0.924754 0.719623 0.949667
O O8 0.403069 0.704495 0.775249
O O9 0.592910 0.657524 0.566623
O O10 0.664866 0.021318 0.366824
O O11 0.125058 0.696212 0.467842
O O12 0.370630 0.633774 0.343948
O O13 0.136767 0.415850 0.728189
O O14 0.063303 0.375254 0.572301
O O15 0.782967 0.331510 0.282616
O O16 0.899500 0.393643 0.979198
O O17 0.500000 0.500000 0.500000
#
# Coordination Sequence:
#
# PCOD8022831 Si02
#       8
#     2   2   2   2   2   2   2   2
#     4  12  23  42  70  96 135 170 214 272 333 392
#     4  12  25  43  70  99 128 174 222 271 332 387
#     4  11  22  42  64  98 130 175 212 275 326 393
#     4  11  25  45  66  92 136 175 217 269 323 396
#     4  11  27  44  66 100 133 172 221 269 331 391
#     4  10  23  39  65 101 130 161 227 268 334 379
#     4  12  23  46  67  96 134 177 223 266 325 390
#     4  11  23  41  68  97 130 170 215 278 324 386
#
# _framework density 21.393688000000001
#
# number of rings (size 3 to 8) (size 9 to 14) (size 15 to 20)
#    0.000    0.750    5.000    1.125    7.000    2.000 
#    0.000    0.000    0.000    0.000    0.000    0.000 
#    0.000    0.000    0.000    0.000    0.000    0.000 
#
# Total GULP energy -198340.512129 kJ/mol
# GULP energy per Si atom -12396.282008 kJ/mol
# Density = 2.134499 g / cm^3
# Si number density = 21.393688 Si / 1000 Ang^3
#
#
#
# Elastic Constant Matrix: (Units=GPa)
#
#
# Indices 1 2 3 4 5 6 
#
# 1 109.6006 32.4066 29.7318 20.0714 -8.5819 -12.1613
# 2 32.4066 88.0605 51.2477 13.8583 -2.1083 -5.0070
# 3 29.7318 51.2477 79.9913 12.8640 -9.4739 -1.5776
# 4 20.0714 13.8583 12.8640 36.7411 0.0746 0.1659
# 5 -8.5819 -2.1083 -9.4739 0.0746 35.3205 14.5556
# 6 -12.1613 -5.0070 -1.5776 0.1659 14.5556 40.5773
#
#
#
# Elastic Compliance Matrix: (Units=1/GPa)
#
#
# Indices 1 2 3 4 5 6 
#
# 1 0.011571 -0.002180 -0.001951 -0.004830 0.001024 0.002775
# 2 -0.002180 0.019278 -0.011582 -0.002030 -0.003532 0.002551
# 3 -0.001951 -0.011582 0.021637 -0.002138 0.006011 -0.003320
# 4 -0.004830 -0.002030 -0.002138 0.031380 -0.001347 -0.001426
# 5 0.001024 -0.003532 0.006011 -0.001347 0.035110 -0.012484
# 6 0.002775 0.002551 -0.003320 -0.001426 -0.012484 0.030146
#
#
# Mechanical properties :
#
#
# Convention : Reuss Voigt Hill
#
# Bulk Modulus (GPa) = 47.48523 56.04719 51.76621
# Shear Modulus (GPa) = 26.65689 33.47888 30.06789
#
# Velocity S-wave (km/s) = 3.53373 3.96017 3.75301
# Velocity P-wave (km/s) = 6.23648 6.86771 6.55969
#
# Compressibility (1/GPa) = 0.02105918
#
# Stress axis : x y z
#
# Youngs Moduli (GPa) = 86.42565 51.87131 46.21638
#
# Poissons Ratio (x) = 0.11309 0.09017
# Poissons Ratio (y) = 0.18842 0.53530
# Poissons Ratio (z) = 0.16863 0.60079
#
# Static dielectric constant tensor:
#      x y z
#    x 4.407540 -0.049480 -0.296300 
#    y -0.049480 4.100790 0.010120 
#    z -0.296300 0.010120 4.044860 
# 
# 
# High freq. dielectric constant tensor:
#      x y z
#    x 1.866310 -0.006220 -0.013800 
#    y -0.006220 1.834650 0.017630 
#    z -0.013800 0.017630 1.829170 
# 
# From -- ./inp_files/399874.got.cif
#   From: 2010.06.25/outbox.cif.g09.slc.cpg/sg2_200_cif.got.tgz:399874.got - 2010.06.27 13:26:56.
