data_PCOD8022704
_publ_section_title
;
Structure prediction by ZEFSAII (Michael W. Deem and Ramdas Pophale) SiO2 
 PCOD8022704
Probable space group: P -1
;
_chemical_formula_sum "Si O2"
_cell_formula_units_Z 16
_cell_length_a 9.466700
_cell_length_b 18.093781
_cell_length_c 20.568854
_cell_angle_alpha 19.644082
_cell_angle_beta 42.971655
_cell_angle_gamma 38.302621
_cell_volume 733.659015
_symmetry_space_group_name_H-M "P -1"
_symmetry_group_IT_number 2
_symmetry_cell_setting 'triclinic'
loop_
_space_group_symop_operation_xyz
x,y,z
-x,-y,-z
loop_
_atom_site_type_symbol
_atom_site_label
_atom_site_fract_x
_atom_site_fract_y
_atom_site_fract_z
Si Si1 0.069992 0.079450 0.343771
Si Si2 0.575899 0.764127 0.856098
Si Si3 0.652798 0.266196 0.236241
Si Si4 0.397412 0.829749 0.327849
Si Si5 0.062856 0.721605 0.278576
Si Si6 0.179431 0.677667 0.411576
Si Si7 0.298774 0.145320 0.531195
Si Si8 0.643331 0.143022 0.015029
O O1 0.247304 0.862743 0.417221
O O2 0.183720 0.256044 0.181616
O O3 0.000000 0.000000 0.500000
O O4 0.839872 0.226979 0.260622
O O5 0.435390 0.741542 0.984117
O O6 0.448520 0.014338 0.652558
O O7 0.607854 0.523992 0.003579
O O8 0.423624 0.269021 0.342825
O O9 0.747202 0.059940 0.321764
O O10 0.256736 0.826640 0.313605
O O11 0.622787 0.580093 0.460933
O O12 0.461201 0.060379 0.109857
O O13 0.098499 0.832381 0.243835
O O14 0.000000 0.500000 0.500000
O O15 0.299688 0.664599 0.206452
O O16 0.866879 0.898137 0.152731
O O17 0.952142 0.649508 0.536925
#
# Coordination Sequence:
#
# PCOD8022704 Si02
#       8
#     2   2   2   2   2   2   2   2
#     4  11  22  43  67  95 133 169 220 267 319 389
#     4  11  23  39  67  95 125 170 215 272 322 381
#     4  11  24  41  66  94 131 168 221 267 328 379
#     4  10  23  42  65  98 126 177 219 259 326 392
#     4  11  22  38  65  93 126 168 207 263 321 385
#     4  11  22  41  69  89 136 171 212 268 326 385
#     4  11  23  42  65  96 129 171 212 275 323 387
#     4  10  23  38  61  95 127 158 219 261 315 389
#
# _framework density 21.808496000000002
#
# number of rings (size 3 to 8) (size 9 to 14) (size 15 to 20)
#    0.000    1.250    5.000    0.750    1.750    1.500 
#    0.000    0.000    2.750    0.000    0.000    0.000 
#    0.000    0.000    0.000    0.000    0.000    0.000 
#
# Total GULP energy -198245.232205 kJ/mol
# GULP energy per Si atom -12390.327013 kJ/mol
# Density = 2.175886 g / cm^3
# Si number density = 21.808496 Si / 1000 Ang^3
#
#
#
# Elastic Constant Matrix: (Units=GPa)
#
#
# Indices 1 2 3 4 5 6 
#
# 1 98.8741 5.3765 9.0661 6.7742 -13.5577 7.2868
# 2 5.3765 100.0333 21.8007 18.6907 -3.2608 2.3453
# 3 9.0661 21.8007 78.2267 10.1000 -12.0803 8.1353
# 4 6.7742 18.6907 10.1000 34.2492 3.4120 4.4502
# 5 -13.5577 -3.2608 -12.0803 3.4120 23.7382 0.0436
# 6 7.2868 2.3453 8.1353 4.4502 0.0436 37.7176
#
#
#
# Elastic Compliance Matrix: (Units=1/GPa)
#
#
# Indices 1 2 3 4 5 6 
#
# 1 0.011392 0.000133 0.000312 -0.002873 0.007100 -0.001946
# 2 0.000133 0.011630 -0.002340 -0.005873 0.001326 0.000447
# 3 0.000312 -0.002340 0.015461 -0.003804 0.008277 -0.002810
# 4 -0.002873 -0.005873 -0.003804 0.035349 -0.009460 -0.002419
# 5 0.007100 0.001326 0.008277 -0.009460 0.051939 -0.002183
# 6 -0.001946 0.000447 -0.002810 -0.002419 -0.002183 0.027755
#
#
# Mechanical properties :
#
#
# Convention : Reuss Voigt Hill
#
# Bulk Modulus (GPa) = 28.82369 38.84674 33.83521
# Shear Modulus (GPa) = 29.60707 35.20039 32.40373
#
# Velocity S-wave (km/s) = 3.68855 4.02190 3.85883
# Velocity P-wave (km/s) = 5.60232 6.27845 5.95000
#
# Compressibility (1/GPa) = 0.03469368
#
# Stress axis : x y z
#
# Youngs Moduli (GPa) = 87.78298 85.98787 64.67990
#
# Poissons Ratio (x) = -0.01148 -0.02019
# Poissons Ratio (y) = -0.01172 0.15134
# Poissons Ratio (z) = -0.02741 0.20120
#
# Static dielectric constant tensor:
#      x y z
#    x 4.292060 -0.039510 -0.130680 
#    y -0.039510 4.319000 0.279480 
#    z -0.130680 0.279480 3.867870 
# 
# 
# High freq. dielectric constant tensor:
#      x y z
#    x 1.872010 0.001940 -0.018820 
#    y 0.001940 1.867410 0.014600 
#    z -0.018820 0.014600 1.832230 
# 
# From -- ./inp_files/451043.got.cif
#   From: 2010.06.25/outbox.cif.g09.slc.cpg/sg2_226_cif.got.tgz:451043.got - 2010.06.27 13:26:56.
