data_PCOD8022674
_publ_section_title
;
Structure prediction by ZEFSAII (Michael W. Deem and Ramdas Pophale) SiO2 
 PCOD8022674
Probable space group: P -1
;
_chemical_formula_sum "Si O2"
_cell_formula_units_Z 14
_cell_length_a 10.338389
_cell_length_b 15.768610
_cell_length_c 5.035191
_cell_angle_alpha 79.574554
_cell_angle_beta 59.536414
_cell_angle_gamma 117.431309
_cell_volume 527.808904
_symmetry_space_group_name_H-M "P -1"
_symmetry_group_IT_number 2
_symmetry_cell_setting 'triclinic'
loop_
_space_group_symop_operation_xyz
x,y,z
-x,-y,-z
loop_
_atom_site_type_symbol
_atom_site_label
_atom_site_fract_x
_atom_site_fract_y
_atom_site_fract_z
Si Si1 0.842138 0.573075 0.292659
Si Si2 0.562442 0.203784 0.448136
Si Si3 0.342013 0.351398 0.253916
Si Si4 0.975834 0.767873 0.732880
Si Si5 0.242944 0.560594 0.076334
Si Si6 0.857866 0.872043 0.123597
Si Si7 0.624230 0.122185 0.932261
O O1 0.660060 0.564038 0.604029
O O2 0.914053 0.530705 0.476676
O O3 0.010845 0.707535 0.964001
O O4 0.782535 0.495788 0.143818
O O5 0.352431 0.170917 0.727279
O O6 0.620182 0.199910 0.687414
O O7 0.735291 0.330253 0.076440
O O8 0.539848 0.116079 0.312841
O O9 0.244739 0.342275 0.078601
O O10 0.182367 0.217544 0.570698
O O11 0.556793 0.390872 0.002343
O O12 0.148942 0.824001 0.303935
O O13 0.974191 0.866772 0.769417
O O14 0.000000 0.000000 0.000000
O O15 0.500000 0.000000 0.000000
#
# Coordination Sequence:
#
# PCOD8022674 Si02
#       7
#     2   2   2   2   2   2   2
#     4  11  22  40  67 103 139 186 224 288 345 415
#     4  11  27  47  71 105 139 183 238 283 347 426
#     4  10  23  37  67 102 144 174 239 279 349 415
#     4  11  26  43  72 106 141 181 245 285 339 426
#     4  11  23  40  69 101 141 183 225 288 353 402
#     4  10  24  42  71 104 141 178 235 302 351 395
#     4  12  28  50  74  97 144 192 228 282 357 423
#
# _framework density 26.524751999999999
#
# number of rings (size 3 to 8) (size 9 to 14) (size 15 to 20)
#    0.000    1.143    1.429    3.000   16.000    0.571 
#    0.000    4.286    0.000    0.000    0.000    0.000 
#    0.000    0.000    0.000    0.000    0.000    0.000 
#
# Total GULP energy -173481.491010 kJ/mol
# GULP energy per Si atom -12391.535072 kJ/mol
# Density = 2.646438 g / cm^3
# Si number density = 26.524752 Si / 1000 Ang^3
#
#
#
# Elastic Constant Matrix: (Units=GPa)
#
#
# Indices 1 2 3 4 5 6 
#
# 1 60.2238 20.1904 8.1899 3.2637 16.8097 1.0276
# 2 20.1904 153.6634 4.6495 1.0954 13.3970 -3.6710
# 3 8.1899 4.6495 40.0530 3.6464 7.6867 -0.2052
# 4 3.2637 1.0954 3.6464 43.2250 4.5337 7.4379
# 5 16.8097 13.3970 7.6867 4.5337 27.6814 3.0602
# 6 1.0276 -3.6710 -0.2052 7.4379 3.0602 35.0569
#
#
#
# Elastic Compliance Matrix: (Units=1/GPa)
#
#
# Indices 1 2 3 4 5 6 
#
# 1 0.020531 -0.001663 -0.001846 -0.000224 -0.011139 0.000233
# 2 -0.001663 0.006965 0.000009 0.000039 -0.002479 0.000986
# 3 -0.001846 0.000009 0.026678 -0.001656 -0.006142 0.001099
# 4 -0.000224 0.000039 -0.001656 0.024441 -0.002880 -0.004933
# 5 -0.011139 -0.002479 -0.006142 -0.002880 0.046646 -0.003430
# 6 0.000233 0.000986 0.001099 -0.004933 -0.003430 0.029974
#
#
# Mechanical properties :
#
#
# Convention : Reuss Voigt Hill
#
# Bulk Modulus (GPa) = 21.19816 35.55555 28.37685
# Shear Modulus (GPa) = 28.09609 35.92003 32.00806
#
# Velocity S-wave (km/s) = 3.25813 3.68395 3.47756
# Velocity P-wave (km/s) = 4.70777 5.61508 5.18132
#
# Compressibility (1/GPa) = 0.04717391
#
# Stress axis : x y z
#
# Youngs Moduli (GPa) = 48.70767 143.56621 37.48344
#
# Poissons Ratio (x) = 0.23882 0.06918
# Poissons Ratio (y) = 0.08102 -0.00033
# Poissons Ratio (z) = 0.08990 -0.00126
#
# Static dielectric constant tensor:
#      x y z
#    x 5.016390 -0.377070 0.271880 
#    y -0.377070 4.745660 -0.138520 
#    z 0.271880 -0.138520 5.111250 
# 
# 
# High freq. dielectric constant tensor:
#      x y z
#    x 2.078250 -0.018560 0.005780 
#    y -0.018560 2.068040 -0.005740 
#    z 0.005780 -0.005740 2.067500 
# 
# From -- ./inp_files/77748.got.cif
#   From: 2010.06.25/outbox.cif.g09.slc.cpg/sg2_39_cif.got.tgz:77748.got - 2010.06.27 13:26:56.
