data_PCOD8022308
_publ_section_title
;
Structure prediction by ZEFSAII (Michael W. Deem and Ramdas Pophale) SiO2 
 PCOD8022308
Probable space group: P -1
;
_chemical_formula_sum "Si O2"
_cell_formula_units_Z 16
_cell_length_a 8.664238
_cell_length_b 8.796650
_cell_length_c 14.798772
_cell_angle_alpha 100.474864
_cell_angle_beta 62.403732
_cell_angle_gamma 60.108839
_cell_volume 731.019103
_symmetry_space_group_name_H-M "P -1"
_symmetry_group_IT_number 2
_symmetry_cell_setting 'triclinic'
loop_
_space_group_symop_operation_xyz
x,y,z
-x,-y,-z
loop_
_atom_site_type_symbol
_atom_site_label
_atom_site_fract_x
_atom_site_fract_y
_atom_site_fract_z
Si Si1 0.904493 0.224058 0.070931
Si Si2 0.286134 0.027650 0.292105
Si Si3 0.191802 0.514139 0.557586
Si Si4 0.711334 0.893757 0.500253
Si Si5 0.009465 0.072602 0.702760
Si Si6 0.348077 0.158144 0.979151
Si Si7 0.259316 0.564390 0.050392
Si Si8 0.359207 0.640265 0.664103
O O1 0.701596 0.326909 0.210954
O O2 0.797049 0.374764 0.031765
O O3 0.113729 0.199954 0.049882
O O4 0.000000 0.000000 0.000000
O O5 0.368170 0.984326 0.369508
O O6 0.070399 0.271561 0.363139
O O7 0.210177 0.902358 0.265338
O O8 0.512252 0.943020 0.163624
O O9 0.174346 0.340676 0.539013
O O10 0.300630 0.506987 0.622935
O O11 0.365878 0.479783 0.429667
O O12 0.901171 0.897112 0.408104
O O13 0.500000 0.000000 0.500000
O O14 0.939115 0.243993 0.812478
O O15 0.213390 0.852546 0.669733
O O16 0.274904 0.374902 0.045584
O O17 0.500000 0.000000 0.000000
O O18 0.500000 0.500000 0.000000
#
# Coordination Sequence:
#
# PCOD8022308 Si02
#       8
#     2   2   2   2   2   2   2   2
#     4  12  26  45  76 104 143 190 236 299 365 422
#     4  11  26  47  69 101 145 186 234 285 357 423
#     4  10  23  45  69 101 135 184 233 288 345 420
#     4  12  26  42  71 103 137 182 237 295 347 408
#     4  11  23  46  71  99 146 181 232 292 354 426
#     4  12  27  49  74 107 148 188 240 298 358 436
#     4  12  26  48  70 109 140 190 242 292 363 429
#     4  10  22  45  71 101 141 181 234 285 358 418
#
# _framework density 21.887253000000001
#
# number of rings (size 3 to 8) (size 9 to 14) (size 15 to 20)
#    0.000    0.750    3.750    3.375    7.000    2.000 
#    0.000    0.000    0.000    0.000    0.000    0.000 
#    0.000    0.000    0.000    0.000    0.000    0.000 
#
# Total GULP energy -198480.550303 kJ/mol
# GULP energy per Si atom -12405.034394 kJ/mol
# Density = 2.183744 g / cm^3
# Si number density = 21.887253 Si / 1000 Ang^3
#
#
#
# Elastic Constant Matrix: (Units=GPa)
#
#
# Indices 1 2 3 4 5 6 
#
# 1 74.2864 33.7733 2.7545 2.2880 13.7157 6.4118
# 2 33.7733 93.1713 20.2781 -5.2662 19.1344 14.8870
# 3 2.7545 20.2781 130.5796 -9.4420 23.5270 7.6739
# 4 2.2880 -5.2662 -9.4420 38.7956 -4.7888 4.7333
# 5 13.7157 19.1344 23.5270 -4.7888 38.4118 -1.6495
# 6 6.4118 14.8870 7.6739 4.7333 -1.6495 41.4783
#
#
#
# Elastic Compliance Matrix: (Units=1/GPa)
#
#
# Indices 1 2 3 4 5 6 
#
# 1 0.016812 -0.005446 0.001175 -0.001873 -0.004278 -0.000818
# 2 -0.005446 0.014760 -0.000882 0.002093 -0.004809 -0.004722
# 3 0.001175 -0.000882 0.008961 0.001564 -0.005356 -0.001914
# 4 -0.001873 0.002093 0.001564 0.027248 0.001903 -0.003785
# 5 -0.004278 -0.004809 -0.005356 0.001903 0.033668 0.004500
# 6 -0.000818 -0.004722 -0.001914 -0.003785 0.004500 0.026895
#
#
# Mechanical properties :
#
#
# Convention : Reuss Voigt Hill
#
# Bulk Modulus (GPa) = 33.08489 45.73880 39.41184
# Shear Modulus (GPa) = 33.61876 39.81922 36.71899
#
# Velocity S-wave (km/s) = 3.92343 4.26994 4.10035
# Velocity P-wave (km/s) = 5.97271 6.72701 6.36105
#
# Compressibility (1/GPa) = 0.03022528
#
# Stress axis : x y z
#
# Youngs Moduli (GPa) = 59.48072 67.75239 111.59555
#
# Poissons Ratio (x) = 0.36901 -0.13107
# Poissons Ratio (y) = 0.32396 0.09841
# Poissons Ratio (z) = -0.06986 0.05975
#
# Static dielectric constant tensor:
#      x y z
#    x 3.892710 0.122470 0.105180 
#    y 0.122470 4.082880 0.057920 
#    z 0.105180 0.057920 4.462540 
# 
# 
# High freq. dielectric constant tensor:
#      x y z
#    x 1.868440 0.008620 0.003260 
#    y 0.008620 1.863550 0.002950 
#    z 0.003260 0.002950 1.875190 
# 
# From -- ./inp_files/188793.got.cif
#   From: 2010.06.25/outbox.cif.g09.slc.cpg/sg2_95_cif.got.tgz:188793.got - 2010.06.27 13:26:56.
