data_PCOD8022902
_publ_section_title
;
Structure prediction by ZEFSAII (Michael W. Deem and Ramdas Pophale) SiO2 
 PCOD8022902
Probable space group: P -1
;
_chemical_formula_sum "Si O2"
_cell_formula_units_Z 16
_cell_length_a 9.393975
_cell_length_b 13.579276
_cell_length_c 11.425833
_cell_angle_alpha 31.965153
_cell_angle_beta 87.852670
_cell_angle_gamma 98.264856
_cell_volume 727.389382
_symmetry_space_group_name_H-M "P -1"
_symmetry_group_IT_number 2
_symmetry_cell_setting 'triclinic'
loop_
_space_group_symop_operation_xyz
x,y,z
-x,-y,-z
loop_
_atom_site_type_symbol
_atom_site_label
_atom_site_fract_x
_atom_site_fract_y
_atom_site_fract_z
Si Si1 0.397483 0.623855 0.141112
Si Si2 0.012550 0.227868 0.270961
Si Si3 0.600825 0.374177 0.348605
Si Si4 0.246963 0.606394 0.923286
Si Si5 0.893575 0.683742 0.070759
Si Si6 0.412295 0.991929 0.129782
Si Si7 0.922946 0.056382 0.832836
Si Si8 0.083905 0.489652 0.386983
O O1 0.454054 0.439626 0.300826
O O2 0.265534 0.562745 0.306203
O O3 0.344235 0.690365 0.952180
O O4 0.534381 0.800778 0.012932
O O5 0.847697 0.249810 0.257324
O O6 0.000000 0.000000 0.500000
O O7 0.133016 0.386755 0.191934
O O8 0.105551 0.327595 0.054864
O O9 0.640190 0.379601 0.203660
O O10 0.736246 0.519765 0.277462
O O11 0.564022 0.160956 0.622637
O O12 0.039532 0.635940 0.155770
O O13 0.908756 0.902841 0.885468
O O14 0.242071 0.936048 0.144365
O O15 0.500000 0.000000 0.000000
O O16 0.026414 0.265686 0.568941
O O17 0.000000 0.000000 0.000000
O O18 0.000000 0.500000 0.500000
#
# Coordination Sequence:
#
# PCOD8022902 Si02
#       8
#     2   2   2   2   2   2   2   2
#     4  12  27  46  71 106 147 184 238 296 358 428
#     4  10  23  39  71 103 142 178 238 292 346 417
#     4  11  26  46  73  98 148 189 228 298 358 424
#     4  10  24  45  68 108 141 187 238 291 357 426
#     4  11  23  43  67 101 136 184 232 284 356 415
#     4  12  29  46  70 105 142 188 241 291 359 426
#     4  12  26  43  72 100 136 185 240 285 353 429
#     4  12  25  44  70 102 140 182 235 298 344 420
#
# _framework density 21.996469000000001
#
# number of rings (size 3 to 8) (size 9 to 14) (size 15 to 20)
#    0.000    0.750    5.000    1.125    5.250    2.000 
#    0.000    0.000    0.000    0.000    0.000    0.000 
#    0.000    0.000    0.000    0.000    0.000    0.000 
#
# Total GULP energy -198299.953628 kJ/mol
# GULP energy per Si atom -12393.747102 kJ/mol
# Density = 2.194640 g / cm^3
# Si number density = 21.996469 Si / 1000 Ang^3
#
#
#
# Elastic Constant Matrix: (Units=GPa)
#
#
# Indices 1 2 3 4 5 6 
#
# 1 129.9649 20.3894 40.4819 7.3912 6.0920 -11.9568
# 2 20.3894 78.0653 22.1829 0.9550 -2.6653 -5.5515
# 3 40.4819 22.1829 104.1513 -9.1693 0.1002 -12.6245
# 4 7.3912 0.9550 -9.1693 41.2992 -4.5268 2.4426
# 5 6.0920 -2.6653 0.1002 -4.5268 32.9494 -2.7993
# 6 -11.9568 -5.5515 -12.6245 2.4426 -2.7993 38.0429
#
#
#
# Elastic Compliance Matrix: (Units=1/GPa)
#
#
# Indices 1 2 3 4 5 6 
#
# 1 0.009371 -0.001408 -0.003381 -0.002719 -0.002070 0.001640
# 2 -0.001408 0.013969 -0.002358 -0.000496 0.001410 0.000949
# 3 -0.003381 -0.002358 0.012003 0.003296 0.001058 0.002443
# 4 -0.002719 -0.000496 0.003296 0.025944 0.003914 -0.001211
# 5 -0.002070 0.001410 0.001058 0.003914 0.031549 0.001976
# 6 0.001640 0.000949 0.002443 -0.001211 0.001976 0.027974
#
#
# Mechanical properties :
#
#
# Convention : Reuss Voigt Hill
#
# Bulk Modulus (GPa) = 47.50693 53.14331 50.32512
# Shear Modulus (GPa) = 35.18145 37.73345 36.45745
#
# Velocity S-wave (km/s) = 4.00361 4.14627 4.07556
# Velocity P-wave (km/s) = 6.55867 6.86545 6.71382
#
# Compressibility (1/GPa) = 0.02104956
#
# Stress axis : x y z
#
# Youngs Moduli (GPa) = 106.71272 71.58592 83.31165
#
# Poissons Ratio (x) = 0.10076 0.28169
# Poissons Ratio (y) = 0.15020 0.19646
# Poissons Ratio (z) = 0.36081 0.16881
#
# Static dielectric constant tensor:
#      x y z
#    x 4.265620 -0.263170 0.148200 
#    y -0.263170 4.257820 -0.281270 
#    z 0.148200 -0.281270 3.933080 
# 
# 
# High freq. dielectric constant tensor:
#      x y z
#    x 1.873990 -0.007150 0.000430 
#    y -0.007150 1.877180 -0.006500 
#    z 0.000430 -0.006500 1.860120 
# 
# From -- ./inp_files/272909.got.cif
#   From: 2010.06.25/outbox.cif.g09.slc.cpg/sg2_137_cif.got.tgz:272909.got - 2010.06.27 13:26:56.
