data_PCOD8022834
_publ_section_title
;
Structure prediction by ZEFSAII (Michael W. Deem and Ramdas Pophale) SiO2 
 PCOD8022834
Probable space group: P -1
;
_chemical_formula_sum "Si O2"
_cell_formula_units_Z 12
_cell_length_a 19.812781
_cell_length_b 4.867349
_cell_length_c 5.419592
_cell_angle_alpha 90.938866
_cell_angle_beta 73.954764
_cell_angle_gamma 80.162007
_cell_volume 493.777976
_symmetry_space_group_name_H-M "P -1"
_symmetry_group_IT_number 2
_symmetry_cell_setting 'triclinic'
loop_
_space_group_symop_operation_xyz
x,y,z
-x,-y,-z
loop_
_atom_site_type_symbol
_atom_site_label
_atom_site_fract_x
_atom_site_fract_y
_atom_site_fract_z
Si Si1 0.650110 0.570447 0.628441
Si Si2 0.423115 0.880981 0.507206
Si Si3 0.556298 0.571999 0.133055
Si Si4 0.078171 0.532875 0.346359
Si Si5 0.853223 0.035138 0.919324
Si Si6 0.193661 0.699798 0.519114
O O1 0.623636 0.273108 0.636175
O O2 0.735152 0.532323 0.526500
O O3 0.614447 0.788361 0.452288
O O4 0.619682 0.691325 0.928431
O O5 0.509127 0.825558 0.348619
O O6 0.413038 0.717509 0.765335
O O7 0.500000 0.500000 0.000000
O O8 0.125810 0.543035 0.547533
O O9 0.000000 0.500000 0.500000
O O10 0.117005 0.291816 0.121974
O O11 0.078038 0.812372 0.188959
O O12 0.815590 0.110889 0.221914
O O13 0.800029 0.122548 0.737983
#
# Coordination Sequence:
#
# PCOD8022834 Si02
#       6
#     2   2   2   2   2   2
#     4  11  24  40  63  93 130 177 226 280 348 408
#     4  10  23  39  65  90 127 169 229 281 347 405
#     4   9  21  42  62  93 124 170 222 287 340 409
#     4  10  24  45  73 103 138 182 229 282 340 409
#     4  10  25  43  69  99 141 176 232 277 345 409
#     4  10  27  44  68 102 142 184 228 286 345 414
#
# _framework density 24.302422
#
# number of rings (size 3 to 8) (size 9 to 14) (size 15 to 20)
#    1.000    1.000    0.000    1.000    7.000   10.000 
#    0.000    0.000    0.000    0.000    0.000    0.000 
#    0.000    0.000    0.000    0.000    0.000    0.000 
#
# Total GULP energy -148671.234767 kJ/mol
# GULP energy per Si atom -12389.269564 kJ/mol
# Density = 2.424711 g / cm^3
# Si number density = 24.302422 Si / 1000 Ang^3
#
#
#
# Elastic Constant Matrix: (Units=GPa)
#
#
# Indices 1 2 3 4 5 6 
#
# 1 105.1116 16.4697 25.1402 10.7673 4.3031 -35.5757
# 2 16.4697 105.3214 24.1699 14.9149 7.8686 -9.8884
# 3 25.1402 24.1699 132.4361 21.7817 14.4486 -15.4957
# 4 10.7673 14.9149 21.7817 36.8938 3.6166 -3.1470
# 5 4.3031 7.8686 14.4486 3.6166 20.8157 -0.1273
# 6 -35.5757 -9.8884 -15.4957 -3.1470 -0.1273 29.3169
#
#
#
# Elastic Compliance Matrix: (Units=1/GPa)
#
#
# Indices 1 2 3 4 5 6 
#
# 1 0.016659 -0.000126 -0.000056 -0.002817 -0.002746 0.019829
# 2 -0.000126 0.010619 -0.000744 -0.003307 -0.002881 0.002668
# 3 -0.000056 -0.000744 0.009517 -0.004401 -0.005523 0.004215
# 4 -0.002817 -0.003307 -0.004401 0.031628 -0.000629 -0.003467
# 5 -0.002746 -0.002881 -0.005523 -0.000629 0.053597 -0.007058
# 6 0.019829 0.002668 0.004215 -0.003467 -0.007058 0.060897
#
#
# Mechanical properties :
#
#
# Convention : Reuss Voigt Hill
#
# Bulk Modulus (GPa) = 28.61853 52.71429 40.66641
# Shear Modulus (GPa) = 25.45605 35.87791 30.66698
#
# Velocity S-wave (km/s) = 3.23997 3.84645 3.55616
# Velocity P-wave (km/s) = 5.07919 6.43933 5.79927
#
# Compressibility (1/GPa) = 0.03494240
#
# Stress axis : x y z
#
# Youngs Moduli (GPa) = 60.02676 94.16890 105.07942
#
# Poissons Ratio (x) = 0.01190 0.00592
# Poissons Ratio (y) = 0.00759 0.07814
# Poissons Ratio (z) = 0.00338 0.07003
#
# Static dielectric constant tensor:
#      x y z
#    x 4.118920 -0.579170 -0.870290 
#    y -0.579170 -3.161820 -10.652280 
#    z -0.870290 -10.652280 -11.401260 
# 
# 
# High freq. dielectric constant tensor:
#      x y z
#    x 1.952120 0.011420 0.015720 
#    y 0.011420 1.965100 0.010600 
#    z 0.015720 0.010600 1.967570 
# 
# From -- ./inp_files/102312.got.cif
#   From: 2010.06.25/outbox.cif.g09.slc.cpg/sg2_52_cif.got.tgz:102312.got - 2010.06.27 13:26:56.
