data_PCOD8022324
_publ_section_title
;
Structure prediction by ZEFSAII (Michael W. Deem and Ramdas Pophale) SiO2 
 PCOD8022324
Probable space group: P -1
;
_chemical_formula_sum "Si O2"
_cell_formula_units_Z 16
_cell_length_a 20.062595
_cell_length_b 8.943944
_cell_length_c 11.340681
_cell_angle_alpha 140.654982
_cell_angle_beta 30.731027
_cell_angle_gamma 131.456619
_cell_volume 659.249662
_symmetry_space_group_name_H-M "P -1"
_symmetry_group_IT_number 2
_symmetry_cell_setting 'triclinic'
loop_
_space_group_symop_operation_xyz
x,y,z
-x,-y,-z
loop_
_atom_site_type_symbol
_atom_site_label
_atom_site_fract_x
_atom_site_fract_y
_atom_site_fract_z
Si Si1 0.948336 0.170652 0.474782
Si Si2 0.267795 0.448452 0.385269
Si Si3 0.274756 0.913194 0.060400
Si Si4 0.144964 0.549891 0.405012
Si Si5 0.689300 0.767965 0.186534
Si Si6 0.180799 0.829046 0.908157
Si Si7 0.572043 0.899989 0.683921
Si Si8 0.495437 0.386700 0.171784
O O1 0.813451 0.163419 0.744234
O O2 0.910348 0.204326 0.413393
O O3 0.028991 0.392221 0.539119
O O4 0.035619 0.934792 0.207242
O O5 0.258619 0.572548 0.345039
O O6 0.411773 0.456997 0.226979
O O7 0.230366 0.178883 0.258902
O O8 0.167956 0.585436 0.707190
O O9 0.243529 0.764930 0.900147
O O10 0.424514 0.878885 0.846973
O O11 0.192255 0.410758 0.129538
O O12 0.676119 0.830510 0.382785
O O13 0.559964 0.631615 0.258858
O O14 0.715488 0.004610 0.216641
O O15 0.592282 0.718081 0.651039
O O16 0.595975 0.170896 0.854649
#
# Coordination Sequence:
#
# PCOD8022324 Si02
#       8
#     2   2   2   2   2   2   2   2
#     4  10  22  45  71  88 131 171 212 269 323 375
#     4  11  24  42  63  97 133 162 221 260 317 384
#     4  11  22  45  66  92 131 171 212 268 316 378
#     4  10  23  43  67 100 125 168 216 266 323 379
#     4  11  22  41  66  93 132 170 212 261 319 381
#     4  11  25  41  66  99 123 172 220 260 322 382
#     4  10  23  40  67  96 130 171 214 258 322 385
#     4  10  23  41  62  97 133 172 209 263 318 383
#
# _framework density 24.270015999999998
#
# number of rings (size 3 to 8) (size 9 to 14) (size 15 to 20)
#    0.000    1.500    2.500    2.250    1.750    4.500 
#    0.000    0.000    0.000    0.000    0.000    0.000 
#    0.000    0.000    0.000    0.000    0.000    0.000 
#
# Total GULP energy -198306.121833 kJ/mol
# GULP energy per Si atom -12394.132615 kJ/mol
# Density = 2.421478 g / cm^3
# Si number density = 24.270016 Si / 1000 Ang^3
#
#
#
# Elastic Constant Matrix: (Units=GPa)
#
#
# Indices 1 2 3 4 5 6 
#
# 1 119.6628 14.5047 13.0617 10.9577 4.1237 -20.4294
# 2 14.5047 35.5508 6.2131 -12.5434 -0.6510 -9.8007
# 3 13.0617 6.2131 64.3724 0.1554 21.1552 -0.3294
# 4 10.9577 -12.5434 0.1554 26.2792 -3.4459 2.6094
# 5 4.1237 -0.6510 21.1552 -3.4459 41.6816 7.6782
# 6 -20.4294 -9.8007 -0.3294 2.6094 7.6782 18.9524
#
#
#
# Elastic Compliance Matrix: (Units=1/GPa)
#
#
# Indices 1 2 3 4 5 6 
#
# 1 0.012343 -0.004392 -0.000554 -0.009207 -0.004360 0.014058
# 2 -0.004392 0.041482 -0.003887 0.020696 0.002403 0.012826
# 3 -0.000554 -0.003887 0.019551 -0.003390 -0.010674 0.002524
# 4 -0.009207 0.020696 -0.003390 0.054062 0.009362 -0.010518
# 5 -0.004360 0.002403 -0.010674 0.009362 0.034105 -0.018748
# 6 0.014058 0.012826 0.002524 -0.010518 -0.018748 0.083638
#
#
# Mechanical properties :
#
#
# Convention : Reuss Voigt Hill
#
# Bulk Modulus (GPa) = 17.94971 31.90498 24.92734
# Shear Modulus (GPa) = 17.76720 29.76973 23.76847
#
# Velocity S-wave (km/s) = 2.70860 3.50609 3.13283
# Velocity P-wave (km/s) = 4.14656 5.43734 4.83521
#
# Compressibility (1/GPa) = 0.05571120
#
# Stress axis : x y z
#
# Youngs Moduli (GPa) = 81.01718 24.10677 51.14778
#
# Poissons Ratio (x) = 0.10588 0.02832
# Poissons Ratio (y) = 0.35584 0.19880
# Poissons Ratio (z) = 0.04486 0.09370
#
# Static dielectric constant tensor:
#      x y z
#    x 4.321930 -0.085000 0.125200 
#    y -0.085000 4.387870 0.131300 
#    z 0.125200 0.131300 4.297430 
# 
# 
# High freq. dielectric constant tensor:
#      x y z
#    x 1.966420 -0.012570 0.001330 
#    y -0.012570 1.956630 0.003080 
#    z 0.001330 0.003080 1.954580 
# 
# From -- ./inp_files/470185.got.cif
#   From: 2010.06.25/outbox.cif.g09.slc.cpg/sg2_236_cif.got.tgz:470185.got - 2010.06.27 13:26:56.
