data_PCOD8022169
_publ_section_title
;
Structure prediction by ZEFSAII (Michael W. Deem and Ramdas Pophale) SiO2 
 PCOD8022169
Probable space group: P -1
;
_chemical_formula_sum "Si O2"
_cell_formula_units_Z 16
_cell_length_a 6.813029
_cell_length_b 19.476307
_cell_length_c 16.447927
_cell_angle_alpha 158.694410
_cell_angle_beta 79.514572
_cell_angle_gamma 99.718106
_cell_volume 779.757221
_symmetry_space_group_name_H-M "P -1"
_symmetry_group_IT_number 2
_symmetry_cell_setting 'triclinic'
loop_
_space_group_symop_operation_xyz
x,y,z
-x,-y,-z
loop_
_atom_site_type_symbol
_atom_site_label
_atom_site_fract_x
_atom_site_fract_y
_atom_site_fract_z
Si Si1 0.637229 0.033828 0.949915
Si Si2 0.004422 0.782456 0.618851
Si Si3 0.041773 0.715203 0.725271
Si Si4 0.893714 0.467666 0.804552
Si Si5 0.281591 0.106414 0.947497
Si Si6 0.167340 0.802766 0.199809
Si Si7 0.154289 0.907449 0.499876
Si Si8 0.609489 0.759492 0.078102
O O1 0.772784 0.218925 0.160581
O O2 0.504694 0.060414 0.909191
O O3 0.500000 0.000000 0.000000
O O4 0.778431 0.855945 0.723533
O O5 0.091023 0.756226 0.673614
O O6 0.005263 0.593733 0.356490
O O7 0.160417 0.926096 0.722498
O O8 0.000000 0.500000 0.500000
O O9 0.840578 0.818945 0.883250
O O10 0.858669 0.286726 0.663750
O O11 0.686940 0.578250 0.923037
O O12 0.037332 0.612700 0.999465
O O13 0.299796 0.254379 0.035365
O O14 0.213869 0.857208 0.348444
O O15 0.371523 0.757611 0.088238
O O16 0.054535 0.975495 0.352898
O O17 0.328983 0.040453 0.666836
#
# Coordination Sequence:
#
# PCOD8022169 Si02
#       8
#     2   2   2   2   2   2   2   2
#     4  11  21  40  64  85 113 170 215 246 309 378
#     4  11  22  40  63  88 126 165 206 258 317 365
#     4  11  23  39  60  87 126 159 202 266 311 360
#     4  11  24  41  65  96 130 165 210 261 316 376
#     4  11  22  40  61  88 123 165 209 255 310 373
#     4  10  24  42  67  99 125 164 214 258 314 382
#     4  10  22  45  67  91 133 168 201 262 324 373
#     4  11  24  40  65  96 127 166 216 258 310 380
#
# _framework density 20.519206000000001
#
# number of rings (size 3 to 8) (size 9 to 14) (size 15 to 20)
#    0.000    1.250    3.750    2.250    1.750    5.000 
#    2.250    0.000    0.000    0.000    0.000    0.000 
#    0.000    0.000    0.000    0.000    0.000    0.000 
#
# Total GULP energy -198411.155971 kJ/mol
# GULP energy per Si atom -12400.697248 kJ/mol
# Density = 2.047250 g / cm^3
# Si number density = 20.519206 Si / 1000 Ang^3
#
#
#
# Elastic Constant Matrix: (Units=GPa)
#
#
# Indices 1 2 3 4 5 6 
#
# 1 109.9358 20.7804 21.2610 14.1904 -10.8340 0.9512
# 2 20.7804 79.2720 17.2925 18.3182 -10.2642 -2.9175
# 3 21.2610 17.2925 91.8966 17.8227 -6.0758 0.2533
# 4 14.1904 18.3182 17.8227 40.6658 -5.0290 -2.4821
# 5 -10.8340 -10.2642 -6.0758 -5.0290 16.4844 -3.3346
# 6 0.9512 -2.9175 0.2533 -2.4821 -3.3346 27.8688
#
#
#
# Elastic Compliance Matrix: (Units=1/GPa)
#
#
# Indices 1 2 3 4 5 6 
#
# 1 0.010344 -0.001357 -0.001476 -0.001753 0.004863 -0.000056
# 2 -0.001357 0.015366 -0.001153 -0.004929 0.007169 0.002084
# 3 -0.001476 -0.001153 0.012359 -0.004219 0.001503 -0.000379
# 4 -0.001753 -0.004929 -0.004219 0.029920 0.003900 0.002714
# 5 0.004863 0.007169 0.001503 0.003900 0.071996 0.009533
# 6 -0.000056 0.002084 -0.000379 0.002714 0.009533 0.037488
#
#
# Mechanical properties :
#
#
# Convention : Reuss Voigt Hill
#
# Bulk Modulus (GPa) = 33.22628 44.41917 38.82272
# Shear Modulus (GPa) = 25.57828 31.78850 28.68339
#
# Velocity S-wave (km/s) = 3.53449 3.94027 3.74288
# Velocity P-wave (km/s) = 5.73452 6.51119 6.13516
#
# Compressibility (1/GPa) = 0.03009666
#
# Stress axis : x y z
#
# Youngs Moduli (GPa) = 96.67202 65.07872 80.91233
#
# Poissons Ratio (x) = 0.08830 0.11944
# Poissons Ratio (y) = 0.13116 0.09332
# Poissons Ratio (z) = 0.14270 0.07506
#
# Static dielectric constant tensor:
#      x y z
#    x 3.737210 -0.006670 0.014180 
#    y -0.006670 2.746350 0.496640 
#    z 0.014180 0.496640 3.082090 
# 
# 
# High freq. dielectric constant tensor:
#      x y z
#    x 1.802590 -0.006130 0.003340 
#    y -0.006130 1.805050 -0.006870 
#    z 0.003340 -0.006870 1.805920 
# 
# From -- ./inp_files/106088.got.cif
#   From: 2010.06.25/outbox.cif.g09.slc.cpg/sg2_54_cif.got.tgz:106088.got - 2010.06.27 13:26:56.
