data_PCOD8022737
_publ_section_title
;
Structure prediction by ZEFSAII (Michael W. Deem and Ramdas Pophale) SiO2 
 PCOD8022737
Probable space group: P -1
;
_chemical_formula_sum "Si O2"
_cell_formula_units_Z 16
_cell_length_a 5.264465
_cell_length_b 17.773505
_cell_length_c 11.421871
_cell_angle_alpha 120.425435
_cell_angle_beta 106.192059
_cell_angle_gamma 47.673994
_cell_volume 678.079111
_symmetry_space_group_name_H-M "P -1"
_symmetry_group_IT_number 2
_symmetry_cell_setting 'triclinic'
loop_
_space_group_symop_operation_xyz
x,y,z
-x,-y,-z
loop_
_atom_site_type_symbol
_atom_site_label
_atom_site_fract_x
_atom_site_fract_y
_atom_site_fract_z
Si Si1 0.792151 0.457762 0.408320
Si Si2 0.764944 0.984288 0.388716
Si Si3 0.195195 0.378389 0.872290
Si Si4 0.867572 0.021947 0.201850
Si Si5 0.814065 0.771050 0.836296
Si Si6 0.398801 0.619842 0.285413
Si Si7 0.612898 0.211913 0.003657
Si Si8 0.043927 0.152205 0.480694
O O1 0.500000 0.500000 0.500000
O O2 0.633385 0.501238 0.291667
O O3 0.000000 0.500000 0.500000
O O4 0.053552 0.320722 0.322784
O O5 0.859696 0.943841 0.234321
O O6 0.802456 0.890682 0.399405
O O7 0.387701 0.110157 0.426155
O O8 0.000000 0.000000 0.500000
O O9 0.384742 0.370087 0.772279
O O10 0.916315 0.363041 0.800591
O O11 0.472834 0.278219 0.915896
O O12 0.000000 0.500000 0.000000
O O13 0.522675 0.103524 0.147098
O O14 0.913829 0.096837 0.347785
O O15 0.195066 0.923587 0.088507
O O16 0.705454 0.735650 0.906904
O O17 0.116757 0.775483 0.901868
O O18 0.258658 0.713417 0.444234
#
# Coordination Sequence:
#
# PCOD8022737 Si02
#       8
#     2   2   2   2   2   2   2   2
#     4  12  26  47  74 103 137 177 224 282 344 399
#     4   9  21  38  61  94 138 172 219 274 334 396
#     4  12  26  47  72  99 136 179 231 285 338 397
#     4  11  25  40  69  94 140 179 226 268 345 401
#     4  12  27  47  69  98 139 178 235 279 330 408
#     4  12  26  43  74 103 134 177 227 277 347 400
#     4  12  27  46  69 100 137 185 227 280 334 397
#     4  10  23  38  65  99 138 168 225 279 339 401
#
# _framework density 23.596066
#
# number of rings (size 3 to 8) (size 9 to 14) (size 15 to 20)
#    0.000    0.750    0.000    6.375   14.000    0.000 
#    0.000    0.000    0.000    0.000    0.000    0.000 
#    0.000    0.000    0.000    0.000    0.000    0.000 
#
# Total GULP energy -198286.447508 kJ/mol
# GULP energy per Si atom -12392.902969 kJ/mol
# Density = 2.354236 g / cm^3
# Si number density = 23.596066 Si / 1000 Ang^3
#
#
#
# Elastic Constant Matrix: (Units=GPa)
#
#
# Indices 1 2 3 4 5 6 
#
# 1 112.3562 8.1991 29.5666 -0.3569 -7.6154 -7.9068
# 2 8.1991 104.0393 29.5097 2.2483 2.5775 -7.3750
# 3 29.5666 29.5097 99.6515 17.6288 7.8575 -4.8439
# 4 -0.3569 2.2483 17.6288 52.7366 1.6600 -7.0213
# 5 -7.6154 2.5775 7.8575 1.6600 41.5698 -1.4594
# 6 -7.9068 -7.3750 -4.8439 -7.0213 -1.4594 31.7927
#
#
#
# Elastic Compliance Matrix: (Units=1/GPa)
#
#
# Indices 1 2 3 4 5 6 
#
# 1 0.010131 0.000253 -0.003415 0.001452 0.002515 0.002494
# 2 0.000253 0.010664 -0.003295 0.000946 0.000049 0.002246
# 3 -0.003415 -0.003295 0.012951 -0.004219 -0.002725 -0.000697
# 4 0.001452 0.000946 -0.004219 0.020941 0.000329 0.004578
# 5 0.002515 0.000049 -0.002725 0.000329 0.025066 0.001445
# 6 0.002494 0.002246 -0.000697 0.004578 0.001445 0.033566
#
#
# Mechanical properties :
#
#
# Convention : Reuss Voigt Hill
#
# Bulk Modulus (GPa) = 48.00098 50.06642 49.03370
# Shear Modulus (GPa) = 37.54384 41.80459 39.67421
#
# Velocity S-wave (km/s) = 3.99319 4.21369 4.10493
# Velocity P-wave (km/s) = 6.45351 6.70357 6.57973
#
# Compressibility (1/GPa) = 0.02083291
#
# Stress axis : x y z
#
# Youngs Moduli (GPa) = 98.70667 93.77384 77.21223
#
# Poissons Ratio (x) = -0.02375 0.26367
# Poissons Ratio (y) = -0.02500 0.25442
# Poissons Ratio (z) = 0.33707 0.30900
#
# Static dielectric constant tensor:
#      x y z
#    x 17.872520 12.322320 -2.740730 
#    y 12.322320 16.740540 -3.246340 
#    z -2.740730 -3.246340 6.110750 
# 
# 
# High freq. dielectric constant tensor:
#      x y z
#    x 1.944930 -0.010040 -0.009950 
#    y -0.010040 1.943890 -0.002720 
#    z -0.009950 -0.002720 1.940510 
# 
# From -- ./inp_files/370420.got.cif
#   From: 2010.06.25/outbox.cif.g09.slc.cpg/sg2_186_cif.got.tgz:370420.got - 2010.06.27 13:26:56.
