data_PCOD8022391
_publ_section_title
;
Structure prediction by ZEFSAII (Michael W. Deem and Ramdas Pophale) SiO2 
 PCOD8022391
Probable space group: P -1
;
_chemical_formula_sum "Si O2"
_cell_formula_units_Z 10
_cell_length_a 12.901841
_cell_length_b 4.990991
_cell_length_c 8.252296
_cell_angle_alpha 49.627352
_cell_angle_beta 62.370425
_cell_angle_gamma 71.935381
_cell_volume 358.635152
_symmetry_space_group_name_H-M "P -1"
_symmetry_group_IT_number 2
_symmetry_cell_setting 'triclinic'
loop_
_space_group_symop_operation_xyz
x,y,z
-x,-y,-z
loop_
_atom_site_type_symbol
_atom_site_label
_atom_site_fract_x
_atom_site_fract_y
_atom_site_fract_z
Si Si1 0.470035 0.795974 0.776652
Si Si2 0.385927 0.601849 0.422610
Si Si3 0.045231 0.624556 0.165655
Si Si4 0.169691 0.528863 0.443822
Si Si5 0.754589 0.267264 0.229001
O O1 0.552168 0.740729 0.574780
O O2 0.333175 0.788800 0.837445
O O3 0.507437 0.149777 0.705790
O O4 0.500000 0.500000 0.000000
O O5 0.287188 0.753091 0.309897
O O6 0.309338 0.502947 0.675308
O O7 0.121800 0.655723 0.259288
O O8 0.931387 0.386217 0.378372
O O9 0.133873 0.503128 0.004685
O O10 0.000000 0.000000 0.000000
O O11 0.204660 0.114350 0.582404
#
# Coordination Sequence:
#
# PCOD8022391 Si02
#       5
#     2   2   2   2   2
#     4  12  27  46  72 108 146 191 237 289 355 425
#     4  12  25  46  73 105 148 186 236 295 351 422
#     4   9  21  46  73 107 141 190 237 296 359 419
#     4  10  22  45  74 105 146 185 241 294 351 425
#     4  11  24  42  74 104 148 187 238 291 354 420
#
# _framework density 27.883488
#
# number of rings (size 3 to 8) (size 9 to 14) (size 15 to 20)
#    0.000    1.200    2.000    3.000    2.800    0.800 
#    3.600    9.000    0.000    0.000    0.000    0.000 
#    0.000    0.000    0.000    0.000    0.000    0.000 
#
# Total GULP energy -123893.008195 kJ/mol
# GULP energy per Si atom -12389.300820 kJ/mol
# Density = 2.782002 g / cm^3
# Si number density = 27.883488 Si / 1000 Ang^3
#
#
#
# Elastic Constant Matrix: (Units=GPa)
#
#
# Indices 1 2 3 4 5 6 
#
# 1 197.6851 40.2992 28.5838 1.1759 13.6058 -12.7415
# 2 40.2992 125.2422 39.0205 14.9768 -6.1198 -12.1540
# 3 28.5838 39.0205 88.3078 21.6095 2.1140 -30.3908
# 4 1.1759 14.9768 21.6095 25.3700 -10.5286 -7.7282
# 5 13.6058 -6.1198 2.1140 -10.5286 63.0470 5.2052
# 6 -12.7415 -12.1540 -30.3908 -7.7282 5.2052 32.4266
#
#
#
# Elastic Compliance Matrix: (Units=1/GPa)
#
#
# Indices 1 2 3 4 5 6 
#
# 1 0.005691 -0.001623 -0.001038 0.001440 -0.001209 0.001192
# 2 -0.001623 0.009888 -0.003630 -0.002556 0.001097 -0.001119
# 3 -0.001038 -0.003630 0.022523 -0.013775 -0.004570 0.016791
# 4 0.001440 -0.002556 -0.013775 0.056043 0.009382 -0.001452
# 5 -0.001209 0.001097 -0.004570 0.009382 0.018366 -0.005059
# 6 0.001192 -0.001119 0.016791 -0.001452 -0.005059 0.047091
#
#
# Mechanical properties :
#
#
# Convention : Reuss Voigt Hill
#
# Bulk Modulus (GPa) = 39.18508 69.67133 54.42820
# Shear Modulus (GPa) = 27.67145 44.39081 36.03113
#
# Velocity S-wave (km/s) = 3.15365 3.99433 3.59862
# Velocity P-wave (km/s) = 5.22918 6.80542 6.06869
#
# Compressibility (1/GPa) = 0.02551992
#
# Stress axis : x y z
#
# Youngs Moduli (GPa) = 175.71450 101.12762 44.39970
#
# Poissons Ratio (x) = 0.16417 0.04608
# Poissons Ratio (y) = 0.28526 0.16116
# Poissons Ratio (z) = 0.18238 0.36707
#
# Static dielectric constant tensor:
#      x y z
#    x 6.209280 -0.177080 -0.239790 
#    y -0.177080 4.756790 0.528030 
#    z -0.239790 0.528030 5.699350 
# 
# 
# High freq. dielectric constant tensor:
#      x y z
#    x 2.181410 -0.013140 0.005190 
#    y -0.013140 2.095190 0.024050 
#    z 0.005190 0.024050 2.126870 
# 
# From -- ./inp_files/20409.got.cif
#   From: 2010.06.25/outbox.cif.g09.slc.cpg/sg2_11_cif.got.tgz:20409.got - 2010.06.27 13:26:56.
