data_PCOD8022625
_publ_section_title
;
Structure prediction by ZEFSAII (Michael W. Deem and Ramdas Pophale) SiO2 
 PCOD8022625
Probable space group: P -1
;
_chemical_formula_sum "Si O2"
_cell_formula_units_Z 16
_cell_length_a 11.204103
_cell_length_b 23.019863
_cell_length_c 11.955432
_cell_angle_alpha 144.346220
_cell_angle_beta 38.030946
_cell_angle_gamma 150.101763
_cell_volume 858.322855
_symmetry_space_group_name_H-M "P -1"
_symmetry_group_IT_number 2
_symmetry_cell_setting 'triclinic'
loop_
_space_group_symop_operation_xyz
x,y,z
-x,-y,-z
loop_
_atom_site_type_symbol
_atom_site_label
_atom_site_fract_x
_atom_site_fract_y
_atom_site_fract_z
Si Si1 0.632774 0.188847 0.400727
Si Si2 0.039733 0.649341 0.392830
Si Si3 0.945093 0.408305 0.150951
Si Si4 0.139464 0.942294 0.419942
Si Si5 0.979104 0.707866 0.286162
Si Si6 0.105094 0.351825 0.160626
Si Si7 0.389275 0.538203 0.443580
Si Si8 0.200308 0.179748 0.724432
O O1 0.767475 0.225458 0.478806
O O2 0.825027 0.247102 0.248862
O O3 0.485341 0.246125 0.584466
O O4 0.429186 0.032339 0.304130
O O5 0.105196 0.552928 0.208468
O O6 0.068521 0.690825 0.309372
O O7 0.756908 0.576527 0.534771
O O8 0.101891 0.406329 0.129677
O O9 0.683779 0.369158 0.332562
O O10 0.895831 0.315360 0.941718
O O11 0.091458 0.856130 0.427325
O O12 0.958468 0.840103 0.297749
O O13 0.075494 0.037487 0.646637
O O14 0.680509 0.612418 0.349921
O O15 0.283618 0.473841 0.299329
O O16 0.210018 0.273898 0.950615
#
# Coordination Sequence:
#
# PCOD8022625 Si02
#       8
#     2   2   2   2   2   2   2   2
#     4   9  21  39  58  82 121 139 193 238 264 342
#     4   9  22  40  56  84 112 152 194 225 275 330
#     4  10  23  35  56  93 106 152 186 223 296 328
#     4   9  21  38  57  87 110 151 188 224 291 326
#     4  12  21  40  58  79 123 151 184 233 272 339
#     4  11  20  37  62  85 115 145 183 234 296 324
#     4   9  24  35  58  87 114 146 188 233 282 333
#     4   9  20  38  54  89 111 144 190 224 290 329
#
# _framework density 18.641005
#
# number of rings (size 3 to 8) (size 9 to 14) (size 15 to 20)
#    1.500    0.750    1.250    1.125    3.500    1.500 
#    2.250    0.000    0.000    3.000    0.000    0.000 
#    0.000    0.000    0.000    0.000    0.000    0.000 
#
# Total GULP energy -198220.597746 kJ/mol
# GULP energy per Si atom -12388.787359 kJ/mol
# Density = 1.859858 g / cm^3
# Si number density = 18.641005 Si / 1000 Ang^3
#
#
#
# Elastic Constant Matrix: (Units=GPa)
#
#
# Indices 1 2 3 4 5 6 
#
# 1 93.2754 30.5049 19.2575 6.8836 6.2132 -26.4971
# 2 30.5049 68.7803 10.8795 -2.1402 -11.8130 -9.4030
# 3 19.2575 10.8795 93.8701 0.0002 -0.9005 -9.7488
# 4 6.8836 -2.1402 0.0002 19.6869 -1.1778 -9.6753
# 5 6.2132 -11.8130 -0.9005 -1.1778 18.4908 -2.7175
# 6 -26.4971 -9.4030 -9.7488 -9.6753 -2.7175 31.4306
#
#
#
# Elastic Compliance Matrix: (Units=1/GPa)
#
#
# Indices 1 2 3 4 5 6 
#
# 1 0.017297 -0.007720 -0.001688 -0.002455 -0.009487 0.010173
# 2 -0.007720 0.021830 -0.000372 0.008046 0.017609 0.003907
# 3 -0.001688 -0.000372 0.011337 0.001965 0.001405 0.002708
# 4 -0.002455 0.008046 0.001965 0.064049 0.013347 0.021817
# 5 -0.009487 0.017609 0.001405 0.013347 0.070601 0.007918
# 6 0.010173 0.003907 0.002708 0.021817 0.007918 0.049802
#
#
# Mechanical properties :
#
#
# Convention : Reuss Voigt Hill
#
# Bulk Modulus (GPa) = 32.35679 41.91217 37.13448
# Shear Modulus (GPa) = 18.88378 26.94058 22.91218
#
# Velocity S-wave (km/s) = 3.18626 3.80574 3.50970
# Velocity P-wave (km/s) = 5.56164 6.46871 6.03225
#
# Compressibility (1/GPa) = 0.03090542
#
# Stress axis : x y z
#
# Youngs Moduli (GPa) = 57.81298 45.80758 88.20510
#
# Poissons Ratio (x) = 0.35361 0.14892
# Poissons Ratio (y) = 0.44629 0.03279
# Poissons Ratio (z) = 0.09761 0.01703
#
# Static dielectric constant tensor:
#      x y z
#    x 3.216920 -0.014330 -0.010900 
#    y -0.014330 3.267320 0.019730 
#    z -0.010900 0.019730 3.312170 
# 
# 
# High freq. dielectric constant tensor:
#      x y z
#    x 1.712730 0.000810 -0.001850 
#    y 0.000810 1.712950 0.002600 
#    z -0.001850 0.002600 1.712380 
# 
# From -- ./inp_files/404896.got.cif
#   From: 2010.06.25/outbox.cif.g09.slc.cpg/sg2_203_cif.got.tgz:404896.got - 2010.06.27 13:26:56.
