data_PCOD8022204
_publ_section_title
;
Structure prediction by ZEFSAII (Michael W. Deem and Ramdas Pophale) SiO2 
 PCOD8022204
Probable space group: P -1
;
_chemical_formula_sum "Si O2"
_cell_formula_units_Z 16
_cell_length_a 9.034300
_cell_length_b 18.320220
_cell_length_c 11.852512
_cell_angle_alpha 48.614628
_cell_angle_beta 153.661406
_cell_angle_gamma 123.879331
_cell_volume 649.387621
_symmetry_space_group_name_H-M "P -1"
_symmetry_group_IT_number 2
_symmetry_cell_setting 'triclinic'
loop_
_space_group_symop_operation_xyz
x,y,z
-x,-y,-z
loop_
_atom_site_type_symbol
_atom_site_label
_atom_site_fract_x
_atom_site_fract_y
_atom_site_fract_z
Si Si1 0.357905 0.985849 0.106521
Si Si2 0.689786 0.919521 0.792342
Si Si3 0.188609 0.577738 0.677198
Si Si4 0.678937 0.435279 0.471301
Si Si5 0.470579 0.682380 0.315603
Si Si6 0.755438 0.871224 0.321636
Si Si7 0.794985 0.395170 0.013799
Si Si8 0.359232 0.738680 0.786839
O O1 0.684558 0.918757 0.349712
O O2 0.438418 0.055326 0.193293
O O3 0.084130 0.919622 0.038459
O O4 0.222237 0.049015 0.842010
O O5 0.618114 0.807104 0.838068
O O6 0.500000 0.000000 0.500000
O O7 0.181724 0.601465 0.515625
O O8 0.187705 0.684752 0.622430
O O9 0.869263 0.525967 0.554093
O O10 0.500000 0.500000 0.000000
O O11 0.732591 0.342473 0.685307
O O12 0.287894 0.485763 0.153975
O O13 0.463931 0.799122 0.174214
O O14 0.853560 0.635155 0.650446
O O15 0.259316 0.640080 0.114072
O O16 0.108545 0.807748 0.624644
O O17 0.509394 0.346810 0.946820
#
# Coordination Sequence:
#
# PCOD8022204 Si02
#       8
#     2   2   2   2   2   2   2   2
#     4  10  23  45  71  98 145 174 237 289 362 424
#     4  11  23  43  69 104 134 181 228 294 352 427
#     4  11  25  44  67  98 140 191 239 294 352 426
#     4  11  24  43  67  98 140 187 239 297 350 423
#     4  11  25  41  71 104 140 184 239 298 357 429
#     4  10  22  45  68 105 135 186 232 293 357 428
#     4  11  23  43  68 101 139 190 237 293 361 417
#     4  11  23  44  73  98 143 186 238 288 365 423
#
# _framework density 24.638598000000002
#
# number of rings (size 3 to 8) (size 9 to 14) (size 15 to 20)
#    0.000    1.250    2.500    3.000    1.750    2.500 
#    4.500    0.000    0.000    0.000    0.000    0.000 
#    0.000    0.000    0.000    0.000    0.000    0.000 
#
# Total GULP energy -198218.423146 kJ/mol
# GULP energy per Si atom -12388.651447 kJ/mol
# Density = 2.458252 g / cm^3
# Si number density = 24.638598 Si / 1000 Ang^3
#
#
#
# Elastic Constant Matrix: (Units=GPa)
#
#
# Indices 1 2 3 4 5 6 
#
# 1 137.2866 46.4253 4.4317 -0.2256 -14.9377 -9.7103
# 2 46.4253 127.3251 3.1268 4.4361 -7.3906 5.6122
# 3 4.4317 3.1268 39.4914 4.7135 -2.9963 -12.0109
# 4 -0.2256 4.4361 4.7135 33.0817 -4.7947 -5.2171
# 5 -14.9377 -7.3906 -2.9963 -4.7947 39.1405 -11.7312
# 6 -9.7103 5.6122 -12.0109 -5.2171 -11.7312 36.2949
#
#
#
# Elastic Compliance Matrix: (Units=1/GPa)
#
#
# Indices 1 2 3 4 5 6 
#
# 1 0.009295 -0.003428 0.000921 0.001886 0.004737 0.005124
# 2 -0.003428 0.009289 -0.001203 -0.001735 -0.000840 -0.003272
# 3 0.000921 -0.001203 0.029525 -0.001327 0.005783 0.011881
# 4 0.001886 -0.001735 -0.001327 0.032717 0.006431 0.007115
# 5 0.004737 -0.000840 0.005783 0.006431 0.032884 0.014864
# 6 0.005124 -0.003272 0.011881 0.007115 0.014864 0.039188
#
#
# Mechanical properties :
#
#
# Convention : Reuss Voigt Hill
#
# Bulk Modulus (GPa) = 24.57675 45.78565 35.18120
# Shear Modulus (GPa) = 28.75548 38.37805 33.56676
#
# Velocity S-wave (km/s) = 3.41998 3.95098 3.69503
# Velocity P-wave (km/s) = 5.05881 6.27988 5.70212
#
# Compressibility (1/GPa) = 0.04068886
#
# Stress axis : x y z
#
# Youngs Moduli (GPa) = 107.58999 107.64960 33.87011
#
# Poissons Ratio (x) = 0.36904 -0.03120
# Poissons Ratio (y) = 0.36884 0.04073
# Poissons Ratio (z) = -0.09910 0.12947
#
# Static dielectric constant tensor:
#      x y z
#    x 4.838320 0.393960 -0.064360 
#    y 0.393960 5.000580 -0.221270 
#    z -0.064360 -0.221270 4.293650 
# 
# 
# High freq. dielectric constant tensor:
#      x y z
#    x 1.999710 0.017100 -0.004860 
#    y 0.017100 1.987820 -0.004540 
#    z -0.004860 -0.004540 1.956080 
# 
# From -- ./inp_files/403062.got.cif
#   From: 2010.06.25/outbox.cif.g09.slc.cpg/sg2_202_cif.got.tgz:403062.got - 2010.06.27 13:26:56.
