data_PCOD8022648
_publ_section_title
;
Structure prediction by ZEFSAII (Michael W. Deem and Ramdas Pophale) SiO2 
 PCOD8022648
Probable space group: P -1
;
_chemical_formula_sum "Si O2"
_cell_formula_units_Z 14
_cell_length_a 9.138932
_cell_length_b 9.257152
_cell_length_c 12.049093
_cell_angle_alpha 139.132823
_cell_angle_beta 101.306173
_cell_angle_gamma 79.077435
_cell_volume 652.679629
_symmetry_space_group_name_H-M "P -1"
_symmetry_group_IT_number 2
_symmetry_cell_setting 'triclinic'
loop_
_space_group_symop_operation_xyz
x,y,z
-x,-y,-z
loop_
_atom_site_type_symbol
_atom_site_label
_atom_site_fract_x
_atom_site_fract_y
_atom_site_fract_z
Si Si1 0.714721 0.353514 0.879727
Si Si2 0.010980 0.911169 0.272046
Si Si3 0.810233 0.805451 0.376852
Si Si4 0.534104 0.780879 0.084572
Si Si5 0.636106 0.233370 0.558517
Si Si6 0.363810 0.530698 0.732774
Si Si7 0.732441 0.172428 0.309601
O O1 0.595379 0.200224 0.830414
O O2 0.712894 0.333950 0.734708
O O3 0.883952 0.267087 0.887397
O O4 0.670933 0.611651 0.052687
O O5 0.929932 0.783171 0.283223
O O6 0.890341 0.030616 0.240301
O O7 0.115013 0.092952 0.444439
O O8 0.759607 0.561951 0.257268
O O9 0.663249 0.963648 0.408771
O O10 0.592025 0.017299 0.201106
O O11 0.467788 0.687502 0.907027
O O12 0.462363 0.318669 0.575056
O O13 0.722355 0.309262 0.503940
O O14 0.279626 0.662559 0.698610
#
# Coordination Sequence:
#
# PCOD8022648 Si02
#       7
#     2   2   2   2   2   2   2
#     4   9  20  39  62  86 111 152 199 241 281 333
#     4   9  20  37  59  87 114 148 192 246 285 332
#     4   9  19  36  62  85 113 149 198 243 280 333
#     4  10  23  37  60  89 115 152 195 238 285 340
#     4   9  20  35  61  88 108 145 200 244 278 322
#     4  11  22  38  58  86 123 155 187 235 290 350
#     4  11  23  37  59  89 122 150 187 238 296 345
#
# _framework density 21.450033999999999
#
# number of rings (size 3 to 8) (size 9 to 14) (size 15 to 20)
#    0.000    2.286    0.000    2.143   16.000    1.143 
#    0.000    0.714    3.143    0.000    0.000    0.000 
#    0.000    0.000    0.000    0.000    0.000    0.000 
#
# Total GULP energy -173562.922561 kJ/mol
# GULP energy per Si atom -12397.351611 kJ/mol
# Density = 2.140121 g / cm^3
# Si number density = 21.450034 Si / 1000 Ang^3
#
#
#
# Elastic Constant Matrix: (Units=GPa)
#
#
# Indices 1 2 3 4 5 6 
#
# 1 124.9728 57.9521 29.6592 7.8829 -24.4840 -18.4773
# 2 57.9521 136.0985 19.7139 -7.5221 -5.8404 -7.1914
# 3 29.6592 19.7139 40.1912 0.5205 -17.2969 -4.5465
# 4 7.8829 -7.5221 0.5205 25.6841 0.3749 3.4458
# 5 -24.4840 -5.8404 -17.2969 0.3749 34.1568 5.7926
# 6 -18.4773 -7.1914 -4.5465 3.4458 5.7926 25.7866
#
#
#
# Elastic Compliance Matrix: (Units=1/GPa)
#
#
# Indices 1 2 3 4 5 6 
#
# 1 0.014093 -0.005083 -0.004490 -0.006814 0.005761 0.007505
# 2 -0.005083 0.009963 -0.002692 0.004748 -0.003141 -0.001268
# 3 -0.004490 -0.002692 0.035673 -0.000223 0.014544 -0.000916
# 4 -0.006814 0.004748 -0.000223 0.043637 -0.003187 -0.008713
# 5 0.005761 -0.003141 0.014544 -0.003187 0.040764 -0.002915
# 6 0.007505 -0.001268 -0.000916 -0.008713 -0.002915 0.045462
#
#
# Mechanical properties :
#
#
# Convention : Reuss Voigt Hill
#
# Bulk Modulus (GPa) = 28.41028 57.32365 42.86696
# Shear Modulus (GPa) = 22.13825 30.05466 26.09645
#
# Velocity S-wave (km/s) = 3.21609 3.74725 3.49179
# Velocity P-wave (km/s) = 5.20237 6.74573 6.02368
#
# Compressibility (1/GPa) = 0.03519853
#
# Stress axis : x y z
#
# Youngs Moduli (GPa) = 70.95945 100.37395 28.03213
#
# Poissons Ratio (x) = 0.51022 0.12586
# Poissons Ratio (y) = 0.36070 0.07546
# Poissons Ratio (z) = 0.31859 0.27021
#
# Static dielectric constant tensor:
#      x y z
#    x 4.038840 -0.212510 -0.265350 
#    y -0.212510 3.669780 -0.081430 
#    z -0.265350 -0.081430 3.905140 
# 
# 
# High freq. dielectric constant tensor:
#      x y z
#    x 1.841700 -0.008590 -0.009620 
#    y -0.008590 1.814880 -0.008160 
#    z -0.009620 -0.008160 1.838230 
# 
# From -- ./inp_files/154035.got.cif
#   From: 2010.06.25/outbox.cif.g09.slc.cpg/sg2_78_cif.got.tgz:154035.got - 2010.06.27 13:26:56.
