data_PCOD8022748
_publ_section_title
;
Structure prediction by ZEFSAII (Michael W. Deem and Ramdas Pophale) SiO2 
 PCOD8022748
Probable space group: P -1
;
_chemical_formula_sum "Si O2"
_cell_formula_units_Z 14
_cell_length_a 9.331241
_cell_length_b 8.913665
_cell_length_c 8.023062
_cell_angle_alpha 69.024237
_cell_angle_beta 71.806178
_cell_angle_gamma 79.760186
_cell_volume 590.308350
_symmetry_space_group_name_H-M "P -1"
_symmetry_group_IT_number 2
_symmetry_cell_setting 'triclinic'
loop_
_space_group_symop_operation_xyz
x,y,z
-x,-y,-z
loop_
_atom_site_type_symbol
_atom_site_label
_atom_site_fract_x
_atom_site_fract_y
_atom_site_fract_z
Si Si1 0.557650 0.314189 0.063037
Si Si2 0.117656 0.186692 0.815330
Si Si3 0.015811 0.230684 0.214789
Si Si4 0.283896 0.918100 0.663886
Si Si5 0.793826 0.214865 0.757574
Si Si6 0.313291 0.078543 0.263491
Si Si7 0.889328 0.472955 0.399853
O O1 0.614845 0.242133 0.250366
O O2 0.425723 0.203245 0.096370
O O3 0.500000 0.500000 0.000000
O O4 0.706870 0.306303 0.901596
O O5 0.194807 0.351801 0.674863
O O6 0.965261 0.163464 0.773537
O O7 0.240606 0.037829 0.790205
O O8 0.074557 0.203015 0.017458
O O9 0.871082 0.131566 0.341362
O O10 0.973570 0.414417 0.219604
O O11 0.148401 0.168309 0.317798
O O12 0.371233 0.009440 0.450066
O O13 0.782801 0.335965 0.554495
O O14 0.702249 0.061774 0.808846
O O15 0.000000 0.500000 0.500000
#
# Coordination Sequence:
#
# PCOD8022748 Si02
#       7
#     2   2   2   2   2   2   2
#     4  12  30  47  70  99 147 191 234 292 354 428
#     4  11  23  40  76 108 143 179 236 304 350 410
#     4  12  22  42  76 108 140 182 238 297 353 414
#     4  12  24  48  75 106 141 182 242 290 358 418
#     4  11  22  46  68 103 145 187 238 287 357 420
#     4  12  25  45  73 105 141 192 233 288 359 426
#     4  10  23  38  67 111 143 178 229 303 348 406
#
# _framework density 23.716418999999998
#
# number of rings (size 3 to 8) (size 9 to 14) (size 15 to 20)
#    0.000    0.571    4.286    4.714    6.000    1.143 
#    0.000    0.714    0.000    0.000    0.000    0.000 
#    0.000    0.000    0.000    0.000    0.000    0.000 
#
# Total GULP energy -173505.503996 kJ/mol
# GULP energy per Si atom -12393.250285 kJ/mol
# Density = 2.366244 g / cm^3
# Si number density = 23.716419 Si / 1000 Ang^3
#
#
#
# Elastic Constant Matrix: (Units=GPa)
#
#
# Indices 1 2 3 4 5 6 
#
# 1 59.3803 25.0117 6.2148 -21.3986 9.0008 -4.1752
# 2 25.0117 137.6980 38.0414 -17.6344 6.0926 -6.4104
# 3 6.2148 38.0414 99.9006 -12.0648 12.7678 1.3835
# 4 -21.3986 -17.6344 -12.0648 47.0342 2.9500 5.3678
# 5 9.0008 6.0926 12.7678 2.9500 25.9596 -7.7455
# 6 -4.1752 -6.4104 1.3835 5.3678 -7.7455 37.9876
#
#
#
# Elastic Compliance Matrix: (Units=1/GPa)
#
#
# Indices 1 2 3 4 5 6 
#
# 1 0.023248 -0.003116 0.002382 0.010853 -0.010235 -0.001678
# 2 -0.003116 0.008847 -0.003199 0.000873 0.000873 0.001322
# 3 0.002382 -0.003199 0.012553 0.003899 -0.007534 -0.002822
# 4 0.010853 0.000873 0.003899 0.028770 -0.010659 -0.005040
# 5 -0.010235 0.000873 -0.007534 -0.010659 0.050068 0.011012
# 6 -0.001678 0.001322 -0.002822 -0.005040 0.011012 0.029423
#
#
# Mechanical properties :
#
#
# Convention : Reuss Voigt Hill
#
# Bulk Modulus (GPa) = 27.18749 48.39053 37.78901
# Shear Modulus (GPa) = 28.89565 37.37702 33.13633
#
# Velocity S-wave (km/s) = 3.49432 3.97419 3.74195
# Velocity P-wave (km/s) = 5.26961 6.44259 5.88540
#
# Compressibility (1/GPa) = 0.03678162
#
# Stress axis : x y z
#
# Youngs Moduli (GPa) = 43.01359 113.03376 79.66266
#
# Poissons Ratio (x) = 0.35226 -0.18979
# Poissons Ratio (y) = 0.13405 0.25487
# Poissons Ratio (z) = -0.10248 0.36164
#
# Static dielectric constant tensor:
#      x y z
#    x 4.104910 0.010310 0.021250 
#    y 0.010310 4.682490 -0.400530 
#    z 0.021250 -0.400530 4.512790 
# 
# 
# High freq. dielectric constant tensor:
#      x y z
#    x 1.913580 0.007350 0.005400 
#    y 0.007350 1.951620 -0.008230 
#    z 0.005400 -0.008230 1.947240 
# 
# From -- ./inp_files/157204.got.cif
#   From: 2010.06.25/outbox.cif.g09.slc.cpg/sg2_79_cif.got.tgz:157204.got - 2010.06.27 13:26:56.
