data_PCOD8022117
_publ_section_title
;
Structure prediction by ZEFSAII (Michael W. Deem and Ramdas Pophale) SiO2 
 PCOD8022117
Probable space group: P -1
;
_chemical_formula_sum "Si O2"
_cell_formula_units_Z 16
_cell_length_a 7.534881
_cell_length_b 22.078402
_cell_length_c 5.375727
_cell_angle_alpha 111.962957
_cell_angle_beta 117.648362
_cell_angle_gamma 56.512052
_cell_volume 652.201040
_symmetry_space_group_name_H-M "P -1"
_symmetry_group_IT_number 2
_symmetry_cell_setting 'triclinic'
loop_
_space_group_symop_operation_xyz
x,y,z
-x,-y,-z
loop_
_atom_site_type_symbol
_atom_site_label
_atom_site_fract_x
_atom_site_fract_y
_atom_site_fract_z
Si Si1 0.263329 0.768150 0.406826
Si Si2 0.974909 0.396453 0.829355
Si Si3 0.392769 0.614365 0.129414
Si Si4 0.454091 0.832266 0.972482
Si Si5 0.335720 0.443692 0.274102
Si Si6 0.900391 0.756105 0.459330
Si Si7 0.619173 0.006061 0.839480
Si Si8 0.992536 0.143466 0.029899
O O1 0.369103 0.696130 0.188076
O O2 0.055968 0.842777 0.273460
O O3 0.143355 0.745506 0.509996
O O4 0.458453 0.790384 0.651645
O O5 0.846596 0.384604 0.967173
O O6 0.824969 0.469026 0.684784
O O7 0.057245 0.326809 0.584719
O O8 0.195439 0.398677 0.082196
O O9 0.541908 0.578549 0.417070
O O10 0.499651 0.569551 0.877290
O O11 0.697502 0.793223 0.191431
O O12 0.262862 0.822104 0.982760
O O13 0.370767 0.918231 0.019627
O O14 0.861496 0.811901 0.748489
O O15 0.500000 0.000000 0.500000
O O16 0.872597 0.939985 0.918395
O O17 0.500000 0.000000 0.000000
#
# Coordination Sequence:
#
# PCOD8022117 Si02
#       8
#     2   2   2   2   2   2   2   2
#     4  10  25  41  68 103 137 186 236 291 349 425
#     4  10  24  43  72 101 142 188 241 296 359 425
#     4  11  25  45  71 100 148 185 239 298 362 419
#     4  11  24  44  73 100 141 184 232 287 349 413
#     4  11  25  46  68 106 139 190 243 295 358 434
#     4  10  22  45  65 101 140 181 233 293 354 416
#     4  12  27  48  75 104 143 185 228 284 350 416
#     4  11  25  44  72 103 138 181 238 282 350 423
#
# _framework density 24.532315000000001
#
# number of rings (size 3 to 8) (size 9 to 14) (size 15 to 20)
#    0.000    1.250    1.250    2.625   10.500    4.500 
#    4.500    0.000    0.000    0.000    0.000    0.000 
#    0.000    0.000    0.000    0.000    0.000    0.000 
#
# Total GULP energy -198238.122813 kJ/mol
# GULP energy per Si atom -12389.882676 kJ/mol
# Density = 2.447648 g / cm^3
# Si number density = 24.532315 Si / 1000 Ang^3
#
#
#
# Elastic Constant Matrix: (Units=GPa)
#
#
# Indices 1 2 3 4 5 6 
#
# 1 71.3243 11.7412 22.0531 4.4547 20.8452 9.1689
# 2 11.7412 121.8788 36.2115 17.4497 11.6949 16.6626
# 3 22.0531 36.2115 95.2794 -2.4748 16.2156 14.9757
# 4 4.4547 17.4497 -2.4748 42.2504 12.5826 9.1060
# 5 20.8452 11.6949 16.2156 12.5826 40.0585 3.7695
# 6 9.1689 16.6626 14.9757 9.1060 3.7695 35.1855
#
#
#
# Elastic Compliance Matrix: (Units=1/GPa)
#
#
# Indices 1 2 3 4 5 6 
#
# 1 0.017415 -0.000006 -0.002108 0.001169 -0.008287 -0.003053
# 2 -0.000006 0.010144 -0.003588 -0.003891 -0.000071 -0.002261
# 3 -0.002108 -0.003588 0.013958 0.004855 -0.004612 -0.004455
# 4 0.001169 -0.003891 0.004855 0.030025 -0.010190 -0.007207
# 5 -0.008287 -0.000071 -0.004612 -0.010190 0.034068 0.003144
# 6 -0.003053 -0.002261 -0.004455 -0.007207 0.003144 0.033712
#
#
# Mechanical properties :
#
#
# Convention : Reuss Voigt Hill
#
# Bulk Modulus (GPa) = 33.20753 47.61044 40.40899
# Shear Modulus (GPa) = 31.10179 38.06400 34.58289
#
# Velocity S-wave (km/s) = 3.56446 3.94329 3.75865
# Velocity P-wave (km/s) = 5.52324 6.33893 5.94509
#
# Compressibility (1/GPa) = 0.03011365
#
# Stress axis : x y z
#
# Youngs Moduli (GPa) = 57.42327 98.57713 71.64351
#
# Poissons Ratio (x) = 0.00061 0.15102
# Poissons Ratio (y) = 0.00036 0.25702
# Poissons Ratio (z) = 0.12104 0.35365
#
# Static dielectric constant tensor:
#      x y z
#    x 4.458870 0.404960 0.081690 
#    y 0.404960 6.008090 -0.074640 
#    z 0.081690 -0.074640 4.803050 
# 
# 
# High freq. dielectric constant tensor:
#      x y z
#    x 1.967490 0.006040 0.020550 
#    y 0.006040 1.994040 0.005830 
#    z 0.020550 0.005830 1.979260 
# 
# From -- ./inp_files/55671.got.cif
#   From: 2010.06.25/outbox.cif.g09.slc.cpg/sg2_28_cif.got.tgz:55671.got - 2010.06.27 13:26:56.
