data_PCOD8022994
_publ_section_title
;
Structure prediction by ZEFSAII (Michael W. Deem and Ramdas Pophale) SiO2 
 PCOD8022994
Probable space group: P -1
;
_chemical_formula_sum "Si O2"
_cell_formula_units_Z 14
_cell_length_a 12.309690
_cell_length_b 20.318376
_cell_length_c 8.685754
_cell_angle_alpha 139.121507
_cell_angle_beta 115.652382
_cell_angle_gamma 33.078310
_cell_volume 641.979660
_symmetry_space_group_name_H-M "P -1"
_symmetry_group_IT_number 2
_symmetry_cell_setting 'triclinic'
loop_
_space_group_symop_operation_xyz
x,y,z
-x,-y,-z
loop_
_atom_site_type_symbol
_atom_site_label
_atom_site_fract_x
_atom_site_fract_y
_atom_site_fract_z
Si Si1 0.001355 0.851614 0.160188
Si Si2 0.066693 0.376177 0.956888
Si Si3 0.212884 0.563547 0.289723
Si Si4 0.056179 0.067155 0.086398
Si Si5 0.403174 0.269662 0.121666
Si Si6 0.610845 0.272629 0.766962
Si Si7 0.214409 0.489277 0.699948
O O1 0.240441 0.731525 0.161507
O O2 0.781832 0.049737 0.482245
O O3 0.953581 0.926100 0.090915
O O4 0.019722 0.716833 0.937377
O O5 0.021473 0.299715 0.716073
O O6 0.330865 0.213334 0.899927
O O7 0.000000 0.500000 0.000000
O O8 0.883499 0.514043 0.233142
O O9 0.259012 0.458492 0.275658
O O10 0.158541 0.711425 0.585085
O O11 0.455701 0.388059 0.030526
O O12 0.312139 0.923673 0.047950
O O13 0.000000 0.000000 0.000000
O O14 0.292802 0.357860 0.380335
O O15 0.446676 0.383618 0.711431
#
# Coordination Sequence:
#
# PCOD8022994 Si02
#       7
#     2   2   2   2   2   2   2
#     4  11  23  40  62  97 131 172 219 258 323 391
#     4   9  22  43  68  95 126 170 219 266 327 381
#     4  10  23  43  66  94 132 170 217 268 321 377
#     4  12  26  40  65 100 135 173 215 260 324 388
#     4  11  22  42  66  96 131 171 217 269 319 381
#     4  10  23  40  64  94 133 171 213 267 318 386
#     4  11  21  40  69  93 129 171 213 270 327 373
#
# _framework density 21.807544
#
# number of rings (size 3 to 8) (size 9 to 14) (size 15 to 20)
#    0.000    1.429    2.857    1.714    2.000    8.571 
#    0.000    6.429    0.000    0.000    0.000    0.000 
#    0.000    0.000    0.000    0.000    0.000    0.000 
#
# Total GULP energy -173508.735146 kJ/mol
# GULP energy per Si atom -12393.481082 kJ/mol
# Density = 2.175791 g / cm^3
# Si number density = 21.807544 Si / 1000 Ang^3
#
#
#
# Elastic Constant Matrix: (Units=GPa)
#
#
# Indices 1 2 3 4 5 6 
#
# 1 84.5296 22.7395 40.4821 6.1998 -14.4534 6.8098
# 2 22.7395 102.9938 21.0546 -1.9435 -13.0436 -10.2088
# 3 40.4821 21.0546 108.6104 0.0349 -15.4511 -1.4706
# 4 6.1998 -1.9435 0.0349 26.9235 3.4026 -7.2882
# 5 -14.4534 -13.0436 -15.4511 3.4026 26.1023 -4.2162
# 6 6.8098 -10.2088 -1.4706 -7.2882 -4.2162 35.5340
#
#
#
# Elastic Compliance Matrix: (Units=1/GPa)
#
#
# Indices 1 2 3 4 5 6 
#
# 1 0.016604 -0.002596 -0.005050 -0.005915 0.004908 -0.004768
# 2 -0.002596 0.011470 -0.000560 0.002147 0.004449 0.004738
# 3 -0.005050 -0.000560 0.011807 0.001135 0.004090 0.002014
# 4 -0.005915 0.002147 0.001135 0.041987 -0.005427 0.009765
# 5 0.004908 0.004449 0.004090 -0.005427 0.047187 0.004992
# 6 -0.004768 0.004738 0.002014 0.009765 0.004992 0.033096
#
#
# Mechanical properties :
#
#
# Convention : Reuss Voigt Hill
#
# Bulk Modulus (GPa) = 42.60768 51.63181 47.11974
# Shear Modulus (GPa) = 26.82601 31.83579 29.33090
#
# Velocity S-wave (km/s) = 3.51112 3.82495 3.67139
# Velocity P-wave (km/s) = 6.00148 6.57529 6.29493
#
# Compressibility (1/GPa) = 0.02346995
#
# Stress axis : x y z
#
# Youngs Moduli (GPa) = 60.22523 87.18053 84.69724
#
# Poissons Ratio (x) = 0.22634 0.42772
# Poissons Ratio (y) = 0.15636 0.04740
# Poissons Ratio (z) = 0.30414 0.04879
#
# Static dielectric constant tensor:
#      x y z
#    x 3.841140 -0.211500 -0.067720 
#    y -0.211500 4.286050 -0.270780 
#    z -0.067720 -0.270780 3.874610 
# 
# 
# High freq. dielectric constant tensor:
#      x y z
#    x 1.850300 -0.005980 -0.010660 
#    y -0.005980 1.869880 -0.019950 
#    z -0.010660 -0.019950 1.850940 
# 
# From -- ./inp_files/27613.got.cif
#   From: 2010.06.25/outbox.cif.g09.slc.cpg/sg2_14_cif.got.tgz:27613.got - 2010.06.27 13:26:56.
