data_PCOD8022759
_publ_section_title
;
Structure prediction by ZEFSAII (Michael W. Deem and Ramdas Pophale) SiO2 
 PCOD8022759
Probable space group: P -1
;
_chemical_formula_sum "Si O2"
_cell_formula_units_Z 12
_cell_length_a 15.882037
_cell_length_b 10.229483
_cell_length_c 7.383215
_cell_angle_alpha 83.936083
_cell_angle_beta 76.919342
_cell_angle_gamma 32.118012
_cell_volume 612.556889
_symmetry_space_group_name_H-M "P -1"
_symmetry_group_IT_number 2
_symmetry_cell_setting 'triclinic'
loop_
_space_group_symop_operation_xyz
x,y,z
-x,-y,-z
loop_
_atom_site_type_symbol
_atom_site_label
_atom_site_fract_x
_atom_site_fract_y
_atom_site_fract_z
Si Si1 0.567985 0.903170 0.184974
Si Si2 0.241904 0.704763 0.512714
Si Si3 0.051679 0.581539 0.992992
Si Si4 0.035561 0.132624 0.313040
Si Si5 0.869172 0.886713 0.375974
Si Si6 0.452623 0.855331 0.542512
O O1 0.492843 0.875748 0.330857
O O2 0.520697 0.091798 0.298828
O O3 0.762046 0.636793 0.119956
O O4 0.500000 0.000000 0.000000
O O5 0.432156 0.421531 0.451749
O O6 0.142843 0.703970 0.622298
O O7 0.175298 0.840627 0.326771
O O8 0.212229 0.862615 0.646484
O O9 0.019424 0.668000 0.199931
O O10 0.000000 0.500000 0.000000
O O11 0.937066 0.826183 0.892769
O O12 0.047158 0.229350 0.449907
O O13 0.734500 0.948317 0.405306
#
# Coordination Sequence:
#
# PCOD8022759 Si02
#       6
#     2   2   2   2   2   2
#     4  11  27  40  64  91 127 170 205 253 315 364
#     4   9  20  43  64  91 125 166 204 251 317 360
#     4  12  24  43  62  96 123 160 218 254 302 377
#     4   9  22  41  63  95 123 164 203 257 310 366
#     4  10  23  38  68  91 123 163 205 254 313 359
#     4  11  22  45  61  92 131 161 206 259 306 372
#
# _framework density 19.590018000000001
#
# number of rings (size 3 to 8) (size 9 to 14) (size 15 to 20)
#    1.000    0.667    3.333    0.500    4.667    1.333 
#    3.000    0.833    0.000    0.000    0.000    0.000 
#    0.000    0.000    0.000    0.000    0.000    0.000 
#
# Total GULP energy -148728.021438 kJ/mol
# GULP energy per Si atom -12394.001786 kJ/mol
# Density = 1.954543 g / cm^3
# Si number density = 19.590018 Si / 1000 Ang^3
#
#
#
# Elastic Constant Matrix: (Units=GPa)
#
#
# Indices 1 2 3 4 5 6 
#
# 1 90.2494 16.3564 32.9159 -6.5420 -1.9680 -2.8903
# 2 16.3564 65.2839 35.2604 3.3629 -6.4770 11.9324
# 3 32.9159 35.2604 98.1118 -4.8994 3.1704 -5.6934
# 4 -6.5420 3.3629 -4.8994 35.4651 4.0112 2.6128
# 5 -1.9680 -6.4770 3.1704 4.0112 31.7688 1.6495
# 6 -2.8903 11.9324 -5.6934 2.6128 1.6495 20.7273
#
#
#
# Elastic Compliance Matrix: (Units=1/GPa)
#
#
# Indices 1 2 3 4 5 6 
#
# 1 0.012870 -0.001601 -0.003581 0.001865 0.000517 0.001456
# 2 -0.001601 0.025258 -0.009984 -0.003609 0.007418 -0.017641
# 3 -0.003581 -0.009984 0.015807 0.002280 -0.004625 0.009670
# 4 0.001865 -0.003609 0.002280 0.029747 -0.004582 -0.000421
# 5 0.000517 0.007418 -0.004625 -0.004582 0.034458 -0.007633
# 6 0.001456 -0.017641 0.009670 -0.000421 -0.007633 0.061921
#
#
# Mechanical properties :
#
#
# Convention : Reuss Voigt Hill
#
# Bulk Modulus (GPa) = 42.37030 46.96782 44.66906
# Shear Modulus (GPa) = 22.90837 28.86638 25.88738
#
# Velocity S-wave (km/s) = 3.42334 3.84282 3.63913
# Velocity P-wave (km/s) = 6.10747 6.61189 6.36468
#
# Compressibility (1/GPa) = 0.02360144
#
# Stress axis : x y z
#
# Youngs Moduli (GPa) = 77.70046 39.59218 63.26477
#
# Poissons Ratio (x) = 0.06339 0.22658
# Poissons Ratio (y) = 0.12440 0.63162
# Poissons Ratio (z) = 0.27828 0.39528
#
# Static dielectric constant tensor:
#      x y z
#    x 3.561190 -0.019030 0.003310 
#    y -0.019030 3.498210 0.005390 
#    z 0.003310 0.005390 3.450880 
# 
# 
# High freq. dielectric constant tensor:
#      x y z
#    x 1.771190 0.001590 -0.002290 
#    y 0.001590 1.759630 -0.001520 
#    z -0.002290 -0.001520 1.749490 
# 
# From -- ./inp_files/109030.got.cif
#   From: 2010.06.25/outbox.cif.g09.slc.cpg/sg2_55_cif.got.tgz:109030.got - 2010.06.27 13:26:56.
