data_PCOD8022041
_publ_section_title
;
Structure prediction by ZEFSAII (Michael W. Deem and Ramdas Pophale) SiO2 
 PCOD8022041
Probable space group: P -1
;
_chemical_formula_sum "Si O2"
_cell_formula_units_Z 16
_cell_length_a 13.966266
_cell_length_b 16.985288
_cell_length_c 6.293460
_cell_angle_alpha 101.530195
_cell_angle_beta 70.459585
_cell_angle_gamma 150.841344
_cell_volume 671.548532
_symmetry_space_group_name_H-M "P -1"
_symmetry_group_IT_number 2
_symmetry_cell_setting 'triclinic'
loop_
_space_group_symop_operation_xyz
x,y,z
-x,-y,-z
loop_
_atom_site_type_symbol
_atom_site_label
_atom_site_fract_x
_atom_site_fract_y
_atom_site_fract_z
Si Si1 0.795715 0.540940 0.612682
Si Si2 0.163832 0.792855 0.166839
Si Si3 0.707398 0.265134 0.732425
Si Si4 0.556142 0.702144 0.578992
Si Si5 0.654521 0.910014 0.884600
Si Si6 0.340933 0.436046 0.936405
Si Si7 0.059096 0.097913 0.815341
Si Si8 0.042066 0.602639 0.760450
O O1 0.562341 0.379270 0.603544
O O2 0.948654 0.665942 0.373231
O O3 0.877020 0.516253 0.649776
O O4 0.807298 0.613427 0.831523
O O5 0.322979 0.845187 0.205749
O O6 0.275859 0.955071 0.167347
O O7 0.103029 0.713414 0.940117
O O8 0.754484 0.287200 0.458387
O O9 0.897620 0.427112 0.841573
O O10 0.503935 0.181250 0.852707
O O11 0.525957 0.771867 0.727483
O O12 0.461829 0.571318 0.741266
O O13 0.802132 0.854373 0.435130
O O14 0.836155 0.973519 0.835345
O O15 0.189948 0.267744 0.853938
O O16 0.500000 0.500000 0.000000
O O17 0.000000 0.000000 0.000000
#
# Coordination Sequence:
#
# PCOD8022041 Si02
#       8
#     2   2   2   2   2   2   2   2
#     4  11  23  42  73 102 137 185 242 287 355 414
#     4  11  24  44  69 108 138 185 231 299 358 427
#     4  10  23  43  69 101 139 183 237 290 353 431
#     4  12  27  47  71 103 144 194 244 287 352 432
#     4  12  26  44  69  99 152 182 232 290 369 413
#     4  12  25  46  76 100 140 190 248 293 347 419
#     4  12  28  47  71 108 146 189 237 298 359 422
#     4  10  22  44  73 101 137 179 243 294 344 428
#
# _framework density 23.825527999999998
#
# number of rings (size 3 to 8) (size 9 to 14) (size 15 to 20)
#    0.000    0.750    1.250    6.000    5.250    2.500 
#    0.000    0.000    0.000    0.000    0.000    0.000 
#    0.000    0.000    0.000    0.000    0.000    0.000 
#
# Total GULP energy -198270.086697 kJ/mol
# GULP energy per Si atom -12391.880419 kJ/mol
# Density = 2.377130 g / cm^3
# Si number density = 23.825528 Si / 1000 Ang^3
#
#
#
# Elastic Constant Matrix: (Units=GPa)
#
#
# Indices 1 2 3 4 5 6 
#
# 1 83.0186 25.3429 40.9603 -7.9520 -23.0036 -2.5460
# 2 25.3429 88.1815 40.0858 -11.0924 -2.4565 -29.7260
# 3 40.9603 40.0858 143.0765 -22.0868 -37.7960 -10.4848
# 4 -7.9520 -11.0924 -22.0868 31.0046 7.1429 -8.5472
# 5 -23.0036 -2.4565 -37.7960 7.1429 42.2737 -5.7045
# 6 -2.5460 -29.7260 -10.4848 -8.5472 -5.7045 51.9231
#
#
#
# Elastic Compliance Matrix: (Units=1/GPa)
#
#
# Indices 1 2 3 4 5 6 
#
# 1 0.015964 -0.004067 -0.001831 -0.000567 0.006738 -0.001268
# 2 -0.004067 0.018152 -0.003063 0.006961 -0.003681 0.010315
# 3 -0.001831 -0.003063 0.011665 0.005397 0.008660 0.002352
# 4 -0.000567 0.006961 0.005397 0.041842 -0.000546 0.011875
# 5 0.006738 -0.003681 0.008660 -0.000546 0.035453 0.003777
# 6 -0.001268 0.010315 0.002352 0.011875 0.003777 0.027947
#
#
# Mechanical properties :
#
#
# Convention : Reuss Voigt Hill
#
# Bulk Modulus (GPa) = 35.89597 58.56162 47.22879
# Shear Modulus (GPa) = 28.05312 38.89945 33.47629
#
# Velocity S-wave (km/s) = 3.43511 4.04503 3.75248
# Velocity P-wave (km/s) = 5.55267 6.81535 6.21616
#
# Compressibility (1/GPa) = 0.02785828
#
# Stress axis : x y z
#
# Youngs Moduli (GPa) = 62.63948 55.09067 85.72516
#
# Poissons Ratio (x) = 0.22404 0.15700
# Poissons Ratio (y) = 0.25473 0.26261
# Poissons Ratio (z) = 0.11472 0.16877
#
# Static dielectric constant tensor:
#      x y z
#    x 4.597410 -0.002680 -0.341840 
#    y -0.002680 4.381800 -0.202270 
#    z -0.341840 -0.202270 4.483890 
# 
# 
# High freq. dielectric constant tensor:
#      x y z
#    x 1.959550 -0.011100 -0.019230 
#    y -0.011100 1.944920 -0.004600 
#    z -0.019230 -0.004600 1.953280 
# 
# From -- ./inp_files/99808.got.cif
#   From: 2010.06.25/outbox.cif.g09.slc.cpg/sg2_50_cif.got.tgz:99808.got - 2010.06.27 13:26:56.
