data_PCOD8022136
_publ_section_title
;
Structure prediction by ZEFSAII (Michael W. Deem and Ramdas Pophale) SiO2 
 PCOD8022136
Probable space group: P -1
;
_chemical_formula_sum "Si O2"
_cell_formula_units_Z 16
_cell_length_a 18.485866
_cell_length_b 11.798914
_cell_length_c 12.581992
_cell_angle_alpha 51.017529
_cell_angle_beta 19.469785
_cell_angle_gamma 51.422993
_cell_volume 706.102951
_symmetry_space_group_name_H-M "P -1"
_symmetry_group_IT_number 2
_symmetry_cell_setting 'triclinic'
loop_
_space_group_symop_operation_xyz
x,y,z
-x,-y,-z
loop_
_atom_site_type_symbol
_atom_site_label
_atom_site_fract_x
_atom_site_fract_y
_atom_site_fract_z
Si Si1 0.738291 0.372651 0.047390
Si Si2 0.009669 0.061834 0.835054
Si Si3 0.286180 0.062070 0.823922
Si Si4 0.000677 0.436587 0.289365
Si Si5 0.290041 0.816534 0.117352
Si Si6 0.560033 0.589630 0.761416
Si Si7 0.510849 0.986070 0.868015
Si Si8 0.610245 0.727337 0.275065
O O1 0.581897 0.442738 0.127035
O O2 0.601350 0.353367 0.356854
O O3 0.913212 0.483837 0.772338
O O4 0.859462 0.216068 0.934004
O O5 0.250321 0.083774 0.454482
O O6 0.000000 0.000000 0.000000
O O7 0.920853 0.929101 0.971358
O O8 0.321778 0.217347 0.734668
O O9 0.500000 0.000000 0.500000
O O10 0.204918 0.966596 0.089541
O O11 0.895518 0.292158 0.558675
O O12 0.820150 0.546384 0.409474
O O13 0.198504 0.389507 0.963831
O O14 0.498716 0.755975 0.788990
O O15 0.358942 0.862671 0.113161
O O16 0.500000 0.500000 0.000000
O O17 0.448574 0.142875 0.805002
O O18 0.500000 0.000000 0.000000
#
# Coordination Sequence:
#
# PCOD8022136 Si02
#       8
#     2   2   2   2   2   2   2   2
#     4  12  24  48  72 101 143 186 246 300 343 436
#     4  12  23  44  75 106 132 186 239 300 367 419
#     4  11  21  42  72  97 135 178 237 299 351 417
#     4  11  27  43  70  99 146 191 230 289 370 424
#     4  10  22  45  66 100 138 181 236 294 356 424
#     4  10  23  44  68 101 135 186 239 286 345 432
#     4  11  26  41  70 107 143 177 238 307 361 427
#     4  11  25  45  66 100 142 186 235 295 359 431
#
# _framework density 22.659586999999998
#
# number of rings (size 3 to 8) (size 9 to 14) (size 15 to 20)
#    0.000    1.000    3.750    1.875    3.500    6.500 
#    0.000    0.000    0.000    0.000    0.000    0.000 
#    0.000    0.000    0.000    0.000    0.000    0.000 
#
# Total GULP energy -198294.344525 kJ/mol
# GULP energy per Si atom -12393.396533 kJ/mol
# Density = 2.260801 g / cm^3
# Si number density = 22.659587 Si / 1000 Ang^3
#
#
#
# Elastic Constant Matrix: (Units=GPa)
#
#
# Indices 1 2 3 4 5 6 
#
# 1 178.1290 44.9061 48.1421 -5.7615 -19.1658 15.7574
# 2 44.9061 66.9384 41.4102 2.8440 -11.0960 8.9367
# 3 48.1421 41.4102 109.7989 4.0669 -5.3847 2.4417
# 4 -5.7615 2.8440 4.0669 51.5957 3.8314 -4.5277
# 5 -19.1658 -11.0960 -5.3847 3.8314 36.9713 -0.1982
# 6 15.7574 8.9367 2.4417 -4.5277 -0.1982 38.6327
#
#
#
# Elastic Compliance Matrix: (Units=1/GPa)
#
#
# Indices 1 2 3 4 5 6 
#
# 1 0.007400 -0.003106 -0.001932 0.000780 0.002531 -0.002073
# 2 -0.003106 0.022484 -0.006762 -0.001696 0.004309 -0.003684
# 3 -0.001932 -0.006762 0.012438 -0.000607 -0.001148 0.001489
# 4 0.000780 -0.001696 -0.000607 0.019992 -0.002252 0.002444
# 5 0.002531 0.004309 -0.001148 -0.002252 0.029708 -0.002068
# 6 -0.002073 -0.003684 0.001489 0.002444 -0.002068 0.027764
#
#
# Mechanical properties :
#
#
# Convention : Reuss Voigt Hill
#
# Bulk Modulus (GPa) = 53.41178 69.30923 61.36050
# Shear Modulus (GPa) = 33.41661 40.13380 36.77520
#
# Velocity S-wave (km/s) = 3.84438 4.21308 4.03295
# Velocity P-wave (km/s) = 6.58242 7.37023 6.98744
#
# Compressibility (1/GPa) = 0.01872246
#
# Stress axis : x y z
#
# Youngs Moduli (GPa) = 135.13582 44.47589 80.39994
#
# Poissons Ratio (x) = 0.13815 0.15532
# Poissons Ratio (y) = 0.41975 0.54365
# Poissons Ratio (z) = 0.26105 0.30074
#
# Static dielectric constant tensor:
#      x y z
#    x 4.308890 -0.011610 -0.293140 
#    y -0.011610 4.758090 0.216060 
#    z -0.293140 0.216060 4.251440 
# 
# 
# High freq. dielectric constant tensor:
#      x y z
#    x 1.904140 0.007350 -0.004790 
#    y 0.007350 1.887270 -0.003350 
#    z -0.004790 -0.003350 1.895290 
# 
# From -- ./inp_files/465051.got.cif
#   From: 2010.06.25/outbox.cif.g09.slc.cpg/sg2_233_cif.got.tgz:465051.got - 2010.06.27 13:26:56.
