data_PCOD8022214
_publ_section_title
;
Structure prediction by ZEFSAII (Michael W. Deem and Ramdas Pophale) SiO2 
 PCOD8022214
Probable space group: P -1
;
_chemical_formula_sum "Si O2"
_cell_formula_units_Z 16
_cell_length_a 19.552180
_cell_length_b 8.958147
_cell_length_c 9.378041
_cell_angle_alpha 112.482127
_cell_angle_beta 128.623308
_cell_angle_gamma 108.462125
_cell_volume 757.530325
_symmetry_space_group_name_H-M "P -1"
_symmetry_group_IT_number 2
_symmetry_cell_setting 'triclinic'
loop_
_space_group_symop_operation_xyz
x,y,z
-x,-y,-z
loop_
_atom_site_type_symbol
_atom_site_label
_atom_site_fract_x
_atom_site_fract_y
_atom_site_fract_z
Si Si1 0.894598 0.651460 0.705287
Si Si2 0.083010 0.768685 0.752004
Si Si3 0.365610 0.838190 0.676594
Si Si4 0.859878 0.894174 0.286250
Si Si5 0.140381 0.065685 0.365747
Si Si6 0.629156 0.460958 0.627617
Si Si7 0.372359 0.191249 0.357882
Si Si8 0.606861 0.782175 0.297621
O O1 0.770921 0.353445 0.472024
O O2 0.821802 0.711874 0.579494
O O3 0.994462 0.742154 0.740727
O O4 0.983672 0.801068 0.020911
O O5 0.000000 0.500000 0.500000
O O6 0.122244 0.920580 0.715954
O O7 0.223106 0.898433 0.048498
O O8 0.347838 0.673592 0.474594
O O9 0.386352 0.045408 0.719100
O O10 0.500000 0.000000 0.000000
O O11 0.832915 0.896093 0.416467
O O12 0.733252 0.611327 0.952961
O O13 0.000000 0.000000 0.500000
O O14 0.241209 0.074525 0.438410
O O15 0.470604 0.252398 0.390163
O O16 0.654718 0.653705 0.632623
O O17 0.442645 0.246265 0.618479
O O18 0.500000 0.500000 0.000000
#
# Coordination Sequence:
#
# PCOD8022214 Si02
#       8
#     2   2   2   2   2   2   2   2
#     4  11  24  45  69  99 136 182 221 280 339 404
#     4  11  25  41  66  99 140 177 222 277 338 397
#     4  12  28  43  68  99 136 179 225 284 337 403
#     4  11  22  41  67 100 131 183 222 276 334 398
#     4  11  23  43  72  98 137 178 226 274 336 406
#     4  10  23  43  69  97 134 174 228 277 339 399
#     4  10  22  45  68  95 131 181 223 277 334 400
#     4  12  25  44  68  99 132 176 228 275 339 404
#
# _framework density 21.121265999999999
#
# number of rings (size 3 to 8) (size 9 to 14) (size 15 to 20)
#    0.000    1.000    2.500    3.750    7.000    4.000 
#    0.000    0.000    0.000    0.000    0.000    0.000 
#    0.000    0.000    0.000    0.000    0.000    0.000 
#
# Total GULP energy -198372.755895 kJ/mol
# GULP energy per Si atom -12398.297243 kJ/mol
# Density = 2.107319 g / cm^3
# Si number density = 21.121266 Si / 1000 Ang^3
#
#
#
# Elastic Constant Matrix: (Units=GPa)
#
#
# Indices 1 2 3 4 5 6 
#
# 1 79.6147 34.1817 40.3281 3.1753 3.1379 -0.8925
# 2 34.1817 125.3014 66.3847 1.0381 -5.4339 -0.9987
# 3 40.3281 66.3847 148.9577 4.9942 -4.9366 2.7045
# 4 3.1753 1.0381 4.9942 39.5473 1.8910 -3.8133
# 5 3.1379 -5.4339 -4.9366 1.8910 38.7135 -4.2046
# 6 -0.8925 -0.9987 2.7045 -3.8133 -4.2046 34.4431
#
#
#
# Elastic Compliance Matrix: (Units=1/GPa)
#
#
# Indices 1 2 3 4 5 6 
#
# 1 0.015336 -0.002665 -0.003011 -0.000665 -0.001942 0.000246
# 2 -0.002665 0.010966 -0.004153 0.000465 0.001288 0.000784
# 3 -0.003011 -0.004153 0.009456 -0.000974 0.000811 -0.000950
# 4 -0.000665 0.000465 -0.000974 0.025767 -0.000959 0.002808
# 5 -0.001942 0.001288 0.000811 -0.000959 0.026653 0.003071
# 6 0.000246 0.000784 -0.000950 0.002808 0.003071 0.029823
#
#
# Mechanical properties :
#
#
# Convention : Reuss Voigt Hill
#
# Bulk Modulus (GPa) = 62.10991 70.62920 66.36955
# Shear Modulus (GPa) = 34.95910 36.73942 35.84926
#
# Velocity S-wave (km/s) = 4.07278 4.17520 4.12431
# Velocity P-wave (km/s) = 7.18240 7.53362 7.36011
#
# Compressibility (1/GPa) = 0.01610049
#
# Stress axis : x y z
#
# Youngs Moduli (GPa) = 65.20789 91.18920 105.75390
#
# Poissons Ratio (x) = 0.24304 0.31839
# Poissons Ratio (y) = 0.17379 0.43917
# Poissons Ratio (z) = 0.19632 0.37869
#
# Static dielectric constant tensor:
#      x y z
#    x 3.592820 -0.124060 0.123320 
#    y -0.124060 3.526200 0.134350 
#    z 0.123320 0.134350 4.088290 
# 
# 
# High freq. dielectric constant tensor:
#      x y z
#    x 1.828540 0.012420 0.007930 
#    y 0.012420 1.824580 -0.005040 
#    z 0.007930 -0.005040 1.847660 
# 
# From -- ./inp_files/343698.got.cif
#   From: 2010.06.25/outbox.cif.g09.slc.cpg/sg2_172_cif.got.tgz:343698.got - 2010.06.27 13:26:56.
