data_PCOD8022257
_publ_section_title
;
Structure prediction by ZEFSAII (Michael W. Deem and Ramdas Pophale) SiO2 
 PCOD8022257
Probable space group: P -1
;
_chemical_formula_sum "Si O2"
_cell_formula_units_Z 16
_cell_length_a 9.323991
_cell_length_b 15.527895
_cell_length_c 16.230895
_cell_angle_alpha 26.482774
_cell_angle_beta 95.087859
_cell_angle_gamma 76.364379
_cell_volume 735.593141
_symmetry_space_group_name_H-M "P -1"
_symmetry_group_IT_number 2
_symmetry_cell_setting 'triclinic'
loop_
_space_group_symop_operation_xyz
x,y,z
-x,-y,-z
loop_
_atom_site_type_symbol
_atom_site_label
_atom_site_fract_x
_atom_site_fract_y
_atom_site_fract_z
Si Si1 0.860792 0.032520 0.606381
Si Si2 0.162784 0.506729 0.981187
Si Si3 0.971397 0.584999 0.260703
Si Si4 0.376934 0.353341 0.743089
Si Si5 0.981944 0.726099 0.617702
Si Si6 0.589651 0.215578 0.281211
Si Si7 0.712329 0.109721 0.705298
Si Si8 0.614015 0.807163 0.295859
O O1 0.675061 0.170798 0.415353
O O2 0.806878 0.968829 0.741264
O O3 0.911949 0.202729 0.489578
O O4 0.075945 0.775840 0.793577
O O5 0.158080 0.528303 0.864315
O O6 0.396341 0.248869 0.243720
O O7 0.000000 0.500000 0.000000
O O8 0.821910 0.581719 0.302151
O O9 0.048569 0.423229 0.316802
O O10 0.151773 0.442385 0.455992
O O11 0.871698 0.889083 0.973517
O O12 0.347836 0.608261 0.537086
O O13 0.436248 0.267990 0.724007
O O14 0.556916 0.088722 0.036405
O O15 0.764160 0.969789 0.440616
O O16 0.500000 0.500000 0.000000
O O17 0.514291 0.163305 0.660935
#
# Coordination Sequence:
#
# PCOD8022257 Si02
#       8
#     2   2   2   2   2   2   2   2
#     4  11  22  39  61  90 125 168 219 264 316 379
#     4  11  23  39  59  88 124 160 210 275 316 369
#     4  11  24  41  65  98 131 171 217 262 324 390
#     4  10  22  45  69  92 134 170 206 274 325 378
#     4  11  22  39  61  88 127 166 217 268 312 380
#     4  11  21  39  65  86 117 176 220 253 322 386
#     4  11  24  41  65  96 134 170 212 268 323 382
#     4  10  24  43  67 101 127 166 220 261 325 394
#
# _framework density 21.751152999999999
#
# number of rings (size 3 to 8) (size 9 to 14) (size 15 to 20)
#    0.000    1.250    3.750    2.250    0.000    9.500 
#    0.000    0.000    0.000    0.000    0.000    0.000 
#    0.000    0.000    0.000    0.000    0.000    0.000 
#
# Total GULP energy -198284.563083 kJ/mol
# GULP energy per Si atom -12392.785193 kJ/mol
# Density = 2.170165 g / cm^3
# Si number density = 21.751153 Si / 1000 Ang^3
#
#
#
# Elastic Constant Matrix: (Units=GPa)
#
#
# Indices 1 2 3 4 5 6 
#
# 1 97.5083 11.9950 46.7004 6.4925 6.4894 -6.7612
# 2 11.9950 65.9283 14.9392 4.9960 -7.0943 -8.5335
# 3 46.7004 14.9392 136.5357 0.5138 7.1156 4.4293
# 4 6.4925 4.9960 0.5138 26.6887 1.9598 -8.2087
# 5 6.4894 -7.0943 7.1156 1.9598 46.7597 -2.1709
# 6 -6.7612 -8.5335 4.4293 -8.2087 -2.1709 29.7851
#
#
#
# Elastic Compliance Matrix: (Units=1/GPa)
#
#
# Indices 1 2 3 4 5 6 
#
# 1 0.012822 -0.000982 -0.004301 -0.001959 -0.001069 0.002651
# 2 -0.000982 0.016838 -0.001821 -0.001689 0.003254 0.004644
# 3 -0.004301 -0.001821 0.009148 0.000431 -0.001221 -0.002829
# 4 -0.001959 -0.001689 0.000431 0.041536 -0.001310 0.010359
# 5 -0.001069 0.003254 -0.001221 -0.001310 0.022368 0.002141
# 6 0.002651 0.004644 -0.002829 0.010359 0.002141 0.038938
#
#
# Mechanical properties :
#
#
# Convention : Reuss Voigt Hill
#
# Bulk Modulus (GPa) = 40.64736 49.69349 45.17043
# Shear Modulus (GPa) = 30.47732 35.73589 33.10661
#
# Velocity S-wave (km/s) = 3.74730 4.05772 3.90559
# Velocity P-wave (km/s) = 6.11972 6.69697 6.41484
#
# Compressibility (1/GPa) = 0.02460184
#
# Stress axis : x y z
#
# Youngs Moduli (GPa) = 77.99362 59.38815 109.31160
#
# Poissons Ratio (x) = 0.05829 0.47015
# Poissons Ratio (y) = 0.07656 0.19901
# Poissons Ratio (z) = 0.33545 0.10812
#
# Static dielectric constant tensor:
#      x y z
#    x 3.956590 -0.090760 -0.078070 
#    y -0.090760 3.880070 -0.197100 
#    z -0.078070 -0.197100 4.640270 
# 
# 
# High freq. dielectric constant tensor:
#      x y z
#    x 1.855030 -0.017430 -0.008830 
#    y -0.017430 1.851310 -0.003410 
#    z -0.008830 -0.003410 1.862940 
# 
# From -- ./inp_files/505050.got.cif
#   From: 2010.06.25/outbox.cif.g09.slc.cpg/sg2_253_cif.got.tgz:505050.got - 2010.06.27 13:26:56.
