data_PCOD8022480
_publ_section_title
;
Structure prediction by ZEFSAII (Michael W. Deem and Ramdas Pophale) SiO2 
 PCOD8022480
Probable space group: P -1
;
_chemical_formula_sum "Si O2"
_cell_formula_units_Z 14
_cell_length_a 9.182104
_cell_length_b 24.513041
_cell_length_c 9.283868
_cell_angle_alpha 150.599626
_cell_angle_beta 43.414652
_cell_angle_gamma 143.715320
_cell_volume 604.978645
_symmetry_space_group_name_H-M "P -1"
_symmetry_group_IT_number 2
_symmetry_cell_setting 'triclinic'
loop_
_space_group_symop_operation_xyz
x,y,z
-x,-y,-z
loop_
_atom_site_type_symbol
_atom_site_label
_atom_site_fract_x
_atom_site_fract_y
_atom_site_fract_z
Si Si1 0.516713 0.011742 0.186828
Si Si2 0.202159 0.509347 0.764320
Si Si3 0.781086 0.876511 0.799211
Si Si4 0.110689 0.838269 0.265432
Si Si5 0.231942 0.753831 0.253365
Si Si6 0.865709 0.565267 0.674453
Si Si7 0.672076 0.621812 0.401678
O O1 0.255220 0.962778 0.341690
O O2 0.707417 0.157529 0.442200
O O3 0.575509 0.904899 0.957182
O O4 0.500000 0.000000 0.000000
O O5 0.087444 0.431282 0.521859
O O6 0.354126 0.447019 0.582208
O O7 0.357518 0.664770 0.969563
O O8 0.000000 0.500000 0.000000
O O9 0.668089 0.755955 0.715580
O O10 0.885589 0.844427 0.509544
O O11 0.000000 0.000000 0.000000
O O12 0.300166 0.839527 0.255812
O O13 0.990450 0.712165 0.965523
O O14 0.933182 0.655473 0.222016
O O15 0.576356 0.485372 0.747489
O O16 0.000000 0.500000 0.500000
#
# Coordination Sequence:
#
# PCOD8022480 Si02
#       7
#     2   2   2   2   2   2   2
#     4  12  27  46  74 105 142 184 242 305 348 421
#     4  10  23  43  70 101 140 188 231 290 347 428
#     4  11  24  45  73 103 140 193 237 284 357 429
#     4  11  25  44  72 106 144 185 237 292 358 424
#     4  10  22  46  70 102 139 190 232 283 367 416
#     4  12  24  42  69 107 142 182 239 289 357 419
#     4  10  23  43  70 100 141 184 231 287 348 422
#
# _framework density 23.141313
#
# number of rings (size 3 to 8) (size 9 to 14) (size 15 to 20)
#    0.000    1.143    4.286    1.714    4.000    4.000 
#    2.571    0.000    0.000    0.000    0.000    0.000 
#    0.000    0.000    0.000    0.000    0.000    0.000 
#
# Total GULP energy -173454.645277 kJ/mol
# GULP energy per Si atom -12389.617520 kJ/mol
# Density = 2.308864 g / cm^3
# Si number density = 23.141313 Si / 1000 Ang^3
#
#
#
# Elastic Constant Matrix: (Units=GPa)
#
#
# Indices 1 2 3 4 5 6 
#
# 1 129.9568 31.6507 43.8580 7.2706 1.5676 -15.6735
# 2 31.6507 104.1534 14.0229 0.5927 11.1454 -11.4928
# 3 43.8580 14.0229 124.6549 2.3724 15.2956 -11.3648
# 4 7.2706 0.5927 2.3724 26.1665 -12.1304 5.9348
# 5 1.5676 11.1454 15.2956 -12.1304 47.1103 4.6022
# 6 -15.6735 -11.4928 -11.3648 5.9348 4.6022 38.5276
#
#
#
# Elastic Compliance Matrix: (Units=1/GPa)
#
#
# Indices 1 2 3 4 5 6 
#
# 1 0.009722 -0.002241 -0.002856 -0.003015 0.000074 0.002900
# 2 -0.002241 0.010969 0.000301 -0.001961 -0.003432 0.003161
# 3 -0.002856 0.000301 0.009792 -0.002612 -0.004093 0.002708
# 4 -0.003015 -0.001961 -0.002612 0.049108 0.015226 -0.011966
# 5 0.000074 -0.003432 -0.004093 0.015226 0.028057 -0.007898
# 6 0.002900 0.003161 0.002708 -0.011966 -0.007898 0.031663
#
#
# Mechanical properties :
#
#
# Convention : Reuss Voigt Hill
#
# Bulk Modulus (GPa) = 47.86567 59.75872 53.81219
# Shear Modulus (GPa) = 32.07879 40.30978 36.19429
#
# Velocity S-wave (km/s) = 3.72723 4.17813 3.95910
# Velocity P-wave (km/s) = 6.26514 7.01107 6.64858
#
# Compressibility (1/GPa) = 0.02089180
#
# Stress axis : x y z
#
# Youngs Moduli (GPa) = 102.86105 91.16722 102.12623
#
# Poissons Ratio (x) = 0.20427 0.29165
# Poissons Ratio (y) = 0.23048 -0.03075
# Poissons Ratio (z) = 0.29375 -0.02745
#
# Static dielectric constant tensor:
#      x y z
#    x 4.797410 -0.128360 -0.509430 
#    y -0.128360 4.653800 -0.019930 
#    z -0.509430 -0.019930 4.257960 
# 
# 
# High freq. dielectric constant tensor:
#      x y z
#    x 1.908530 -0.013170 -0.011320 
#    y -0.013170 1.925170 0.001160 
#    z -0.011320 0.001160 1.918170 
# 
# From -- ./inp_files/226755.got.cif
#   From: 2010.06.25/outbox.cif.g09.slc.cpg/sg2_114_cif.got.tgz:226755.got - 2010.06.27 13:26:56.
