data_PCOD8022411
_publ_section_title
;
Structure prediction by ZEFSAII (Michael W. Deem and Ramdas Pophale) SiO2 
 PCOD8022411
Probable space group: P -1
;
_chemical_formula_sum "Si O2"
_cell_formula_units_Z 14
_cell_length_a 11.122018
_cell_length_b 8.921343
_cell_length_c 10.904331
_cell_angle_alpha 82.776849
_cell_angle_beta 38.601831
_cell_angle_gamma 86.030334
_cell_volume 668.948073
_symmetry_space_group_name_H-M "P -1"
_symmetry_group_IT_number 2
_symmetry_cell_setting 'triclinic'
loop_
_space_group_symop_operation_xyz
x,y,z
-x,-y,-z
loop_
_atom_site_type_symbol
_atom_site_label
_atom_site_fract_x
_atom_site_fract_y
_atom_site_fract_z
Si Si1 0.319518 0.455346 0.065637
Si Si2 0.120222 0.229080 0.429840
Si Si3 0.967337 0.617339 0.276287
Si Si4 0.239988 0.904585 0.388220
Si Si5 0.208055 0.699125 0.647046
Si Si6 0.424207 0.265649 0.782800
Si Si7 0.964978 0.824087 0.028980
O O1 0.191195 0.319373 0.243829
O O2 0.191280 0.600801 0.134820
O O3 0.500000 0.500000 0.000000
O O4 0.387188 0.409753 0.881118
O O5 0.145315 0.340587 0.514612
O O6 0.896560 0.166583 0.603654
O O7 0.250895 0.085545 0.359768
O O8 0.890153 0.459656 0.297725
O O9 0.937446 0.750534 0.190939
O O10 0.142836 0.836624 0.598017
O O11 0.460872 0.851759 0.210559
O O12 0.440336 0.685674 0.447535
O O13 0.144441 0.743466 0.829907
O O14 0.224136 0.194834 0.901588
O O15 0.000000 0.000000 0.000000
#
# Coordination Sequence:
#
# PCOD8022411 Si02
#       7
#     2   2   2   2   2   2   2
#     4  12  23  39  65 102 134 168 216 266 324 393
#     4  11  21  40  66  96 136 172 212 267 326 381
#     4  12  24  41  67  96 134 174 217 267 329 382
#     4   9  21  41  68  92 131 170 213 269 325 377
#     4  10  22  46  65  93 132 164 220 274 319 381
#     4  10  23  44  69  96 130 169 224 263 326 384
#     4  12  26  45  68  93 133 175 218 272 325 387
#
# _framework density 20.928380000000001
#
# number of rings (size 3 to 8) (size 9 to 14) (size 15 to 20)
#    0.857    0.286    2.857    3.429    0.000    4.000 
#    2.571    0.000    0.000    0.000    0.000    0.000 
#    0.000    0.000    0.000    0.000    0.000    0.000 
#
# Total GULP energy -173542.049853 kJ/mol
# GULP energy per Si atom -12395.860704 kJ/mol
# Density = 2.088075 g / cm^3
# Si number density = 20.928380 Si / 1000 Ang^3
#
#
#
# Elastic Constant Matrix: (Units=GPa)
#
#
# Indices 1 2 3 4 5 6 
#
# 1 77.7169 35.6884 22.7649 -3.3361 -13.0727 3.5151
# 2 35.6884 100.4319 26.3546 3.2958 -7.5093 0.2946
# 3 22.7649 26.3546 103.7594 13.9210 0.5801 12.5457
# 4 -3.3361 3.2958 13.9210 27.2553 0.5107 5.7945
# 5 -13.0727 -7.5093 0.5801 0.5107 30.2867 -0.7700
# 6 3.5151 0.2946 12.5457 5.7945 -0.7700 43.3400
#
#
#
# Elastic Compliance Matrix: (Units=1/GPa)
#
#
# Indices 1 2 3 4 5 6 
#
# 1 0.017345 -0.005046 -0.003027 0.004370 0.006195 -0.000970
# 2 -0.005046 0.012389 -0.001997 -0.001348 0.000982 0.001101
# 3 -0.003027 -0.001997 0.011874 -0.005633 -0.001997 -0.002460
# 4 0.004370 -0.001348 -0.005633 0.041142 0.000859 -0.004200
# 5 0.006195 0.000982 -0.001997 0.000859 0.035974 0.000593
# 6 -0.000970 0.001101 -0.002460 -0.004200 0.000593 0.024429
#
#
# Mechanical properties :
#
#
# Convention : Reuss Voigt Hill
#
# Bulk Modulus (GPa) = 46.58682 50.16935 48.37808
# Shear Modulus (GPa) = 29.33422 33.31642 31.32532
#
# Velocity S-wave (km/s) = 3.74792 3.99422 3.87303
# Velocity P-wave (km/s) = 6.40606 6.73021 6.57014
#
# Compressibility (1/GPa) = 0.02146530
#
# Stress axis : x y z
#
# Youngs Moduli (GPa) = 57.65397 80.71788 84.22054
#
# Poissons Ratio (x) = 0.40734 0.25496
# Poissons Ratio (y) = 0.29095 0.16821
# Poissons Ratio (z) = 0.17453 0.16122
#
# Static dielectric constant tensor:
#      x y z
#    x 3.433960 -0.239220 -0.055620 
#    y -0.239220 3.637280 0.088440 
#    z -0.055620 0.088440 3.808470 
# 
# 
# High freq. dielectric constant tensor:
#      x y z
#    x 1.816150 -0.001630 -0.002210 
#    y -0.001630 1.819800 0.008710 
#    z -0.002210 0.008710 1.814520 
# 
# From -- ./inp_files/414856.got.cif
#   From: 2010.06.25/outbox.cif.g09.slc.cpg/sg2_208_cif.got.tgz:414856.got - 2010.06.27 13:26:56.
