data_PCOD8022438
_publ_section_title
;
Structure prediction by ZEFSAII (Michael W. Deem and Ramdas Pophale) SiO2 
 PCOD8022438
Probable space group: P -1
;
_chemical_formula_sum "Si O2"
_cell_formula_units_Z 12
_cell_length_a 11.658497
_cell_length_b 15.787332
_cell_length_c 9.163411
_cell_angle_alpha 48.684921
_cell_angle_beta 141.101334
_cell_angle_gamma 147.360907
_cell_volume 571.153324
_symmetry_space_group_name_H-M "P -1"
_symmetry_group_IT_number 2
_symmetry_cell_setting 'triclinic'
loop_
_space_group_symop_operation_xyz
x,y,z
-x,-y,-z
loop_
_atom_site_type_symbol
_atom_site_label
_atom_site_fract_x
_atom_site_fract_y
_atom_site_fract_z
Si Si1 0.430028 0.958105 0.310029
Si Si2 0.516498 0.556398 0.293176
Si Si3 0.295629 0.114906 0.493558
Si Si4 0.298310 0.120006 0.826634
Si Si5 0.284300 0.545425 0.578897
Si Si6 0.938174 0.600142 0.172934
O O1 0.646371 0.978835 0.419476
O O2 0.156656 0.781928 0.224191
O O3 0.500000 0.000000 0.500000
O O4 0.430623 0.080152 0.097384
O O5 0.500000 0.500000 0.500000
O O6 0.609900 0.723953 0.191613
O O7 0.721097 0.570630 0.389403
O O8 0.231106 0.424122 0.097639
O O9 0.384832 0.146515 0.714234
O O10 0.443133 0.278063 0.371657
O O11 0.002748 0.019497 0.298863
O O12 0.252563 0.500614 0.767054
O O13 0.060047 0.533353 0.319784
#
# Coordination Sequence:
#
# PCOD8022438 Si02
#       6
#     2   2   2   2   2   2
#     4  11  26  45  69  97 131 176 222 268 329 388
#     4  12  25  42  68 101 132 173 221 266 331 391
#     4  10  23  46  68  94 135 174 220 270 326 385
#     4  11  25  42  69  97 134 173 218 270 329 389
#     4  10  22  46  67  94 131 178 216 273 325 381
#     4  10  25  44  69  93 137 171 221 273 322 387
#
# _framework density 21.010121000000002
#
# number of rings (size 3 to 8) (size 9 to 14) (size 15 to 20)
#    0.000    1.333    1.667    2.000   11.667    1.333 
#    0.000    0.000    0.000    0.000    0.000    0.000 
#    0.000    0.000    0.000    0.000    0.000    0.000 
#
# Total GULP energy -148867.748421 kJ/mol
# GULP energy per Si atom -12405.645702 kJ/mol
# Density = 2.096230 g / cm^3
# Si number density = 21.010121 Si / 1000 Ang^3
#
#
#
# Elastic Constant Matrix: (Units=GPa)
#
#
# Indices 1 2 3 4 5 6 
#
# 1 139.7510 39.0810 33.5176 0.5752 4.9288 -24.6890
# 2 39.0810 87.8087 22.6016 -11.8558 -7.8457 -13.3181
# 3 33.5176 22.6016 100.5954 1.8049 -13.0650 -17.0492
# 4 0.5752 -11.8558 1.8049 36.6707 -7.9195 4.8398
# 5 4.9288 -7.8457 -13.0650 -7.9195 24.6144 -6.2816
# 6 -24.6890 -13.3181 -17.0492 4.8398 -6.2816 45.3401
#
#
#
# Elastic Compliance Matrix: (Units=1/GPa)
#
#
# Indices 1 2 3 4 5 6 
#
# 1 0.009489 -0.003966 -0.002345 -0.002666 -0.004559 0.002773
# 2 -0.003966 0.015309 -0.000784 0.006445 0.007959 0.002457
# 3 -0.002345 -0.000784 0.012694 0.000350 0.008184 0.004363
# 4 -0.002666 0.006445 0.000350 0.032306 0.012890 -0.001090
# 5 -0.004559 0.007959 0.008184 0.012890 0.054906 0.009164
# 6 0.002773 0.002457 0.004363 -0.001090 0.009164 0.027314
#
#
# Mechanical properties :
#
#
# Convention : Reuss Voigt Hill
#
# Bulk Modulus (GPa) = 42.91323 57.61727 50.26525
# Shear Modulus (GPa) = 28.73977 36.85536 32.79757
#
# Velocity S-wave (km/s) = 3.70253 4.19283 3.95528
# Velocity P-wave (km/s) = 6.22476 7.13602 6.69591
#
# Compressibility (1/GPa) = 0.02330284
#
# Stress axis : x y z
#
# Youngs Moduli (GPa) = 105.38715 65.31923 78.77652
#
# Poissons Ratio (x) = 0.25908 0.18471
# Poissons Ratio (y) = 0.41801 0.06173
# Poissons Ratio (z) = 0.24710 0.05119
#
# Static dielectric constant tensor:
#      x y z
#    x 4.312280 -0.419950 0.170490 
#    y -0.419950 4.355610 -0.275780 
#    z 0.170490 -0.275780 3.799690 
# 
# 
# High freq. dielectric constant tensor:
#      x y z
#    x 1.839940 -0.002540 0.006010 
#    y -0.002540 1.827050 -0.012060 
#    z 0.006010 -0.012060 1.826650 
# 
# From -- ./inp_files/163960.got.cif
#   From: 2010.06.25/outbox.cif.g09.slc.cpg/sg2_82_cif.got.tgz:163960.got - 2010.06.27 13:26:56.
