data_PCOD8022463
_publ_section_title
;
Structure prediction by ZEFSAII (Michael W. Deem and Ramdas Pophale) SiO2 
 PCOD8022463
Probable space group: P -1
;
_chemical_formula_sum "Si O2"
_cell_formula_units_Z 16
_cell_length_a 15.054868
_cell_length_b 14.448605
_cell_length_c 9.363224
_cell_angle_alpha 85.881733
_cell_angle_beta 65.903562
_cell_angle_gamma 29.442429
_cell_volume 708.008208
_symmetry_space_group_name_H-M "P -1"
_symmetry_group_IT_number 2
_symmetry_cell_setting 'triclinic'
loop_
_space_group_symop_operation_xyz
x,y,z
-x,-y,-z
loop_
_atom_site_type_symbol
_atom_site_label
_atom_site_fract_x
_atom_site_fract_y
_atom_site_fract_z
Si Si1 0.503077 0.071993 0.319439
Si Si2 0.912335 0.814379 0.543758
Si Si3 0.546001 0.684715 0.759000
Si Si4 0.086873 0.327168 0.692200
Si Si5 0.115133 0.973331 0.820611
Si Si6 0.210661 0.870912 0.461664
Si Si7 0.399551 0.495722 0.993035
Si Si8 0.564003 0.865511 0.083623
O O1 0.482616 0.178264 0.215327
O O2 0.227538 0.297986 0.550498
O O3 0.724091 0.898542 0.306834
O O4 0.583352 0.902993 0.215833
O O5 0.977244 0.681806 0.395654
O O6 0.187452 0.574248 0.470073
O O7 0.864771 0.955939 0.493795
O O8 0.672012 0.998417 0.777855
O O9 0.327544 0.842437 0.780182
O O10 0.538043 0.644325 0.925404
O O11 0.826144 0.581551 0.915574
O O12 0.232107 0.818842 0.619206
O O13 0.000000 0.000000 0.000000
O O14 0.898035 0.234881 0.877252
O O15 0.472798 0.630259 0.231249
O O16 0.000000 0.000000 0.500000
O O17 0.500000 0.500000 0.000000
O O18 0.500000 0.000000 0.000000
#
# Coordination Sequence:
#
# PCOD8022463 Si02
#       8
#     2   2   2   2   2   2   2   2
#     4  10  23  40  69 106 139 191 237 298 360 428
#     4  11  25  42  70 100 139 191 232 294 362 422
#     4  12  24  46  74 104 148 187 246 301 363 437
#     4  10  22  46  68  98 153 183 238 304 357 426
#     4  12  26  49  74 108 142 192 244 302 369 435
#     4  12  25  46  74 104 144 190 237 300 367 429
#     4  12  25  50  72 101 148 189 236 306 363 431
#     4  11  23  41  68 102 139 189 241 284 360 430
#
# _framework density 22.598604999999999
#
# number of rings (size 3 to 8) (size 9 to 14) (size 15 to 20)
#    0.000    0.750    3.750    2.625    3.500    2.500 
#    2.250    1.250    0.000    0.000    0.000    0.000 
#    0.000    0.000    0.000    0.000    0.000    0.000 
#
# Total GULP energy -198343.800320 kJ/mol
# GULP energy per Si atom -12396.487520 kJ/mol
# Density = 2.254717 g / cm^3
# Si number density = 22.598605 Si / 1000 Ang^3
#
#
#
# Elastic Constant Matrix: (Units=GPa)
#
#
# Indices 1 2 3 4 5 6 
#
# 1 83.8171 45.6655 57.9051 5.2347 -20.5687 0.5963
# 2 45.6655 107.5868 64.3796 -3.4466 -10.8310 -3.4082
# 3 57.9051 64.3796 181.1171 9.2352 -10.7838 -1.7536
# 4 5.2347 -3.4466 9.2352 48.5063 -0.2874 -10.0748
# 5 -20.5687 -10.8310 -10.7838 -0.2874 36.5367 -0.9354
# 6 0.5963 -3.4082 -1.7536 -10.0748 -0.9354 42.6317
#
#
#
# Elastic Compliance Matrix: (Units=1/GPa)
#
#
# Indices 1 2 3 4 5 6 
#
# 1 0.019621 -0.005317 -0.003800 -0.001959 0.008304 -0.001137
# 2 -0.005317 0.013645 -0.003253 0.002501 0.000153 0.001626
# 3 -0.003800 -0.003253 0.007914 -0.001379 -0.000784 -0.000225
# 4 -0.001959 0.002501 -0.001379 0.022398 -0.000452 0.005454
# 5 0.008304 0.000153 -0.000784 -0.000452 0.031866 0.000456
# 6 -0.001137 0.001626 -0.000225 0.005454 0.000456 0.024892
#
#
# Mechanical properties :
#
#
# Convention : Reuss Voigt Hill
#
# Bulk Modulus (GPa) = 60.82691 78.71350 69.77021
# Shear Modulus (GPa) = 33.21020 39.17299 36.19159
#
# Velocity S-wave (km/s) = 3.83765 4.16796 4.00621
# Velocity P-wave (km/s) = 6.82726 7.62032 7.23466
#
# Compressibility (1/GPa) = 0.01644009
#
# Stress axis : x y z
#
# Youngs Moduli (GPa) = 50.96640 73.28479 126.36033
#
# Poissons Ratio (x) = 0.38967 0.48013
# Poissons Ratio (y) = 0.27100 0.41106
# Poissons Ratio (z) = 0.19365 0.23840
#
# Static dielectric constant tensor:
#      x y z
#    x 7.141940 0.289250 2.215300 
#    y 0.289250 4.171010 0.255460 
#    z 2.215300 0.255460 6.144040 
# 
# 
# High freq. dielectric constant tensor:
#      x y z
#    x 1.898200 -0.003180 -0.015350 
#    y -0.003180 1.890320 0.003180 
#    z -0.015350 0.003180 1.902430 
# 
# From -- ./inp_files/315207.got.cif
#   From: 2010.06.25/outbox.cif.g09.slc.cpg/sg2_158_cif.got.tgz:315207.got - 2010.06.27 13:26:56.
