data_PCOD8022717
_publ_section_title
;
Structure prediction by ZEFSAII (Michael W. Deem and Ramdas Pophale) SiO2 
 PCOD8022717
Probable space group: P -1
;
_chemical_formula_sum "Si O2"
_cell_formula_units_Z 16
_cell_length_a 9.612253
_cell_length_b 19.083916
_cell_length_c 19.424290
_cell_angle_alpha 158.941233
_cell_angle_beta 37.677608
_cell_angle_gamma 144.216566
_cell_volume 738.536728
_symmetry_space_group_name_H-M "P -1"
_symmetry_group_IT_number 2
_symmetry_cell_setting 'triclinic'
loop_
_space_group_symop_operation_xyz
x,y,z
-x,-y,-z
loop_
_atom_site_type_symbol
_atom_site_label
_atom_site_fract_x
_atom_site_fract_y
_atom_site_fract_z
Si Si1 0.489957 0.048226 0.902865
Si Si2 0.809405 0.897050 0.422278
Si Si3 0.861892 0.033542 0.306365
Si Si4 0.838544 0.732270 0.707200
Si Si5 0.975291 0.708722 0.059733
Si Si6 0.461966 0.365683 0.460592
Si Si7 0.367551 0.887048 0.655212
Si Si8 0.915395 0.272285 0.629881
O O1 0.469138 0.841870 0.765364
O O2 0.735571 0.224963 0.991346
O O3 0.495543 0.013542 0.787256
O O4 0.261928 0.119934 0.071980
O O5 0.551549 0.778974 0.451850
O O6 0.789869 0.089423 0.563240
O O7 0.000000 0.000000 0.500000
O O8 0.880788 0.734508 0.196968
O O9 0.791689 0.193639 0.531998
O O10 0.121427 0.168372 0.294819
O O11 0.670677 0.961726 0.252531
O O12 0.883361 0.839740 0.161069
O O13 0.649359 0.502145 0.569095
O O14 0.097809 0.727791 0.631477
O O15 0.866304 0.474839 0.861816
O O16 0.500000 0.500000 0.500000
O O17 0.198312 0.303660 0.539990
#
# Coordination Sequence:
#
# PCOD8022717 Si02
#       8
#     2   2   2   2   2   2   2   2
#     4  12  22  40  66  95 127 166 215 258 311 382
#     4  11  22  45  67  90 129 166 213 264 309 369
#     4   9  22  42  59  93 130 167 199 264 318 362
#     4  10  23  38  63  91 129 168 200 261 319 373
#     4  11  22  38  67  97 119 167 217 256 306 376
#     4  12  21  36  62  96 130 161 209 260 311 375
#     4  10  23  46  62  89 133 170 204 261 327 361
#     4  11  22  39  64 100 124 164 220 252 311 375
#
# _framework density 21.664459999999998
#
# number of rings (size 3 to 8) (size 9 to 14) (size 15 to 20)
#    0.750    0.500    6.250    0.375    1.750    4.000 
#    0.000    5.000    0.000    0.000    0.000    0.000 
#    0.000    0.000    0.000    0.000    0.000    0.000 
#
# Total GULP energy -198235.708300 kJ/mol
# GULP energy per Si atom -12389.731769 kJ/mol
# Density = 2.161515 g / cm^3
# Si number density = 21.664460 Si / 1000 Ang^3
#
#
#
# Elastic Constant Matrix: (Units=GPa)
#
#
# Indices 1 2 3 4 5 6 
#
# 1 85.6103 1.7648 5.2857 0.4200 10.5892 -8.6988
# 2 1.7648 70.5457 31.1202 -17.8897 -4.0909 6.2537
# 3 5.2857 31.1202 113.6001 -0.1067 13.7464 -6.2686
# 4 0.4200 -17.8897 -0.1067 34.1244 3.8702 1.0516
# 5 10.5892 -4.0909 13.7464 3.8702 20.7160 -14.6707
# 6 -8.6988 6.2537 -6.2686 1.0516 -14.6707 25.9439
#
#
#
# Elastic Compliance Matrix: (Units=1/GPa)
#
#
# Indices 1 2 3 4 5 6 
#
# 1 0.012543 -0.000984 0.000492 -0.000002 -0.006174 0.001071
# 2 -0.000984 0.020193 -0.006101 0.010457 0.002603 -0.005623
# 3 0.000492 -0.006101 0.011525 -0.002103 -0.009208 -0.000701
# 4 -0.000002 0.010457 -0.002103 0.036341 -0.010869 -0.010649
# 5 -0.006174 0.002603 -0.009208 -0.010869 0.094920 0.049193
# 6 0.001071 -0.005623 -0.000701 -0.010649 0.049193 0.068339
#
#
# Mechanical properties :
#
#
# Convention : Reuss Voigt Hill
#
# Bulk Modulus (GPa) = 32.18144 38.45530 35.31837
# Shear Modulus (GPa) = 18.69823 31.59588 25.14706
#
# Velocity S-wave (km/s) = 2.94102 3.82307 3.41068
# Velocity P-wave (km/s) = 5.13999 6.10547 5.64341
#
# Compressibility (1/GPa) = 0.03107381
#
# Stress axis : x y z
#
# Youngs Moduli (GPa) = 79.72445 49.52295 86.76880
#
# Poissons Ratio (x) = 0.04874 -0.04271
# Poissons Ratio (y) = 0.07847 0.52941
# Poissons Ratio (z) = -0.03924 0.30216
#
# Static dielectric constant tensor:
#      x y z
#    x 6.935310 -2.220160 0.444340 
#    y -2.220160 5.664660 -0.340580 
#    z 0.444340 -0.340580 3.778400 
# 
# 
# High freq. dielectric constant tensor:
#      x y z
#    x 1.857180 0.003620 0.013620 
#    y 0.003620 1.850220 -0.017510 
#    z 0.013620 -0.017510 1.831030 
# 
# From -- ./inp_files/591797.got.cif
#   From: 2010.06.25/outbox.cif.g09.slc.cpg/sg2_296_cif.got.tgz:591797.got - 2010.06.27 13:26:56.
