data_PCOD8022367
_publ_section_title
;
Structure prediction by ZEFSAII (Michael W. Deem and Ramdas Pophale) SiO2 
 PCOD8022367
Probable space group: P -1
;
_chemical_formula_sum "Si O2"
_cell_formula_units_Z 16
_cell_length_a 8.790307
_cell_length_b 12.196283
_cell_length_c 8.911458
_cell_angle_alpha 98.710974
_cell_angle_beta 129.070615
_cell_angle_gamma 81.402022
_cell_volume 731.358839
_symmetry_space_group_name_H-M "P -1"
_symmetry_group_IT_number 2
_symmetry_cell_setting 'triclinic'
loop_
_space_group_symop_operation_xyz
x,y,z
-x,-y,-z
loop_
_atom_site_type_symbol
_atom_site_label
_atom_site_fract_x
_atom_site_fract_y
_atom_site_fract_z
Si Si1 0.774965 0.756165 0.244640
Si Si2 0.999245 0.364138 0.174193
Si Si3 0.298159 0.492934 0.791448
Si Si4 0.097925 0.733361 0.212054
Si Si5 0.802506 0.036938 0.798660
Si Si6 0.702780 0.463975 0.547607
Si Si7 0.957270 0.851765 0.665036
Si Si8 0.398749 0.912699 0.023456
O O1 0.787174 0.627160 0.271173
O O2 0.899178 0.824205 0.453966
O O3 0.881951 0.767921 0.152981
O O4 0.548101 0.802571 0.101191
O O5 0.157224 0.452833 0.271037
O O6 0.085948 0.247128 0.269318
O O7 0.839921 0.410803 0.202227
O O8 0.911736 0.346908 0.952775
O O9 0.314335 0.522518 0.636085
O O10 0.500000 0.500000 0.000000
O O11 0.203701 0.841191 0.251113
O O12 0.229311 0.664447 0.402643
O O13 0.797540 0.950429 0.640119
O O14 0.628091 0.036826 0.813779
O O15 0.000000 0.000000 0.000000
O O16 0.500000 0.500000 0.500000
O O17 0.186312 0.882086 0.820487
O O18 0.500000 0.000000 0.000000
#
# Coordination Sequence:
#
# PCOD8022367 Si02
#       8
#     2   2   2   2   2   2   2   2
#     4  12  26  45  73 105 144 190 247 299 369 439
#     4  12  23  47  72  99 148 186 239 299 367 430
#     4  12  26  46  71 103 145 196 243 300 366 436
#     4  12  25  44  73 104 143 191 239 298 369 433
#     4  10  22  45  73 102 144 188 240 300 366 435
#     4  12  27  44  70 110 144 189 249 299 367 445
#     4  11  24  48  75 101 146 196 237 305 368 434
#     4  11  25  45  74 107 143 188 249 303 367 441
#
# _framework density 21.877085000000001
#
# number of rings (size 3 to 8) (size 9 to 14) (size 15 to 20)
#    0.000    0.500    5.000    4.500    3.500    2.500 
#    0.000    0.000    0.000    0.000    0.000    0.000 
#    0.000    0.000    0.000    0.000    0.000    0.000 
#
# Total GULP energy -198412.030910 kJ/mol
# GULP energy per Si atom -12400.751932 kJ/mol
# Density = 2.182729 g / cm^3
# Si number density = 21.877085 Si / 1000 Ang^3
#
#
#
# Elastic Constant Matrix: (Units=GPa)
#
#
# Indices 1 2 3 4 5 6 
#
# 1 158.5849 58.3656 29.0662 1.9473 -22.9532 -10.8537
# 2 58.3656 135.1935 50.1983 0.0730 -14.6738 6.1047
# 3 29.0662 50.1983 78.0156 10.6438 -16.0624 0.3293
# 4 1.9473 0.0730 10.6438 34.7773 -2.7958 -9.6279
# 5 -22.9532 -14.6738 -16.0624 -2.7958 39.2978 -1.3208
# 6 -10.8537 6.1047 0.3293 -9.6279 -1.3208 43.7788
#
#
#
# Elastic Compliance Matrix: (Units=1/GPa)
#
#
# Indices 1 2 3 4 5 6 
#
# 1 0.008238 -0.003133 -0.000420 0.000726 0.003615 0.002751
# 2 -0.003133 0.011130 -0.006228 0.001502 -0.000178 -0.001957
# 3 -0.000420 -0.006228 0.018684 -0.005425 0.004666 -0.000429
# 4 0.000726 0.001502 -0.005425 0.032468 0.001319 0.007192
# 5 0.003615 -0.000178 0.004666 0.001319 0.029562 0.002068
# 6 0.002751 -0.001957 -0.000429 0.007192 0.002068 0.025444
#
#
# Mechanical properties :
#
#
# Convention : Reuss Voigt Hill
#
# Bulk Modulus (GPa) = 54.07931 71.89492 62.98712
# Shear Modulus (GPa) = 33.05759 39.18169 36.11964
#
# Velocity S-wave (km/s) = 3.89145 4.23660 4.06769
# Velocity P-wave (km/s) = 6.70556 7.54097 7.13550
#
# Compressibility (1/GPa) = 0.01849136
#
# Stress axis : x y z
#
# Youngs Moduli (GPa) = 121.38346 89.84789 53.52155
#
# Poissons Ratio (x) = 0.28150 0.02247
# Poissons Ratio (y) = 0.38030 0.33331
# Poissons Ratio (z) = 0.05097 0.55953
#
# Static dielectric constant tensor:
#      x y z
#    x 4.257360 -0.323730 -0.175680 
#    y -0.323730 4.417050 0.106250 
#    z -0.175680 0.106250 3.956700 
# 
# 
# High freq. dielectric constant tensor:
#      x y z
#    x 1.874410 -0.007810 -0.014300 
#    y -0.007810 1.877520 -0.002250 
#    z -0.014300 -0.002250 1.853060 
# 
# From -- ./inp_files/188865.got.cif
#   From: 2010.06.25/outbox.cif.g09.slc.cpg/sg2_95_cif.got.tgz:188865.got - 2010.06.27 13:26:56.
