data_PCOD8022106
_publ_section_title
;
Structure prediction by ZEFSAII (Michael W. Deem and Ramdas Pophale) SiO2 
 PCOD8022106
Probable space group: P -1
;
_chemical_formula_sum "Si O2"
_cell_formula_units_Z 14
_cell_length_a 10.068091
_cell_length_b 12.893981
_cell_length_c 19.008811
_cell_angle_alpha 27.465259
_cell_angle_beta 145.571913
_cell_angle_gamma 147.212120
_cell_volume 584.759325
_symmetry_space_group_name_H-M "P -1"
_symmetry_group_IT_number 2
_symmetry_cell_setting 'triclinic'
loop_
_space_group_symop_operation_xyz
x,y,z
-x,-y,-z
loop_
_atom_site_type_symbol
_atom_site_label
_atom_site_fract_x
_atom_site_fract_y
_atom_site_fract_z
Si Si1 0.171167 0.832105 0.070026
Si Si2 0.280288 0.637150 0.833134
Si Si3 0.641867 0.278723 0.028546
Si Si4 0.520263 0.359284 0.775214
Si Si5 0.727010 0.889251 0.779840
Si Si6 0.656115 0.908715 0.484348
Si Si7 0.988486 0.039058 0.271824
O O1 0.293478 0.769106 0.090663
O O2 0.986413 0.580823 0.181195
O O3 0.411704 0.013834 0.112044
O O4 0.001007 0.982127 0.883962
O O5 0.295470 0.563820 0.966480
O O6 0.520009 0.655850 0.875946
O O7 0.260781 0.904275 0.659508
O O8 0.894422 0.242863 0.136272
O O9 0.535590 0.381528 0.853758
O O10 0.616894 0.630484 0.618709
O O11 0.230655 0.199199 0.717519
O O12 0.617991 0.100275 0.600916
O O13 0.776372 0.814024 0.768088
O O14 0.884841 0.045580 0.557672
#
# Coordination Sequence:
#
# PCOD8022106 Si02
#       7
#     2   2   2   2   2   2   2
#     4  11  21  44  69  91 129 168 221 257 310 381
#     4  10  26  42  63  98 133 167 206 262 329 376
#     4  11  23  41  71  97 121 169 220 266 307 372
#     4  11  23  41  71  97 121 169 220 266 307 372
#     4  10  22  45  62  96 131 167 210 261 319 381
#     4  10  26  42  63  98 133 167 206 262 329 376
#     4  11  21  44  69  91 129 168 221 257 310 381
#
# _framework density 23.941475000000001
#
# number of rings (size 3 to 8) (size 9 to 14) (size 15 to 20)
#    0.857    0.571    2.857    2.571    2.000    5.714 
#    0.000    2.857    0.000    0.000    0.000    0.000 
#    0.000    0.000    0.000    0.000    0.000    0.000 
#
# Total GULP energy -173450.149302 kJ/mol
# GULP energy per Si atom -12389.296379 kJ/mol
# Density = 2.388698 g / cm^3
# Si number density = 23.941475 Si / 1000 Ang^3
#
#
#
# Elastic Constant Matrix: (Units=GPa)
#
#
# Indices 1 2 3 4 5 6 
#
# 1 54.5407 10.4676 8.7682 7.4263 -4.4052 9.0975
# 2 10.4676 67.3875 24.7403 -0.3729 -5.1216 13.1650
# 3 8.7682 24.7403 107.8244 13.7887 5.2498 -4.4028
# 4 7.4263 -0.3729 13.7887 25.0781 1.6484 0.5206
# 5 -4.4052 -5.1216 5.2498 1.6484 35.8931 3.3347
# 6 9.0975 13.1650 -4.4028 0.5206 3.3347 28.1115
#
#
#
# Elastic Compliance Matrix: (Units=1/GPa)
#
#
# Indices 1 2 3 4 5 6 
#
# 1 0.020923 -0.001321 -0.001107 -0.005694 0.003418 -0.006626
# 2 -0.001321 0.019319 -0.005394 0.003580 0.004150 -0.010023
# 3 -0.001107 -0.005394 0.011734 -0.006126 -0.002821 0.005170
# 4 -0.005694 0.003580 -0.006126 0.045094 -0.001225 -0.001483
# 5 0.003418 0.004150 -0.002821 -0.001225 0.029994 -0.007027
# 6 -0.006626 -0.010023 0.005170 -0.001483 -0.007027 0.044082
#
#
# Mechanical properties :
#
#
# Convention : Reuss Voigt Hill
#
# Bulk Modulus (GPa) = 27.52486 35.30053 31.41269
# Shear Modulus (GPa) = 25.13819 30.20165 27.66992
#
# Velocity S-wave (km/s) = 3.24386 3.55558 3.40329
# Velocity P-wave (km/s) = 5.05489 5.62430 5.34718
#
# Compressibility (1/GPa) = 0.03633080
#
# Stress axis : x y z
#
# Youngs Moduli (GPa) = 47.79423 51.76368 85.22266
#
# Poissons Ratio (x) = 0.06837 0.09436
# Poissons Ratio (y) = 0.06312 0.45972
# Poissons Ratio (z) = 0.05292 0.27923
#
# Static dielectric constant tensor:
#      x y z
#    x 4.188060 0.306920 0.111480 
#    y 0.306920 4.225790 0.041580 
#    z 0.111480 0.041580 4.236960 
# 
# 
# High freq. dielectric constant tensor:
#      x y z
#    x 1.944700 0.022690 0.008330 
#    y 0.022690 1.945610 -0.001580 
#    z 0.008330 -0.001580 1.949640 
# 
# From -- ./inp_files/438466.got.cif
#   From: 2010.06.25/outbox.cif.g09.slc.cpg/sg2_220_cif.got.tgz:438466.got - 2010.06.27 13:26:56.
