data_PCOD8022516
_publ_section_title
;
Structure prediction by ZEFSAII (Michael W. Deem and Ramdas Pophale) SiO2 
 PCOD8022516
Probable space group: P -1
;
_chemical_formula_sum "Si O2"
_cell_formula_units_Z 14
_cell_length_a 8.145958
_cell_length_b 8.274611
_cell_length_c 9.630182
_cell_angle_alpha 116.717946
_cell_angle_beta 89.184180
_cell_angle_gamma 87.300776
_cell_volume 578.713252
_symmetry_space_group_name_H-M "P -1"
_symmetry_group_IT_number 2
_symmetry_cell_setting 'triclinic'
loop_
_space_group_symop_operation_xyz
x,y,z
-x,-y,-z
loop_
_atom_site_type_symbol
_atom_site_label
_atom_site_fract_x
_atom_site_fract_y
_atom_site_fract_z
Si Si1 0.177579 0.420101 0.009801
Si Si2 0.873785 0.880074 0.538687
Si Si3 0.146820 0.683980 0.616672
Si Si4 0.646724 0.532459 0.696773
Si Si5 0.289505 0.424263 0.719434
Si Si6 0.646276 0.959951 0.812319
Si Si7 0.719426 0.976877 0.120745
O O1 0.252717 0.511034 0.179547
O O2 0.299067 0.456285 0.895351
O O3 0.165908 0.205925 0.946628
O O4 0.000000 0.500000 0.000000
O O5 0.757836 0.781403 0.393345
O O6 0.759596 0.003225 0.694476
O O7 0.965230 0.718511 0.567422
O O8 0.000000 0.000000 0.500000
O O9 0.266090 0.582216 0.468292
O O10 0.147539 0.564747 0.710639
O O11 0.203666 0.882320 0.724644
O O12 0.465280 0.462665 0.671693
O O13 0.632845 0.744540 0.745191
O O14 0.464444 0.055297 0.833661
O O15 0.718081 0.043079 0.985176
#
# Coordination Sequence:
#
# PCOD8022516 Si02
#       7
#     2   2   2   2   2   2   2
#     4  11  26  46  71 108 152 189 234 300 370 437
#     4  12  27  44  69 107 152 194 239 303 366 431
#     4  12  24  43  74 108 140 190 242 300 362 423
#     4  11  23  46  77 104 144 195 242 297 358 434
#     4  12  24  45  73 104 143 192 249 292 362 434
#     4  10  22  46  72 105 142 187 244 293 364 437
#     4  10  23  45  74 104 140 187 242 301 358 432
#
# _framework density 24.191599
#
# number of rings (size 3 to 8) (size 9 to 14) (size 15 to 20)
#    0.000    0.857    2.857    3.857    4.000    1.714 
#    5.143    2.857    0.000    0.000    0.000    0.000 
#    0.000    0.000    0.000    0.000    0.000    0.000 
#
# Total GULP energy -173628.031041 kJ/mol
# GULP energy per Si atom -12402.002217 kJ/mol
# Density = 2.413654 g / cm^3
# Si number density = 24.191599 Si / 1000 Ang^3
#
#
#
# Elastic Constant Matrix: (Units=GPa)
#
#
# Indices 1 2 3 4 5 6 
#
# 1 99.7909 24.1492 32.6416 4.5666 4.2347 0.0965
# 2 24.1492 60.2071 22.0159 1.4617 9.7007 3.4885
# 3 32.6416 22.0159 106.3793 3.4583 5.8366 9.9991
# 4 4.5666 1.4617 3.4583 37.8061 3.7881 -7.4535
# 5 4.2347 9.7007 5.8366 3.7881 43.9529 -2.5413
# 6 0.0965 3.4885 9.9991 -7.4535 -2.5413 40.0650
#
#
#
# Elastic Compliance Matrix: (Units=1/GPa)
#
#
# Indices 1 2 3 4 5 6 
#
# 1 0.011927 -0.003769 -0.002946 -0.000871 0.000200 0.000885
# 2 -0.003769 0.019748 -0.002607 0.000050 -0.003728 -0.001287
# 3 -0.002946 -0.002607 0.011179 -0.001047 -0.000697 -0.002795
# 4 -0.000871 0.000050 -0.001047 0.027889 -0.001884 0.005328
# 5 0.000200 -0.003728 -0.000697 -0.001884 0.023906 0.001664
# 6 0.000885 -0.001287 -0.002795 0.005328 0.001664 0.026864
#
#
# Mechanical properties :
#
#
# Convention : Reuss Voigt Hill
#
# Bulk Modulus (GPa) = 41.30317 47.11008 44.20663
# Shear Modulus (GPa) = 33.73226 36.86950 35.30088
#
# Velocity S-wave (km/s) = 3.73819 3.90816 3.82412
# Velocity P-wave (km/s) = 5.97850 6.31514 6.14912
#
# Compressibility (1/GPa) = 0.02421122
#
# Stress axis : x y z
#
# Youngs Moduli (GPa) = 83.84264 50.63704 89.45702
#
# Poissons Ratio (x) = 0.19087 0.26350
# Poissons Ratio (y) = 0.31603 0.23318
# Poissons Ratio (z) = 0.24696 0.13199
#
# Static dielectric constant tensor:
#      x y z
#    x 4.439660 -0.408110 -0.046980 
#    y -0.408110 4.549650 -0.013720 
#    z -0.046980 -0.013720 4.867420 
# 
# 
# High freq. dielectric constant tensor:
#      x y z
#    x 1.961770 -0.009440 0.003110 
#    y -0.009440 1.945770 -0.002510 
#    z 0.003110 -0.002510 1.984760 
# 
# From -- ./inp_files/160157.got.cif
#   From: 2010.06.25/outbox.cif.g09.slc.cpg/sg2_81_cif.got.tgz:160157.got - 2010.06.27 13:26:56.
