data_PCOD8022082
_publ_section_title
;
Structure prediction by ZEFSAII (Michael W. Deem and Ramdas Pophale) SiO2 
 PCOD8022082
Probable space group: P -1
;
_chemical_formula_sum "Si O2"
_cell_formula_units_Z 12
_cell_length_a 9.254251
_cell_length_b 8.970055
_cell_length_c 7.470427
_cell_angle_alpha 128.655327
_cell_angle_beta 111.951348
_cell_angle_gamma 65.041165
_cell_volume 433.688657
_symmetry_space_group_name_H-M "P -1"
_symmetry_group_IT_number 2
_symmetry_cell_setting 'triclinic'
loop_
_space_group_symop_operation_xyz
x,y,z
-x,-y,-z
loop_
_atom_site_type_symbol
_atom_site_label
_atom_site_fract_x
_atom_site_fract_y
_atom_site_fract_z
Si Si1 0.047951 0.199142 0.717393
Si Si2 0.140381 0.233978 0.403132
Si Si3 0.617211 0.827208 0.034422
Si Si4 0.380651 0.815473 0.192801
Si Si5 0.218828 0.623058 0.688519
Si Si6 0.295781 0.613451 0.325341
O O1 0.114154 0.284977 0.638380
O O2 0.198250 0.158371 0.894368
O O3 0.883741 0.356677 0.826697
O O4 0.000000 0.000000 0.500000
O O5 0.229535 0.391813 0.485020
O O6 0.963382 0.259773 0.253441
O O7 0.243506 0.015014 0.247111
O O8 0.553255 0.845044 0.226919
O O9 0.606227 0.614489 0.796837
O O10 0.500000 0.000000 0.000000
O O11 0.391920 0.741681 0.348568
O O12 0.337894 0.649368 0.921040
O O13 0.273350 0.700883 0.582274
#
# Coordination Sequence:
#
# PCOD8022082 Si02
#       6
#     2   2   2   2   2   2
#     4  11  24  49  78 108 146 206 260 300 376 464
#     4  10  22  44  74 110 149 200 256 308 372 461
#     4  12  29  46  75 117 154 195 252 322 385 445
#     4  12  25  45  76 111 154 194 251 316 391 436
#     4  10  24  44  73 115 150 200 255 312 373 457
#     4  11  25  50  78 107 152 204 255 306 376 467
#
# _framework density 27.669619999999998
#
# number of rings (size 3 to 8) (size 9 to 14) (size 15 to 20)
#    0.000    1.000    1.667    3.500    4.667    5.333 
#    3.000    0.000    0.000    0.000    0.000    0.000 
#    0.000    0.000    0.000    0.000    0.000    0.000 
#
# Total GULP energy -148810.002607 kJ/mol
# GULP energy per Si atom -12400.833551 kJ/mol
# Density = 2.760664 g / cm^3
# Si number density = 27.669620 Si / 1000 Ang^3
#
#
#
# Elastic Constant Matrix: (Units=GPa)
#
#
# Indices 1 2 3 4 5 6 
#
# 1 129.9112 41.4094 12.2361 5.9769 -10.0938 8.4973
# 2 41.4094 125.8827 15.8619 18.2895 2.4239 2.7917
# 3 12.2361 15.8619 39.7359 8.3238 8.7167 9.8623
# 4 5.9769 18.2895 8.3238 41.1111 -3.9431 -12.4331
# 5 -10.0938 2.4239 8.7167 -3.9431 39.6949 -7.9507
# 6 8.4973 2.7917 9.8623 -12.4331 -7.9507 51.9459
#
#
#
# Elastic Compliance Matrix: (Units=1/GPa)
#
#
# Indices 1 2 3 4 5 6 
#
# 1 0.009042 -0.002817 -0.002385 0.000630 0.003005 -0.000264
# 2 -0.002817 0.009707 -0.001584 -0.004028 -0.001554 -0.000962
# 3 -0.002385 -0.001584 0.033371 -0.009713 -0.010772 -0.009834
# 4 0.000630 -0.004028 -0.009713 0.032023 0.007889 0.010830
# 5 0.003005 -0.001554 -0.010772 0.007889 0.030852 0.008248
# 6 -0.000264 -0.000962 -0.009834 0.010830 0.008248 0.025067
#
#
# Mechanical properties :
#
#
# Convention : Reuss Voigt Hill
#
# Bulk Modulus (GPa) = 25.94207 48.28274 37.11240
# Shear Modulus (GPa) = 30.03284 41.61855 35.82570
#
# Velocity S-wave (km/s) = 3.29813 3.88251 3.60219
# Velocity P-wave (km/s) = 4.88871 6.13075 5.54462
#
# Compressibility (1/GPa) = 0.03854743
#
# Stress axis : x y z
#
# Youngs Moduli (GPa) = 110.59473 103.02104 29.96585
#
# Poissons Ratio (x) = 0.29025 0.07148
# Poissons Ratio (y) = 0.31159 0.04746
# Poissons Ratio (z) = 0.26380 0.16315
#
# Static dielectric constant tensor:
#      x y z
#    x 5.713850 -0.032130 -0.103830 
#    y -0.032130 5.144590 0.047840 
#    z -0.103830 0.047840 4.378970 
# 
# 
# High freq. dielectric constant tensor:
#      x y z
#    x 2.137920 -0.005030 -0.003400 
#    y -0.005030 2.128400 0.010960 
#    z -0.003400 0.010960 2.081510 
# 
# From -- ./inp_files/151792.got.cif
#   From: 2010.06.25/outbox.cif.g09.slc.cpg/sg2_76_cif.got.tgz:151792.got - 2010.06.27 13:26:56.
