data_PCOD8022209
_publ_section_title
;
Structure prediction by ZEFSAII (Michael W. Deem and Ramdas Pophale) SiO2 
 PCOD8022209
Probable space group: P -1
;
_chemical_formula_sum "Si O2"
_cell_formula_units_Z 16
_cell_length_a 9.891982
_cell_length_b 19.716971
_cell_length_c 20.590389
_cell_angle_alpha 19.383407
_cell_angle_beta 36.223699
_cell_angle_gamma 45.770353
_cell_volume 745.267540
_symmetry_space_group_name_H-M "P -1"
_symmetry_group_IT_number 2
_symmetry_cell_setting 'triclinic'
loop_
_space_group_symop_operation_xyz
x,y,z
-x,-y,-z
loop_
_atom_site_type_symbol
_atom_site_label
_atom_site_fract_x
_atom_site_fract_y
_atom_site_fract_z
Si Si1 0.261941 0.517859 0.905892
Si Si2 0.557452 0.098426 0.988757
Si Si3 0.204734 0.201300 0.769777
Si Si4 0.006843 0.876327 0.392022
Si Si5 0.576841 0.976952 0.418272
Si Si6 0.924742 0.408321 0.481740
Si Si7 0.657451 0.696947 0.803418
Si Si8 0.361718 0.504525 0.318055
O O1 0.390933 0.437296 0.870143
O O2 0.412768 0.760078 0.645209
O O3 0.238536 0.369094 0.112170
O O4 0.000000 0.500000 0.000000
O O5 0.622042 0.883497 0.174922
O O6 0.680238 0.211511 0.772148
O O7 0.663013 0.272667 0.847430
O O8 0.271360 0.047212 0.141137
O O9 0.101247 0.353996 0.717783
O O10 0.364784 0.345155 0.520294
O O11 0.000000 0.000000 0.000000
O O12 0.886407 0.834043 0.547945
O O13 0.009160 0.648003 0.565788
O O14 0.855229 0.983204 0.305997
O O15 0.522459 0.169776 0.225977
O O16 0.500000 0.000000 0.500000
O O17 0.131592 0.389826 0.466752
O O18 0.500000 0.500000 0.000000
#
# Coordination Sequence:
#
# PCOD8022209 Si02
#       8
#     2   2   2   2   2   2   2   2
#     4  12  27  44  68 106 136 168 229 284 324 399
#     4  11  24  41  66  97 136 168 220 278 333 392
#     4  11  21  41  68  95 129 175 220 270 332 399
#     4  11  24  44  68  98 133 175 226 273 337 392
#     4  10  22  45  68  91 132 177 219 270 337 390
#     4  11  21  45  64  96 131 170 221 276 320 400
#     4  11  23  47  70  95 135 181 225 269 335 407
#     4  11  23  42  67  92 134 175 212 272 336 387
#
# _framework density 21.468800999999999
#
# number of rings (size 3 to 8) (size 9 to 14) (size 15 to 20)
#    0.000    1.000    6.250    1.125    5.250    2.000 
#    9.000    0.000    0.000    0.000    0.000    0.000 
#    0.000    0.000    0.000    0.000    0.000    0.000 
#
# Total GULP energy -198402.041865 kJ/mol
# GULP energy per Si atom -12400.127617 kJ/mol
# Density = 2.141994 g / cm^3
# Si number density = 21.468801 Si / 1000 Ang^3
#
#
#
# Elastic Constant Matrix: (Units=GPa)
#
#
# Indices 1 2 3 4 5 6 
#
# 1 100.8084 35.4404 38.3130 2.2212 9.4941 -29.5219
# 2 35.4404 114.7126 38.5934 1.2944 17.2748 -14.3942
# 3 38.3130 38.5934 83.4788 -0.8485 3.7707 -25.8875
# 4 2.2212 1.2944 -0.8485 38.3571 -10.5570 -2.1887
# 5 9.4941 17.2748 3.7707 -10.5570 33.8476 3.3531
# 6 -29.5219 -14.3942 -25.8875 -2.1887 3.3531 43.0216
#
#
#
# Elastic Compliance Matrix: (Units=1/GPa)
#
#
# Indices 1 2 3 4 5 6 
#
# 1 0.014416 -0.001783 -0.003285 -0.001514 -0.003988 0.007553
# 2 -0.001783 0.011591 -0.004154 -0.001890 -0.005592 0.000495
# 3 -0.003285 -0.004154 0.017525 0.001338 0.000822 0.006905
# 4 -0.001514 -0.001890 0.001338 0.029084 0.010331 -0.000192
# 5 -0.003988 -0.005592 0.000822 0.010331 0.037290 -0.006493
# 6 0.007553 0.000495 0.006905 -0.000192 -0.006493 0.033244
#
#
# Mechanical properties :
#
#
# Convention : Reuss Voigt Hill
#
# Bulk Modulus (GPa) = 39.85857 58.18814 49.02335
# Shear Modulus (GPa) = 29.41917 35.48880 32.45399
#
# Velocity S-wave (km/s) = 3.70580 4.07017 3.89225
# Velocity P-wave (km/s) = 6.07591 7.01789 6.56382
#
# Compressibility (1/GPa) = 0.02508871
#
# Stress axis : x y z
#
# Youngs Moduli (GPa) = 69.36720 86.27196 57.06190
#
# Poissons Ratio (x) = 0.15385 0.18744
# Poissons Ratio (y) = 0.12370 0.23701
# Poissons Ratio (z) = 0.22786 0.35833
#
# Static dielectric constant tensor:
#      x y z
#    x 3.909290 -0.077760 0.073670 
#    y -0.077760 4.517520 0.006390 
#    z 0.073670 0.006390 4.052710 
# 
# 
# High freq. dielectric constant tensor:
#      x y z
#    x 1.836750 -0.002370 -0.007180 
#    y -0.002370 1.860040 -0.006110 
#    z -0.007180 -0.006110 1.834330 
# 
# From -- ./inp_files/591587.got.cif
#   From: 2010.06.25/outbox.cif.g09.slc.cpg/sg2_296_cif.got.tgz:591587.got - 2010.06.27 13:26:56.
