data_PCOD8022646
_publ_section_title
;
Structure prediction by ZEFSAII (Michael W. Deem and Ramdas Pophale) SiO2 
 PCOD8022646
Probable space group: P -1
;
_chemical_formula_sum "Si O2"
_cell_formula_units_Z 14
_cell_length_a 22.782713
_cell_length_b 18.415734
_cell_length_c 5.248115
_cell_angle_alpha 55.195914
_cell_angle_beta 59.932638
_cell_angle_gamma 21.788584
_cell_volume 668.058227
_symmetry_space_group_name_H-M "P -1"
_symmetry_group_IT_number 2
_symmetry_cell_setting 'triclinic'
loop_
_space_group_symop_operation_xyz
x,y,z
-x,-y,-z
loop_
_atom_site_type_symbol
_atom_site_label
_atom_site_fract_x
_atom_site_fract_y
_atom_site_fract_z
Si Si1 0.744816 0.074723 0.166164
Si Si2 0.379501 0.221111 0.774940
Si Si3 0.088509 0.458986 0.081280
Si Si4 0.453776 0.240108 0.072133
Si Si5 0.567382 0.546229 0.170677
Si Si6 0.281165 0.804865 0.514184
Si Si7 0.804032 0.830603 0.288837
O O1 0.551478 0.300149 0.120327
O O2 0.812160 0.050489 0.823681
O O3 0.809612 0.897416 0.368373
O O4 0.803101 0.054077 0.336927
O O5 0.406678 0.228684 0.421656
O O6 0.199681 0.397148 0.817921
O O7 0.401238 0.267352 0.856969
O O8 0.500000 0.000000 0.000000
O O9 0.197187 0.267879 0.405812
O O10 0.958774 0.665481 0.111423
O O11 0.000000 0.500000 0.000000
O O12 0.644051 0.032603 0.067197
O O13 0.365811 0.437490 0.916632
O O14 0.464914 0.622295 0.470734
O O15 0.713999 0.308248 0.256368
#
# Coordination Sequence:
#
# PCOD8022646 Si02
#       7
#     2   2   2   2   2   2   2
#     4   9  18  29  50  80 114 141 187 228 294 328
#     4  12  25  40  60  85 119 158 194 242 296 349
#     4  11  25  40  61  81 120 157 203 243 288 340
#     4  11  24  38  61  88 121 153 193 240 298 347
#     4   8  19  29  53  80 121 141 189 227 300 333
#     4   9  17  28  51  81 118 146 177 239 289 340
#     4  10  23  37  59  87 115 158 195 247 284 351
#
# _framework density 20.956258999999999
#
# number of rings (size 3 to 8) (size 9 to 14) (size 15 to 20)
#    0.857    1.143    1.429    1.714   10.000    0.000 
#    0.000    0.000    0.000    0.000    0.000    6.000 
#    0.000    0.000    0.000    0.000    0.000    0.000 
#
# Total GULP energy -173522.673508 kJ/mol
# GULP energy per Si atom -12394.476679 kJ/mol
# Density = 2.090856 g / cm^3
# Si number density = 20.956259 Si / 1000 Ang^3
#
#
#
# Elastic Constant Matrix: (Units=GPa)
#
#
# Indices 1 2 3 4 5 6 
#
# 1 97.4442 37.3229 15.5585 -0.7411 0.1386 25.7909
# 2 37.3229 79.1681 25.8499 7.3139 -12.4154 18.2104
# 3 15.5585 25.8499 55.6341 5.5857 -2.4690 16.4638
# 4 -0.7411 7.3139 5.5857 17.8193 9.7162 -1.9225
# 5 0.1386 -12.4154 -2.4690 9.7162 38.2568 1.0210
# 6 25.7909 18.2104 16.4638 -1.9225 1.0210 35.3370
#
#
#
# Elastic Compliance Matrix: (Units=1/GPa)
#
#
# Indices 1 2 3 4 5 6 
#
# 1 0.014492 -0.006036 0.000462 0.003609 -0.002700 -0.007407
# 2 -0.006036 0.021072 -0.004737 -0.013505 0.010125 -0.005274
# 3 0.000462 -0.004737 0.023702 -0.007678 0.002192 -0.009420
# 4 0.003609 -0.013505 -0.007678 0.079479 -0.025423 0.012962
# 5 -0.002700 0.010125 0.002192 -0.025423 0.036212 -0.006698
# 6 -0.007407 -0.005274 -0.009420 0.012962 -0.006698 0.041711
#
#
# Mechanical properties :
#
#
# Convention : Reuss Voigt Hill
#
# Bulk Modulus (GPa) = 25.87698 43.30102 34.58900
# Shear Modulus (GPa) = 19.98613 28.51696 24.25154
#
# Velocity S-wave (km/s) = 3.09156 3.69288 3.40552
# Velocity P-wave (km/s) = 5.01185 6.23623 5.65726
#
# Compressibility (1/GPa) = 0.03864438
#
# Stress axis : x y z
#
# Youngs Moduli (GPa) = 69.00212 47.45542 42.18991
#
# Poissons Ratio (x) = 0.28644 -0.01947
# Poissons Ratio (y) = 0.41649 0.19985
# Poissons Ratio (z) = -0.03185 0.22480
#
# Static dielectric constant tensor:
#      x y z
#    x 3.634200 0.339960 -0.117900 
#    y 0.339960 3.606000 -0.091300 
#    z -0.117900 -0.091300 3.853550 
# 
# 
# High freq. dielectric constant tensor:
#      x y z
#    x 1.803370 0.041060 0.000010 
#    y 0.041060 1.789430 -0.009390 
#    z 0.000010 -0.009390 1.815790 
# 
# From -- ./inp_files/110451.got.cif
#   From: 2010.06.25/outbox.cif.g09.slc.cpg/sg2_56_cif.got.tgz:110451.got - 2010.06.27 13:26:56.
