data_PCOD8022846
_publ_section_title
;
Structure prediction by ZEFSAII (Michael W. Deem and Ramdas Pophale) SiO2 
 PCOD8022846
Probable space group: P -1
;
_chemical_formula_sum "Si O2"
_cell_formula_units_Z 16
_cell_length_a 9.103355
_cell_length_b 16.436845
_cell_length_c 8.149613
_cell_angle_alpha 111.978188
_cell_angle_beta 96.005366
_cell_angle_gamma 132.595781
_cell_volume 708.843461
_symmetry_space_group_name_H-M "P -1"
_symmetry_group_IT_number 2
_symmetry_cell_setting 'triclinic'
loop_
_space_group_symop_operation_xyz
x,y,z
-x,-y,-z
loop_
_atom_site_type_symbol
_atom_site_label
_atom_site_fract_x
_atom_site_fract_y
_atom_site_fract_z
Si Si1 0.127269 0.259074 0.912948
Si Si2 0.618104 0.280388 0.471222
Si Si3 0.618047 0.001452 0.777633
Si Si4 0.847094 0.724447 0.443749
Si Si5 0.440824 0.260036 0.107296
Si Si6 0.106115 0.438474 0.562795
Si Si7 0.699969 0.993267 0.158526
Si Si8 0.664595 0.482872 0.699686
O O1 0.201585 0.270701 0.745766
O O2 0.848499 0.125938 0.794491
O O3 0.245014 0.242833 0.035082
O O4 0.207313 0.395079 0.064923
O O5 0.436845 0.237534 0.284446
O O6 0.656874 0.376637 0.681780
O O7 0.862510 0.378782 0.476108
O O8 0.513963 0.143059 0.430214
O O9 0.453679 0.010930 0.753114
O O10 0.676223 0.006794 0.976003
O O11 0.955794 0.677214 0.428880
O O12 0.602800 0.609377 0.426982
O O13 0.027974 0.875856 0.660733
O O14 0.696901 0.415517 0.205551
O O15 0.387739 0.145526 0.917701
O O16 0.194448 0.449398 0.402848
#
# Coordination Sequence:
#
# PCOD8022846 Si02
#       8
#     2   2   2   2   2   2   2   2
#     4  12  27  41  62  97 139 171 209 257 327 390
#     4  10  23  42  71 100 123 160 225 274 312 373
#     4  10  23  43  67  97 126 166 219 271 316 375
#     4  12  25  44  64  93 135 175 212 259 319 393
#     4  10  23  39  65  99 128 161 212 270 315 379
#     4  11  22  44  71  97 125 163 222 276 313 372
#     4  10  23  42  70  91 126 172 221 265 316 369
#     4  11  24  41  69  96 126 172 213 267 322 369
#
# _framework density 22.571978000000001
#
# number of rings (size 3 to 8) (size 9 to 14) (size 15 to 20)
#    0.000    1.250    2.500    3.000   12.250    2.000 
#    0.000    0.625    0.000    0.000    0.000    0.000 
#    0.000    0.000    0.000    0.000    0.000    0.000 
#
# Total GULP energy -198386.700591 kJ/mol
# GULP energy per Si atom -12399.168787 kJ/mol
# Density = 2.252060 g / cm^3
# Si number density = 22.571978 Si / 1000 Ang^3
#
#
#
# Elastic Constant Matrix: (Units=GPa)
#
#
# Indices 1 2 3 4 5 6 
#
# 1 89.6564 27.8424 31.6465 11.7841 -19.5988 4.0789
# 2 27.8424 65.8438 41.1879 32.9932 -9.5832 2.1159
# 3 31.6465 41.1879 81.5643 39.9078 -14.0516 -5.6212
# 4 11.7841 32.9932 39.9078 46.9872 -11.4049 -4.9308
# 5 -19.5988 -9.5832 -14.0516 -11.4049 30.6633 19.9145
# 6 4.0789 2.1159 -5.6212 -4.9308 19.9145 32.9745
#
#
#
# Elastic Compliance Matrix: (Units=1/GPa)
#
#
# Indices 1 2 3 4 5 6 
#
# 1 0.018431 -0.004173 -0.005884 0.006490 0.018958 -0.013494
# 2 -0.004173 0.027910 -0.005813 -0.013747 0.001786 -0.005400
# 3 -0.005884 -0.005813 0.025105 -0.016035 -0.003248 0.004944
# 4 0.006490 -0.013747 -0.016035 0.045332 0.011001 -0.002519
# 5 0.018958 0.001786 -0.003248 0.011001 0.080260 -0.049841
# 6 -0.013494 -0.005400 0.004944 -0.002519 -0.049841 0.062909
#
#
# Mechanical properties :
#
#
# Convention : Reuss Voigt Hill
#
# Bulk Modulus (GPa) = 25.18378 48.71311 36.94845
# Shear Modulus (GPa) = 16.39756 31.21751 23.80754
#
# Velocity S-wave (km/s) = 2.69821 3.72293 3.25120
# Velocity P-wave (km/s) = 4.57039 6.33312 5.52254
#
# Compressibility (1/GPa) = 0.03970809
#
# Stress axis : x y z
#
# Youngs Moduli (GPa) = 54.25544 35.82917 39.83207
#
# Poissons Ratio (x) = 0.14950 0.23436
# Poissons Ratio (y) = 0.22638 0.23156
# Poissons Ratio (z) = 0.31922 0.20829
#
# Static dielectric constant tensor:
#      x y z
#    x 4.195280 -0.198360 -0.180160 
#    y -0.198360 3.910930 0.520670 
#    z -0.180160 0.520670 3.991770 
# 
# 
# High freq. dielectric constant tensor:
#      x y z
#    x 1.900220 -0.005700 -0.005440 
#    y -0.005700 1.879020 0.038210 
#    z -0.005440 0.038210 1.873720 
# 
# From -- ./inp_files/218304.got.cif
#   From: 2010.06.25/outbox.cif.g09.slc.cpg/sg2_110_cif.got.tgz:218304.got - 2010.06.27 13:26:56.
