data_PCOD8022718
_publ_section_title
;
Structure prediction by ZEFSAII (Michael W. Deem and Ramdas Pophale) SiO2 
 PCOD8022718
Probable space group: P -1
;
_chemical_formula_sum "Si O2"
_cell_formula_units_Z 16
_cell_length_a 9.834310
_cell_length_b 10.664557
_cell_length_c 11.057893
_cell_angle_alpha 52.961548
_cell_angle_beta 131.647155
_cell_angle_gamma 107.233682
_cell_volume 681.159243
_symmetry_space_group_name_H-M "P -1"
_symmetry_group_IT_number 2
_symmetry_cell_setting 'triclinic'
loop_
_space_group_symop_operation_xyz
x,y,z
-x,-y,-z
loop_
_atom_site_type_symbol
_atom_site_label
_atom_site_fract_x
_atom_site_fract_y
_atom_site_fract_z
Si Si1 0.863481 0.414263 0.297895
Si Si2 0.369002 0.801948 0.022608
Si Si3 0.607949 0.821677 0.572269
Si Si4 0.805450 0.492384 0.943400
Si Si5 0.237870 0.009927 0.239076
Si Si6 0.798845 0.072321 0.389588
Si Si7 0.225977 0.368338 0.661484
Si Si8 0.130388 0.061037 0.881583
O O1 0.820959 0.233196 0.381891
O O2 0.749311 0.505552 0.291017
O O3 0.080784 0.434449 0.430316
O O4 0.797745 0.498290 0.082134
O O5 0.236712 0.674074 0.031928
O O6 0.576736 0.714668 0.225471
O O7 0.350084 0.880285 0.833219
O O8 0.304580 0.940207 0.001521
O O9 0.670104 0.632732 0.712166
O O10 0.388863 0.849650 0.398180
O O11 0.645439 0.864352 0.709057
O O12 0.720754 0.933790 0.495853
O O13 0.000000 0.500000 0.000000
O O14 0.147024 0.079526 0.022738
O O15 0.068465 0.986218 0.241552
O O16 0.000000 0.000000 0.500000
O O17 0.117536 0.237055 0.725458
#
# Coordination Sequence:
#
# PCOD8022718 Si02
#       8
#     2   2   2   2   2   2   2   2
#     4  10  24  42  64  93 127 165 209 258 315 368
#     4  11  25  41  65  95 125 162 213 264 312 373
#     4  11  22  40  65  93 122 166 213 253 307 379
#     4  11  24  42  62  91 130 167 204 255 315 376
#     4  10  23  38  63  92 125 163 208 258 312 381
#     4  11  22  41  67  95 127 166 209 258 311 372
#     4  11  23  41  67  92 123 165 213 265 312 370
#     4  11  22  42  63  92 128 166 206 259 323 375
#
# _framework density 23.489367999999999
#
# number of rings (size 3 to 8) (size 9 to 14) (size 15 to 20)
#    0.000    1.250    0.000    6.375    0.000   10.000 
#    0.000    1.250    0.000    0.000    0.000    0.000 
#    0.000    0.000    0.000    0.000    0.000    0.000 
#
# Total GULP energy -198303.923856 kJ/mol
# GULP energy per Si atom -12393.995241 kJ/mol
# Density = 2.343590 g / cm^3
# Si number density = 23.489368 Si / 1000 Ang^3
#
#
#
# Elastic Constant Matrix: (Units=GPa)
#
#
# Indices 1 2 3 4 5 6 
#
# 1 81.5255 17.9796 27.2965 -6.4822 12.9634 -3.8304
# 2 17.9796 80.0833 3.2647 -14.8483 -14.3004 -1.6619
# 3 27.2965 3.2647 67.8863 -14.4118 12.0645 19.6768
# 4 -6.4822 -14.8483 -14.4118 38.2249 3.5798 8.3494
# 5 12.9634 -14.3004 12.0645 3.5798 45.1118 -5.1574
# 6 -3.8304 -1.6619 19.6768 8.3494 -5.1574 22.2184
#
#
#
# Elastic Compliance Matrix: (Units=1/GPa)
#
#
# Indices 1 2 3 4 5 6 
#
# 1 0.018244 -0.004670 -0.013984 -0.007916 -0.000287 0.018088
# 2 -0.004670 0.015382 0.002705 0.006525 0.004584 -0.003438
# 3 -0.013984 0.002705 0.047058 0.031001 -0.016968 -0.059471
# 4 -0.007916 0.006525 0.031001 0.051451 -0.013847 -0.050880
# 5 -0.000287 0.004584 -0.016968 -0.013847 0.032550 0.028080
# 6 0.018088 -0.003438 -0.059471 -0.050880 0.028080 0.126175
#
#
# Mechanical properties :
#
#
# Convention : Reuss Voigt Hill
#
# Bulk Modulus (GPa) = 20.49737 36.28632 28.39184
# Shear Modulus (GPa) = 14.74844 33.17464 23.96154
#
# Velocity S-wave (km/s) = 2.50847 3.76217 3.19737
# Velocity P-wave (km/s) = 4.13945 5.86118 5.07388
#
# Compressibility (1/GPa) = 0.04878675
#
# Stress axis : x y z
#
# Youngs Moduli (GPa) = 54.81244 65.01089 21.25057
#
# Poissons Ratio (x) = 0.30357 0.29716
# Poissons Ratio (y) = 0.25595 -0.05748
# Poissons Ratio (z) = 0.76648 -0.17584
#
# Static dielectric constant tensor:
#      x y z
#    x 4.290160 -0.222100 0.396210 
#    y -0.222100 4.624250 -0.478430 
#    z 0.396210 -0.478430 5.306930 
# 
# 
# High freq. dielectric constant tensor:
#      x y z
#    x 1.919790 0.001490 0.007240 
#    y 0.001490 1.929170 0.002230 
#    z 0.007240 0.002230 1.946740 
# 
# From -- ./inp_files/392226.got.cif
#   From: 2010.06.25/outbox.cif.g09.slc.cpg/sg2_197_cif.got.tgz:392226.got - 2010.06.27 13:26:56.
