data_PCOD8022942
_publ_section_title
;
Structure prediction by ZEFSAII (Michael W. Deem and Ramdas Pophale) SiO2 
 PCOD8022942
Probable space group: P -1
;
_chemical_formula_sum "Si O2"
_cell_formula_units_Z 16
_cell_length_a 7.766834
_cell_length_b 17.461535
_cell_length_c 8.513345
_cell_angle_alpha 128.180342
_cell_angle_beta 50.979952
_cell_angle_gamma 123.794106
_cell_volume 678.239970
_symmetry_space_group_name_H-M "P -1"
_symmetry_group_IT_number 2
_symmetry_cell_setting 'triclinic'
loop_
_space_group_symop_operation_xyz
x,y,z
-x,-y,-z
loop_
_atom_site_type_symbol
_atom_site_label
_atom_site_fract_x
_atom_site_fract_y
_atom_site_fract_z
Si Si1 0.937721 0.989745 0.339339
Si Si2 0.277961 0.310864 0.371700
Si Si3 0.878435 0.585633 0.135131
Si Si4 0.511556 0.026703 0.285541
Si Si5 0.612667 0.869893 0.817635
Si Si6 0.052254 0.828106 0.852637
Si Si7 0.638993 0.511408 0.668847
Si Si8 0.923912 0.362061 0.232309
O O1 0.665471 0.985613 0.481763
O O2 0.000000 0.000000 0.500000
O O3 0.107486 0.084176 0.271109
O O4 0.962766 0.885983 0.118103
O O5 0.104073 0.337400 0.631509
O O6 0.448654 0.252474 0.283336
O O7 0.411213 0.416397 0.349494
O O8 0.155064 0.232217 0.210578
O O9 0.611750 0.536957 0.172670
O O10 0.020465 0.653264 0.000029
O O11 0.000000 0.500000 0.000000
O O12 0.462765 0.097945 0.264607
O O13 0.771196 0.091040 0.260994
O O14 0.494806 0.915775 0.085473
O O15 0.164971 0.746824 0.769838
O O16 0.831048 0.572924 0.755208
O O17 0.727716 0.420523 0.430761
#
# Coordination Sequence:
#
# PCOD8022942 Si02
#       8
#     2   2   2   2   2   2   2   2
#     4   9  19  38  61  89 122 154 204 251 301 368
#     4  11  24  43  59  93 130 162 202 265 315 366
#     4  12  25  42  64  94 129 166 213 262 316 373
#     4   9  19  39  63  89 118 163 203 249 309 373
#     4   9  20  38  60  87 123 158 202 255 306 368
#     4  10  23  40  62  92 127 159 207 255 309 372
#     4  10  23  46  64  89 131 166 208 264 317 373
#     4  10  23  42  67  93 123 169 213 257 313 376
#
# _framework density 23.590471000000001
#
# number of rings (size 3 to 8) (size 9 to 14) (size 15 to 20)
#    0.000    2.000    1.250    1.500    5.250    2.000 
#    6.750    1.250    0.000    0.000    0.000    0.000 
#    0.000    0.000    0.000    0.000    0.000    0.000 
#
# Total GULP energy -198300.264288 kJ/mol
# GULP energy per Si atom -12393.766518 kJ/mol
# Density = 2.353678 g / cm^3
# Si number density = 23.590471 Si / 1000 Ang^3
#
#
#
# Elastic Constant Matrix: (Units=GPa)
#
#
# Indices 1 2 3 4 5 6 
#
# 1 32.4109 -13.3768 3.3561 14.3467 -16.3374 2.4814
# 2 -13.3768 67.8347 29.6248 11.1028 -7.4603 -3.5909
# 3 3.3561 29.6248 127.2659 11.0781 -10.0037 5.2792
# 4 14.3467 11.1028 11.0781 42.4389 6.5002 -9.5341
# 5 -16.3374 -7.4603 -10.0037 6.5002 39.9164 3.9650
# 6 2.4814 -3.5909 5.2792 -9.5341 3.9650 37.2224
#
#
#
# Elastic Compliance Matrix: (Units=1/GPa)
#
#
# Indices 1 2 3 4 5 6 
#
# 1 0.107018 0.036707 0.000022 -0.061323 0.063240 -0.026040
# 2 0.036707 0.029852 -0.003483 -0.024887 0.024584 -0.008067
# 3 0.000022 -0.003483 0.009160 -0.002399 0.002292 -0.002495
# 4 -0.061323 -0.024887 -0.002399 0.063114 -0.042891 0.022762
# 5 0.063240 0.024584 0.002292 -0.042891 0.065085 -0.020088
# 6 -0.026040 -0.008067 -0.002495 0.022762 -0.020088 0.036147
#
#
# Mechanical properties :
#
#
# Convention : Reuss Voigt Hill
#
# Bulk Modulus (GPa) = 4.70539 29.63554 17.17046
# Shear Modulus (GPa) = 15.88689 37.77604 26.83146
#
# Velocity S-wave (km/s) = 2.59790 4.00600 3.37617
# Velocity P-wave (km/s) = 3.31628 5.82985 4.74262
#
# Compressibility (1/GPa) = 0.21252229
#
# Stress axis : x y z
#
# Youngs Moduli (GPa) = 9.34425 33.49887 109.16561
#
# Poissons Ratio (x) = -1.22966 -0.00243
# Poissons Ratio (y) = -0.34300 0.38027
# Poissons Ratio (z) = -0.00021 0.11669
#
# Static dielectric constant tensor:
#      x y z
#    x 4.519230 0.182740 -0.265910 
#    y 0.182740 4.557120 -0.104650 
#    z -0.265910 -0.104650 4.311380 
# 
# 
# High freq. dielectric constant tensor:
#      x y z
#    x 1.946640 0.001970 -0.003930 
#    y 0.001970 1.936870 0.007260 
#    z -0.003930 0.007260 1.930590 
# 
# From -- ./inp_files/206171.got.cif
#   From: 2010.06.25/outbox.cif.g09.slc.cpg/sg2_104_cif.got.tgz:206171.got - 2010.06.27 13:26:56.
