data_PCOD8022457
_publ_section_title
;
Structure prediction by ZEFSAII (Michael W. Deem and Ramdas Pophale) SiO2 
 PCOD8022457
Probable space group: P -1
;
_chemical_formula_sum "Si O2"
_cell_formula_units_Z 16
_cell_length_a 8.778913
_cell_length_b 6.671343
_cell_length_c 18.782821
_cell_angle_alpha 61.159355
_cell_angle_beta 99.600175
_cell_angle_gamma 128.329942
_cell_volume 741.743802
_symmetry_space_group_name_H-M "P -1"
_symmetry_group_IT_number 2
_symmetry_cell_setting 'triclinic'
loop_
_space_group_symop_operation_xyz
x,y,z
-x,-y,-z
loop_
_atom_site_type_symbol
_atom_site_label
_atom_site_fract_x
_atom_site_fract_y
_atom_site_fract_z
Si Si1 0.203707 0.803342 0.481665
Si Si2 0.521745 0.323199 0.821683
Si Si3 0.202461 0.308871 0.348452
Si Si4 0.830807 0.658248 0.191082
Si Si5 0.569323 0.328292 0.567759
Si Si6 0.789617 0.354089 0.094664
Si Si7 0.863423 0.664837 0.903687
Si Si8 0.820044 0.207839 0.351134
O O1 0.377599 0.795758 0.470684
O O2 0.213028 0.857946 0.556329
O O3 0.000000 0.500000 0.500000
O O4 0.221693 0.054449 0.395747
O O5 0.650656 0.453255 0.738684
O O6 0.359261 0.370528 0.798643
O O7 0.664622 0.487678 0.872194
O O8 0.409915 0.976856 0.875738
O O9 0.244227 0.460498 0.402641
O O10 0.979361 0.179865 0.335364
O O11 0.781075 0.484871 0.144136
O O12 0.871909 0.514698 0.281740
O O13 0.030872 0.990886 0.144457
O O14 0.500000 0.500000 0.500000
O O15 0.393995 0.064061 0.649647
O O16 0.985487 0.380183 0.108813
O O17 0.801982 0.546779 0.999065
#
# Coordination Sequence:
#
# PCOD8022457 Si02
#       8
#     2   2   2   2   2   2   2   2
#     4  12  25  44  67  94 129 173 222 270 324 387
#     4  11  25  41  66  99 133 171 218 272 327 390
#     4  12  26  45  64  94 131 172 222 270 324 384
#     4  11  25  41  65 101 132 170 218 271 328 392
#     4  12  25  43  67  93 125 173 220 268 327 383
#     4  10  22  46  68  98 133 170 219 263 332 396
#     4  10  23  43  71  97 132 174 212 270 327 399
#     4  12  25  44  66  93 132 173 218 273 325 382
#
# _framework density 21.570789999999999
#
# number of rings (size 3 to 8) (size 9 to 14) (size 15 to 20)
#    0.000    0.750    2.500    4.500    3.500    4.500 
#    0.000    0.000    0.000    0.000    0.000    0.000 
#    0.000    0.000    0.000    0.000    0.000    0.000 
#
# Total GULP energy -198466.286524 kJ/mol
# GULP energy per Si atom -12404.142908 kJ/mol
# Density = 2.152169 g / cm^3
# Si number density = 21.570790 Si / 1000 Ang^3
#
#
#
# Elastic Constant Matrix: (Units=GPa)
#
#
# Indices 1 2 3 4 5 6 
#
# 1 125.5672 37.4253 40.7390 -16.7479 -7.0028 -3.1119
# 2 37.4253 100.5251 23.5126 -19.0560 -1.3637 6.6355
# 3 40.7390 23.5126 109.6961 -30.5248 -0.5107 0.2926
# 4 -16.7479 -19.0560 -30.5248 44.0785 -0.9215 -0.5453
# 5 -7.0028 -1.3637 -0.5107 -0.9215 36.8418 -1.1399
# 6 -3.1119 6.6355 0.2926 -0.5453 -1.1399 37.6530
#
#
#
# Elastic Compliance Matrix: (Units=1/GPa)
#
#
# Indices 1 2 3 4 5 6 
#
# 1 0.010019 -0.003016 -0.002921 0.000536 0.001810 0.001445
# 2 -0.003016 0.012027 -0.000412 0.003737 -0.000112 -0.002315
# 3 -0.002921 -0.000412 0.012298 0.007222 -0.000224 -0.000166
# 4 0.000536 0.003737 0.007222 0.029527 0.001072 -0.000210
# 5 0.001810 -0.000112 -0.000224 0.001072 0.027538 0.001020
# 6 0.001445 -0.002315 -0.000166 -0.000210 0.001020 0.027115
#
#
# Mechanical properties :
#
#
# Convention : Reuss Voigt Hill
#
# Bulk Modulus (GPa) = 46.19814 59.90467 53.05140
# Shear Modulus (GPa) = 36.11767 39.32209 37.71988
#
# Velocity S-wave (km/s) = 4.09636 4.27421 4.18623
# Velocity P-wave (km/s) = 6.62095 7.22427 6.92918
#
# Compressibility (1/GPa) = 0.02164589
#
# Stress axis : x y z
#
# Youngs Moduli (GPa) = 99.81471 83.14827 81.31333
#
# Poissons Ratio (x) = 0.25077 0.23748
# Poissons Ratio (y) = 0.30104 0.03352
# Poissons Ratio (z) = 0.29151 0.03428
#
# Static dielectric constant tensor:
#      x y z
#    x -5.032370 -13.214590 -4.801300 
#    y -13.214590 -15.281130 -7.201050 
#    z -4.801300 -7.201050 1.475750 
# 
# 
# High freq. dielectric constant tensor:
#      x y z
#    x 1.857690 0.008750 -0.005050 
#    y 0.008750 1.859750 -0.009650 
#    z -0.005050 -0.009650 1.854290 
# 
# From -- ./inp_files/116696.got.cif
#   From: 2010.06.25/outbox.cif.g09.slc.cpg/sg2_59_cif.got.tgz:116696.got - 2010.06.27 13:26:56.
