data_PCOD8022906
_publ_section_title
;
Structure prediction by ZEFSAII (Michael W. Deem and Ramdas Pophale) SiO2 
 PCOD8022906
Probable space group: P -1
;
_chemical_formula_sum "Si O2"
_cell_formula_units_Z 14
_cell_length_a 9.281119
_cell_length_b 8.262633
_cell_length_c 16.000542
_cell_angle_alpha 82.738203
_cell_angle_beta 141.723213
_cell_angle_gamma 115.128964
_cell_volume 639.582662
_symmetry_space_group_name_H-M "P -1"
_symmetry_group_IT_number 2
_symmetry_cell_setting 'triclinic'
loop_
_space_group_symop_operation_xyz
x,y,z
-x,-y,-z
loop_
_atom_site_type_symbol
_atom_site_label
_atom_site_fract_x
_atom_site_fract_y
_atom_site_fract_z
Si Si1 0.817441 0.614629 0.649884
Si Si2 0.875298 0.756080 0.850922
Si Si3 0.322297 0.991167 0.308718
Si Si4 0.393587 0.850104 0.187861
Si Si5 0.880765 0.295335 0.618866
Si Si6 0.962220 0.149017 0.416095
Si Si7 0.645554 0.590911 0.297836
O O1 0.500000 0.500000 0.500000
O O2 0.886231 0.659336 0.775749
O O3 0.928489 0.484042 0.674920
O O4 0.935621 0.812420 0.636441
O O5 0.887135 0.952870 0.826945
O O6 0.600703 0.626816 0.788950
O O7 0.134640 0.798142 0.018801
O O8 0.618436 0.190797 0.443708
O O9 0.334156 0.842238 0.260341
O O10 0.184161 0.876043 0.337005
O O11 0.499245 0.711823 0.220989
O O12 0.640106 0.071129 0.269234
O O13 0.173416 0.367295 0.704907
O O14 0.143766 0.354024 0.531715
O O15 0.000000 0.000000 0.500000
#
# Coordination Sequence:
#
# PCOD8022906 Si02
#       7
#     2   2   2   2   2   2   2
#     4  12  24  44  69 100 133 174 225 275 330 396
#     4  12  26  44  70  97 138 179 219 271 341 397
#     4  11  24  42  70  98 137 171 225 277 333 392
#     4  11  25  44  68  98 139 179 217 271 342 398
#     4  11  25  41  71 104 129 172 232 281 320 385
#     4  10  23  39  72  97 129 166 229 269 325 387
#     4  11  23  44  70  99 132 177 226 273 325 394
#
# _framework density 21.889275000000001
#
# number of rings (size 3 to 8) (size 9 to 14) (size 15 to 20)
#    0.000    0.857    4.286    1.714    8.000    1.714 
#    0.000    1.429    0.000    0.000    0.000    0.000 
#    0.000    0.000    0.000    0.000    0.000    0.000 
#
# Total GULP energy -173509.987939 kJ/mol
# GULP energy per Si atom -12393.570567 kJ/mol
# Density = 2.183945 g / cm^3
# Si number density = 21.889275 Si / 1000 Ang^3
#
#
#
# Elastic Constant Matrix: (Units=GPa)
#
#
# Indices 1 2 3 4 5 6 
#
# 1 153.8819 46.7238 40.6983 1.9084 2.8927 7.0510
# 2 46.7238 81.7498 29.6093 -0.1529 8.6452 12.1143
# 3 40.6983 29.6093 112.6582 17.3648 2.5680 25.4142
# 4 1.9084 -0.1529 17.3648 20.6015 2.1839 5.0108
# 5 2.8927 8.6452 2.5680 2.1839 26.0762 2.0066
# 6 7.0510 12.1143 25.4142 5.0108 2.0066 45.3701
#
#
#
# Elastic Compliance Matrix: (Units=1/GPa)
#
#
# Indices 1 2 3 4 5 6 
#
# 1 0.008282 -0.004109 -0.002269 0.000824 0.000523 0.000967
# 2 -0.004109 0.016477 -0.002802 0.003969 -0.004878 -0.002414
# 3 -0.002269 -0.002802 0.013073 -0.009682 0.001104 -0.005202
# 4 0.000824 0.003969 -0.009682 0.057662 -0.005136 -0.001906
# 5 0.000523 -0.004878 0.001104 -0.005136 0.040277 -0.000612
# 6 0.000967 -0.002414 -0.005202 -0.001906 -0.000612 0.025686
#
#
# Mechanical properties :
#
#
# Convention : Reuss Voigt Hill
#
# Bulk Modulus (GPa) = 51.35672 64.70586 58.03129
# Shear Modulus (GPa) = 26.83741 33.82679 30.33210
#
# Velocity S-wave (km/s) = 3.50530 3.93537 3.72655
# Velocity P-wave (km/s) = 6.31632 7.09043 6.71454
#
# Compressibility (1/GPa) = 0.01947165
#
# Stress axis : x y z
#
# Youngs Moduli (GPa) = 120.74712 60.69203 76.49253
#
# Poissons Ratio (x) = 0.24936 0.17357
# Poissons Ratio (y) = 0.49611 0.21435
# Poissons Ratio (z) = 0.27398 0.17007
#
# Static dielectric constant tensor:
#      x y z
#    x 6.149620 -0.387420 -0.043640 
#    y -0.387420 4.268840 0.384360 
#    z -0.043640 0.384360 3.702830 
# 
# 
# High freq. dielectric constant tensor:
#      x y z
#    x 1.870470 0.009340 0.002200 
#    y 0.009340 1.864500 0.000890 
#    z 0.002200 0.000890 1.845710 
# 
# From -- ./inp_files/173199.got.cif
#   From: 2010.06.25/outbox.cif.g09.slc.cpg/sg2_87_cif.got.tgz:173199.got - 2010.06.27 13:26:56.
