data_PCOD8022766
_publ_section_title
;
Structure prediction by ZEFSAII (Michael W. Deem and Ramdas Pophale) SiO2 
 PCOD8022766
Probable space group: P -1
;
_chemical_formula_sum "Si O2"
_cell_formula_units_Z 16
_cell_length_a 10.487477
_cell_length_b 14.951150
_cell_length_c 12.099274
_cell_angle_alpha 150.297747
_cell_angle_beta 46.790712
_cell_angle_gamma 120.189670
_cell_volume 662.622220
_symmetry_space_group_name_H-M "P -1"
_symmetry_group_IT_number 2
_symmetry_cell_setting 'triclinic'
loop_
_space_group_symop_operation_xyz
x,y,z
-x,-y,-z
loop_
_atom_site_type_symbol
_atom_site_label
_atom_site_fract_x
_atom_site_fract_y
_atom_site_fract_z
Si Si1 0.513462 0.786369 0.137728
Si Si2 0.893352 0.843033 0.493580
Si Si3 0.629524 0.633505 0.509479
Si Si4 0.793770 0.607115 0.612865
Si Si5 0.294598 0.757030 0.696178
Si Si6 0.251474 0.764789 0.080606
Si Si7 0.000491 0.874226 0.703925
Si Si8 0.603531 0.167046 0.509559
O O1 0.356985 0.739681 0.106461
O O2 0.490748 0.716949 0.202381
O O3 0.499914 0.006593 0.379143
O O4 0.707247 0.680930 0.860785
O O5 0.785085 0.686109 0.401518
O O6 0.005344 0.865651 0.560360
O O7 0.039024 0.775094 0.237033
O O8 0.746951 0.039245 0.767102
O O9 0.650764 0.684778 0.680740
O O10 0.434790 0.745650 0.700798
O O11 0.656535 0.409760 0.240945
O O12 0.834075 0.382477 0.353457
O O13 0.973538 0.679223 0.562612
O O14 0.408999 0.707539 0.459640
O O15 0.169839 0.964219 0.980391
O O16 0.183755 0.917259 0.682017
#
# Coordination Sequence:
#
# PCOD8022766 Si02
#       8
#     2   2   2   2   2   2   2   2
#     4  11  23  44  71  93 131 176 216 275 321 383
#     4  10  23  38  70  97 130 178 209 264 343 382
#     4  11  24  41  67 101 136 161 219 277 323 395
#     4  11  25  42  69 100 130 170 218 273 332 383
#     4  12  24  40  70  96 129 181 217 265 332 386
#     4  11  21  43  67  98 135 168 218 269 328 393
#     4  11  24  45  65  97 135 174 215 280 317 389
#     4  11  25  46  67  94 135 175 227 267 318 390
#
# _framework density 24.146488999999999
#
# number of rings (size 3 to 8) (size 9 to 14) (size 15 to 20)
#    0.000    1.000    3.750    2.625    1.750    2.000 
#    0.000    0.000    0.000    0.000    0.000    0.000 
#    0.000    0.000    0.000    0.000    0.000    0.000 
#
# Total GULP energy -198402.200328 kJ/mol
# GULP energy per Si atom -12400.137520 kJ/mol
# Density = 2.409153 g / cm^3
# Si number density = 24.146489 Si / 1000 Ang^3
#
#
#
# Elastic Constant Matrix: (Units=GPa)
#
#
# Indices 1 2 3 4 5 6 
#
# 1 62.1925 10.2947 20.1245 -4.9903 8.3766 -3.9299
# 2 10.2947 107.0053 0.0842 -4.3931 12.3715 -6.2107
# 3 20.1245 0.0842 56.9063 -13.5519 14.4212 -3.9777
# 4 -4.9903 -4.3931 -13.5519 39.6157 -1.2738 5.9953
# 5 8.3766 12.3715 14.4212 -1.2738 25.6654 -0.6407
# 6 -3.9299 -6.2107 -3.9777 5.9953 -0.6407 28.8185
#
#
#
# Elastic Compliance Matrix: (Units=1/GPa)
#
#
# Indices 1 2 3 4 5 6 
#
# 1 0.018612 -0.001488 -0.006028 -0.000153 -0.001944 0.001374
# 2 -0.001488 0.010316 0.002408 0.001300 -0.005727 0.001955
# 3 -0.006028 0.002408 0.024770 0.007376 -0.012713 0.001299
# 4 -0.000153 0.001300 0.007376 0.028496 -0.003425 -0.004727
# 5 -0.001944 -0.005727 -0.012713 -0.003425 0.049295 -0.001445
# 6 0.001374 0.001955 0.001299 -0.004727 -0.001445 0.036439
#
#
# Mechanical properties :
#
#
# Convention : Reuss Voigt Hill
#
# Bulk Modulus (GPa) = 22.99695 31.90122 27.44909
# Shear Modulus (GPa) = 25.95569 31.85999 28.90784
#
# Velocity S-wave (km/s) = 3.28216 3.63636 3.46379
# Velocity P-wave (km/s) = 4.88959 5.55617 5.23350
#
# Compressibility (1/GPa) = 0.04348403
#
# Stress axis : x y z
#
# Youngs Moduli (GPa) = 53.72823 96.94142 40.37161
#
# Poissons Ratio (x) = 0.14422 0.24334
# Poissons Ratio (y) = 0.07993 -0.09723
# Poissons Ratio (z) = 0.32385 -0.23348
#
# Static dielectric constant tensor:
#      x y z
#    x 4.187210 -0.026050 0.300300 
#    y -0.026050 4.649740 -0.131540 
#    z 0.300300 -0.131540 4.079970 
# 
# 
# High freq. dielectric constant tensor:
#      x y z
#    x 1.948600 0.002720 0.020870 
#    y 0.002720 1.982380 -0.011120 
#    z 0.020870 -0.011120 1.937020 
# 
# From -- ./inp_files/433436.got.cif
#   From: 2010.06.25/outbox.cif.g09.slc.cpg/sg2_217_cif.got.tgz:433436.got - 2010.06.27 13:26:56.
