data_PCOD8022163
_publ_section_title
;
Structure prediction by ZEFSAII (Michael W. Deem and Ramdas Pophale) SiO2 
 PCOD8022163
Probable space group: P -1
;
_chemical_formula_sum "Si O2"
_cell_formula_units_Z 16
_cell_length_a 8.297768
_cell_length_b 19.471873
_cell_length_c 12.132275
_cell_angle_alpha 139.725535
_cell_angle_beta 50.967589
_cell_angle_gamma 146.114236
_cell_volume 706.479313
_symmetry_space_group_name_H-M "P -1"
_symmetry_group_IT_number 2
_symmetry_cell_setting 'triclinic'
loop_
_space_group_symop_operation_xyz
x,y,z
-x,-y,-z
loop_
_atom_site_type_symbol
_atom_site_label
_atom_site_fract_x
_atom_site_fract_y
_atom_site_fract_z
Si Si1 0.948555 0.732450 0.644309
Si Si2 0.326392 0.806317 0.374869
Si Si3 0.170507 0.514069 0.121328
Si Si4 0.436630 0.994847 0.891945
Si Si5 0.785330 0.084375 0.639386
Si Si6 0.607903 0.615818 0.243925
Si Si7 0.736198 0.455389 0.497609
Si Si8 0.479173 0.738433 0.833335
O O1 0.836600 0.571852 0.501354
O O2 0.695147 0.725356 0.766207
O O3 0.105753 0.795692 0.535178
O O4 0.163222 0.826911 0.770300
O O5 0.242661 0.653813 0.209135
O O6 0.321942 0.852275 0.309642
O O7 0.643634 0.931943 0.450640
O O8 0.344772 0.567149 0.225348
O O9 0.828776 0.375886 0.112025
O O10 0.283379 0.461574 0.929508
O O11 0.696846 0.057305 0.773313
O O12 0.368259 0.093616 0.017152
O O13 0.500000 0.000000 0.000000
O O14 0.133092 0.205444 0.643677
O O15 0.482401 0.557359 0.347913
O O16 0.572142 0.299272 0.320381
O O17 0.000000 0.500000 0.500000
#
# Coordination Sequence:
#
# PCOD8022163 Si02
#       8
#     2   2   2   2   2   2   2   2
#     4  11  24  41  70 102 137 181 229 283 345 404
#     4  10  22  45  67 102 135 178 221 284 338 413
#     4  11  24  41  68  97 140 174 231 279 339 403
#     4  11  25  45  69  98 139 182 229 286 343 408
#     4  10  23  43  70  95 141 174 227 277 340 408
#     4  11  24  42  64 101 136 180 226 284 334 404
#     4  12  23  41  69 101 141 180 228 280 339 408
#     4  12  23  43  67 102 137 178 232 280 342 411
#
# _framework density 22.647514000000001
#
# number of rings (size 3 to 8) (size 9 to 14) (size 15 to 20)
#    0.000    1.000    3.750    2.250    1.750    3.000 
#    0.000    6.250    0.000    0.000    0.000    0.000 
#    0.000    0.000    0.000    0.000    0.000    0.000 
#
# Total GULP energy -198334.821440 kJ/mol
# GULP energy per Si atom -12395.926340 kJ/mol
# Density = 2.259597 g / cm^3
# Si number density = 22.647514 Si / 1000 Ang^3
#
#
#
# Elastic Constant Matrix: (Units=GPa)
#
#
# Indices 1 2 3 4 5 6 
#
# 1 64.6208 25.0224 1.9159 -12.6552 0.6787 1.3367
# 2 25.0224 105.7187 27.2464 -8.2372 3.3229 2.9265
# 3 1.9159 27.2464 60.7561 -10.8261 6.5746 -2.1254
# 4 -12.6552 -8.2372 -10.8261 34.7787 -7.4906 1.7461
# 5 0.6787 3.3229 6.5746 -7.4906 41.9905 0.3595
# 6 1.3367 2.9265 -2.1254 1.7461 0.3595 37.6120
#
#
#
# Elastic Compliance Matrix: (Units=1/GPa)
#
#
# Indices 1 2 3 4 5 6 
#
# 1 0.018447 -0.004511 0.002514 0.006635 0.000853 -0.000479
# 2 -0.004511 0.011889 -0.005293 -0.000445 -0.000110 -0.001042
# 3 0.002514 -0.005293 0.019957 0.005427 -0.001789 0.001215
# 4 0.006635 -0.000445 0.005427 0.033936 0.005145 -0.001519
# 5 0.000853 -0.000110 -0.001789 0.005145 0.025013 -0.000601
# 6 -0.000479 -0.001042 0.001215 -0.001519 -0.000601 0.026830
#
#
# Mechanical properties :
#
#
# Convention : Reuss Voigt Hill
#
# Bulk Modulus (GPa) = 28.00055 37.71831 32.85943
# Shear Modulus (GPa) = 30.75874 34.67029 32.71452
#
# Velocity S-wave (km/s) = 3.68931 3.91687 3.80479
# Velocity P-wave (km/s) = 5.52616 6.09479 5.81743
#
# Compressibility (1/GPa) = 0.03571359
#
# Stress axis : x y z
#
# Youngs Moduli (GPa) = 54.20846 84.11454 50.10819
#
# Poissons Ratio (x) = 0.37943 -0.12599
# Poissons Ratio (y) = 0.24453 0.26523
# Poissons Ratio (z) = -0.13630 0.44522
#
# Static dielectric constant tensor:
#      x y z
#    x 3.758080 0.018850 0.062660 
#    y 0.018850 4.295300 0.135860 
#    z 0.062660 0.135860 4.200980 
# 
# 
# High freq. dielectric constant tensor:
#      x y z
#    x 1.879620 0.005030 0.010410 
#    y 0.005030 1.901230 0.008510 
#    z 0.010410 0.008510 1.906480 
# 
# From -- ./inp_files/405561.got.cif
#   From: 2010.06.25/outbox.cif.g09.slc.cpg/sg2_203_cif.got.tgz:405561.got - 2010.06.27 13:26:56.
