data_PCOD8022809
_publ_section_title
;
Structure prediction by ZEFSAII (Michael W. Deem and Ramdas Pophale) SiO2 
 PCOD8022809
Probable space group: P -1
;
_chemical_formula_sum "Si O2"
_cell_formula_units_Z 16
_cell_length_a 11.974329
_cell_length_b 14.266606
_cell_length_c 10.690189
_cell_angle_alpha 148.368112
_cell_angle_beta 62.922264
_cell_angle_gamma 126.286629
_cell_volume 766.900696
_symmetry_space_group_name_H-M "P -1"
_symmetry_group_IT_number 2
_symmetry_cell_setting 'triclinic'
loop_
_space_group_symop_operation_xyz
x,y,z
-x,-y,-z
loop_
_atom_site_type_symbol
_atom_site_label
_atom_site_fract_x
_atom_site_fract_y
_atom_site_fract_z
Si Si1 0.680370 0.776091 0.750269
Si Si2 0.414874 0.460374 0.873059
Si Si3 0.902860 0.710847 0.137538
Si Si4 0.155234 0.719174 0.380533
Si Si5 0.335477 0.879496 0.718211
Si Si6 0.562768 0.373425 0.481976
Si Si7 0.578430 0.132878 0.725914
Si Si8 0.949939 0.868414 0.564868
O O1 0.658627 0.603330 0.663811
O O2 0.535594 0.733564 0.706645
O O3 0.794698 0.783816 0.601148
O O4 0.730961 0.982120 0.033491
O O5 0.255788 0.324225 0.834566
O O6 0.467719 0.344344 0.619169
O O7 0.500000 0.500000 0.000000
O O8 0.437189 0.664565 0.029640
O O9 0.951501 0.760779 0.312347
O O10 0.923832 0.519627 0.865349
O O11 0.992767 0.895077 0.211376
O O12 0.244431 0.766661 0.516524
O O13 0.257891 0.812902 0.313837
O O14 0.046019 0.813524 0.548412
O O15 0.333034 0.724792 0.649849
O O16 0.500602 0.011360 0.750661
O O17 0.500000 0.000000 0.500000
#
# Coordination Sequence:
#
# PCOD8022809 Si02
#       8
#     2   2   2   2   2   2   2   2
#     4  11  25  44  62  94 131 174 216 252 324 392
#     4  11  20  36  66  94 129 158 208 275 317 365
#     4  10  23  41  61  98 124 167 219 258 321 374
#     4  10  23  39  63  93 128 165 212 268 319 370
#     4  11  23  40  63  95 125 168 216 267 320 374
#     4  11  23  41  65  92 128 168 215 268 317 377
#     4   9  19  35  57  96 127 154 208 267 317 362
#     4  11  24  42  66  90 133 175 210 257 315 399
#
# _framework density 20.863197
#
# number of rings (size 3 to 8) (size 9 to 14) (size 15 to 20)
#    0.000    1.500    2.500    3.000    5.250    2.500 
#    0.000    1.250    0.000    0.000    0.000    0.000 
#    0.000    0.000    0.000    0.000    0.000    0.000 
#
# Total GULP energy -198417.442768 kJ/mol
# GULP energy per Si atom -12401.090173 kJ/mol
# Density = 2.081571 g / cm^3
# Si number density = 20.863197 Si / 1000 Ang^3
#
#
#
# Elastic Constant Matrix: (Units=GPa)
#
#
# Indices 1 2 3 4 5 6 
#
# 1 99.2618 36.6264 25.9145 17.3208 -9.4798 -10.6710
# 2 36.6264 73.0435 27.4015 6.5426 -10.4727 -7.7443
# 3 25.9145 27.4015 109.5930 9.4805 -9.5496 -5.8559
# 4 17.3208 6.5426 9.4805 23.5788 -1.4344 -0.0012
# 5 -9.4798 -10.4727 -9.5496 -1.4344 31.4250 0.7510
# 6 -10.6710 -7.7443 -5.8559 -0.0012 0.7510 26.4396
#
#
#
# Elastic Compliance Matrix: (Units=1/GPa)
#
#
# Indices 1 2 3 4 5 6 
#
# 1 0.014421 -0.005434 -0.000942 -0.008600 0.001766 0.003970
# 2 -0.005434 0.018222 -0.002862 0.000300 0.003520 0.002411
# 3 -0.000942 -0.002862 0.010504 -0.002628 0.001809 0.001057
# 4 -0.008600 0.000300 -0.002628 0.049645 -0.000933 -0.003936
# 5 0.001766 0.003520 0.001809 -0.000933 0.034007 0.001178
# 6 0.003970 0.002411 0.001057 -0.003936 0.001178 0.040331
#
#
# Mechanical properties :
#
#
# Convention : Reuss Voigt Hill
#
# Bulk Modulus (GPa) = 40.52894 51.30925 45.91909
# Shear Modulus (GPa) = 25.79611 29.08574 27.44093
#
# Velocity S-wave (km/s) = 3.52012 3.73784 3.63061
# Velocity P-wave (km/s) = 5.99916 6.57839 6.29544
#
# Compressibility (1/GPa) = 0.02467373
#
# Stress axis : x y z
#
# Youngs Moduli (GPa) = 69.34247 54.87877 95.19976
#
# Poissons Ratio (x) = 0.29819 0.08963
# Poissons Ratio (y) = 0.37678 0.27243
# Poissons Ratio (z) = 0.06529 0.15704
#
# Static dielectric constant tensor:
#      x y z
#    x 3.571330 0.116830 0.014570 
#    y 0.116830 3.046840 0.003630 
#    z 0.014570 0.003630 3.861260 
# 
# 
# High freq. dielectric constant tensor:
#      x y z
#    x 1.804240 -0.003570 -0.002660 
#    y -0.003570 1.807850 0.009200 
#    z -0.002660 0.009200 1.827870 
# 
# From -- ./inp_files/429033.got.cif
#   From: 2010.06.25/outbox.cif.g09.slc.cpg/sg2_215_cif.got.tgz:429033.got - 2010.06.27 13:26:56.
