data_PCOD8022385
_publ_section_title
;
Structure prediction by ZEFSAII (Michael W. Deem and Ramdas Pophale) SiO2 
 PCOD8022385
Probable space group: P -1
;
_chemical_formula_sum "Si O2"
_cell_formula_units_Z 14
_cell_length_a 8.611936
_cell_length_b 15.311210
_cell_length_c 8.553641
_cell_angle_alpha 136.793422
_cell_angle_beta 120.511914
_cell_angle_gamma 83.129592
_cell_volume 602.301531
_symmetry_space_group_name_H-M "P -1"
_symmetry_group_IT_number 2
_symmetry_cell_setting 'triclinic'
loop_
_space_group_symop_operation_xyz
x,y,z
-x,-y,-z
loop_
_atom_site_type_symbol
_atom_site_label
_atom_site_fract_x
_atom_site_fract_y
_atom_site_fract_z
Si Si1 0.267396 0.847250 0.123389
Si Si2 0.701071 0.621501 0.324932
Si Si3 0.716328 0.590037 0.660037
Si Si4 0.660490 0.152414 0.333448
Si Si5 0.977154 0.140864 0.692735
Si Si6 0.413819 0.140219 0.475703
Si Si7 0.108046 0.627419 0.508977
O O1 0.474266 0.844674 0.280603
O O2 0.163124 0.876321 0.255718
O O3 0.292634 0.970562 0.170670
O O4 0.135855 0.696322 0.785014
O O5 0.703211 0.623402 0.515840
O O6 0.722572 0.774533 0.475529
O O7 0.881598 0.594959 0.304442
O O8 0.500000 0.500000 0.000000
O O9 0.500000 0.500000 0.500000
O O10 0.865321 0.515415 0.658362
O O11 0.809324 0.730444 0.996968
O O12 0.565158 0.206140 0.495220
O O13 0.716732 0.264891 0.370142
O O14 0.870034 0.156648 0.501495
O O15 0.500000 0.000000 0.000000
O O16 0.000000 0.000000 0.500000
#
# Coordination Sequence:
#
# PCOD8022385 Si02
#       7
#     2   2   2   2   2   2   2
#     4  10  22  45  74 102 140 189 235 305 355 441
#     4  12  28  45  73 103 144 191 250 305 361 440
#     4  12  29  49  74 105 151 198 243 306 372 440
#     4  11  25  44  72 106 145 186 234 309 359 438
#     4  11  28  45  72 106 149 191 247 298 369 436
#     4  10  23  43  70 104 140 183 240 289 373 422
#     4  12  26  46  74 104 146 187 251 297 375 426
#
# _framework density 23.244171000000001
#
# number of rings (size 3 to 8) (size 9 to 14) (size 15 to 20)
#    0.000    0.857    2.857    2.143   12.000    1.143 
#    0.000    0.000    0.000    0.000    0.000    0.000 
#    0.000    0.000    0.000    0.000    0.000    0.000 
#
# Total GULP energy -173618.755958 kJ/mol
# GULP energy per Si atom -12401.339711 kJ/mol
# Density = 2.319127 g / cm^3
# Si number density = 23.244171 Si / 1000 Ang^3
#
#
#
# Elastic Constant Matrix: (Units=GPa)
#
#
# Indices 1 2 3 4 5 6 
#
# 1 93.8841 43.3926 30.7210 9.9315 8.6068 -18.1598
# 2 43.3926 132.1241 42.3842 12.7259 -4.4674 -16.9050
# 3 30.7210 42.3842 158.4767 4.0893 10.4916 -16.2263
# 4 9.9315 12.7259 4.0893 36.1098 -4.7747 -5.3209
# 5 8.6068 -4.4674 10.4916 -4.7747 40.4517 5.1927
# 6 -18.1598 -16.9050 -16.2263 -5.3209 5.1927 46.3256
#
#
#
# Elastic Compliance Matrix: (Units=1/GPa)
#
#
# Indices 1 2 3 4 5 6 
#
# 1 0.014071 -0.003690 -0.001011 -0.002388 -0.003932 0.003982
# 2 -0.003690 0.009754 -0.001875 -0.001794 0.002005 0.001025
# 3 -0.001011 -0.001875 0.007322 0.000086 -0.002103 0.001730
# 4 -0.002388 -0.001794 0.000086 0.029662 0.003603 0.001442
# 5 -0.003932 0.002005 -0.002103 0.003603 0.027288 -0.004191
# 6 0.003982 0.001025 0.001730 0.001442 -0.004191 0.024763
#
#
# Mechanical properties :
#
#
# Convention : Reuss Voigt Hill
#
# Bulk Modulus (GPa) = 55.57406 68.60896 62.09151
# Shear Modulus (GPa) = 37.87619 42.44322 40.15970
#
# Velocity S-wave (km/s) = 4.04108 4.27778 4.16111
# Velocity P-wave (km/s) = 6.76272 7.34710 7.06096
#
# Compressibility (1/GPa) = 0.01799401
#
# Stress axis : x y z
#
# Youngs Moduli (GPa) = 71.06679 102.52376 136.58329
#
# Poissons Ratio (x) = 0.37836 0.13810
# Poissons Ratio (y) = 0.26227 0.25606
# Poissons Ratio (z) = 0.07186 0.19220
#
# Static dielectric constant tensor:
#      x y z
#    x 4.415000 -0.026360 0.035270 
#    y -0.026360 4.446880 -0.120890 
#    z 0.035270 -0.120890 4.302300 
# 
# 
# High freq. dielectric constant tensor:
#      x y z
#    x 1.920970 0.001140 0.004500 
#    y 0.001140 1.927520 0.001750 
#    z 0.004500 0.001750 1.922030 
# 
# From -- ./inp_files/209575.got.cif
#   From: 2010.06.25/outbox.cif.g09.slc.cpg/sg2_105_cif.got.tgz:209575.got - 2010.06.27 13:26:56.
