data_PCOD8022883
_publ_section_title
;
Structure prediction by ZEFSAII (Michael W. Deem and Ramdas Pophale) SiO2 
 PCOD8022883
Probable space group: P -1
;
_chemical_formula_sum "Si O2"
_cell_formula_units_Z 10
_cell_length_a 10.926822
_cell_length_b 14.461409
_cell_length_c 6.987234
_cell_angle_alpha 122.653070
_cell_angle_beta 67.555517
_cell_angle_gamma 150.262675
_cell_volume 451.058104
_symmetry_space_group_name_H-M "P -1"
_symmetry_group_IT_number 2
_symmetry_cell_setting 'triclinic'
loop_
_space_group_symop_operation_xyz
x,y,z
-x,-y,-z
loop_
_atom_site_type_symbol
_atom_site_label
_atom_site_fract_x
_atom_site_fract_y
_atom_site_fract_z
Si Si1 0.480301 0.049515 0.264358
Si Si2 0.275010 0.120548 0.302488
Si Si3 0.702321 0.424365 0.109935
Si Si4 0.164033 0.680902 0.326229
Si Si5 0.273703 0.324243 0.790512
O O1 0.377801 0.098940 0.355552
O O2 0.756817 0.244866 0.417854
O O3 0.290141 0.855617 0.302401
O O4 0.500000 0.000000 0.000000
O O5 0.412053 0.215026 0.119279
O O6 0.342917 0.283467 0.544079
O O7 0.976605 0.893261 0.190672
O O8 0.784117 0.603834 0.204161
O O9 0.865340 0.490686 0.266333
O O10 0.748296 0.379890 0.849807
O O11 0.500000 0.500000 0.000000
#
# Coordination Sequence:
#
# PCOD8022883 Si02
#       5
#     2   2   2   2   2
#     4  11  21  42  65  98 133 173 215 267 335 389
#     4  11  24  42  66  93 131 174 222 268 326 393
#     4  11  22  44  64  98 131 171 222 265 335 390
#     4  10  23  39  68  98 136 167 212 277 322 401
#     4  11  25  44  64  93 131 174 226 275 319 391
#
# _framework density 22.170092
#
# number of rings (size 3 to 8) (size 9 to 14) (size 15 to 20)
#    0.000    1.200    4.000    1.800    0.000    3.200 
#    0.000    0.000    0.000    0.000    0.000    0.000 
#    0.000    0.000    0.000    0.000    0.000    0.000 
#
# Total GULP energy -124023.466154 kJ/mol
# GULP energy per Si atom -12402.346615 kJ/mol
# Density = 2.211963 g / cm^3
# Si number density = 22.170092 Si / 1000 Ang^3
#
#
#
# Elastic Constant Matrix: (Units=GPa)
#
#
# Indices 1 2 3 4 5 6 
#
# 1 107.7470 26.3558 75.6859 7.1159 -19.8229 -5.4779
# 2 26.3558 85.3926 43.6386 9.3815 -6.5919 17.9755
# 3 75.6859 43.6386 151.0285 13.8131 6.0638 8.3180
# 4 7.1159 9.3815 13.8131 30.5312 1.3163 -4.5357
# 5 -19.8229 -6.5919 6.0638 1.3163 48.0523 15.9313
# 6 -5.4779 17.9755 8.3180 -4.5357 15.9313 40.8252
#
#
#
# Elastic Compliance Matrix: (Units=1/GPa)
#
#
# Indices 1 2 3 4 5 6 
#
# 1 0.017034 -0.000450 -0.008785 0.000005 0.007646 0.001290
# 2 -0.000450 0.016860 -0.003902 -0.004985 0.005924 -0.009554
# 3 -0.008785 -0.003902 0.012584 -0.002211 -0.005667 -0.000059
# 4 0.000005 -0.004985 -0.002211 0.036706 -0.004178 0.008355
# 5 0.007646 0.005924 -0.005667 -0.004178 0.029752 -0.012502
# 6 0.001290 -0.009554 -0.000059 0.008355 -0.012502 0.034694
#
#
# Mechanical properties :
#
#
# Convention : Reuss Voigt Hill
#
# Bulk Modulus (GPa) = 49.49354 70.61429 60.05392
# Shear Modulus (GPa) = 27.67994 37.11425 32.39709
#
# Velocity S-wave (km/s) = 3.53728 4.09598 3.82684
# Velocity P-wave (km/s) = 6.24949 7.36815 6.83175
#
# Compressibility (1/GPa) = 0.02020466
#
# Stress axis : x y z
#
# Youngs Moduli (GPa) = 58.70710 59.31349 79.46619
#
# Poissons Ratio (x) = 0.02669 0.69808
# Poissons Ratio (y) = 0.02642 0.31005
# Poissons Ratio (z) = 0.51572 0.23142
#
# Static dielectric constant tensor:
#      x y z
#    x 4.307690 0.003210 0.023390 
#    y 0.003210 4.148730 0.223530 
#    z 0.023390 0.223530 4.045460 
# 
# 
# High freq. dielectric constant tensor:
#      x y z
#    x 1.881410 -0.003380 -0.012760 
#    y -0.003380 1.883400 0.013360 
#    z -0.012760 0.013360 1.863760 
# 
# From -- ./inp_files/27655.got.cif
#   From: 2010.06.25/outbox.cif.g09.slc.cpg/sg2_14_cif.got.tgz:27655.got - 2010.06.27 13:26:56.
