data_PCOD8022495
_publ_section_title
;
Structure prediction by ZEFSAII (Michael W. Deem and Ramdas Pophale) SiO2 
 PCOD8022495
Probable space group: P -1
;
_chemical_formula_sum "Si O2"
_cell_formula_units_Z 16
_cell_length_a 9.255928
_cell_length_b 12.606739
_cell_length_c 20.763366
_cell_angle_alpha 150.144225
_cell_angle_beta 135.781201
_cell_angle_gamma 34.496102
_cell_volume 683.072284
_symmetry_space_group_name_H-M "P -1"
_symmetry_group_IT_number 2
_symmetry_cell_setting 'triclinic'
loop_
_space_group_symop_operation_xyz
x,y,z
-x,-y,-z
loop_
_atom_site_type_symbol
_atom_site_label
_atom_site_fract_x
_atom_site_fract_y
_atom_site_fract_z
Si Si1 0.526837 0.963109 0.766856
Si Si2 0.969459 0.459386 0.876281
Si Si3 0.090007 0.394468 0.203907
Si Si4 0.809800 0.287171 0.846276
Si Si5 0.038195 0.702326 0.580269
Si Si6 0.579020 0.272514 0.499506
Si Si7 0.339539 0.664447 0.974481
Si Si8 0.055560 0.171114 0.529321
O O1 0.242049 0.189777 0.812301
O O2 0.648183 0.740878 0.743568
O O3 0.550081 0.852390 0.644430
O O4 0.709289 0.057450 0.884231
O O5 0.831621 0.563616 0.818685
O O6 0.809488 0.382299 0.824199
O O7 0.000107 0.674123 0.031369
O O8 0.944846 0.258252 0.077745
O O9 0.886843 0.666016 0.318856
O O10 0.513889 0.488650 0.877426
O O11 0.907979 0.983285 0.722524
O O12 0.341433 0.563725 0.597459
O O13 0.000000 0.500000 0.500000
O O14 0.916149 0.773416 0.506526
O O15 0.769665 0.257253 0.498954
O O16 0.729654 0.128103 0.537838
O O17 0.500000 0.500000 0.000000
#
# Coordination Sequence:
#
# PCOD8022495 Si02
#       8
#     2   2   2   2   2   2   2   2
#     4  11  22  41  74 102 135 173 241 288 345 409
#     4  10  22  46  71 101 136 180 229 304 343 405
#     4  12  23  40  76 103 132 177 243 284 349 414
#     4  10  24  45  70  97 144 185 227 285 363 405
#     4  12  28  44  68 104 150 187 223 288 356 428
#     4  11  24  46  73 101 136 184 241 292 335 414
#     4  11  22  44  72  96 136 187 227 294 340 417
#     4  11  25  45  73 103 134 190 241 282 343 413
#
# _framework density 23.423580999999999
#
# number of rings (size 3 to 8) (size 9 to 14) (size 15 to 20)
#    0.000    1.000    5.000    1.500    7.000    0.500 
#    2.250    6.875    0.000    0.000    0.000    0.000 
#    0.000    0.000    0.000    0.000    0.000    0.000 
#
# Total GULP energy -198251.964780 kJ/mol
# GULP energy per Si atom -12390.747799 kJ/mol
# Density = 2.337027 g / cm^3
# Si number density = 23.423581 Si / 1000 Ang^3
#
#
#
# Elastic Constant Matrix: (Units=GPa)
#
#
# Indices 1 2 3 4 5 6 
#
# 1 91.1351 33.0941 23.8782 -1.4393 10.8304 23.5416
# 2 33.0941 110.0246 13.1373 -7.6195 0.4515 19.8338
# 3 23.8782 13.1373 100.5305 11.2913 5.3015 4.1478
# 4 -1.4393 -7.6195 11.2913 26.3511 1.6297 -3.2723
# 5 10.8304 0.4515 5.3015 1.6297 24.6572 -3.7281
# 6 23.5416 19.8338 4.1478 -3.2723 -3.7281 40.1763
#
#
#
# Elastic Compliance Matrix: (Units=1/GPa)
#
#
# Indices 1 2 3 4 5 6 
#
# 1 0.015742 -0.002862 -0.002701 0.000641 -0.007561 -0.008182
# 2 -0.002862 0.010861 -0.000966 0.002954 0.000573 -0.003291
# 3 -0.002701 -0.000966 0.011324 -0.005179 -0.000829 0.000391
# 4 0.000641 0.002954 -0.005179 0.041399 -0.001668 0.001918
# 5 -0.007561 0.000573 -0.000829 -0.001668 0.045412 0.008311
# 6 -0.008182 -0.003291 0.000391 0.001918 0.008311 0.032196
#
#
# Mechanical properties :
#
#
# Convention : Reuss Voigt Hill
#
# Bulk Modulus (GPa) = 40.20990 49.10104 44.65547
# Shear Modulus (GPa) = 28.04583 33.67563 30.86073
#
# Velocity S-wave (km/s) = 3.46400 3.79579 3.63369
# Velocity P-wave (km/s) = 5.76219 6.34180 6.05893
#
# Compressibility (1/GPa) = 0.02486950
#
# Stress axis : x y z
#
# Youngs Moduli (GPa) = 63.52546 92.07660 88.30648
#
# Poissons Ratio (x) = 0.26354 0.23849
# Poissons Ratio (y) = 0.18182 0.08527
# Poissons Ratio (z) = 0.17156 0.08891
#
# Static dielectric constant tensor:
#      x y z
#    x 2.458060 1.143460 -0.228240 
#    y 1.143460 3.271950 -0.043120 
#    z -0.228240 -0.043120 4.434020 
# 
# 
# High freq. dielectric constant tensor:
#      x y z
#    x 1.912510 0.014990 0.004570 
#    y 0.014990 1.925760 0.002430 
#    z 0.004570 0.002430 1.940530 
# 
# From -- ./inp_files/589735.got.cif
#   From: 2010.06.25/outbox.cif.g09.slc.cpg/sg2_295_cif.got.tgz:589735.got - 2010.06.27 13:26:56.
