data_PCOD8022971
_publ_section_title
;
Structure prediction by ZEFSAII (Michael W. Deem and Ramdas Pophale) SiO2 
 PCOD8022971
Probable space group: P -1
;
_chemical_formula_sum "Si O2"
_cell_formula_units_Z 16
_cell_length_a 9.160219
_cell_length_b 19.413976
_cell_length_c 11.687297
_cell_angle_alpha 29.239966
_cell_angle_beta 48.606978
_cell_angle_gamma 49.498342
_cell_volume 746.572725
_symmetry_space_group_name_H-M "P -1"
_symmetry_group_IT_number 2
_symmetry_cell_setting 'triclinic'
loop_
_space_group_symop_operation_xyz
x,y,z
-x,-y,-z
loop_
_atom_site_type_symbol
_atom_site_label
_atom_site_fract_x
_atom_site_fract_y
_atom_site_fract_z
Si Si1 0.706023 0.014262 0.986828
Si Si2 0.067146 0.348932 0.121745
Si Si3 0.725722 0.979645 0.767531
Si Si4 0.928668 0.249352 0.546473
Si Si5 0.101424 0.312051 0.599624
Si Si6 0.600883 0.513382 0.307611
Si Si7 0.260210 0.576153 0.210522
Si Si8 0.876326 0.219440 0.209273
O O1 0.486607 0.065701 0.081400
O O2 0.773512 0.845772 0.215692
O O3 0.706290 0.051585 0.798327
O O4 0.861406 0.102690 0.834433
O O5 0.083791 0.226534 0.391231
O O6 0.909645 0.321441 0.148875
O O7 0.276679 0.355980 0.942093
O O8 0.000000 0.500000 0.000000
O O9 0.765848 0.093602 0.487542
O O10 0.906170 0.842796 0.867620
O O11 0.737198 0.358324 0.438411
O O12 0.019425 0.323403 0.496917
O O13 0.242850 0.425392 0.380144
O O14 0.922933 0.351779 0.721818
O O15 0.500000 0.500000 0.500000
O O16 0.453726 0.549725 0.225409
O O17 0.269535 0.688631 0.940592
#
# Coordination Sequence:
#
# PCOD8022971 Si02
#       8
#     2   2   2   2   2   2   2   2
#     4  11  23  41  66  96 130 169 225 263 319 391
#     4  10  23  40  63  93 129 173 208 260 325 381
#     4  10  24  39  69  96 127 174 218 266 320 385
#     4  11  23  44  64  92 134 174 212 265 327 386
#     4  11  24  41  65  97 132 166 218 271 327 375
#     4  11  24  40  65  98 130 169 218 262 322 390
#     4  11  24  39  66  98 128 166 216 276 319 383
#     4  11  22  45  66  95 134 170 214 269 323 382
#
# _framework density 21.431267999999999
#
# number of rings (size 3 to 8) (size 9 to 14) (size 15 to 20)
#    0.000    1.250    3.750    1.875    7.000    1.000 
#    0.000    3.750    0.000    3.750    0.000    0.000 
#    0.000    0.000    0.000    0.000    0.000    0.000 
#
# Total GULP energy -198349.879180 kJ/mol
# GULP energy per Si atom -12396.867449 kJ/mol
# Density = 2.138249 g / cm^3
# Si number density = 21.431268 Si / 1000 Ang^3
#
#
#
# Elastic Constant Matrix: (Units=GPa)
#
#
# Indices 1 2 3 4 5 6 
#
# 1 124.1258 20.2740 56.6511 6.9507 16.8028 9.2682
# 2 20.2740 68.8308 38.8031 9.7201 4.6739 -1.4960
# 3 56.6511 38.8031 130.8876 13.1598 6.3728 -5.1306
# 4 6.9507 9.7201 13.1598 32.8972 -7.9304 5.2642
# 5 16.8028 4.6739 6.3728 -7.9304 37.0024 1.1625
# 6 9.2682 -1.4960 -5.1306 5.2642 1.1625 30.6452
#
#
#
# Elastic Compliance Matrix: (Units=1/GPa)
#
#
# Indices 1 2 3 4 5 6 
#
# 1 0.011108 -0.000381 -0.004554 -0.000828 -0.004268 -0.003836
# 2 -0.000381 0.017988 -0.004610 -0.004085 -0.002212 0.001007
# 3 -0.004554 -0.004610 0.011401 -0.002810 -0.000027 0.003545
# 4 -0.000828 -0.004085 -0.002810 0.036284 0.009372 -0.007008
# 5 -0.004268 -0.002212 -0.000027 0.009372 0.031307 -0.001619
# 6 -0.003836 0.001007 0.003545 -0.007008 -0.001619 0.035700
#
#
# Mechanical properties :
#
#
# Convention : Reuss Voigt Hill
#
# Bulk Modulus (GPa) = 46.71474 61.70008 54.20741
# Shear Modulus (GPa) = 29.40939 33.98336 31.69637
#
# Velocity S-wave (km/s) = 3.70843 3.98639 3.84992
# Velocity P-wave (km/s) = 6.33888 7.07394 6.71647
#
# Compressibility (1/GPa) = 0.02140652
#
# Stress axis : x y z
#
# Youngs Moduli (GPa) = 90.02815 55.59110 87.71397
#
# Poissons Ratio (x) = 0.02119 0.39945
# Poissons Ratio (y) = 0.03431 0.40437
# Poissons Ratio (z) = 0.40999 0.25628
#
# Static dielectric constant tensor:
#      x y z
#    x 3.868490 -0.087320 -0.208310 
#    y -0.087320 3.994360 0.470970 
#    z -0.208310 0.470970 4.486860 
# 
# 
# High freq. dielectric constant tensor:
#      x y z
#    x 1.834290 0.008990 -0.001270 
#    y 0.008990 1.831480 0.011000 
#    z -0.001270 0.011000 1.856780 
# 
# From -- ./inp_files/404465.got.cif
#   From: 2010.06.25/outbox.cif.g09.slc.cpg/sg2_203_cif.got.tgz:404465.got - 2010.06.27 13:26:56.
