data_PCOD8022181
_publ_section_title
;
Structure prediction by ZEFSAII (Michael W. Deem and Ramdas Pophale) SiO2 
 PCOD8022181
Probable space group: P -1
;
_chemical_formula_sum "Si O2"
_cell_formula_units_Z 14
_cell_length_a 8.844343
_cell_length_b 6.620651
_cell_length_c 19.830192
_cell_angle_alpha 52.670854
_cell_angle_beta 51.619153
_cell_angle_gamma 51.227196
_cell_volume 663.159959
_symmetry_space_group_name_H-M "P -1"
_symmetry_group_IT_number 2
_symmetry_cell_setting 'triclinic'
loop_
_space_group_symop_operation_xyz
x,y,z
-x,-y,-z
loop_
_atom_site_type_symbol
_atom_site_label
_atom_site_fract_x
_atom_site_fract_y
_atom_site_fract_z
Si Si1 0.387255 0.032005 0.096619
Si Si2 0.282508 0.007138 0.874986
Si Si3 0.879171 0.251518 0.716870
Si Si4 0.048280 0.902588 0.610587
Si Si5 0.727456 0.739271 0.316081
Si Si6 0.902688 0.410004 0.981823
Si Si7 0.729337 0.873806 0.597423
O O1 0.528283 0.029640 0.120940
O O2 0.200784 0.331077 0.090669
O O3 0.292561 0.800270 0.178531
O O4 0.500000 0.000000 0.000000
O O5 0.315117 0.149738 0.770123
O O6 0.266028 0.714390 0.921838
O O7 0.071716 0.192853 0.932426
O O8 0.759992 0.554442 0.655815
O O9 0.075690 0.217861 0.715777
O O10 0.964115 0.017439 0.683886
O O11 0.220775 0.587021 0.630538
O O12 0.843061 0.936807 0.617572
O O13 0.163124 0.084732 0.509310
O O14 0.515242 0.915583 0.380320
O O15 0.000000 0.500000 0.000000
#
# Coordination Sequence:
#
# PCOD8022181 Si02
#       7
#     2   2   2   2   2   2   2
#     4  12  25  42  65  91 128 175 217 266 323 380
#     4  11  25  41  65  91 127 174 211 269 324 381
#     4  11  25  41  64  97 133 169 222 271 321 392
#     4  10  22  45  67  97 133 168 215 268 331 395
#     4  11  24  40  66  97 132 169 217 268 329 390
#     4  11  23  43  64  91 124 165 220 267 319 381
#     4  10  23  42  70  97 130 172 213 269 330 394
#
# _framework density 21.111044
#
# number of rings (size 3 to 8) (size 9 to 14) (size 15 to 20)
#    0.000    1.143    1.429    3.857    4.000    5.143 
#    0.000    0.000    0.000    0.000    0.000    0.000 
#    0.000    0.000    0.000    0.000    0.000    0.000 
#
# Total GULP energy -173637.458263 kJ/mol
# GULP energy per Si atom -12402.675590 kJ/mol
# Density = 2.106299 g / cm^3
# Si number density = 21.111044 Si / 1000 Ang^3
#
#
#
# Elastic Constant Matrix: (Units=GPa)
#
#
# Indices 1 2 3 4 5 6 
#
# 1 107.7080 38.8155 47.7048 -8.1590 -4.4868 -6.6285
# 2 38.8155 103.5795 41.4548 -11.7491 -12.1880 -8.8754
# 3 47.7048 41.4548 143.6816 -16.6185 -9.7488 1.2176
# 4 -8.1590 -11.7491 -16.6185 41.4337 3.2609 5.9414
# 5 -4.4868 -12.1880 -9.7488 3.2609 36.3422 1.9211
# 6 -6.6285 -8.8754 1.2176 5.9414 1.9211 34.6522
#
#
#
# Elastic Compliance Matrix: (Units=1/GPa)
#
#
# Indices 1 2 3 4 5 6 
#
# 1 0.011855 -0.003130 -0.003078 0.000023 -0.000498 0.001598
# 2 -0.003130 0.012408 -0.002190 0.001471 0.002937 0.002241
# 3 -0.003078 -0.002190 0.009008 0.002576 0.001175 -0.001973
# 4 0.000023 0.001471 0.002576 0.026261 -0.000949 -0.004159
# 5 -0.000498 0.002937 0.001175 -0.000949 0.028884 -0.000823
# 6 0.001598 0.002241 -0.001973 -0.004159 -0.000823 0.030566
#
#
# Mechanical properties :
#
#
# Convention : Reuss Voigt Hill
#
# Bulk Modulus (GPa) = 60.69697 67.87993 64.28845
# Shear Modulus (GPa) = 35.39331 37.61856 36.50593
#
# Velocity S-wave (km/s) = 4.09899 4.22588 4.16292
# Velocity P-wave (km/s) = 7.15653 7.48561 7.32292
#
# Compressibility (1/GPa) = 0.01647529
#
# Stress axis : x y z
#
# Youngs Moduli (GPa) = 84.35463 80.58998 111.01117
#
# Poissons Ratio (x) = 0.25223 0.34166
# Poissons Ratio (y) = 0.26402 0.24317
# Poissons Ratio (z) = 0.25962 0.17653
#
# Static dielectric constant tensor:
#      x y z
#    x 4.054320 -0.262110 -0.235660 
#    y -0.262110 4.050900 -0.175180 
#    z -0.235660 -0.175180 4.283320 
# 
# 
# High freq. dielectric constant tensor:
#      x y z
#    x 1.834000 -0.006130 -0.001350 
#    y -0.006130 1.835750 -0.008220 
#    z -0.001350 -0.008220 1.841050 
# 
# From -- ./inp_files/39625.got.cif
#   From: 2010.06.25/outbox.cif.g09.slc.cpg/sg2_20_cif.got.tgz:39625.got - 2010.06.27 13:26:56.
