data_PCOD8022224
_publ_section_title
;
Structure prediction by ZEFSAII (Michael W. Deem and Ramdas Pophale) SiO2 
 PCOD8022224
Probable space group: P -1
;
_chemical_formula_sum "Si O2"
_cell_formula_units_Z 16
_cell_length_a 17.130972
_cell_length_b 11.342267
_cell_length_c 11.207229
_cell_angle_alpha 40.458635
_cell_angle_beta 69.174420
_cell_angle_gamma 40.810172
_cell_volume 789.040999
_symmetry_space_group_name_H-M "P -1"
_symmetry_group_IT_number 2
_symmetry_cell_setting 'triclinic'
loop_
_space_group_symop_operation_xyz
x,y,z
-x,-y,-z
loop_
_atom_site_type_symbol
_atom_site_label
_atom_site_fract_x
_atom_site_fract_y
_atom_site_fract_z
Si Si1 0.815394 0.227356 0.629292
Si Si2 0.391056 0.840960 0.759297
Si Si3 0.020368 0.815086 0.031610
Si Si4 0.700576 0.858637 0.665779
Si Si5 0.884522 0.719526 0.293822
Si Si6 0.166234 0.201653 0.137107
Si Si7 0.567019 0.886964 0.325490
Si Si8 0.230583 0.344610 0.780061
O O1 0.687735 0.520734 0.558495
O O2 0.826177 0.347791 0.417426
O O3 0.780314 0.087705 0.710144
O O4 0.963409 0.982301 0.806350
O O5 0.369042 0.893265 0.588552
O O6 0.255219 0.001755 0.773114
O O7 0.434193 0.969478 0.675196
O O8 0.500000 0.500000 0.000000
O O9 0.182792 0.477070 0.196650
O O10 0.919133 0.824590 0.107967
O O11 0.000000 0.000000 0.000000
O O12 0.774511 0.864878 0.713144
O O13 0.584478 0.940824 0.733498
O O14 0.869707 0.572292 0.329128
O O15 0.000000 0.500000 0.500000
O O16 0.227733 0.248940 0.980464
O O17 0.000000 0.500000 0.000000
O O18 0.609094 0.926248 0.151043
#
# Coordination Sequence:
#
# PCOD8022224 Si02
#       8
#     2   2   2   2   2   2   2   2
#     4  10  22  45  68  97 136 185 218 286 339 392
#     4  11  25  42  66 101 139 175 226 297 338 400
#     4  12  23  39  68 102 135 179 228 284 350 398
#     4  12  25  44  65 103 138 178 237 272 342 423
#     4  11  20  40  66  96 134 173 229 280 338 405
#     4  12  24  45  70 102 145 179 225 287 333 410
#     4   9  24  45  67  96 134 183 232 280 337 409
#     4   9  22  44  66  97 137 177 231 274 339 401
#
# _framework density 20.277781000000001
#
# number of rings (size 3 to 8) (size 9 to 14) (size 15 to 20)
#    0.750    0.500    3.750    1.875    3.500    1.500 
#    2.250    0.000    0.000    0.000    0.000    0.000 
#    0.000    0.000    0.000    0.000    0.000    0.000 
#
# Total GULP energy -198302.184969 kJ/mol
# GULP energy per Si atom -12393.886561 kJ/mol
# Density = 2.023163 g / cm^3
# Si number density = 20.277781 Si / 1000 Ang^3
#
#
#
# Elastic Constant Matrix: (Units=GPa)
#
#
# Indices 1 2 3 4 5 6 
#
# 1 107.3551 50.7259 62.3239 -8.9788 -3.7166 -1.4364
# 2 50.7259 94.3422 54.7561 -1.2228 -2.0084 -9.0866
# 3 62.3239 54.7561 129.9050 -3.2305 -10.6872 12.0902
# 4 -8.9788 -1.2228 -3.2305 38.9458 -3.0650 -0.3917
# 5 -3.7166 -2.0084 -10.6872 -3.0650 37.7436 2.2256
# 6 -1.4364 -9.0866 12.0902 -0.3917 2.2256 45.5500
#
#
#
# Elastic Compliance Matrix: (Units=1/GPa)
#
#
# Indices 1 2 3 4 5 6 
#
# 1 0.014818 -0.004919 -0.005048 0.002848 -0.000051 0.000853
# 2 -0.004919 0.016696 -0.005255 -0.001113 -0.001447 0.004631
# 3 -0.005048 -0.005255 0.013046 -0.000044 0.003198 -0.004827
# 4 0.002848 -0.001113 -0.000044 0.026480 0.002360 -0.000008
# 5 -0.000051 -0.001447 0.003198 0.002360 0.027655 -0.002470
# 6 0.000853 0.004631 -0.004827 -0.000008 -0.002470 0.024307
#
#
# Mechanical properties :
#
#
# Convention : Reuss Voigt Hill
#
# Bulk Modulus (GPa) = 70.84958 74.13491 72.49225
# Shear Modulus (GPa) = 31.61518 35.36765 33.49142
#
# Velocity S-wave (km/s) = 3.95283 4.18084 4.06844
# Velocity P-wave (km/s) = 7.47319 7.74241 7.60899
#
# Compressibility (1/GPa) = 0.01411441
#
# Stress axis : x y z
#
# Youngs Moduli (GPa) = 67.48645 59.89632 76.65004
#
# Poissons Ratio (x) = 0.29464 0.38696
# Poissons Ratio (y) = 0.33198 0.40280
# Poissons Ratio (z) = 0.34070 0.31476
#
# Static dielectric constant tensor:
#      x y z
#    x 3.486470 0.037020 -0.090020 
#    y 0.037020 3.640670 0.009410 
#    z -0.090020 0.009410 3.645150 
# 
# 
# High freq. dielectric constant tensor:
#      x y z
#    x 1.798560 -0.004890 -0.005770 
#    y -0.004890 1.789880 0.001170 
#    z -0.005770 0.001170 1.783740 
# 
# From -- ./inp_files/464303.got.cif
#   From: 2010.06.25/outbox.cif.g09.slc.cpg/sg2_233_cif.got.tgz:464303.got - 2010.06.27 13:26:56.
