data_PCOD8022720
_publ_section_title
;
Structure prediction by ZEFSAII (Michael W. Deem and Ramdas Pophale) SiO2 
 PCOD8022720
Probable space group: P -1
;
_chemical_formula_sum "Si O2"
_cell_formula_units_Z 14
_cell_length_a 11.989586
_cell_length_b 14.443933
_cell_length_c 12.191523
_cell_angle_alpha 19.357665
_cell_angle_beta 107.774631
_cell_angle_gamma 106.082948
_cell_volume 666.006573
_symmetry_space_group_name_H-M "P -1"
_symmetry_group_IT_number 2
_symmetry_cell_setting 'triclinic'
loop_
_space_group_symop_operation_xyz
x,y,z
-x,-y,-z
loop_
_atom_site_type_symbol
_atom_site_label
_atom_site_fract_x
_atom_site_fract_y
_atom_site_fract_z
Si Si1 0.909825 0.967428 0.857188
Si Si2 0.644108 0.296608 0.609007
Si Si3 0.424504 0.234700 0.278823
Si Si4 0.586143 0.873664 0.349846
Si Si5 0.669655 0.447463 0.673176
Si Si6 0.150802 0.137373 0.800887
Si Si7 0.228536 0.464034 0.814509
O O1 0.818251 0.224868 0.517902
O O2 0.042387 0.061397 0.774920
O O3 0.895747 0.828257 0.127832
O O4 0.882138 0.722960 0.037006
O O5 0.551379 0.079927 0.774349
O O6 0.598990 0.475608 0.502870
O O7 0.681974 0.517124 0.282190
O O8 0.752653 0.112198 0.895032
O O9 0.398481 0.160332 0.478814
O O10 0.500000 0.000000 0.500000
O O11 0.500000 0.500000 0.000000
O O12 0.297990 0.308052 0.107080
O O13 0.614578 0.596009 0.597388
O O14 0.671536 0.117007 0.069351
O O15 0.798104 0.571585 0.551956
#
# Coordination Sequence:
#
# PCOD8022720 Si02
#       7
#     2   2   2   2   2   2   2
#     4  10  23  39  64  94 124 166 208 267 311 364
#     4  11  23  39  64  96 132 167 203 253 325 381
#     4  12  25  45  68  91 125 170 215 262 305 365
#     4  12  27  39  63  93 133 170 206 252 317 383
#     4  12  24  40  60  95 134 169 202 252 320 390
#     4  10  23  38  63  93 132 162 210 253 321 373
#     4  11  23  40  67  92 126 159 215 263 316 355
#
# _framework density 21.020813
#
# number of rings (size 3 to 8) (size 9 to 14) (size 15 to 20)
#    0.000    0.857    4.286    2.571    6.000    1.714 
#    0.000    0.000    0.000    5.143    0.000    0.000 
#    0.000    0.000    0.000    0.000    0.000    0.000 
#
# Total GULP energy -173532.117887 kJ/mol
# GULP energy per Si atom -12395.151278 kJ/mol
# Density = 2.097297 g / cm^3
# Si number density = 21.020813 Si / 1000 Ang^3
#
#
#
# Elastic Constant Matrix: (Units=GPa)
#
#
# Indices 1 2 3 4 5 6 
#
# 1 81.4150 47.3956 41.7929 11.6112 -15.9589 20.1294
# 2 47.3956 121.0216 48.4907 5.7979 -22.5399 7.1514
# 3 41.7929 48.4907 85.1524 -2.6012 -22.5699 9.0083
# 4 11.6112 5.7979 -2.6012 40.3793 3.0971 -7.4289
# 5 -15.9589 -22.5399 -22.5699 3.0971 35.4369 -7.0378
# 6 20.1294 7.1514 9.0083 -7.4289 -7.0378 44.3647
#
#
#
# Elastic Compliance Matrix: (Units=1/GPa)
#
#
# Indices 1 2 3 4 5 6 
#
# 1 0.022373 -0.004688 -0.007229 -0.007997 0.001391 -0.009046
# 2 -0.004688 0.012280 -0.003922 -0.000683 0.003537 0.001391
# 3 -0.007229 -0.003922 0.019177 0.003687 0.006472 0.001662
# 4 -0.007997 -0.000683 0.003687 0.028974 -0.002749 0.007405
# 5 0.001391 0.003537 0.006472 -0.002749 0.036001 0.002735
# 6 -0.009046 0.001391 0.001662 0.007405 0.002735 0.027757
#
#
# Mechanical properties :
#
#
# Convention : Reuss Voigt Hill
#
# Bulk Modulus (GPa) = 45.14617 62.54971 53.84794
# Shear Modulus (GPa) = 26.93595 34.03017 30.48306
#
# Velocity S-wave (km/s) = 3.58354 4.02790 3.81220
# Velocity P-wave (km/s) = 6.21658 7.17305 6.71187
#
# Compressibility (1/GPa) = 0.02215027
#
# Stress axis : x y z
#
# Youngs Moduli (GPa) = 44.69683 81.43284 52.14455
#
# Poissons Ratio (x) = 0.38180 0.37697
# Poissons Ratio (y) = 0.20956 0.20453
# Poissons Ratio (z) = 0.32313 0.31941
#
# Static dielectric constant tensor:
#      x y z
#    x 3.843250 0.168650 -0.127210 
#    y 0.168650 3.587570 -0.387030 
#    z -0.127210 -0.387030 3.473180 
# 
# 
# High freq. dielectric constant tensor:
#      x y z
#    x 1.815260 0.005910 -0.011860 
#    y 0.005910 1.827210 -0.023610 
#    z -0.011860 -0.023610 1.814550 
# 
# From -- ./inp_files/362681.got.cif
#   From: 2010.06.25/outbox.cif.g09.slc.cpg/sg2_182_cif.got.tgz:362681.got - 2010.06.27 13:26:56.
