data_PCOD8022592
_publ_section_title
;
Structure prediction by ZEFSAII (Michael W. Deem and Ramdas Pophale) SiO2 
 PCOD8022592
Probable space group: P -1
;
_chemical_formula_sum "Si O2"
_cell_formula_units_Z 10
_cell_length_a 8.117641
_cell_length_b 15.181444
_cell_length_c 4.845206
_cell_angle_alpha 84.165461
_cell_angle_beta 78.087748
_cell_angle_gamma 39.010468
_cell_volume 366.088813
_symmetry_space_group_name_H-M "P -1"
_symmetry_group_IT_number 2
_symmetry_cell_setting 'triclinic'
loop_
_space_group_symop_operation_xyz
x,y,z
-x,-y,-z
loop_
_atom_site_type_symbol
_atom_site_label
_atom_site_fract_x
_atom_site_fract_y
_atom_site_fract_z
Si Si1 0.460696 0.079906 0.741295
Si Si2 0.293799 0.419443 0.912456
Si Si3 0.140761 0.658663 0.147346
Si Si4 0.223826 0.888605 0.184337
Si Si5 0.710991 0.291733 0.422983
O O1 0.680421 0.066013 0.690197
O O2 0.167573 0.243433 0.796023
O O3 0.500000 0.000000 0.500000
O O4 0.500000 0.000000 0.000000
O O5 0.514456 0.261345 0.017940
O O6 0.394802 0.398184 0.566436
O O7 0.317974 0.502155 0.045054
O O8 0.000000 0.500000 0.000000
O O9 0.210750 0.654306 0.437809
O O10 0.206202 0.718939 0.914552
O O11 0.881426 0.137302 0.532605
O O12 0.000000 0.000000 0.000000
#
# Coordination Sequence:
#
# PCOD8022592 Si02
#       5
#     2   2   2   2   2
#     4  12  27  48  76 109 156 207 260 320 385 467
#     4  10  22  47  79 112 157 201 258 327 383 471
#     4  12  22  49  73 118 146 204 256 319 390 461
#     4  10  24  49  77 113 158 204 264 320 397 462
#     4  10  25  42  81 108 157 191 261 319 389 457
#
# _framework density 27.315774999999999
#
# number of rings (size 3 to 8) (size 9 to 14) (size 15 to 20)
#    1.200    0.000    2.000    3.600    0.000    1.600 
#    0.000   11.000    0.000    0.000    0.000    0.000 
#    0.000    0.000    0.000    0.000    0.000    0.000 
#
# Total GULP energy -123927.686690 kJ/mol
# GULP energy per Si atom -12392.768669 kJ/mol
# Density = 2.725360 g / cm^3
# Si number density = 27.315775 Si / 1000 Ang^3
#
#
#
# Elastic Constant Matrix: (Units=GPa)
#
#
# Indices 1 2 3 4 5 6 
#
# 1 163.9716 63.0521 26.4323 12.9592 7.3408 -6.2408
# 2 63.0521 163.8784 29.6462 0.9697 2.7382 -11.4730
# 3 26.4323 29.6462 96.6374 3.8315 3.8225 -5.8117
# 4 12.9592 0.9697 3.8315 29.3957 -6.0017 -0.0106
# 5 7.3408 2.7382 3.8225 -6.0017 38.3879 14.9746
# 6 -6.2408 -11.4730 -5.8117 -0.0106 14.9746 67.8586
#
#
#
# Elastic Compliance Matrix: (Units=1/GPa)
#
#
# Indices 1 2 3 4 5 6 
#
# 1 0.007686 -0.002675 -0.001026 -0.003568 -0.001969 0.000601
# 2 -0.002675 0.007468 -0.001549 0.001127 -0.000039 0.000893
# 3 -0.001026 -0.001549 0.011262 -0.001243 -0.001364 0.000909
# 4 -0.003568 0.001127 -0.001243 0.037198 0.007259 -0.001840
# 5 -0.001969 -0.000039 -0.001364 0.007259 0.030438 -0.007020
# 6 0.000601 0.000893 0.000909 -0.001840 -0.007020 0.016569
#
#
# Mechanical properties :
#
#
# Convention : Reuss Voigt Hill
#
# Bulk Modulus (GPa) = 62.83330 73.63875 68.23603
# Shear Modulus (GPa) = 39.54868 47.48553 43.51710
#
# Velocity S-wave (km/s) = 3.80917 4.17393 3.99571
# Velocity P-wave (km/s) = 6.51144 7.08842 6.80605
#
# Compressibility (1/GPa) = 0.01591513
#
# Stress axis : x y z
#
# Youngs Moduli (GPa) = 130.11014 133.90265 88.79752
#
# Poissons Ratio (x) = 0.35825 0.09111
# Poissons Ratio (y) = 0.34810 0.13752
# Poissons Ratio (z) = 0.13349 0.20738
#
# Static dielectric constant tensor:
#      x y z
#    x 5.015330 0.028180 -0.082260 
#    y 0.028180 5.410990 0.324170 
#    z -0.082260 0.324170 4.667470 
# 
# 
# High freq. dielectric constant tensor:
#      x y z
#    x 2.111240 -0.000030 0.002460 
#    y -0.000030 2.126250 0.019980 
#    z 0.002460 0.019980 2.091180 
# 
# From -- ./inp_files/38575.got.cif
#   From: 2010.06.25/outbox.cif.g09.slc.cpg/sg2_20_cif.got.tgz:38575.got - 2010.06.27 13:26:56.
