data_PCOD8022126
_publ_section_title
;
Structure prediction by ZEFSAII (Michael W. Deem and Ramdas Pophale) SiO2 
 PCOD8022126
Probable space group: P -1
;
_chemical_formula_sum "Si O2"
_cell_formula_units_Z 16
_cell_length_a 11.070208
_cell_length_b 12.537886
_cell_length_c 10.938244
_cell_angle_alpha 96.161112
_cell_angle_beta 135.460455
_cell_angle_gamma 115.903270
_cell_volume 716.563265
_symmetry_space_group_name_H-M "P -1"
_symmetry_group_IT_number 2
_symmetry_cell_setting 'triclinic'
loop_
_space_group_symop_operation_xyz
x,y,z
-x,-y,-z
loop_
_atom_site_type_symbol
_atom_site_label
_atom_site_fract_x
_atom_site_fract_y
_atom_site_fract_z
Si Si1 0.125173 0.809525 0.383665
Si Si2 0.539420 0.901208 0.069699
Si Si3 0.798640 0.338490 0.402034
Si Si4 0.526859 0.731837 0.435130
Si Si5 0.356724 0.854126 0.200719
Si Si6 0.029671 0.017833 0.723053
Si Si7 0.153816 0.363489 0.077661
Si Si8 0.369130 0.234827 0.215781
O O1 0.097218 0.727607 0.478300
O O2 0.428517 0.958100 0.588359
O O3 0.014937 0.878372 0.335941
O O4 0.981327 0.680465 0.156463
O O5 0.418776 0.839091 0.108673
O O6 0.827711 0.985951 0.280464
O O7 0.398879 0.758191 0.861171
O O8 0.500000 0.000000 0.000000
O O9 0.663651 0.342476 0.413142
O O10 0.000000 0.500000 0.500000
O O11 0.358385 0.757627 0.285679
O O12 0.336353 0.544087 0.270067
O O13 0.665220 0.814283 0.674649
O O14 0.760176 0.833073 0.519900
O O15 0.066452 0.763981 0.994938
O O16 0.178215 0.083585 0.969177
O O17 0.337613 0.347198 0.195777
#
# Coordination Sequence:
#
# PCOD8022126 Si02
#       8
#     2   2   2   2   2   2   2   2
#     4  10  22  45  65  94 126 172 215 261 321 382
#     4  11  24  44  66  97 127 171 217 255 318 386
#     4  11  25  43  68  92 131 170 211 267 321 381
#     4  11  23  39  68  96 128 166 212 275 311 370
#     4  11  24  42  65  94 130 172 211 261 319 385
#     4   9  23  44  67  94 128 170 215 259 318 386
#     4  11  24  40  66  99 130 163 215 269 322 368
#     4  10  23  43  62  97 126 169 215 256 328 380
#
# _framework density 22.328800999999999
#
# number of rings (size 3 to 8) (size 9 to 14) (size 15 to 20)
#    0.000    1.500    1.250    2.250    5.250    5.000 
#    2.250    1.875    0.000    0.000    0.000    0.000 
#    0.000    0.000    0.000    0.000    0.000    0.000 
#
# Total GULP energy -198279.256665 kJ/mol
# GULP energy per Si atom -12392.453542 kJ/mol
# Density = 2.227798 g / cm^3
# Si number density = 22.328801 Si / 1000 Ang^3
#
#
#
# Elastic Constant Matrix: (Units=GPa)
#
#
# Indices 1 2 3 4 5 6 
#
# 1 97.1545 35.0837 43.1388 0.1310 16.5502 -2.7857
# 2 35.0837 112.5302 40.2805 0.4967 15.6540 5.3901
# 3 43.1388 40.2805 80.7577 0.2973 4.4906 3.1120
# 4 0.1310 0.4967 0.2973 37.0887 5.8148 -1.5380
# 5 16.5502 15.6540 4.4906 5.8148 40.1062 -4.0222
# 6 -2.7857 5.3901 3.1120 -1.5380 -4.0222 25.8889
#
#
#
# Elastic Compliance Matrix: (Units=1/GPa)
#
#
# Indices 1 2 3 4 5 6 
#
# 1 0.014792 -0.001591 -0.006935 0.000835 -0.004618 0.002089
# 2 -0.001591 0.011694 -0.004679 0.000358 -0.003697 -0.002596
# 3 -0.006935 -0.004679 0.018343 -0.000526 0.002549 -0.001612
# 4 0.000835 0.000358 -0.000526 0.027682 -0.004334 0.001050
# 5 -0.004618 -0.003697 0.002549 -0.004334 0.029049 0.004222
# 6 0.002089 -0.002596 -0.001612 0.001050 0.004222 0.040304
#
#
# Mechanical properties :
#
#
# Convention : Reuss Voigt Hill
#
# Bulk Modulus (GPa) = 54.28691 58.60536 56.44614
# Shear Modulus (GPa) = 28.66753 32.07939 30.37346
#
# Velocity S-wave (km/s) = 3.58702 3.79447 3.69220
# Velocity P-wave (km/s) = 6.44367 6.74543 6.59628
#
# Compressibility (1/GPa) = 0.01842065
#
# Stress axis : x y z
#
# Youngs Moduli (GPa) = 67.60392 85.51203 54.51582
#
# Poissons Ratio (x) = 0.13602 0.37806
# Poissons Ratio (y) = 0.10753 0.25508
# Poissons Ratio (z) = 0.46883 0.40010
#
# Static dielectric constant tensor:
#      x y z
#    x 4.537230 -0.357920 -0.106980 
#    y -0.357920 4.146310 -0.136220 
#    z -0.106980 -0.136220 4.150300 
# 
# 
# High freq. dielectric constant tensor:
#      x y z
#    x 1.883560 -0.002800 0.001600 
#    y -0.002800 1.870390 -0.014070 
#    z 0.001600 -0.014070 1.887430 
# 
# From -- ./inp_files/261659.got.cif
#   From: 2010.06.25/outbox.cif.g09.slc.cpg/sg2_131_cif.got.tgz:261659.got - 2010.06.27 13:26:56.
