data_PCOD8022498
_publ_section_title
;
Structure prediction by ZEFSAII (Michael W. Deem and Ramdas Pophale) SiO2 
 PCOD8022498
Probable space group: P -1
;
_chemical_formula_sum "Si O2"
_cell_formula_units_Z 16
_cell_length_a 16.336772
_cell_length_b 6.871101
_cell_length_c 7.770396
_cell_angle_alpha 85.085258
_cell_angle_beta 126.895434
_cell_angle_gamma 84.929681
_cell_volume 684.210597
_symmetry_space_group_name_H-M "P -1"
_symmetry_group_IT_number 2
_symmetry_cell_setting 'triclinic'
loop_
_space_group_symop_operation_xyz
x,y,z
-x,-y,-z
loop_
_atom_site_type_symbol
_atom_site_label
_atom_site_fract_x
_atom_site_fract_y
_atom_site_fract_z
Si Si1 0.387989 0.526288 0.433980
Si Si2 0.743143 0.741656 0.876380
Si Si3 0.158029 0.861272 0.557910
Si Si4 0.763232 0.102461 0.712838
Si Si5 0.654357 0.975788 0.062056
Si Si6 0.530855 0.684726 0.123947
Si Si7 0.965269 0.089320 0.136793
Si Si8 0.916064 0.441820 0.271723
O O1 0.500000 0.500000 0.500000
O O2 0.311592 0.444946 0.212326
O O3 0.345784 0.758331 0.393971
O O4 0.392026 0.399714 0.620808
O O5 0.751321 0.870056 0.700786
O O6 0.675066 0.904644 0.899457
O O7 0.853509 0.649747 0.106033
O O8 0.193109 0.806512 0.409780
O O9 0.159562 0.676559 0.702599
O O10 0.236296 0.003709 0.711574
O O11 0.036077 0.964932 0.382365
O O12 0.841285 0.091807 0.978798
O O13 0.598449 0.809838 0.088988
O O14 0.576278 0.185149 0.952198
O O15 0.500000 0.500000 0.000000
O O16 0.969508 0.317227 0.182278
O O17 0.000000 0.000000 0.000000
O O18 0.000000 0.500000 0.500000
#
# Coordination Sequence:
#
# PCOD8022498 Si02
#       8
#     2   2   2   2   2   2   2   2
#     4  12  26  43  70 100 144 194 239 295 368 433
#     4  12  26  43  71 101 145 183 243 295 366 435
#     4  11  24  44  76  99 148 188 240 304 370 436
#     4  11  24  47  68 103 144 187 243 299 365 442
#     4  11  25  43  70 107 139 191 239 307 364 438
#     4  11  25  45  71 101 147 184 251 301 368 430
#     4  10  22  46  71 103 143 190 233 305 366 439
#     4  12  25  45  73 112 145 192 250 306 369 444
#
# _framework density 23.384612000000001
#
# number of rings (size 3 to 8) (size 9 to 14) (size 15 to 20)
#    0.000    0.750    1.250    5.625    5.250    4.000 
#    4.500    3.750    0.000    0.000    0.000    0.000 
#    0.000    0.000    0.000    0.000    0.000    0.000 
#
# Total GULP energy -198230.092808 kJ/mol
# GULP energy per Si atom -12389.380801 kJ/mol
# Density = 2.333139 g / cm^3
# Si number density = 23.384612 Si / 1000 Ang^3
#
#
#
# Elastic Constant Matrix: (Units=GPa)
#
#
# Indices 1 2 3 4 5 6 
#
# 1 92.5313 50.8754 34.7707 -9.9163 -4.1617 -8.0009
# 2 50.8754 143.9135 47.2599 -12.1476 -10.2807 -10.4385
# 3 34.7707 47.2599 112.7964 -7.7194 8.1884 -3.5886
# 4 -9.9163 -12.1476 -7.7194 53.4127 0.3527 4.1296
# 5 -4.1617 -10.2807 8.1884 0.3527 30.5739 4.4291
# 6 -8.0009 -10.4385 -3.5886 4.1296 4.4291 38.0878
#
#
#
# Elastic Compliance Matrix: (Units=1/GPa)
#
#
# Indices 1 2 3 4 5 6 
#
# 1 0.014262 -0.003852 -0.002736 0.001260 0.001160 0.001411
# 2 -0.003852 0.009703 -0.003025 0.000949 0.003383 0.001069
# 3 -0.002736 -0.003025 0.011335 0.000462 -0.004450 0.000132
# 4 0.001260 0.000949 0.000462 0.019358 0.000372 -0.001574
# 5 0.001160 0.003383 -0.004450 0.000372 0.035688 -0.003439
# 6 0.001411 0.001069 0.000132 -0.001574 -0.003439 0.027427
#
#
# Mechanical properties :
#
#
# Convention : Reuss Voigt Hill
#
# Bulk Modulus (GPa) = 62.20599 68.33924 65.27261
# Shear Modulus (GPa) = 35.12309 38.83723 36.98016
#
# Velocity S-wave (km/s) = 3.87974 4.07972 3.98098
# Velocity P-wave (km/s) = 6.83585 7.17493 7.00744
#
# Compressibility (1/GPa) = 0.01607562
#
# Stress axis : x y z
#
# Youngs Moduli (GPa) = 70.11543 103.06226 88.22354
#
# Poissons Ratio (x) = 0.39699 0.24135
# Poissons Ratio (y) = 0.27008 0.26683
# Poissons Ratio (z) = 0.19181 0.31171
#
# Static dielectric constant tensor:
#      x y z
#    x 4.253990 -0.062060 0.118680 
#    y -0.062060 4.291510 0.066520 
#    z 0.118680 0.066520 4.182450 
# 
# 
# High freq. dielectric constant tensor:
#      x y z
#    x 1.921850 -0.005610 0.005630 
#    y -0.005610 1.929720 -0.003160 
#    z 0.005630 -0.003160 1.943610 
# 
# From -- ./inp_files/323749.got.cif
#   From: 2010.06.25/outbox.cif.g09.slc.cpg/sg2_162_cif.got.tgz:323749.got - 2010.06.27 13:26:56.
