data_PCOD8022896
_publ_section_title
;
Structure prediction by ZEFSAII (Michael W. Deem and Ramdas Pophale) SiO2 
 PCOD8022896
Probable space group: P -1
;
_chemical_formula_sum "Si O2"
_cell_formula_units_Z 16
_cell_length_a 12.895857
_cell_length_b 8.499836
_cell_length_c 18.446888
_cell_angle_alpha 128.642939
_cell_angle_beta 152.530357
_cell_angle_gamma 50.617437
_cell_volume 710.109188
_symmetry_space_group_name_H-M "P -1"
_symmetry_group_IT_number 2
_symmetry_cell_setting 'triclinic'
loop_
_space_group_symop_operation_xyz
x,y,z
-x,-y,-z
loop_
_atom_site_type_symbol
_atom_site_label
_atom_site_fract_x
_atom_site_fract_y
_atom_site_fract_z
Si Si1 0.348980 0.970118 0.707276
Si Si2 0.084896 0.285375 0.226218
Si Si3 0.633292 0.402280 0.890551
Si Si4 0.137971 0.552748 0.667642
Si Si5 0.500633 0.978574 0.344256
Si Si6 0.339307 0.142796 0.001927
Si Si7 0.940842 0.326353 0.598455
Si Si8 0.073094 0.038896 0.295872
O O1 0.281057 0.749876 0.589137
O O2 0.385240 0.058260 0.675734
O O3 0.572057 0.934632 0.885394
O O4 0.151806 0.126849 0.676311
O O5 0.109116 0.526026 0.319198
O O6 0.105806 0.128919 0.262711
O O7 0.291561 0.179068 0.270445
O O8 0.841326 0.294009 0.039652
O O9 0.404505 0.448526 0.811003
O O10 0.591821 0.231025 0.756138
O O11 0.658523 0.615783 0.932494
O O12 0.000000 0.500000 0.500000
O O13 0.000503 0.498692 0.634308
O O14 0.106192 0.797612 0.719513
O O15 0.680746 0.019133 0.527968
O O16 0.065926 0.143684 0.837229
O O17 0.500000 0.000000 0.000000
#
# Coordination Sequence:
#
# PCOD8022896 Si02
#       8
#     2   2   2   2   2   2   2   2
#     4  11  24  43  73 102 144 179 233 288 354 409
#     4  11  27  47  71 100 143 187 240 281 346 416
#     4  12  24  43  71 102 140 183 229 285 351 410
#     4  11  19  38  68 101 134 176 229 283 344 404
#     4  12  26  49  73  98 141 194 235 281 345 425
#     4  12  26  41  69 111 146 171 230 300 356 403
#     4  10  23  39  70 103 136 178 232 285 350 402
#     4  11  25  43  71 101 138 184 233 289 345 412
#
# _framework density 22.531745999999998
#
# number of rings (size 3 to 8) (size 9 to 14) (size 15 to 20)
#    0.000    0.750    3.750    3.000    7.000    1.500 
#    0.000    1.250    0.000    0.000    0.000    0.000 
#    0.000    0.000    0.000    0.000    0.000    0.000 
#
# Total GULP energy -198219.021983 kJ/mol
# GULP energy per Si atom -12388.688874 kJ/mol
# Density = 2.248046 g / cm^3
# Si number density = 22.531746 Si / 1000 Ang^3
#
#
#
# Elastic Constant Matrix: (Units=GPa)
#
#
# Indices 1 2 3 4 5 6 
#
# 1 39.6857 24.2860 25.0923 -1.7529 0.3492 1.3500
# 2 24.2860 107.9930 51.7037 15.5423 11.8730 -8.8699
# 3 25.0923 51.7037 162.2112 -3.8120 -0.5583 2.3132
# 4 -1.7529 15.5423 -3.8120 52.5509 5.9842 1.0614
# 5 0.3492 11.8730 -0.5583 5.9842 26.9758 -9.0132
# 6 1.3500 -8.8699 2.3132 1.0614 -9.0132 40.0608
#
#
#
# Elastic Compliance Matrix: (Units=1/GPa)
#
#
# Indices 1 2 3 4 5 6 
#
# 1 0.030952 -0.006354 -0.002667 0.002643 0.001042 -0.002131
# 2 -0.006354 0.013632 -0.003509 -0.004070 -0.004221 0.002593
# 3 -0.002667 -0.003509 0.007746 0.001402 0.001121 -0.000919
# 4 0.002643 -0.004070 0.001402 0.020890 -0.003666 -0.002449
# 5 0.001042 -0.004221 0.001121 -0.003666 0.042644 0.008657
# 6 -0.002131 0.002593 -0.000919 -0.002449 0.008657 0.027674
#
#
# Mechanical properties :
#
#
# Convention : Reuss Voigt Hill
#
# Bulk Modulus (GPa) = 36.67021 56.89488 46.78255
# Shear Modulus (GPa) = 28.13942 37.83804 32.98873
#
# Velocity S-wave (km/s) = 3.53778 4.10240 3.83051
# Velocity P-wave (km/s) = 5.74440 6.90980 6.35388
#
# Compressibility (1/GPa) = 0.02727009
#
# Stress axis : x y z
#
# Youngs Moduli (GPa) = 32.30761 73.35849 129.10292
#
# Poissons Ratio (x) = 0.46612 0.34427
# Poissons Ratio (y) = 0.20528 0.45306
# Poissons Ratio (z) = 0.08615 0.25743
#
# Static dielectric constant tensor:
#      x y z
#    x 3.646150 -0.050180 0.056880 
#    y -0.050180 4.193610 0.293380 
#    z 0.056880 0.293380 4.237990 
# 
# 
# High freq. dielectric constant tensor:
#      x y z
#    x 1.861930 -0.001280 -0.000140 
#    y -0.001280 1.897190 0.013850 
#    z -0.000140 0.013850 1.902960 
# 
# From -- ./inp_files/597445.got.cif
#   From: 2010.06.25/outbox.cif.g09.slc.cpg/sg2_299_cif.got.tgz:597445.got - 2010.06.27 13:26:56.
