data_PCOD8022330
_publ_section_title
;
Structure prediction by ZEFSAII (Michael W. Deem and Ramdas Pophale) SiO2 
 PCOD8022330
Probable space group: P -1
;
_chemical_formula_sum "Si O2"
_cell_formula_units_Z 16
_cell_length_a 7.976106
_cell_length_b 6.747643
_cell_length_c 16.733625
_cell_angle_alpha 76.727614
_cell_angle_beta 126.118906
_cell_angle_gamma 84.122703
_cell_volume 674.926593
_symmetry_space_group_name_H-M "P -1"
_symmetry_group_IT_number 2
_symmetry_cell_setting 'triclinic'
loop_
_space_group_symop_operation_xyz
x,y,z
-x,-y,-z
loop_
_atom_site_type_symbol
_atom_site_label
_atom_site_fract_x
_atom_site_fract_y
_atom_site_fract_z
Si Si1 0.632422 0.460885 0.621266
Si Si2 0.720776 0.859499 0.035061
Si Si3 0.690018 0.762182 0.394130
Si Si4 0.044212 0.825874 0.881488
Si Si5 0.016578 0.480421 0.637584
Si Si6 0.387401 0.206656 0.284649
Si Si7 0.720360 0.453928 0.158211
Si Si8 0.274286 0.430750 0.073142
O O1 0.500000 0.500000 0.500000
O O2 0.528643 0.313523 0.660295
O O3 0.884838 0.367783 0.671796
O O4 0.608464 0.684486 0.638928
O O5 0.806355 0.638356 0.127138
O O6 0.905642 0.978275 0.078392
O O7 0.699470 0.797285 0.941953
O O8 0.500000 0.000000 0.000000
O O9 0.849247 0.662855 0.521384
O O10 0.821769 0.700734 0.354481
O O11 0.614881 0.019665 0.355043
O O12 0.210281 0.749652 0.861684
O O13 0.806266 0.901206 0.767980
O O14 0.056247 0.629159 0.968489
O O15 0.163400 0.596701 0.718135
O O16 0.336466 0.392799 0.186640
O O17 0.459799 0.528961 0.082042
#
# Coordination Sequence:
#
# PCOD8022330 Si02
#       8
#     2   2   2   2   2   2   2   2
#     4  10  23  47  70  98 139 182 224 293 346 405
#     4  11  21  38  65  96 132 176 233 277 331 409
#     4  10  25  45  67 104 137 177 234 291 340 417
#     4  11  23  42  64  97 136 179 225 280 337 407
#     4  10  22  45  71  95 140 181 227 287 352 404
#     4  12  26  43  69 103 137 181 233 278 351 415
#     4  11  21  40  67  95 131 181 227 277 343 408
#     4  11  24  40  63  99 141 176 223 289 337 408
#
# _framework density 23.706282000000002
#
# number of rings (size 3 to 8) (size 9 to 14) (size 15 to 20)
#    0.000    1.250    3.750    1.875    3.500    3.500 
#    0.000    8.750    0.000    0.000    0.000    0.000 
#    0.000    0.000    0.000    0.000    0.000    0.000 
#
# Total GULP energy -198338.815178 kJ/mol
# GULP energy per Si atom -12396.175949 kJ/mol
# Density = 2.365233 g / cm^3
# Si number density = 23.706282 Si / 1000 Ang^3
#
#
#
# Elastic Constant Matrix: (Units=GPa)
#
#
# Indices 1 2 3 4 5 6 
#
# 1 102.3974 46.5049 24.1401 3.6309 -5.9282 -26.2534
# 2 46.5049 117.8340 49.8908 22.3164 -3.2724 -2.2642
# 3 24.1401 49.8908 102.6693 23.0500 1.4873 -14.8806
# 4 3.6309 22.3164 23.0500 41.1701 -5.4958 4.4172
# 5 -5.9282 -3.2724 1.4873 -5.4958 27.1648 3.3524
# 6 -26.2534 -2.2642 -14.8806 4.4172 3.3524 32.9600
#
#
#
# Elastic Compliance Matrix: (Units=1/GPa)
#
#
# Indices 1 2 3 4 5 6 
#
# 1 0.015659 -0.006463 0.001180 0.000277 0.001098 0.012413
# 2 -0.006463 0.013821 -0.005419 -0.003119 0.000697 -0.006298
# 3 0.001180 -0.005419 0.014964 -0.006963 -0.003688 0.008631
# 4 0.000277 -0.003119 -0.006963 0.031728 0.007491 -0.008151
# 5 0.001098 0.000697 -0.003688 0.007491 0.039566 -0.005771
# 6 0.012413 -0.006298 0.008631 -0.008151 -0.005771 0.045371
#
#
# Mechanical properties :
#
#
# Convention : Reuss Voigt Hill
#
# Bulk Modulus (GPa) = 43.40484 62.66358 53.03421
# Shear Modulus (GPa) = 26.28916 33.74996 30.01956
#
# Velocity S-wave (km/s) = 3.33371 3.77725 3.56239
# Velocity P-wave (km/s) = 5.75911 6.74642 6.27222
#
# Compressibility (1/GPa) = 0.02303891
#
# Stress axis : x y z
#
# Youngs Moduli (GPa) = 63.85984 72.35521 66.82893
#
# Poissons Ratio (x) = 0.46764 -0.07885
# Poissons Ratio (y) = 0.41273 0.36215
# Poissons Ratio (z) = -0.07535 0.39210
#
# Static dielectric constant tensor:
#      x y z
#    x 4.733720 0.090180 0.140560 
#    y 0.090180 4.155340 0.286480 
#    z 0.140560 0.286480 4.252670 
# 
# 
# High freq. dielectric constant tensor:
#      x y z
#    x 1.960010 -0.001800 0.007420 
#    y -0.001800 1.917250 0.021280 
#    z 0.007420 0.021280 1.943330 
# 
# From -- ./inp_files/141621.got.cif
#   From: 2010.06.25/outbox.cif.g09.slc.cpg/sg2_71_cif.got.tgz:141621.got - 2010.06.27 13:26:56.
