data_PCOD8022551
_publ_section_title
;
Structure prediction by ZEFSAII (Michael W. Deem and Ramdas Pophale) SiO2 
 PCOD8022551
Probable space group: P -1
;
_chemical_formula_sum "Si O2"
_cell_formula_units_Z 14
_cell_length_a 8.413133
_cell_length_b 14.138679
_cell_length_c 8.915862
_cell_angle_alpha 120.612256
_cell_angle_beta 50.282531
_cell_angle_gamma 135.158463
_cell_volume 572.155525
_symmetry_space_group_name_H-M "P -1"
_symmetry_group_IT_number 2
_symmetry_cell_setting 'triclinic'
loop_
_space_group_symop_operation_xyz
x,y,z
-x,-y,-z
loop_
_atom_site_type_symbol
_atom_site_label
_atom_site_fract_x
_atom_site_fract_y
_atom_site_fract_z
Si Si1 0.468139 0.819399 0.339449
Si Si2 0.560884 0.593760 0.397203
Si Si3 0.978537 0.383153 0.013657
Si Si4 0.975366 0.033529 0.875420
Si Si5 0.403445 0.943633 0.745946
Si Si6 0.421196 0.177041 0.261663
Si Si7 0.699055 0.474255 0.798858
O O1 0.313899 0.839014 0.576153
O O2 0.346694 0.667209 0.241695
O O3 0.744279 0.873706 0.287559
O O4 0.483729 0.904923 0.255219
O O5 0.500000 0.500000 0.500000
O O6 0.821904 0.641038 0.196798
O O7 0.600196 0.727992 0.538377
O O8 0.318584 0.518154 0.365869
O O9 0.038674 0.419064 0.185879
O O10 0.000000 0.500000 0.000000
O O11 0.688392 0.255184 0.075249
O O12 0.810102 0.893289 0.771471
O O13 0.835093 0.108379 0.038985
O O14 0.000000 0.000000 0.000000
O O15 0.611915 0.944183 0.718388
O O16 0.500000 0.500000 0.000000
#
# Coordination Sequence:
#
# PCOD8022551 Si02
#       7
#     2   2   2   2   2   2   2
#     4  10  22  47  67 104 137 176 239 280 354 408
#     4  11  24  48  70 106 142 188 235 291 354 421
#     4  11  26  46  73 105 144 189 231 301 347 423
#     4  10  25  43  67  96 137 187 223 293 342 416
#     4  10  23  42  71 101 135 183 227 292 341 423
#     4  12  25  46  67 106 142 180 244 280 364 414
#     4  10  24  46  76 102 145 188 230 293 354 419
#
# _framework density 24.468872000000001
#
# number of rings (size 3 to 8) (size 9 to 14) (size 15 to 20)
#    0.000    1.429    2.857    0.429    8.000    2.286 
#    7.714    0.000    0.000    0.000    0.000    0.000 
#    0.000    0.000    0.000    0.000    0.000    0.000 
#
# Total GULP energy -173463.835725 kJ/mol
# GULP energy per Si atom -12390.273980 kJ/mol
# Density = 2.441318 g / cm^3
# Si number density = 24.468872 Si / 1000 Ang^3
#
#
#
# Elastic Constant Matrix: (Units=GPa)
#
#
# Indices 1 2 3 4 5 6 
#
# 1 118.3492 27.8034 29.6692 8.4815 23.7583 -5.8835
# 2 27.8034 70.5899 29.9350 9.5628 -0.3737 -11.3871
# 3 29.6692 29.9350 133.0421 17.2825 -0.9495 2.1440
# 4 8.4815 9.5628 17.2825 38.0626 -1.0057 -5.2362
# 5 23.7583 -0.3737 -0.9495 -1.0057 40.6774 7.9504
# 6 -5.8835 -11.3871 2.1440 -5.2362 7.9504 55.3217
#
#
#
# Elastic Compliance Matrix: (Units=1/GPa)
#
#
# Indices 1 2 3 4 5 6 
#
# 1 0.011190 -0.003370 -0.001699 -0.000855 -0.006916 0.001475
# 2 -0.003370 0.017497 -0.002984 -0.001843 0.001431 0.002979
# 3 -0.001699 -0.002984 0.009013 -0.003153 0.001419 -0.001647
# 4 -0.000855 -0.001843 -0.003153 0.028688 0.000674 0.002270
# 5 -0.006916 0.001431 0.001419 0.000674 0.029602 -0.004686
# 6 0.001475 0.002979 -0.001647 0.002270 -0.004686 0.019798
#
#
# Mechanical properties :
#
#
# Convention : Reuss Voigt Hill
#
# Bulk Modulus (GPa) = 46.30873 55.19959 50.75416
# Shear Modulus (GPa) = 35.94761 42.45057 39.19909
#
# Velocity S-wave (km/s) = 3.83706 4.16971 4.00684
# Velocity P-wave (km/s) = 6.21268 6.76683 6.49567
#
# Compressibility (1/GPa) = 0.02159420
#
# Stress axis : x y z
#
# Youngs Moduli (GPa) = 89.36412 57.15417 110.95076
#
# Poissons Ratio (x) = 0.19259 0.18854
# Poissons Ratio (y) = 0.30112 0.33105
# Poissons Ratio (z) = 0.15186 0.17053
#
# Static dielectric constant tensor:
#      x y z
#    x 5.334420 -0.107080 -0.602930 
#    y -0.107080 4.240930 0.137870 
#    z -0.602930 0.137870 5.458700 
# 
# 
# High freq. dielectric constant tensor:
#      x y z
#    x 1.986090 -0.020250 -0.000760 
#    y -0.020250 1.945880 0.016560 
#    z -0.000760 0.016560 1.990810 
# 
# From -- ./inp_files/203526.got.cif
#   From: 2010.06.25/outbox.cif.g09.slc.cpg/sg2_102_cif.got.tgz:203526.got - 2010.06.27 13:26:56.
