data_PCOD8022657
_publ_section_title
;
Structure prediction by ZEFSAII (Michael W. Deem and Ramdas Pophale) SiO2 
 PCOD8022657
Probable space group: P -1
;
_chemical_formula_sum "Si O2"
_cell_formula_units_Z 16
_cell_length_a 14.268611
_cell_length_b 10.973623
_cell_length_c 8.776753
_cell_angle_alpha 116.683911
_cell_angle_beta 138.018599
_cell_angle_gamma 82.919686
_cell_volume 768.660562
_symmetry_space_group_name_H-M "P -1"
_symmetry_group_IT_number 2
_symmetry_cell_setting 'triclinic'
loop_
_space_group_symop_operation_xyz
x,y,z
-x,-y,-z
loop_
_atom_site_type_symbol
_atom_site_label
_atom_site_fract_x
_atom_site_fract_y
_atom_site_fract_z
Si Si1 0.844550 0.806617 0.367067
Si Si2 0.604028 0.864962 0.545437
Si Si3 0.934513 0.604209 0.777026
Si Si4 0.343870 0.379051 0.702173
Si Si5 0.923676 0.099242 0.047272
Si Si6 0.495068 0.984455 0.739316
Si Si7 0.965046 0.652647 0.186284
Si Si8 0.255492 0.927669 0.659779
O O1 0.710980 0.720250 0.270724
O O2 0.003837 0.858731 0.674664
O O3 0.851251 0.703747 0.177248
O O4 0.812667 0.944866 0.340910
O O5 0.639291 0.719831 0.474197
O O6 0.522062 0.853101 0.603404
O O7 0.497380 0.885727 0.295035
O O8 0.750050 0.011436 0.809499
O O9 0.780005 0.554182 0.464738
O O10 0.015026 0.486676 0.786409
O O11 0.049535 0.757415 0.941221
O O12 0.894619 0.614230 0.911745
O O13 0.500000 0.500000 0.000000
O O14 0.000000 0.000000 0.000000
O O15 0.332811 0.925164 0.589141
O O16 0.624674 0.054595 0.054897
O O17 0.127165 0.774448 0.439074
#
# Coordination Sequence:
#
# PCOD8022657 Si02
#       8
#     2   2   2   2   2   2   2   2
#     4  11  23  41  66  97 119 164 213 255 314 370
#     4  11  21  41  62  94 122 164 214 248 307 366
#     4  10  24  42  63  91 129 162 206 256 315 366
#     4  11  25  43  64  88 130 166 205 256 306 376
#     4  11  19  39  69  92 122 161 210 263 303 358
#     4  10  23  37  61  96 122 166 206 253 306 368
#     4  11  24  41  63  96 125 163 204 262 319 363
#     4  11  22  40  65  91 133 156 208 261 306 371
#
# _framework density 20.815429999999999
#
# number of rings (size 3 to 8) (size 9 to 14) (size 15 to 20)
#    0.000    1.250    3.750    2.625    3.500    2.000 
#    9.000    0.625    0.000    0.000    0.000    0.000 
#    0.000    0.000    0.000    0.000    0.000    0.000 
#
# Total GULP energy -198455.081756 kJ/mol
# GULP energy per Si atom -12403.442610 kJ/mol
# Density = 2.076805 g / cm^3
# Si number density = 20.815430 Si / 1000 Ang^3
#
#
#
# Elastic Constant Matrix: (Units=GPa)
#
#
# Indices 1 2 3 4 5 6 
#
# 1 105.7921 26.7882 16.4913 13.7329 -12.9926 -24.5481
# 2 26.7882 113.1190 33.0907 8.8969 10.2658 -8.5439
# 3 16.4913 33.0907 85.0023 5.9489 7.9069 3.9990
# 4 13.7329 8.8969 5.9489 31.2968 0.8895 -2.6660
# 5 -12.9926 10.2658 7.9069 0.8895 25.4537 1.6730
# 6 -24.5481 -8.5439 3.9990 -2.6660 1.6730 23.8345
#
#
#
# Elastic Compliance Matrix: (Units=1/GPa)
#
#
# Indices 1 2 3 4 5 6 
#
# 1 0.015666 -0.002036 -0.003465 -0.004632 0.009081 0.014831
# 2 -0.002036 0.011062 -0.003528 -0.001227 -0.004536 0.002641
# 3 -0.003465 -0.003528 0.014602 -0.000728 -0.004392 -0.007057
# 4 -0.004632 -0.001227 -0.000728 0.034462 -0.002779 -0.001038
# 5 0.009081 -0.004536 -0.004392 -0.002779 0.046894 0.004862
# 6 0.014831 0.002641 -0.007057 -0.001038 0.004862 0.058905
#
#
# Mechanical properties :
#
#
# Convention : Reuss Voigt Hill
#
# Bulk Modulus (GPa) = 42.97053 50.73931 46.85492
# Shear Modulus (GPa) = 24.10732 31.28653 27.69692
#
# Velocity S-wave (km/s) = 3.40685 3.88112 3.65169
# Velocity P-wave (km/s) = 6.01364 6.67179 6.35125
#
# Compressibility (1/GPa) = 0.02327176
#
# Stress axis : x y z
#
# Youngs Moduli (GPa) = 63.83181 90.39947 68.48575
#
# Poissons Ratio (x) = 0.18405 0.23731
# Poissons Ratio (y) = 0.12996 0.24161
# Poissons Ratio (z) = 0.22119 0.31892
#
# Static dielectric constant tensor:
#      x y z
#    x 3.994140 -0.048120 -0.089310 
#    y -0.048120 3.743760 -0.080910 
#    z -0.089310 -0.080910 3.904650 
# 
# 
# High freq. dielectric constant tensor:
#      x y z
#    x 1.821030 -0.006950 -0.008990 
#    y -0.006950 1.810060 -0.014620 
#    z -0.008990 -0.014620 1.815350 
# 
# From -- ./inp_files/262372.got.cif
#   From: 2010.06.25/outbox.cif.g09.slc.cpg/sg2_132_cif.got.tgz:262372.got - 2010.06.27 13:26:56.
