data_PCOD8022280
_publ_section_title
;
Structure prediction by ZEFSAII (Michael W. Deem and Ramdas Pophale) SiO2 
 PCOD8022280
Probable space group: P -1
;
_chemical_formula_sum "Si O2"
_cell_formula_units_Z 16
_cell_length_a 8.545486
_cell_length_b 11.986599
_cell_length_c 16.986347
_cell_angle_alpha 127.027264
_cell_angle_beta 129.499825
_cell_angle_gamma 31.439173
_cell_volume 692.585654
_symmetry_space_group_name_H-M "P -1"
_symmetry_group_IT_number 2
_symmetry_cell_setting 'triclinic'
loop_
_space_group_symop_operation_xyz
x,y,z
-x,-y,-z
loop_
_atom_site_type_symbol
_atom_site_label
_atom_site_fract_x
_atom_site_fract_y
_atom_site_fract_z
Si Si1 0.026578 0.169011 0.937287
Si Si2 0.653845 0.432835 0.604370
Si Si3 0.607491 0.182110 0.748919
Si Si4 0.758413 0.529629 0.102309
Si Si5 0.616078 0.001588 0.385200
Si Si6 0.401639 0.227630 0.257662
Si Si7 0.633468 0.846577 0.084447
Si Si8 0.365467 0.333924 0.565145
O O1 0.155023 0.236793 0.959725
O O2 0.943618 0.085110 0.813739
O O3 0.740099 0.393770 0.989999
O O4 0.290415 0.975647 0.000474
O O5 0.500000 0.500000 0.500000
O O6 0.559836 0.631503 0.695994
O O7 0.503743 0.403063 0.603855
O O8 0.028355 0.220599 0.620034
O O9 0.517838 0.304107 0.853965
O O10 0.605796 0.018118 0.692859
O O11 0.400235 0.323619 0.666062
O O12 0.781432 0.651953 0.104503
O O13 0.055737 0.362853 0.183581
O O14 0.460740 0.190934 0.354893
O O15 0.583889 0.093148 0.498939
O O16 0.636284 0.994840 0.193248
O O17 0.000000 0.500000 0.500000
#
# Coordination Sequence:
#
# PCOD8022280 Si02
#       8
#     2   2   2   2   2   2   2   2
#     4  10  25  42  68 105 132 181 236 293 354 416
#     4  12  25  45  77 102 137 193 244 288 352 423
#     4  12  25  43  70 101 142 183 231 289 359 415
#     4  11  22  46  70  96 142 184 228 288 353 431
#     4  12  25  49  72 102 146 190 237 293 347 429
#     4  11  22  41  76  99 135 184 239 276 357 413
#     4  10  22  45  69  99 142 177 239 291 348 424
#     4  12  28  48  70 108 149 183 237 297 356 420
#
# _framework density 23.101834
#
# number of rings (size 3 to 8) (size 9 to 14) (size 15 to 20)
#    0.000    0.750    3.750    3.000    3.500    1.500 
#    4.500    0.000    0.000    0.000    0.000    0.000 
#    0.000    0.000    0.000    0.000    0.000    0.000 
#
# Total GULP energy -198262.419866 kJ/mol
# GULP energy per Si atom -12391.401242 kJ/mol
# Density = 2.304925 g / cm^3
# Si number density = 23.101834 Si / 1000 Ang^3
#
#
#
# Elastic Constant Matrix: (Units=GPa)
#
#
# Indices 1 2 3 4 5 6 
#
# 1 90.1051 28.2689 34.1197 3.4035 11.2963 21.2082
# 2 28.2689 87.7998 35.6774 1.5626 6.0924 17.6170
# 3 34.1197 35.6774 123.7283 6.4559 22.4101 17.6323
# 4 3.4035 1.5626 6.4559 37.3569 9.9514 0.5100
# 5 11.2963 6.0924 22.4101 9.9514 44.4493 -0.6648
# 6 21.2082 17.6170 17.6323 0.5100 -0.6648 20.9225
#
#
#
# Elastic Compliance Matrix: (Units=1/GPa)
#
#
# Indices 1 2 3 4 5 6 
#
# 1 0.015708 -0.001555 -0.001349 -0.000072 -0.003285 -0.013578
# 2 -0.001555 0.014680 -0.002473 0.000221 -0.000550 -0.008723
# 3 -0.001349 -0.002473 0.010896 -0.000288 -0.004835 -0.005879
# 4 -0.000072 0.000221 -0.000288 0.028493 -0.006257 -0.000763
# 5 -0.003285 -0.000550 -0.004835 -0.006257 0.027379 0.008890
# 6 -0.013578 -0.008723 -0.005879 -0.000763 0.008890 0.074159
#
#
# Mechanical properties :
#
#
# Convention : Reuss Voigt Hill
#
# Bulk Modulus (GPa) = 32.75676 55.30725 44.03200
# Shear Modulus (GPa) = 26.00836 34.11688 30.06262
#
# Velocity S-wave (km/s) = 3.35895 3.84709 3.61128
# Velocity P-wave (km/s) = 5.40865 6.61257 6.04068
#
# Compressibility (1/GPa) = 0.03052805
#
# Stress axis : x y z
#
# Youngs Moduli (GPa) = 63.66379 68.12172 91.77698
#
# Poissons Ratio (x) = 0.10596 0.12383
# Poissons Ratio (y) = 0.09902 0.22695
# Poissons Ratio (z) = 0.08590 0.16845
#
# Static dielectric constant tensor:
#      x y z
#    x 5.680760 0.414170 0.572170 
#    y 0.414170 4.266900 0.347730 
#    z 0.572170 0.347730 4.728790 
# 
# 
# High freq. dielectric constant tensor:
#      x y z
#    x 1.917560 0.004130 0.003100 
#    y 0.004130 1.901940 0.001910 
#    z 0.003100 0.001910 1.936920 
# 
# From -- ./inp_files/43342.got.cif
#   From: 2010.06.25/outbox.cif.g09.slc.cpg/sg2_22_cif.got.tgz:43342.got - 2010.06.27 13:26:56.
