data_PCOD8022063
_publ_section_title
;
Structure prediction by ZEFSAII (Michael W. Deem and Ramdas Pophale) SiO2 
 PCOD8022063
Probable space group: P -1
;
_chemical_formula_sum "Si O2"
_cell_formula_units_Z 16
_cell_length_a 15.161002
_cell_length_b 14.779044
_cell_length_c 13.203799
_cell_angle_alpha 149.457846
_cell_angle_beta 141.951377
_cell_angle_gamma 28.927270
_cell_volume 720.346955
_symmetry_space_group_name_H-M "P -1"
_symmetry_group_IT_number 2
_symmetry_cell_setting 'triclinic'
loop_
_space_group_symop_operation_xyz
x,y,z
-x,-y,-z
loop_
_atom_site_type_symbol
_atom_site_label
_atom_site_fract_x
_atom_site_fract_y
_atom_site_fract_z
Si Si1 0.722731 0.541797 0.960248
Si Si2 0.824331 0.522209 0.257594
Si Si3 0.072386 0.174558 0.306066
Si Si4 0.487290 0.388237 0.606135
Si Si5 0.465990 0.721399 0.225415
Si Si6 0.083598 0.794649 0.604142
Si Si7 0.250218 0.089353 0.714636
Si Si8 0.049693 0.114765 0.733838
O O1 0.549090 0.545459 0.802581
O O2 0.872999 0.370470 0.847667
O O3 0.808298 0.460713 0.071111
O O4 0.659982 0.791616 0.118519
O O5 0.927867 0.628943 0.454894
O O6 0.626064 0.716908 0.317485
O O7 0.937419 0.283254 0.191892
O O8 0.987765 0.114603 0.258729
O O9 0.270231 0.949849 0.232175
O O10 0.525978 0.280933 0.648695
O O11 0.273527 0.536614 0.528590
O O12 0.601505 0.180045 0.430629
O O13 0.500000 0.500000 0.000000
O O14 0.933895 0.798936 0.410071
O O15 0.121738 0.960312 0.751187
O O16 0.200614 0.121620 0.821156
O O17 0.000000 0.000000 0.500000
#
# Coordination Sequence:
#
# PCOD8022063 Si02
#       8
#     2   2   2   2   2   2   2   2
#     4  12  22  45  71  99 136 175 226 272 336 401
#     4  11  24  40  65  97 130 176 223 269 326 394
#     4  11  23  43  64  94 135 176 219 272 327 390
#     4  12  24  43  66 100 138 173 224 277 334 393
#     4  12  23  38  60  92 131 173 216 265 323 390
#     4  11  22  43  70  93 134 181 215 276 338 389
#     4  11  24  48  69  96 134 178 220 285 333 392
#     4  10  22  44  73  95 130 180 219 279 343 387
#
# _framework density 22.211518000000002
#
# number of rings (size 3 to 8) (size 9 to 14) (size 15 to 20)
#    0.000    0.750    7.500    0.750    0.000    2.000 
#    2.250    0.625    0.000    0.000    0.000    0.000 
#    0.000    0.000    0.000    0.000    0.000    0.000 
#
# Total GULP energy -198438.633516 kJ/mol
# GULP energy per Si atom -12402.414595 kJ/mol
# Density = 2.216096 g / cm^3
# Si number density = 22.211518 Si / 1000 Ang^3
#
#
#
# Elastic Constant Matrix: (Units=GPa)
#
#
# Indices 1 2 3 4 5 6 
#
# 1 131.7585 35.7473 18.0806 4.6706 7.1589 2.6723
# 2 35.7473 131.2813 19.9614 16.2729 -1.4710 -16.7419
# 3 18.0806 19.9614 70.3456 7.7344 7.0258 -2.1153
# 4 4.6706 16.2729 7.7344 14.6737 -4.0119 4.6982
# 5 7.1589 -1.4710 7.0258 -4.0119 28.2072 11.3643
# 6 2.6723 -16.7419 -2.1153 4.6982 11.3643 37.3642
#
#
#
# Elastic Compliance Matrix: (Units=1/GPa)
#
#
# Indices 1 2 3 4 5 6 
#
# 1 0.008516 -0.002415 -0.001543 0.000966 -0.001140 -0.001553
# 2 -0.002415 0.011264 -0.000170 -0.015558 -0.004396 0.008504
# 3 -0.001543 -0.000170 0.016824 -0.011707 -0.007366 0.004699
# 4 0.000966 -0.015558 -0.011707 0.109115 0.029642 -0.030439
# 5 -0.001140 -0.004396 -0.007366 0.029642 0.050137 -0.021281
# 6 -0.001553 0.008504 0.004699 -0.030439 -0.021281 0.041251
#
#
# Mechanical properties :
#
#
# Convention : Reuss Voigt Hill
#
# Bulk Modulus (GPa) = 35.27483 53.44045 44.35764
# Shear Modulus (GPa) = 19.62224 33.35545 26.48884
#
# Velocity S-wave (km/s) = 2.97547 3.87941 3.45711
# Velocity P-wave (km/s) = 5.26502 6.64668 5.99578
#
# Compressibility (1/GPa) = 0.02834883
#
# Stress axis : x y z
#
# Youngs Moduli (GPa) = 117.43051 88.77552 59.43722
#
# Poissons Ratio (x) = 0.21438 0.09169
# Poissons Ratio (y) = 0.28358 0.01013
# Poissons Ratio (z) = 0.18115 0.01512
#
# Static dielectric constant tensor:
#      x y z
#    x 4.811600 0.088020 0.195680 
#    y 0.088020 3.935800 0.037490 
#    z 0.195680 0.037490 3.784050 
# 
# 
# High freq. dielectric constant tensor:
#      x y z
#    x 1.897300 -0.000240 0.003590 
#    y -0.000240 1.861200 0.013050 
#    z 0.003590 0.013050 1.859910 
# 
# From -- ./inp_files/534600.got.cif
#   From: 2010.06.25/outbox.cif.g09.slc.cpg/sg2_268_cif.got.tgz:534600.got - 2010.06.27 13:26:56.
