data_PCOD8022993
_publ_section_title
;
Structure prediction by ZEFSAII (Michael W. Deem and Ramdas Pophale) SiO2 
 PCOD8022993
Probable space group: P -1
;
_chemical_formula_sum "Si O2"
_cell_formula_units_Z 16
_cell_length_a 14.386631
_cell_length_b 9.131246
_cell_length_c 22.662444
_cell_angle_alpha 50.673923
_cell_angle_beta 161.128129
_cell_angle_gamma 130.532815
_cell_volume 729.740315
_symmetry_space_group_name_H-M "P -1"
_symmetry_group_IT_number 2
_symmetry_cell_setting 'triclinic'
loop_
_space_group_symop_operation_xyz
x,y,z
-x,-y,-z
loop_
_atom_site_type_symbol
_atom_site_label
_atom_site_fract_x
_atom_site_fract_y
_atom_site_fract_z
Si Si1 0.859100 0.071787 0.008693
Si Si2 0.473489 0.062845 0.883970
Si Si3 0.055030 0.134934 0.442951
Si Si4 0.561533 0.692507 0.092379
Si Si5 0.087207 0.540065 0.401541
Si Si6 0.298877 0.702035 0.247025
Si Si7 0.746744 0.598747 0.792896
Si Si8 0.951516 0.656966 0.165802
O O1 0.149367 0.169714 0.196178
O O2 0.805286 0.843642 0.026642
O O3 0.892926 0.177972 0.938372
O O4 0.590135 0.122644 0.872671
O O5 0.131872 0.966874 0.698488
O O6 0.520290 0.255655 0.903187
O O7 0.630952 0.895564 0.046883
O O8 0.947917 0.324354 0.352591
O O9 0.375184 0.178677 0.596255
O O10 0.000000 0.000000 0.500000
O O11 0.860833 0.609985 0.292719
O O12 0.296084 0.534765 0.945570
O O13 0.404531 0.550432 0.621605
O O14 0.107141 0.661088 0.321545
O O15 0.268771 0.480690 0.263115
O O16 0.207931 0.686198 0.264065
O O17 0.000000 0.500000 0.000000
#
# Coordination Sequence:
#
# PCOD8022993 Si02
#       8
#     2   2   2   2   2   2   2   2
#     4  11  21  41  67  90 133 174 217 276 335 387
#     4  11  22  42  68  94 130 179 217 272 338 390
#     4  11  22  41  69  92 130 173 224 272 329 399
#     4  11  24  42  65  99 134 170 223 277 328 397
#     4  11  23  43  67  97 133 176 221 277 332 389
#     4  10  23  40  64  94 131 175 220 267 330 397
#     4   9  22  42  64  91 130 171 215 272 334 393
#     4  12  23  40  65 100 133 174 220 278 329 393
#
# _framework density 21.925609000000001
#
# number of rings (size 3 to 8) (size 9 to 14) (size 15 to 20)
#    0.000    1.250    3.750    2.250    0.000    3.500 
#    4.500    0.625    0.000    0.000    0.000    0.000 
#    0.000    0.000    0.000    0.000    0.000    0.000 
#
# Total GULP energy -198212.933525 kJ/mol
# GULP energy per Si atom -12388.308345 kJ/mol
# Density = 2.187571 g / cm^3
# Si number density = 21.925609 Si / 1000 Ang^3
#
#
#
# Elastic Constant Matrix: (Units=GPa)
#
#
# Indices 1 2 3 4 5 6 
#
# 1 74.2423 9.8336 9.4182 -2.6232 25.6481 -1.1700
# 2 9.8336 103.0927 23.1945 6.7868 6.1309 -15.1515
# 3 9.4182 23.1945 102.6172 11.7847 17.8269 -7.8934
# 4 -2.6232 6.7868 11.7847 39.7532 -0.2593 -2.4400
# 5 25.6481 6.1309 17.8269 -0.2593 28.3625 -1.3664
# 6 -1.1700 -15.1515 -7.8934 -2.4400 -1.3664 31.0397
#
#
#
# Elastic Compliance Matrix: (Units=1/GPa)
#
#
# Indices 1 2 3 4 5 6 
#
# 1 0.019945 -0.001234 0.001588 0.000921 -0.018768 -0.000200
# 2 -0.001234 0.011011 -0.001910 -0.001102 0.000155 0.004763
# 3 0.001588 -0.001910 0.011983 -0.003081 -0.008507 0.001558
# 4 0.000921 -0.001102 -0.003081 0.026381 0.001624 0.000859
# 5 -0.018768 0.000155 -0.008507 0.001624 0.057552 -0.000134
# 6 -0.000200 0.004763 0.001558 0.000859 -0.000134 0.034992
#
#
# Mechanical properties :
#
#
# Convention : Reuss Voigt Hill
#
# Bulk Modulus (GPa) = 25.10891 40.53829 32.82360
# Shear Modulus (GPa) = 28.05063 35.66481 31.85772
#
# Velocity S-wave (km/s) = 3.58069 4.03752 3.81595
# Velocity P-wave (km/s) = 5.34526 6.34544 5.86670
#
# Compressibility (1/GPa) = 0.03982650
#
# Stress axis : x y z
#
# Youngs Moduli (GPa) = 50.13894 90.82163 83.45500
#
# Poissons Ratio (x) = 0.11204 -0.13249
# Poissons Ratio (y) = 0.06185 0.15936
# Poissons Ratio (z) = -0.07960 0.17343
#
# Static dielectric constant tensor:
#      x y z
#    x 3.845450 -0.083590 -0.017270 
#    y -0.083590 4.290440 0.207230 
#    z -0.017270 0.207230 4.082840 
# 
# 
# High freq. dielectric constant tensor:
#      x y z
#    x 1.847190 -0.006380 0.003570 
#    y -0.006380 1.874770 0.007590 
#    z 0.003570 0.007590 1.854410 
# 
# From -- ./inp_files/611751.got.cif
#   From: 2010.06.25/outbox.cif.g09.slc.cpg/sg2_306_cif.got.tgz:611751.got - 2010.06.27 13:26:56.
