data_PCOD8022999
_publ_section_title
;
Structure prediction by ZEFSAII (Michael W. Deem and Ramdas Pophale) SiO2 
 PCOD8022999
Probable space group: P -1
;
_chemical_formula_sum "Si O2"
_cell_formula_units_Z 12
_cell_length_a 12.843160
_cell_length_b 5.277858
_cell_length_c 9.895692
_cell_angle_alpha 133.226056
_cell_angle_beta 71.049570
_cell_angle_gamma 97.059404
_cell_volume 457.427804
_symmetry_space_group_name_H-M "P -1"
_symmetry_group_IT_number 2
_symmetry_cell_setting 'triclinic'
loop_
_space_group_symop_operation_xyz
x,y,z
-x,-y,-z
loop_
_atom_site_type_symbol
_atom_site_label
_atom_site_fract_x
_atom_site_fract_y
_atom_site_fract_z
Si Si1 0.738310 0.115136 0.818449
Si Si2 0.612094 0.750382 0.969965
Si Si3 0.079210 0.712662 0.775507
Si Si4 0.318378 0.411401 0.558868
Si Si5 0.504583 0.512665 0.688153
Si Si6 0.989217 0.196634 0.784796
O O1 0.680504 0.518351 0.971632
O O2 0.865538 0.118601 0.797374
O O3 0.689139 0.913246 0.887583
O O4 0.725589 0.923515 0.610748
O O5 0.533807 0.502887 0.832059
O O6 0.533769 0.075887 0.189212
O O7 0.209652 0.679796 0.751119
O O8 0.036459 0.333010 0.673988
O O9 0.065750 0.836042 0.669929
O O10 0.000000 0.000000 0.000000
O O11 0.401413 0.303402 0.613848
O O12 0.386916 0.611128 0.494002
O O13 0.000000 0.500000 0.000000
#
# Coordination Sequence:
#
# PCOD8022999 Si02
#       6
#     2   2   2   2   2   2
#     4  11  24  42  69 100 134 172 218 276 324 389
#     4  10  23  43  70  98 132 177 218 260 331 402
#     4  10  23  42  66  95 126 177 217 268 326 388
#     4  10  23  42  68 101 137 168 219 277 328 384
#     4   9  22  43  68 101 134 175 215 269 329 393
#     4  10  23  40  64  96 125 175 221 264 324 385
#
# _framework density 26.233646
#
# number of rings (size 3 to 8) (size 9 to 14) (size 15 to 20)
#    0.000    2.000    0.000    1.000    9.333   10.667 
#    0.000    6.667    0.000    0.000    0.000    0.000 
#    0.000    0.000    0.000    0.000    0.000    0.000 
#
# Total GULP energy -148701.919469 kJ/mol
# GULP energy per Si atom -12391.826622 kJ/mol
# Density = 2.617394 g / cm^3
# Si number density = 26.233646 Si / 1000 Ang^3
#
#
#
# Elastic Constant Matrix: (Units=GPa)
#
#
# Indices 1 2 3 4 5 6 
#
# 1 175.8892 35.8563 12.4739 1.0117 -9.3998 27.0219
# 2 35.8563 142.1558 -5.8572 18.0381 -10.2910 0.0432
# 3 12.4739 -5.8572 54.4250 -11.9737 -4.5998 25.7055
# 4 1.0117 18.0381 -11.9737 14.5834 5.9913 -1.1597
# 5 -9.3998 -10.2910 -4.5998 5.9913 58.4164 0.5038
# 6 27.0219 0.0432 25.7055 -1.1597 0.5038 34.7602
#
#
#
# Elastic Compliance Matrix: (Units=1/GPa)
#
#
# Indices 1 2 3 4 5 6 
#
# 1 0.007034 -0.002003 0.002178 0.002929 0.000710 -0.006989
# 2 -0.002003 0.009506 -0.003202 -0.015054 0.002615 0.003373
# 3 0.002178 -0.003202 0.038571 0.033304 -0.000341 -0.029096
# 4 0.002929 -0.015054 0.033304 0.117195 -0.011381 -0.022813
# 5 0.000710 0.002615 -0.000341 -0.011381 0.018842 -0.000956
# 6 -0.006989 0.003373 -0.029096 -0.022813 -0.000956 0.054967
#
#
# Mechanical properties :
#
#
# Convention : Reuss Voigt Hill
#
# Bulk Modulus (GPa) = 20.38430 50.82402 35.60416
# Shear Modulus (GPa) = 18.62047 43.55179 31.08613
#
# Velocity S-wave (km/s) = 2.66709 4.07891 3.44608
# Velocity P-wave (km/s) = 4.15591 6.44973 5.42543
#
# Compressibility (1/GPa) = 0.04905736
#
# Stress axis : x y z
#
# Youngs Moduli (GPa) = 142.16713 105.19341 25.92621
#
# Poissons Ratio (x) = 0.21067 -0.05646
# Poissons Ratio (y) = 0.28471 0.08301
# Poissons Ratio (z) = -0.30958 0.33682
#
# Static dielectric constant tensor:
#      x y z
#    x 5.011420 0.137780 0.126510 
#    y 0.137780 3.817290 -0.270940 
#    z 0.126510 -0.270940 4.656510 
# 
# 
# High freq. dielectric constant tensor:
#      x y z
#    x 2.065730 0.001540 -0.003490 
#    y 0.001540 2.044520 0.000170 
#    z -0.003490 0.000170 2.035980 
# 
# From -- ./inp_files/45152.got.cif
#   From: 2010.06.25/outbox.cif.g09.slc.cpg/sg2_23_cif.got.tgz:45152.got - 2010.06.27 13:26:56.
