data_PCOD8022431
_publ_section_title
;
Structure prediction by ZEFSAII (Michael W. Deem and Ramdas Pophale) SiO2 
 PCOD8022431
Probable space group: P -1
;
_chemical_formula_sum "Si O2"
_cell_formula_units_Z 14
_cell_length_a 10.727648
_cell_length_b 5.316667
_cell_length_c 13.204378
_cell_angle_alpha 85.398326
_cell_angle_beta 105.299616
_cell_angle_gamma 52.033074
_cell_volume 542.772401
_symmetry_space_group_name_H-M "P -1"
_symmetry_group_IT_number 2
_symmetry_cell_setting 'triclinic'
loop_
_space_group_symop_operation_xyz
x,y,z
-x,-y,-z
loop_
_atom_site_type_symbol
_atom_site_label
_atom_site_fract_x
_atom_site_fract_y
_atom_site_fract_z
Si Si1 0.810543 0.276633 0.987671
Si Si2 0.757739 0.786641 0.529252
Si Si3 0.287136 0.685174 0.368423
Si Si4 0.488660 0.019381 0.117417
Si Si5 0.840062 0.749278 0.328397
Si Si6 0.529570 0.471992 0.795626
Si Si7 0.116870 0.781039 0.767506
O O1 0.716591 0.658195 0.916301
O O2 0.802009 0.260732 0.105886
O O3 0.695714 0.207203 0.913057
O O4 0.000000 0.000000 0.000000
O O5 0.678940 0.631315 0.563565
O O6 0.726425 0.830018 0.400645
O O7 0.959302 0.556698 0.598679
O O8 0.666914 0.149039 0.548867
O O9 0.416485 0.545780 0.306690
O O10 0.090223 0.956379 0.279136
O O11 0.418950 0.854792 0.807614
O O12 0.500000 0.000000 0.000000
O O13 0.564714 0.674443 0.201826
O O14 0.803904 0.595688 0.233758
O O15 0.815843 0.082164 0.295578
#
# Coordination Sequence:
#
# PCOD8022431 Si02
#       7
#     2   2   2   2   2   2   2
#     4  10  22  34  53  80 111 142 173 212 260 311
#     4   9  17  28  43  63  97 135 171 205 256 302
#     4  10  17  29  46  70  98 132 168 211 253 306
#     4  10  22  38  54  72 107 146 178 217 255 302
#     4   9  18  28  42  63  96 139 171 204 248 313
#     4  10  21  34  54  75 106 138 176 215 255 311
#     4  10  18  29  44  68 101 134 171 203 253 306
#
# _framework density 25.793498
#
# number of rings (size 3 to 8) (size 9 to 14) (size 15 to 20)
#    0.857    1.429    1.429    2.143    2.000    5.143 
#    0.000    0.000    0.000    0.000    0.000    0.000 
#    0.000   22.857    0.000    0.000    0.000    0.000 
#
# Total GULP energy -173521.611064 kJ/mol
# GULP energy per Si atom -12394.400790 kJ/mol
# Density = 2.573479 g / cm^3
# Si number density = 25.793498 Si / 1000 Ang^3
#
#
#
# Elastic Constant Matrix: (Units=GPa)
#
#
# Indices 1 2 3 4 5 6 
#
# 1 87.9473 40.2446 27.4990 10.7915 -21.5550 21.7862
# 2 40.2446 189.6763 24.3343 18.5169 -25.8637 14.2991
# 3 27.4990 24.3343 135.2826 35.8173 -28.4206 15.5057
# 4 10.7915 18.5169 35.8173 36.2732 6.5551 5.6822
# 5 -21.5550 -25.8637 -28.4206 6.5551 46.1014 -8.5463
# 6 21.7862 14.2991 15.5057 5.6822 -8.5463 35.2443
#
#
#
# Elastic Compliance Matrix: (Units=1/GPa)
#
#
# Indices 1 2 3 4 5 6 
#
# 1 0.015729 -0.001653 0.000168 -0.003934 0.005775 -0.007092
# 2 -0.001653 0.006567 0.001482 -0.005071 0.004474 -0.000392
# 3 0.000168 0.001482 0.014123 -0.016654 0.011727 -0.001390
# 4 -0.003934 -0.005071 -0.016654 0.052220 -0.022770 -0.002124
# 5 0.005775 0.004474 0.011727 -0.022770 0.037793 0.002291
# 6 -0.007092 -0.000392 -0.001390 -0.002124 0.002291 0.034426
#
#
# Mechanical properties :
#
#
# Convention : Reuss Voigt Hill
#
# Bulk Modulus (GPa) = 27.46171 66.34023 46.90097
# Shear Modulus (GPa) = 28.90121 44.91232 36.90677
#
# Velocity S-wave (km/s) = 3.35100 4.17733 3.78677
# Velocity P-wave (km/s) = 5.06380 7.00302 6.11083
#
# Compressibility (1/GPa) = 0.03641433
#
# Stress axis : x y z
#
# Youngs Moduli (GPa) = 63.57611 152.26862 70.80401
#
# Poissons Ratio (x) = 0.25165 -0.01187
# Poissons Ratio (y) = 0.10507 -0.10494
# Poissons Ratio (z) = -0.01066 -0.22568
#
# Static dielectric constant tensor:
#      x y z
#    x 4.937090 -0.001780 0.510240 
#    y -0.001780 5.387910 0.054700 
#    z 0.510240 0.054700 5.055460 
# 
# 
# High freq. dielectric constant tensor:
#      x y z
#    x 2.045460 -0.022280 0.028520 
#    y -0.022280 2.070630 -0.004560 
#    z 0.028520 -0.004560 2.034040 
# 
# From -- ./inp_files/84905.got.cif
#   From: 2010.06.25/outbox.cif.g09.slc.cpg/sg2_43_cif.got.tgz:84905.got - 2010.06.27 13:26:56.
