data_PCOD8022215
_publ_section_title
;
Structure prediction by ZEFSAII (Michael W. Deem and Ramdas Pophale) SiO2 
 PCOD8022215
Probable space group: P -1
;
_chemical_formula_sum "Si O2"
_cell_formula_units_Z 16
_cell_length_a 12.136762
_cell_length_b 10.097386
_cell_length_c 19.061202
_cell_angle_alpha 154.400406
_cell_angle_beta 132.001531
_cell_angle_gamma 50.198768
_cell_volume 745.141841
_symmetry_space_group_name_H-M "P -1"
_symmetry_group_IT_number 2
_symmetry_cell_setting 'triclinic'
loop_
_space_group_symop_operation_xyz
x,y,z
-x,-y,-z
loop_
_atom_site_type_symbol
_atom_site_label
_atom_site_fract_x
_atom_site_fract_y
_atom_site_fract_z
Si Si1 0.102614 0.236681 0.376228
Si Si2 0.296776 0.402011 0.411874
Si Si3 0.553708 0.308281 0.142739
Si Si4 0.599173 0.522753 0.119802
Si Si5 0.708770 0.306113 0.724302
Si Si6 0.829153 0.017220 0.952029
Si Si7 0.163951 0.083920 0.937237
Si Si8 0.369681 0.790262 0.509022
O O1 0.181677 0.416054 0.434221
O O2 0.000000 0.500000 0.500000
O O3 0.225636 0.024959 0.373625
O O4 0.003740 0.983625 0.181234
O O5 0.274000 0.700602 0.493325
O O6 0.464130 0.389853 0.506764
O O7 0.270360 0.115066 0.213936
O O8 0.524000 0.339147 0.061642
O O9 0.466723 0.608749 0.287541
O O10 0.732954 0.232093 0.196042
O O11 0.500000 0.000000 0.000000
O O12 0.612065 0.855782 0.312946
O O13 0.500000 0.500000 0.000000
O O14 0.766832 0.375759 0.103664
O O15 0.718064 0.278240 0.631263
O O16 0.796920 0.592566 0.926098
O O17 0.808816 0.852163 0.938515
O O18 0.000000 0.000000 0.000000
#
# Coordination Sequence:
#
# PCOD8022215 Si02
#       8
#     2   2   2   2   2   2   2   2
#     4  12  28  45  65 102 142 177 219 275 344 402
#     4  11  24  45  68  99 136 176 220 279 335 391
#     4   9  22  40  70  98 127 172 225 276 331 390
#     4  11  23  41  64 100 131 165 226 272 324 394
#     4  11  24  44  70  98 132 179 228 272 335 399
#     4  11  21  41  69  92 129 173 217 265 331 392
#     4  10  22  45  68  95 134 174 223 272 334 403
#     4  11  25  43  71 101 131 174 231 280 327 389
#
# _framework density 21.472422000000002
#
# number of rings (size 3 to 8) (size 9 to 14) (size 15 to 20)
#    0.000    1.250    3.750    1.125    5.250    1.000 
#    4.500    1.250    0.000    0.000    0.000    0.000 
#    0.000    0.000    0.000    0.000    0.000    0.000 
#
# Total GULP energy -198251.771954 kJ/mol
# GULP energy per Si atom -12390.735747 kJ/mol
# Density = 2.142355 g / cm^3
# Si number density = 21.472422 Si / 1000 Ang^3
#
#
#
# Elastic Constant Matrix: (Units=GPa)
#
#
# Indices 1 2 3 4 5 6 
#
# 1 140.9093 61.8998 32.7787 13.6564 -2.5675 12.9925
# 2 61.8998 123.9735 38.5146 10.5729 -7.7011 11.8737
# 3 32.7787 38.5146 71.8939 3.0198 -2.4647 5.8255
# 4 13.6564 10.5729 3.0198 34.2596 -6.6846 -3.0631
# 5 -2.5675 -7.7011 -2.4647 -6.6846 32.8500 2.8075
# 6 12.9925 11.8737 5.8255 -3.0631 2.8075 33.3000
#
#
#
# Elastic Compliance Matrix: (Units=1/GPa)
#
#
# Indices 1 2 3 4 5 6 
#
# 1 0.009725 -0.003773 -0.002131 -0.002859 -0.000671 -0.002283
# 2 -0.003773 0.011749 -0.004254 -0.001557 0.002019 -0.002286
# 3 -0.002131 -0.004254 0.017194 0.000652 0.000312 -0.000626
# 4 -0.002859 -0.001557 0.000652 0.032220 0.005671 0.004043
# 5 -0.000671 0.002019 0.000312 0.005671 0.032271 -0.002712
# 6 -0.002283 -0.002286 -0.000626 0.004043 -0.002712 0.032446
#
#
# Mechanical properties :
#
#
# Convention : Reuss Voigt Hill
#
# Bulk Modulus (GPa) = 54.48812 67.01811 60.75311
# Shear Modulus (GPa) = 30.85694 33.65416 32.25555
#
# Velocity S-wave (km/s) = 3.79496 3.96323 3.88001
# Velocity P-wave (km/s) = 6.68081 7.22648 6.95899
#
# Compressibility (1/GPa) = 0.01835262
#
# Stress axis : x y z
#
# Youngs Moduli (GPa) = 102.82502 85.11456 58.16056
#
# Poissons Ratio (x) = 0.32114 0.12392
# Poissons Ratio (y) = 0.38796 0.24741
# Poissons Ratio (z) = 0.21909 0.36207
#
# Static dielectric constant tensor:
#      x y z
#    x 4.299770 -0.158760 -0.059600 
#    y -0.158760 3.953930 0.010110 
#    z -0.059600 0.010110 3.714630 
# 
# 
# High freq. dielectric constant tensor:
#      x y z
#    x 1.847290 0.007860 -0.000260 
#    y 0.007860 1.848250 0.002990 
#    z -0.000260 0.002990 1.832060 
# 
# From -- ./inp_files/567132.got.cif
#   From: 2010.06.25/outbox.cif.g09.slc.cpg/sg2_284_cif.got.tgz:567132.got - 2010.06.27 13:26:56.
