data_PCOD8022820
_publ_section_title
;
Structure prediction by ZEFSAII (Michael W. Deem and Ramdas Pophale) SiO2 
 PCOD8022820
Probable space group: P -1
;
_chemical_formula_sum "Si O2"
_cell_formula_units_Z 14
_cell_length_a 19.386573
_cell_length_b 11.543490
_cell_length_c 14.122382
_cell_angle_alpha 149.746761
_cell_angle_beta 157.537825
_cell_angle_gamma 40.042338
_cell_volume 599.530803
_symmetry_space_group_name_H-M "P -1"
_symmetry_group_IT_number 2
_symmetry_cell_setting 'triclinic'
loop_
_space_group_symop_operation_xyz
x,y,z
-x,-y,-z
loop_
_atom_site_type_symbol
_atom_site_label
_atom_site_fract_x
_atom_site_fract_y
_atom_site_fract_z
Si Si1 0.734249 0.691550 0.144176
Si Si2 0.323510 0.511273 0.551287
Si Si3 0.355572 0.055805 0.166247
Si Si4 0.296545 0.536300 0.748170
Si Si5 0.770342 0.192766 0.827880
Si Si6 0.947025 0.834099 0.694316
Si Si7 0.205473 0.976808 0.718256
O O1 0.897445 0.807365 0.502467
O O2 0.716248 0.866976 0.160721
O O3 0.540856 0.617871 0.900667
O O4 0.792528 0.459906 0.011345
O O5 0.272244 0.271239 0.257248
O O6 0.255182 0.451636 0.528500
O O7 0.215287 0.709522 0.513689
O O8 0.563598 0.065835 0.468946
O O9 0.258286 0.802037 0.899692
O O10 0.338577 0.064157 0.036902
O O11 0.160919 0.385353 0.540773
O O12 0.500000 0.500000 0.000000
O O13 0.895785 0.077821 0.834382
O O14 0.840140 0.167386 0.007781
O O15 0.000000 0.000000 0.500000
#
# Coordination Sequence:
#
# PCOD8022820 Si02
#       7
#     2   2   2   2   2   2   2
#     4  11  23  42  69  93 133 178 217 261 332 392
#     4  10  23  42  68  97 126 179 219 264 332 390
#     4  10  23  44  66  96 130 176 220 267 326 389
#     4  11  20  39  68  97 141 168 214 271 325 386
#     4  10  23  39  64 102 131 169 219 265 324 388
#     4  11  22  41  64 102 138 171 212 269 324 390
#     4  11  26  46  67  96 131 168 224 283 326 381
#
# _framework density 23.351592
#
# number of rings (size 3 to 8) (size 9 to 14) (size 15 to 20)
#    0.000    1.429    2.857    1.714    4.000    5.714 
#    5.143    0.000    0.000    0.000    0.000    0.000 
#    0.000    0.000    0.000    0.000    0.000    0.000 
#
# Total GULP energy -173586.112339 kJ/mol
# GULP energy per Si atom -12399.008024 kJ/mol
# Density = 2.329844 g / cm^3
# Si number density = 23.351592 Si / 1000 Ang^3
#
#
#
# Elastic Constant Matrix: (Units=GPa)
#
#
# Indices 1 2 3 4 5 6 
#
# 1 73.2172 47.6885 40.4879 8.9995 -21.3751 13.4249
# 2 47.6885 172.0992 43.7921 17.3858 -21.3553 -7.9871
# 3 40.4879 43.7921 94.0006 -10.4183 -22.5510 -1.7147
# 4 8.9995 17.3858 -10.4183 41.4392 -11.6499 -6.0998
# 5 -21.3751 -21.3553 -22.5510 -11.6499 29.7417 -4.1212
# 6 13.4249 -7.9871 -1.7147 -6.0998 -4.1212 38.8934
#
#
#
# Elastic Compliance Matrix: (Units=1/GPa)
#
#
# Indices 1 2 3 4 5 6 
#
# 1 0.025105 -0.004022 -0.008668 -0.006129 0.004750 -0.010332
# 2 -0.004022 0.007875 -0.001977 -0.002341 0.000712 0.002627
# 3 -0.008668 -0.001977 0.020013 0.012512 0.013375 0.006848
# 4 -0.006129 -0.002341 0.012512 0.036400 0.019032 0.009912
# 5 0.004750 0.000712 0.013375 0.019032 0.056259 0.008042
# 6 -0.010332 0.002627 0.006848 0.009912 0.008042 0.032526
#
#
# Mechanical properties :
#
#
# Convention : Reuss Voigt Hill
#
# Bulk Modulus (GPa) = 42.26620 67.02824 54.64722
# Shear Modulus (GPa) = 23.21287 35.83809 29.52548
#
# Velocity S-wave (km/s) = 3.15629 3.92180 3.55968
# Velocity P-wave (km/s) = 5.60554 7.01951 6.35199
#
# Compressibility (1/GPa) = 0.02365957
#
# Stress axis : x y z
#
# Youngs Moduli (GPa) = 39.83214 126.98657 49.96755
#
# Poissons Ratio (x) = 0.51073 0.43311
# Poissons Ratio (y) = 0.16020 0.09879
# Poissons Ratio (z) = 0.34526 0.25107
#
# Static dielectric constant tensor:
#      x y z
#    x 4.010390 -0.104450 -0.176760 
#    y -0.104450 4.640710 0.063210 
#    z -0.176760 0.063210 4.762010 
# 
# 
# High freq. dielectric constant tensor:
#      x y z
#    x 1.907520 -0.010080 -0.009480 
#    y -0.010080 1.947380 0.002890 
#    z -0.009480 0.002890 1.925140 
# 
# From -- ./inp_files/179820.got.cif
#   From: 2010.06.25/outbox.cif.g09.slc.cpg/sg2_90_cif.got.tgz:179820.got - 2010.06.27 13:26:56.
