data_PCOD8022941
_publ_section_title
;
Structure prediction by ZEFSAII (Michael W. Deem and Ramdas Pophale) SiO2 
 PCOD8022941
Probable space group: P -1
;
_chemical_formula_sum "Si O2"
_cell_formula_units_Z 16
_cell_length_a 10.434021
_cell_length_b 9.440625
_cell_length_c 17.472338
_cell_angle_alpha 46.956091
_cell_angle_beta 47.530964
_cell_angle_gamma 82.301802
_cell_volume 737.772368
_symmetry_space_group_name_H-M "P -1"
_symmetry_group_IT_number 2
_symmetry_cell_setting 'triclinic'
loop_
_space_group_symop_operation_xyz
x,y,z
-x,-y,-z
loop_
_atom_site_type_symbol
_atom_site_label
_atom_site_fract_x
_atom_site_fract_y
_atom_site_fract_z
Si Si1 0.757781 0.639177 0.433840
Si Si2 0.413358 0.214803 0.329583
Si Si3 0.790555 0.233916 0.520410
Si Si4 0.353914 0.531530 0.713468
Si Si5 0.326360 0.434882 0.030758
Si Si6 0.095121 0.000768 0.041723
Si Si7 0.998716 0.882840 0.397382
Si Si8 0.933536 0.421369 0.841331
O O1 0.703001 0.389729 0.515505
O O2 0.528660 0.595841 0.553311
O O3 0.877711 0.691880 0.447519
O O4 0.907830 0.865740 0.231977
O O5 0.531857 0.252709 0.348904
O O6 0.172158 0.137134 0.468010
O O7 0.395798 0.007828 0.362364
O O8 0.554099 0.469248 0.133775
O O9 0.005364 0.394194 0.321037
O O10 0.850010 0.164566 0.600243
O O11 0.155546 0.509788 0.762719
O O12 0.280312 0.285591 0.879951
O O13 0.222107 0.574133 0.039254
O O14 0.500000 0.500000 0.000000
O O15 0.143957 0.148095 0.203061
O O16 0.191241 0.849097 0.045224
O O17 0.000000 0.000000 0.000000
#
# Coordination Sequence:
#
# PCOD8022941 Si02
#       8
#     2   2   2   2   2   2   2   2
#     4  10  23  40  66  94 122 164 204 253 316 363
#     4  11  23  39  64  92 123 167 203 254 310 364
#     4  11  21  40  63  92 125 161 208 252 305 367
#     4  10  23  43  62  91 129 160 205 257 309 364
#     4  12  23  39  64  90 121 165 207 249 309 365
#     4   9  20  40  62  90 126 161 206 255 299 366
#     4  11  22  43  62  92 128 159 207 262 299 366
#     4  10  23  40  62  92 124 160 210 256 304 366
#
# _framework density 21.686904999999999
#
# number of rings (size 3 to 8) (size 9 to 14) (size 15 to 20)
#    0.000    1.500    2.500    2.250    1.750    5.500 
#    2.250    0.000    0.000    8.250    0.000    0.000 
#    0.000    0.000    0.000    0.000    0.000    0.000 
#
# Total GULP energy -198394.927670 kJ/mol
# GULP energy per Si atom -12399.682979 kJ/mol
# Density = 2.163754 g / cm^3
# Si number density = 21.686905 Si / 1000 Ang^3
#
#
#
# Elastic Constant Matrix: (Units=GPa)
#
#
# Indices 1 2 3 4 5 6 
#
# 1 72.2075 43.6470 19.2537 6.2589 -3.3287 2.1418
# 2 43.6470 93.7168 36.1346 -5.0447 -4.6598 11.5299
# 3 19.2537 36.1346 125.3225 0.6179 14.4701 -5.4293
# 4 6.2589 -5.0447 0.6179 28.9773 0.7333 2.2596
# 5 -3.3287 -4.6598 14.4701 0.7333 35.6338 -0.7876
# 6 2.1418 11.5299 -5.4293 2.2596 -0.7876 24.7355
#
#
#
# Elastic Compliance Matrix: (Units=1/GPa)
#
#
# Indices 1 2 3 4 5 6 
#
# 1 0.020611 -0.010319 -0.000098 -0.006550 0.000830 0.003629
# 2 -0.010319 0.018926 -0.004665 0.006281 0.003068 -0.009428
# 3 -0.000098 -0.004665 0.010064 -0.001230 -0.004584 0.004358
# 4 -0.006550 0.006281 -0.001230 0.037522 -0.000197 -0.006064
# 5 0.000830 0.003068 -0.004584 -0.000197 0.030374 -0.001523
# 6 0.003629 -0.009428 0.004358 -0.006064 -0.001523 0.045970
#
#
# Mechanical properties :
#
#
# Convention : Reuss Voigt Hill
#
# Bulk Modulus (GPa) = 51.44970 54.36861 52.90916
# Shear Modulus (GPa) = 24.98620 30.68341 27.83481
#
# Velocity S-wave (km/s) = 3.39799 3.76551 3.58646
# Velocity P-wave (km/s) = 6.25863 6.63548 6.44981
#
# Compressibility (1/GPa) = 0.01943646
#
# Stress axis : x y z
#
# Youngs Moduli (GPa) = 48.51744 52.83763 99.36704
#
# Poissons Ratio (x) = 0.54526 0.00969
# Poissons Ratio (y) = 0.50067 0.46357
# Poissons Ratio (z) = 0.00473 0.24650
#
# Static dielectric constant tensor:
#      x y z
#    x 3.623300 0.134450 0.193520 
#    y 0.134450 4.332740 -0.195900 
#    z 0.193520 -0.195900 4.458440 
# 
# 
# High freq. dielectric constant tensor:
#      x y z
#    x 1.836040 0.012130 0.011610 
#    y 0.012130 1.856770 -0.004920 
#    z 0.011610 -0.004920 1.863650 
# 
# From -- ./inp_files/273936.got.cif
#   From: 2010.06.25/outbox.cif.g09.slc.cpg/sg2_137_cif.got.tgz:273936.got - 2010.06.27 13:26:56.
