data_PCOD8022192
_publ_section_title
;
Structure prediction by ZEFSAII (Michael W. Deem and Ramdas Pophale) SiO2 
 PCOD8022192
Probable space group: P -1
;
_chemical_formula_sum "Si O2"
_cell_formula_units_Z 12
_cell_length_a 8.755367
_cell_length_b 16.509355
_cell_length_c 6.755502
_cell_angle_alpha 130.862635
_cell_angle_beta 130.075227
_cell_angle_gamma 49.364291
_cell_volume 518.525335
_symmetry_space_group_name_H-M "P -1"
_symmetry_group_IT_number 2
_symmetry_cell_setting 'triclinic'
loop_
_space_group_symop_operation_xyz
x,y,z
-x,-y,-z
loop_
_atom_site_type_symbol
_atom_site_label
_atom_site_fract_x
_atom_site_fract_y
_atom_site_fract_z
Si Si1 0.248086 0.166530 0.431885
Si Si2 0.768055 0.568354 0.823926
Si Si3 0.234636 0.205867 0.037600
Si Si4 0.613724 0.093907 0.925217
Si Si5 0.870202 0.243660 0.528088
Si Si6 0.480733 0.507346 0.228827
O O1 0.238370 0.225281 0.304956
O O2 0.473519 0.151682 0.703579
O O3 0.039490 0.252378 0.518190
O O4 0.232492 0.040939 0.198873
O O5 0.748536 0.685795 0.891782
O O6 0.714251 0.489827 0.486429
O O7 0.594632 0.590918 0.898448
O O8 0.000000 0.500000 0.000000
O O9 0.447590 0.095849 0.966802
O O10 0.015457 0.190268 0.761988
O O11 0.761705 0.159996 0.222997
O O12 0.692658 0.368599 0.639256
O O13 0.500000 0.500000 0.000000
#
# Coordination Sequence:
#
# PCOD8022192 Si02
#       6
#     2   2   2   2   2   2
#     4  10  24  42  72  99 138 177 216 276 338 394
#     4  11  24  48  66  97 134 173 230 277 328 404
#     4  11  23  42  68 102 134 177 221 273 334 398
#     4  10  22  45  68 101 138 174 223 272 331 402
#     4  11  23  44  65 102 135 173 226 274 330 402
#     4  11  26  46  68  96 131 181 227 277 336 390
#
# _framework density 23.142554000000001
#
# number of rings (size 3 to 8) (size 9 to 14) (size 15 to 20)
#    0.000    1.333    3.333    1.000    0.000    8.000 
#    0.000    0.000    0.000    0.000    0.000    0.000 
#    0.000    0.000    0.000    0.000    0.000    0.000 
#
# Total GULP energy -148723.331874 kJ/mol
# GULP energy per Si atom -12393.610989 kJ/mol
# Density = 2.308988 g / cm^3
# Si number density = 23.142554 Si / 1000 Ang^3
#
#
#
# Elastic Constant Matrix: (Units=GPa)
#
#
# Indices 1 2 3 4 5 6 
#
# 1 102.8682 55.7317 89.1488 -16.5115 -13.2175 9.6061
# 2 55.7317 85.5955 51.0181 -4.1254 -8.8554 4.0016
# 3 89.1488 51.0181 173.1870 -28.6753 -6.2482 14.6772
# 4 -16.5115 -4.1254 -28.6753 39.2895 1.5886 -3.3552
# 5 -13.2175 -8.8554 -6.2482 1.5886 56.7224 -4.8047
# 6 9.6061 4.0016 14.6772 -3.3552 -4.8047 37.3058
#
#
#
# Elastic Compliance Matrix: (Units=1/GPa)
#
#
# Indices 1 2 3 4 5 6 
#
# 1 0.023061 -0.009496 -0.008508 0.002285 0.002805 -0.001005
# 2 -0.009496 0.018378 -0.001020 -0.002773 0.000682 0.000714
# 3 -0.008508 -0.001020 0.011311 0.004458 -0.001182 -0.001901
# 4 0.002285 -0.002773 0.004458 0.029432 -0.000185 0.000578
# 5 0.002805 0.000682 -0.001182 -0.000185 0.018436 0.002027
# 6 -0.001005 0.000714 -0.001901 0.000578 0.002027 0.028049
#
#
# Mechanical properties :
#
#
# Convention : Reuss Voigt Hill
#
# Bulk Modulus (GPa) = 68.03141 83.71644 75.87392
# Shear Modulus (GPa) = 29.13463 37.71369 33.42416
#
# Velocity S-wave (km/s) = 3.55198 4.04124 3.80448
# Velocity P-wave (km/s) = 6.80313 7.61763 7.22187
#
# Compressibility (1/GPa) = 0.01469909
#
# Stress axis : x y z
#
# Youngs Moduli (GPa) = 43.36352 54.41346 88.40890
#
# Poissons Ratio (x) = 0.51673 0.75222
# Poissons Ratio (y) = 0.41180 0.09022
# Poissons Ratio (z) = 0.36896 0.05553
#
# Static dielectric constant tensor:
#      x y z
#    x 4.302700 -0.375950 0.086880 
#    y -0.375950 4.744300 0.109160 
#    z 0.086880 0.109160 4.748020 
# 
# 
# High freq. dielectric constant tensor:
#      x y z
#    x 1.902490 -0.009030 0.007220 
#    y -0.009030 1.910900 -0.009620 
#    z 0.007220 -0.009620 1.938540 
# 
# From -- ./inp_files/49467.got.cif
#   From: 2010.06.25/outbox.cif.g09.slc.cpg/sg2_25_cif.got.tgz:49467.got - 2010.06.27 13:26:56.
