data_PCOD8022478
_publ_section_title
;
Structure prediction by ZEFSAII (Michael W. Deem and Ramdas Pophale) SiO2 
 PCOD8022478
Probable space group: P -1
;
_chemical_formula_sum "Si O2"
_cell_formula_units_Z 16
_cell_length_a 11.748809
_cell_length_b 12.297481
_cell_length_c 8.456067
_cell_angle_alpha 49.600130
_cell_angle_beta 56.340511
_cell_angle_gamma 50.890593
_cell_volume 699.736457
_symmetry_space_group_name_H-M "P -1"
_symmetry_group_IT_number 2
_symmetry_cell_setting 'triclinic'
loop_
_space_group_symop_operation_xyz
x,y,z
-x,-y,-z
loop_
_atom_site_type_symbol
_atom_site_label
_atom_site_fract_x
_atom_site_fract_y
_atom_site_fract_z
Si Si1 0.078868 0.841169 0.989530
Si Si2 0.335647 0.236336 0.382560
Si Si3 0.112188 0.161709 0.157297
Si Si4 0.343490 0.838935 0.189443
Si Si5 0.679653 0.067037 0.245301
Si Si6 0.135399 0.535537 0.419458
Si Si7 0.307455 0.325734 0.957279
Si Si8 0.829786 0.353754 0.388605
O O1 0.226773 0.858881 0.791923
O O2 0.969929 0.824365 0.958993
O O3 0.135473 0.691984 0.199576
O O4 0.000000 0.000000 0.000000
O O5 0.512032 0.144888 0.367692
O O6 0.287154 0.386543 0.391723
O O7 0.254441 0.123042 0.600440
O O8 0.296904 0.287294 0.183834
O O9 0.982055 0.206952 0.348720
O O10 0.246444 0.985604 0.242150
O O11 0.192212 0.279724 0.989061
O O12 0.522647 0.770754 0.150475
O O13 0.290501 0.702817 0.394620
O O14 0.309638 0.896386 0.981288
O O15 0.125297 0.553940 0.597765
O O16 0.000000 0.500000 0.500000
O O17 0.251479 0.515188 0.808583
#
# Coordination Sequence:
#
# PCOD8022478 Si02
#       8
#     2   2   2   2   2   2   2   2
#     4  12  23  43  70  99 138 178 233 282 341 408
#     4  10  24  45  72  97 138 182 234 284 344 414
#     4  12  25  44  70 103 138 188 228 281 350 419
#     4  11  24  46  71 102 138 182 232 289 346 415
#     4  10  22  46  70 101 132 182 236 287 341 408
#     4  12  24  41  70 104 136 185 229 285 345 410
#     4  11  25  47  69 102 142 180 228 287 355 417
#     4  12  25  45  69 105 143 179 234 283 352 415
#
# _framework density 22.865752000000001
#
# number of rings (size 3 to 8) (size 9 to 14) (size 15 to 20)
#    0.000    0.750    2.500    4.500    1.750    2.500 
#    6.750    0.000    0.000    0.000    0.000    0.000 
#    0.000    0.000    0.000    0.000    0.000    0.000 
#
# Total GULP energy -198415.703422 kJ/mol
# GULP energy per Si atom -12400.981464 kJ/mol
# Density = 2.281371 g / cm^3
# Si number density = 22.865752 Si / 1000 Ang^3
#
#
#
# Elastic Constant Matrix: (Units=GPa)
#
#
# Indices 1 2 3 4 5 6 
#
# 1 101.1728 27.1092 34.7064 12.3223 -11.7364 -2.9185
# 2 27.1092 143.7766 38.1551 1.3658 2.4199 -5.2100
# 3 34.7064 38.1551 126.7266 -17.4341 -12.6350 -3.1523
# 4 12.3223 1.3658 -17.4341 39.8448 -0.2525 -0.9560
# 5 -11.7364 2.4199 -12.6350 -0.2525 32.1725 4.1065
# 6 -2.9185 -5.2100 -3.1523 -0.9560 4.1065 30.0616
#
#
#
# Elastic Compliance Matrix: (Units=1/GPa)
#
#
# Indices 1 2 3 4 5 6 
#
# 1 0.012451 -0.001461 -0.003365 -0.005252 0.003291 -0.000014
# 2 -0.001461 0.007927 -0.002285 -0.000803 -0.002194 0.001267
# 3 -0.003365 -0.002285 0.010613 0.005786 0.003139 0.000145
# 4 -0.005252 -0.000803 0.005786 0.029304 0.000543 0.000815
# 5 0.003291 -0.002194 0.003139 0.000543 0.034246 -0.004392
# 6 -0.000014 0.001267 0.000145 0.000815 -0.004392 0.034124
#
#
# Mechanical properties :
#
#
# Convention : Reuss Voigt Hill
#
# Bulk Modulus (GPa) = 59.62663 63.51304 61.56984
# Shear Modulus (GPa) = 33.67553 38.52945 36.10249
#
# Velocity S-wave (km/s) = 3.84181 4.10936 3.97783
# Velocity P-wave (km/s) = 6.76851 7.09596 6.93417
#
# Compressibility (1/GPa) = 0.01677103
#
# Stress axis : x y z
#
# Youngs Moduli (GPa) = 80.31602 126.14534 94.22426
#
# Poissons Ratio (x) = 0.18425 0.31706
# Poissons Ratio (y) = 0.11731 0.21526
# Poissons Ratio (z) = 0.27026 0.28818
#
# Static dielectric constant tensor:
#      x y z
#    x 5.023070 0.174450 -0.400400 
#    y 0.174450 4.752620 -0.159600 
#    z -0.400400 -0.159600 4.229460 
# 
# 
# High freq. dielectric constant tensor:
#      x y z
#    x 1.906220 -0.008790 -0.014150 
#    y -0.008790 1.912300 -0.008580 
#    z -0.014150 -0.008580 1.909220 
# 
# From -- ./inp_files/261490.got.cif
#   From: 2010.06.25/outbox.cif.g09.slc.cpg/sg2_131_cif.got.tgz:261490.got - 2010.06.27 13:26:56.
