data_PCOD8022140
_publ_section_title
;
Structure prediction by ZEFSAII (Michael W. Deem and Ramdas Pophale) SiO2 
 PCOD8022140
Probable space group: P -1
;
_chemical_formula_sum "Si O2"
_cell_formula_units_Z 14
_cell_length_a 5.244979
_cell_length_b 20.288514
_cell_length_c 10.496616
_cell_angle_alpha 36.621336
_cell_angle_beta 106.136488
_cell_angle_gamma 102.277037
_cell_volume 639.945296
_symmetry_space_group_name_H-M "P -1"
_symmetry_group_IT_number 2
_symmetry_cell_setting 'triclinic'
loop_
_space_group_symop_operation_xyz
x,y,z
-x,-y,-z
loop_
_atom_site_type_symbol
_atom_site_label
_atom_site_fract_x
_atom_site_fract_y
_atom_site_fract_z
Si Si1 0.762648 0.071943 0.413054
Si Si2 0.820876 0.579726 0.017316
Si Si3 0.111341 0.876171 0.367571
Si Si4 0.438908 0.756507 0.083995
Si Si5 0.331695 0.078716 0.940954
Si Si6 0.766120 0.358872 0.229248
Si Si7 0.056203 0.378198 0.744631
O O1 0.887371 0.116632 0.491343
O O2 0.500000 0.000000 0.500000
O O3 0.682546 0.177488 0.154580
O O4 0.000000 0.000000 0.500000
O O5 0.510153 0.606734 0.925190
O O6 0.997014 0.642863 0.839576
O O7 0.851889 0.446478 0.213503
O O8 0.915777 0.620180 0.103137
O O9 0.277461 0.764352 0.528605
O O10 0.840164 0.851780 0.292989
O O11 0.189236 0.997075 0.144905
O O12 0.507728 0.838132 0.080619
O O13 0.688963 0.679824 0.196517
O O14 0.208551 0.686606 0.224277
O O15 0.500000 0.000000 0.000000
O O16 0.000000 0.500000 0.500000
#
# Coordination Sequence:
#
# PCOD8022140 Si02
#       7
#     2   2   2   2   2   2   2
#     4  12  24  43  72 103 139 185 233 283 347 412
#     4  10  22  45  66 103 133 168 238 279 345 403
#     4  11  25  43  69 101 137 183 229 279 350 410
#     4  12  27  48  72 103 143 184 236 293 348 421
#     4  11  27  45  67 102 144 184 234 283 345 430
#     4  10  23  41  72  97 133 178 220 294 335 408
#     4  12  27  46  73 100 139 186 233 290 354 418
#
# _framework density 21.876871999999999
#
# number of rings (size 3 to 8) (size 9 to 14) (size 15 to 20)
#    0.000    0.857    1.429    4.714    8.000    0.000 
#    2.571    0.000    0.000    0.000    0.000    0.000 
#    0.000    0.000    0.000    0.000    0.000    0.000 
#
# Total GULP energy -173494.889674 kJ/mol
# GULP energy per Si atom -12392.492120 kJ/mol
# Density = 2.182708 g / cm^3
# Si number density = 21.876872 Si / 1000 Ang^3
#
#
#
# Elastic Constant Matrix: (Units=GPa)
#
#
# Indices 1 2 3 4 5 6 
#
# 1 130.3751 41.7838 44.3051 -9.1258 7.1403 -4.4014
# 2 41.7838 156.0989 59.0444 4.7506 19.5135 10.1956
# 3 44.3051 59.0444 118.3773 -12.8282 20.9818 5.8776
# 4 -9.1258 4.7506 -12.8282 41.7195 -0.1068 4.2965
# 5 7.1403 19.5135 20.9818 -0.1068 28.0077 -11.7915
# 6 -4.4014 10.1956 5.8776 4.2965 -11.7915 40.1687
#
#
#
# Elastic Compliance Matrix: (Units=1/GPa)
#
#
# Indices 1 2 3 4 5 6 
#
# 1 0.009301 -0.001834 -0.002948 0.001092 0.002141 0.002428
# 2 -0.001834 0.008894 -0.002934 -0.001993 -0.004910 -0.003257
# 3 -0.002948 -0.002934 0.013324 0.004243 -0.009133 -0.004663
# 4 0.001092 -0.001993 0.004243 0.026127 -0.003587 -0.003843
# 5 0.002141 -0.004910 -0.009133 -0.003587 0.053349 0.018862
# 6 0.002428 -0.003257 -0.004663 -0.003843 0.018862 0.032618
#
#
# Mechanical properties :
#
#
# Convention : Reuss Voigt Hill
#
# Bulk Modulus (GPa) = 62.15863 77.23532 69.69697
# Shear Modulus (GPa) = 30.41231 39.29372 34.85302
#
# Velocity S-wave (km/s) = 3.73253 4.24268 3.99575
# Velocity P-wave (km/s) = 6.85932 7.70595 7.29493
#
# Compressibility (1/GPa) = 0.01608787
#
# Stress axis : x y z
#
# Youngs Moduli (GPa) = 107.51629 112.43493 75.05059
#
# Poissons Ratio (x) = 0.20621 0.22125
# Poissons Ratio (y) = 0.19719 0.22017
# Poissons Ratio (z) = 0.31696 0.32985
#
# Static dielectric constant tensor:
#      x y z
#    x 3.092640 -0.342720 0.038370 
#    y -0.342720 4.052720 -0.157260 
#    z 0.038370 -0.157260 4.083100 
# 
# 
# High freq. dielectric constant tensor:
#      x y z
#    x 1.865040 0.006240 0.008730 
#    y 0.006240 1.883960 -0.009480 
#    z 0.008730 -0.009480 1.866410 
# 
# From -- ./inp_files/93046.got.cif
#   From: 2010.06.25/outbox.cif.g09.slc.cpg/sg2_47_cif.got.tgz:93046.got - 2010.06.27 13:26:56.
