data_PCOD8022576
_publ_section_title
;
Structure prediction by ZEFSAII (Michael W. Deem and Ramdas Pophale) SiO2 
 PCOD8022576
Probable space group: P -1
;
_chemical_formula_sum "Si O2"
_cell_formula_units_Z 14
_cell_length_a 6.999299
_cell_length_b 19.189039
_cell_length_c 7.634633
_cell_angle_alpha 43.236032
_cell_angle_beta 83.050486
_cell_angle_gamma 106.348782
_cell_volume 585.231562
_symmetry_space_group_name_H-M "P -1"
_symmetry_group_IT_number 2
_symmetry_cell_setting 'triclinic'
loop_
_space_group_symop_operation_xyz
x,y,z
-x,-y,-z
loop_
_atom_site_type_symbol
_atom_site_label
_atom_site_fract_x
_atom_site_fract_y
_atom_site_fract_z
Si Si1 0.795265 0.958639 0.229292
Si Si2 0.058964 0.202735 0.362258
Si Si3 0.506638 0.591909 0.194673
Si Si4 0.113581 0.544452 0.096879
Si Si5 0.282631 0.683044 0.286876
Si Si6 0.687673 0.213605 0.534549
Si Si7 0.757597 0.108775 0.237482
O O1 0.775126 0.844730 0.535531
O O2 0.548565 0.910592 0.257841
O O3 0.862805 0.070490 0.142230
O O4 0.000000 0.000000 0.000000
O O5 0.894104 0.189139 0.570344
O O6 0.891725 0.123548 0.370659
O O7 0.239076 0.342682 0.036502
O O8 0.500000 0.500000 0.500000
O O9 0.324412 0.532414 0.161285
O O10 0.477553 0.686832 0.140299
O O11 0.917560 0.460542 0.413892
O O12 0.221881 0.689274 0.815997
O O13 0.000000 0.500000 0.000000
O O14 0.360362 0.736310 0.376413
O O15 0.206463 0.763537 0.050702
O O16 0.500000 0.000000 0.500000
#
# Coordination Sequence:
#
# PCOD8022576 Si02
#       7
#     2   2   2   2   2   2   2
#     4  12  27  44  71 103 142 185 245 288 350 425
#     4  12  25  45  71 102 142 186 241 292 353 422
#     4  12  24  44  74 111 143 181 244 300 357 434
#     4  10  22  47  72 101 141 186 232 294 364 426
#     4  11  25  44  73 100 144 186 232 289 365 422
#     4  11  24  48  70 103 142 189 228 300 360 422
#     4  12  25  45  70 101 143 193 233 288 358 423
#
# _framework density 23.922156000000001
#
# number of rings (size 3 to 8) (size 9 to 14) (size 15 to 20)
#    0.000    0.571    2.857    5.143    4.000    1.143 
#    5.143    4.286    0.000    0.000    0.000    0.000 
#    0.000    0.000    0.000    0.000    0.000    0.000 
#
# Total GULP energy -173459.913501 kJ/mol
# GULP energy per Si atom -12389.993821 kJ/mol
# Density = 2.386771 g / cm^3
# Si number density = 23.922156 Si / 1000 Ang^3
#
#
#
# Elastic Constant Matrix: (Units=GPa)
#
#
# Indices 1 2 3 4 5 6 
#
# 1 121.9658 42.7631 21.2355 7.7611 -12.3197 0.2906
# 2 42.7631 118.4732 17.9157 11.8602 -8.5256 3.8367
# 3 21.2355 17.9157 74.5371 10.1826 -14.0007 -2.3264
# 4 7.7611 11.8602 10.1826 24.7668 1.6662 -0.4098
# 5 -12.3197 -8.5256 -14.0007 1.6662 52.4845 -4.7396
# 6 0.2906 3.8367 -2.3264 -0.4098 -4.7396 51.5827
#
#
#
# Elastic Compliance Matrix: (Units=1/GPa)
#
#
# Indices 1 2 3 4 5 6 
#
# 1 0.009771 -0.003085 -0.001633 -0.001004 0.001409 0.000222
# 2 -0.003085 0.010130 -0.000961 -0.003549 0.000711 -0.000742
# 3 -0.001633 -0.000961 0.015664 -0.005713 0.003920 0.001102
# 4 -0.001004 -0.003549 -0.005713 0.044994 -0.003763 0.000024
# 5 0.001409 0.000711 0.003920 -0.003763 0.020845 0.002001
# 6 0.000222 -0.000742 0.001102 0.000024 0.002001 0.019674
#
#
# Mechanical properties :
#
#
# Convention : Reuss Voigt Hill
#
# Bulk Modulus (GPa) = 41.31222 53.20052 47.25637
# Shear Modulus (GPa) = 35.58607 41.30424 38.44516
#
# Velocity S-wave (km/s) = 3.86110 4.15976 4.01321
# Velocity P-wave (km/s) = 6.09790 6.73489 6.42429
#
# Compressibility (1/GPa) = 0.02420591
#
# Stress axis : x y z
#
# Youngs Moduli (GPa) = 102.34645 98.71586 63.84222
#
# Poissons Ratio (x) = 0.30455 0.10428
# Poissons Ratio (y) = 0.31575 0.06133
# Poissons Ratio (z) = 0.16718 0.09484
#
# Static dielectric constant tensor:
#      x y z
#    x 4.880630 -0.121200 0.392740 
#    y -0.121200 4.322970 -0.012130 
#    z 0.392740 -0.012130 4.867790 
# 
# 
# High freq. dielectric constant tensor:
#      x y z
#    x 1.949020 0.003290 -0.000270 
#    y 0.003290 1.942520 0.006200 
#    z -0.000270 0.006200 1.972980 
# 
# From -- ./inp_files/45923.got.cif
#   From: 2010.06.25/outbox.cif.g09.slc.cpg/sg2_23_cif.got.tgz:45923.got - 2010.06.27 13:26:56.
