data_PCOD8022731
_publ_section_title
;
Structure prediction by ZEFSAII (Michael W. Deem and Ramdas Pophale) SiO2 
 PCOD8022731
Probable space group: P -1
;
_chemical_formula_sum "Si O2"
_cell_formula_units_Z 12
_cell_length_a 9.536349
_cell_length_b 5.059398
_cell_length_c 13.266304
_cell_angle_alpha 79.029240
_cell_angle_beta 106.327767
_cell_angle_gamma 72.165913
_cell_volume 557.336182
_symmetry_space_group_name_H-M "P -1"
_symmetry_group_IT_number 2
_symmetry_cell_setting 'triclinic'
loop_
_space_group_symop_operation_xyz
x,y,z
-x,-y,-z
loop_
_atom_site_type_symbol
_atom_site_label
_atom_site_fract_x
_atom_site_fract_y
_atom_site_fract_z
Si Si1 0.468866 0.306080 0.423346
Si Si2 0.620039 0.324497 0.246907
Si Si3 0.168540 0.512608 0.034969
Si Si4 0.867122 0.364581 0.763163
Si Si5 0.077229 0.739666 0.793140
Si Si6 0.473394 0.977096 0.112931
O O1 0.500000 0.500000 0.500000
O O2 0.592789 0.268724 0.361237
O O3 0.288991 0.437972 0.340769
O O4 0.500000 0.000000 0.500000
O O5 0.801143 0.291601 0.271083
O O6 0.498353 0.646925 0.168240
O O7 0.594205 0.079067 0.191456
O O8 0.179602 0.680200 0.127513
O O9 0.002621 0.491843 0.223853
O O10 0.182161 0.677798 0.923015
O O11 0.000000 0.500000 0.000000
O O12 0.703797 0.815527 0.908927
O O13 0.939335 0.056280 0.744698
O O14 0.500000 0.000000 0.000000
#
# Coordination Sequence:
#
# PCOD8022731 Si02
#       6
#     2   2   2   2   2   2
#     4  12  27  49  73  97 126 178 242 295 338 382
#     4  12  26  44  69  98 140 177 229 283 333 400
#     4  10  23  38  65 100 146 176 217 252 339 411
#     4  11  24  44  67  98 139 178 222 275 332 399
#     4  11  24  42  66 103 140 179 211 265 342 421
#     4  12  24  40  65 103 144 181 218 266 331 416
#
# _framework density 21.530989999999999
#
# number of rings (size 3 to 8) (size 9 to 14) (size 15 to 20)
#    0.000    0.667    3.333    4.000    7.000    0.000 
#    0.000    5.000    0.000    0.000    0.000    0.000 
#    0.000    0.000    0.000    0.000    0.000    0.000 
#
# Total GULP energy -148837.112607 kJ/mol
# GULP energy per Si atom -12403.092717 kJ/mol
# Density = 2.148198 g / cm^3
# Si number density = 21.530990 Si / 1000 Ang^3
#
#
#
# Elastic Constant Matrix: (Units=GPa)
#
#
# Indices 1 2 3 4 5 6 
#
# 1 89.6172 13.9147 44.8945 6.7717 -13.3730 -16.7632
# 2 13.9147 94.2433 30.5039 -2.2980 -14.3107 -2.3893
# 3 44.8945 30.5039 133.8177 7.0992 -18.0497 6.6599
# 4 6.7717 -2.2980 7.0992 45.1607 -1.9393 4.6612
# 5 -13.3730 -14.3107 -18.0497 -1.9393 42.8179 1.0819
# 6 -16.7632 -2.3893 6.6599 4.6612 1.0819 43.1578
#
#
#
# Elastic Compliance Matrix: (Units=1/GPa)
#
#
# Indices 1 2 3 4 5 6 
#
# 1 0.015565 -0.000162 -0.005097 -0.002161 0.002384 0.006997
# 2 -0.000162 0.011890 -0.002351 0.001046 0.002960 0.000771
# 3 -0.005097 -0.002351 0.010197 -0.000493 0.001991 -0.003680
# 4 -0.002161 0.001046 -0.000493 0.022953 0.000588 -0.003199
# 5 0.002384 0.002960 0.001991 0.000588 0.025953 0.000069
# 6 0.006997 0.000771 -0.003680 -0.003199 0.000069 0.026843
#
#
# Mechanical properties :
#
#
# Convention : Reuss Voigt Hill
#
# Bulk Modulus (GPa) = 44.57748 55.14494 49.86121
# Shear Modulus (GPa) = 36.73840 41.45161 39.09501
#
# Velocity S-wave (km/s) = 4.13522 4.39248 4.26579
# Velocity P-wave (km/s) = 6.59916 7.16887 6.88990
#
# Compressibility (1/GPa) = 0.02243285
#
# Stress axis : x y z
#
# Youngs Moduli (GPa) = 64.24717 84.10319 98.07163
#
# Poissons Ratio (x) = 0.01359 0.49988
# Poissons Ratio (y) = 0.01038 0.23054
# Poissons Ratio (z) = 0.32747 0.19770
#
# Static dielectric constant tensor:
#      x y z
#    x 3.958660 -0.145110 0.002150 
#    y -0.145110 4.196280 0.055270 
#    z 0.002150 0.055270 4.486900 
# 
# 
# High freq. dielectric constant tensor:
#      x y z
#    x 1.857990 -0.006260 -0.006500 
#    y -0.006260 1.859290 0.002730 
#    z -0.006500 0.002730 1.830160 
# 
# From -- ./inp_files/74048.got.cif
#   From: 2010.06.25/outbox.cif.g09.slc.cpg/sg2_38_cif.got.tgz:74048.got - 2010.06.27 13:26:56.
