data_PCOD8022881
_publ_section_title
;
Structure prediction by ZEFSAII (Michael W. Deem and Ramdas Pophale) SiO2 
 PCOD8022881
Probable space group: P -1
;
_chemical_formula_sum "Si O2"
_cell_formula_units_Z 16
_cell_length_a 28.549862
_cell_length_b 14.452062
_cell_length_c 5.203784
_cell_angle_alpha 107.982288
_cell_angle_beta 100.778724
_cell_angle_gamma 18.901137
_cell_volume 621.903765
_symmetry_space_group_name_H-M "P -1"
_symmetry_group_IT_number 2
_symmetry_cell_setting 'triclinic'
loop_
_space_group_symop_operation_xyz
x,y,z
-x,-y,-z
loop_
_atom_site_type_symbol
_atom_site_label
_atom_site_fract_x
_atom_site_fract_y
_atom_site_fract_z
Si Si1 0.341468 0.551713 0.262367
Si Si2 0.061127 0.805130 0.695731
Si Si3 0.899842 0.844878 0.625375
Si Si4 0.757092 0.657507 0.178425
Si Si5 0.762474 0.445800 0.734645
Si Si6 0.489259 0.730767 0.321742
Si Si7 0.899989 0.554968 0.004012
Si Si8 0.343717 0.837419 0.493923
O O1 0.364074 0.391913 0.205390
O O2 0.374455 0.543841 0.559463
O O3 0.169929 0.912078 0.294384
O O4 0.461221 0.347560 0.986414
O O5 0.103086 0.618491 0.703861
O O6 0.223550 0.531180 0.509268
O O7 0.921805 0.071613 0.579980
O O8 0.000000 0.000000 0.000000
O O9 0.977596 0.679603 0.838674
O O10 0.744811 0.079484 0.660905
O O11 0.019317 0.582050 0.301566
O O12 0.815131 0.613776 0.967994
O O13 0.605963 0.991489 0.441545
O O14 0.732929 0.591254 0.026232
O O15 0.386619 0.832327 0.310582
O O16 0.771742 0.887025 0.186749
O O17 0.500000 0.500000 0.500000
#
# Coordination Sequence:
#
# PCOD8022881 Si02
#       8
#     2   2   2   2   2   2   2   2
#     4  12  27  45  69 104 143 185 242 285 354 417
#     4   9  20  38  62  97 127 180 231 285 354 404
#     4  12  26  48  77 107 145 183 242 304 353 424
#     4  10  24  42  68  96 145 184 233 291 355 412
#     4  10  23  39  68  97 137 186 234 292 347 417
#     4  11  28  47  68 102 138 192 234 287 355 442
#     4  11  27  46  75 113 141 185 244 297 352 428
#     4  11  25  52  77 106 147 191 233 296 373 431
#
# _framework density 25.727456
#
# number of rings (size 3 to 8) (size 9 to 14) (size 15 to 20)
#    0.000    1.250    1.250    2.250   12.250    5.500 
#    0.000    0.000    0.000    0.000    0.000    0.000 
#    0.000    0.000    0.000    0.000    0.000    0.000 
#
# Total GULP energy -198253.665382 kJ/mol
# GULP energy per Si atom -12390.854086 kJ/mol
# Density = 2.566890 g / cm^3
# Si number density = 25.727456 Si / 1000 Ang^3
#
#
#
# Elastic Constant Matrix: (Units=GPa)
#
#
# Indices 1 2 3 4 5 6 
#
# 1 99.6389 -9.1177 11.6809 7.5861 2.3839 4.6537
# 2 -9.1177 82.7557 -1.9153 15.1891 16.9701 9.8670
# 3 11.6809 -1.9153 78.1694 -0.0233 -17.4389 0.9784
# 4 7.5861 15.1891 -0.0233 38.5089 1.0297 7.9999
# 5 2.3839 16.9701 -17.4389 1.0297 29.9222 3.2424
# 6 4.6537 9.8670 0.9784 7.9999 3.2424 32.9744
#
#
#
# Elastic Compliance Matrix: (Units=1/GPa)
#
#
# Indices 1 2 3 4 5 6 
#
# 1 0.010886 0.002500 -0.002311 -0.002791 -0.003406 -0.001204
# 2 0.002500 0.015730 -0.002166 -0.005895 -0.009899 -0.002592
# 3 -0.002311 -0.002166 0.015426 0.001206 0.010449 -0.000804
# 4 -0.002791 -0.005895 0.001206 0.029885 0.003837 -0.005506
# 5 -0.003406 -0.009899 0.010449 0.003837 0.045509 -0.002273
# 6 -0.001204 -0.002592 -0.000804 -0.005506 -0.002273 0.032855
#
#
# Mechanical properties :
#
#
# Convention : Reuss Voigt Hill
#
# Bulk Modulus (GPa) = 26.25429 29.09552 27.67491
# Shear Modulus (GPa) = 29.95063 37.60885 33.77974
#
# Velocity S-wave (km/s) = 3.41567 3.82752 3.62744
# Velocity P-wave (km/s) = 5.07766 5.55580 5.32210
#
# Compressibility (1/GPa) = 0.03808902
#
# Stress axis : x y z
#
# Youngs Moduli (GPa) = 91.86005 63.57292 64.82388
#
# Poissons Ratio (x) = -0.15893 0.14981
# Poissons Ratio (y) = -0.22965 0.14040
# Poissons Ratio (z) = 0.21229 0.13769
#
# Static dielectric constant tensor:
#      x y z
#    x 5.139690 0.628690 -0.047250 
#    y 0.628690 6.386130 0.163360 
#    z -0.047250 0.163360 4.398240 
# 
# 
# High freq. dielectric constant tensor:
#      x y z
#    x 2.042530 0.016680 -0.007940 
#    y 0.016680 2.029250 0.006470 
#    z -0.007940 0.006470 2.018140 
# 
# From -- ./inp_files/128551.got.cif
#   From: 2010.06.25/outbox.cif.g09.slc.cpg/sg2_65_cif.got.tgz:128551.got - 2010.06.27 13:26:56.
