data_PCOD8022122
_publ_section_title
;
Structure prediction by ZEFSAII (Michael W. Deem and Ramdas Pophale) SiO2 
 PCOD8022122
Probable space group: P -1
;
_chemical_formula_sum "Si O2"
_cell_formula_units_Z 14
_cell_length_a 18.695085
_cell_length_b 14.827751
_cell_length_c 8.938918
_cell_angle_alpha 28.499884
_cell_angle_beta 141.097902
_cell_angle_gamma 147.796265
_cell_volume 624.255369
_symmetry_space_group_name_H-M "P -1"
_symmetry_group_IT_number 2
_symmetry_cell_setting 'triclinic'
loop_
_space_group_symop_operation_xyz
x,y,z
-x,-y,-z
loop_
_atom_site_type_symbol
_atom_site_label
_atom_site_fract_x
_atom_site_fract_y
_atom_site_fract_z
Si Si1 0.353391 0.508585 0.946803
Si Si2 0.410734 0.318167 0.738912
Si Si3 0.301824 0.832779 0.226872
Si Si4 0.860526 0.483796 0.815824
Si Si5 0.803811 0.621769 0.813543
Si Si6 0.136794 0.137453 0.929531
Si Si7 0.930447 0.248909 0.818296
O O1 0.371493 0.715902 0.583797
O O2 0.261804 0.275749 0.047785
O O3 0.508948 0.573526 0.130978
O O4 0.290741 0.505182 0.012729
O O5 0.500000 0.500000 0.500000
O O6 0.257361 0.261894 0.558352
O O7 0.410419 0.096840 0.022728
O O8 0.260097 0.748851 0.111810
O O9 0.164535 0.765768 0.184428
O O10 0.819897 0.462429 0.955724
O O11 0.870810 0.695175 0.441386
O O12 0.000000 0.500000 0.000000
O O13 0.955228 0.794847 0.869575
O O14 0.156881 0.953793 0.146284
O O15 0.000000 0.000000 0.000000
O O16 0.000000 0.500000 0.500000
#
# Coordination Sequence:
#
# PCOD8022122 Si02
#       7
#     2   2   2   2   2   2   2
#     4  10  22  45  65  92 130 173 219 257 317 396
#     4  10  24  43  64  92 130 176 217 268 314 380
#     4  11  22  41  66  94 130 174 214 266 323 385
#     4  11  24  37  62 101 132 162 212 270 331 379
#     4  11  22  42  63  96 134 160 214 263 329 373
#     4  11  23  39  65  94 128 172 215 266 323 384
#     4  12  22  40  68 101 131 166 214 270 330 388
#
# _framework density 22.426718999999999
#
# number of rings (size 3 to 8) (size 9 to 14) (size 15 to 20)
#    0.000    1.143    4.286    2.143    2.000    1.143 
#    0.000   10.714    0.000    0.000    0.000    0.000 
#    0.000    0.000    0.000    0.000    0.000    0.000 
#
# Total GULP energy -173483.843092 kJ/mol
# GULP energy per Si atom -12391.703078 kJ/mol
# Density = 2.237568 g / cm^3
# Si number density = 22.426719 Si / 1000 Ang^3
#
#
#
# Elastic Constant Matrix: (Units=GPa)
#
#
# Indices 1 2 3 4 5 6 
#
# 1 64.2825 24.3801 10.0079 3.1740 -1.8877 -26.7669
# 2 24.3801 184.9985 79.7960 7.5597 9.3154 -20.4617
# 3 10.0079 79.7960 88.7019 6.3414 10.6134 -3.9967
# 4 3.1740 7.5597 6.3414 50.8869 6.1530 6.3708
# 5 -1.8877 9.3154 10.6134 6.1530 28.3576 2.3545
# 6 -26.7669 -20.4617 -3.9967 6.3708 2.3545 38.1643
#
#
#
# Elastic Compliance Matrix: (Units=1/GPa)
#
#
# Indices 1 2 3 4 5 6 
#
# 1 0.022887 -0.000661 -0.001215 -0.003379 0.001597 0.016036
# 2 -0.000661 0.009521 -0.008226 -0.000811 -0.000243 0.003930
# 3 -0.001215 -0.008226 0.019205 -0.000209 -0.004276 -0.002953
# 4 -0.003379 -0.000811 -0.000209 0.021258 -0.003984 -0.006129
# 5 0.001597 -0.000243 -0.004276 -0.003984 0.038009 -0.001138
# 6 0.016036 0.003930 -0.002953 -0.006129 -0.001138 0.040341
#
#
# Mechanical properties :
#
#
# Convention : Reuss Voigt Hill
#
# Bulk Modulus (GPa) = 31.83814 62.92787 47.38300
# Shear Modulus (GPa) = 27.48861 38.40168 32.94515
#
# Velocity S-wave (km/s) = 3.50481 4.14251 3.83693
# Velocity P-wave (km/s) = 5.53223 7.14148 6.38773
#
# Compressibility (1/GPa) = 0.03140887
#
# Stress axis : x y z
#
# Youngs Moduli (GPa) = 43.69256 105.03308 52.07101
#
# Poissons Ratio (x) = 0.06942 0.06325
# Poissons Ratio (y) = 0.02888 0.42835
# Poissons Ratio (z) = 0.05307 0.86402
#
# Static dielectric constant tensor:
#      x y z
#    x 3.851020 0.539860 -0.024930 
#    y 0.539860 3.455100 1.325820 
#    z -0.024930 1.325820 4.004790 
# 
# 
# High freq. dielectric constant tensor:
#      x y z
#    x 1.869470 -0.007950 -0.000690 
#    y -0.007950 1.899560 0.014780 
#    z -0.000690 0.014780 1.882650 
# 
# From -- ./inp_files/171998.got.cif
#   From: 2010.06.25/outbox.cif.g09.slc.cpg/sg2_86_cif.got.tgz:171998.got - 2010.06.27 13:26:56.
