data_PCOD8022382
_publ_section_title
;
Structure prediction by ZEFSAII (Michael W. Deem and Ramdas Pophale) SiO2 
 PCOD8022382
Probable space group: P -1
;
_chemical_formula_sum "Si O2"
_cell_formula_units_Z 14
_cell_length_a 9.107937
_cell_length_b 18.386005
_cell_length_c 5.217943
_cell_angle_alpha 114.039485
_cell_angle_beta 123.861038
_cell_angle_gamma 55.043580
_cell_volume 589.675787
_symmetry_space_group_name_H-M "P -1"
_symmetry_group_IT_number 2
_symmetry_cell_setting 'triclinic'
loop_
_space_group_symop_operation_xyz
x,y,z
-x,-y,-z
loop_
_atom_site_type_symbol
_atom_site_label
_atom_site_fract_x
_atom_site_fract_y
_atom_site_fract_z
Si Si1 0.223196 0.306375 0.696243
Si Si2 0.785339 0.442394 0.561798
Si Si3 0.362111 0.352865 0.380527
Si Si4 0.265378 0.639707 0.108190
Si Si5 0.584976 0.920464 0.164490
Si Si6 0.144071 0.189693 0.118889
Si Si7 0.182765 0.021528 0.147836
O O1 0.241604 0.337523 0.471820
O O2 0.227073 0.209566 0.502169
O O3 0.018306 0.379302 0.717409
O O4 0.381818 0.297837 0.055555
O O5 0.747747 0.542906 0.644486
O O6 0.691192 0.430173 0.717349
O O7 0.690493 0.414919 0.191104
O O8 0.582869 0.318937 0.654462
O O9 0.049007 0.722298 0.024614
O O10 0.754809 0.934365 0.497687
O O11 0.386061 0.931442 0.140076
O O12 0.692967 0.827790 0.973363
O O13 0.500000 0.000000 0.000000
O O14 0.105995 0.102378 0.978392
O O15 0.000000 0.000000 0.000000
#
# Coordination Sequence:
#
# PCOD8022382 Si02
#       7
#     2   2   2   2   2   2   2
#     4  11  24  40  64  95 136 176 226 281 346 394
#     4  11  22  42  68  90 135 184 228 283 339 401
#     4  12  23  42  64 101 129 179 240 279 331 410
#     4  11  24  41  65  98 135 179 225 287 345 387
#     4   9  21  44  69  97 134 168 219 270 345 403
#     4  10  24  43  62  92 138 178 210 280 344 401
#     4  10  22  45  74 100 128 175 227 269 339 416
#
# _framework density 23.741862000000001
#
# number of rings (size 3 to 8) (size 9 to 14) (size 15 to 20)
#    0.000    1.429    0.000    5.143    6.000    2.286 
#   10.286    0.000    0.000    0.000    0.000    0.000 
#    0.000    0.000    0.000    0.000    0.000    0.000 
#
# Total GULP energy -173509.509415 kJ/mol
# GULP energy per Si atom -12393.536387 kJ/mol
# Density = 2.368782 g / cm^3
# Si number density = 23.741862 Si / 1000 Ang^3
#
#
#
# Elastic Constant Matrix: (Units=GPa)
#
#
# Indices 1 2 3 4 5 6 
#
# 1 109.0422 24.0017 59.0407 16.2655 3.8835 0.0424
# 2 24.0017 70.0351 31.6582 26.4797 -0.5595 3.2093
# 3 59.0407 31.6582 159.9491 6.1830 -3.2607 -6.8911
# 4 16.2655 26.4797 6.1830 24.5028 2.9250 -8.8100
# 5 3.8835 -0.5595 -3.2607 2.9250 48.0778 0.4260
# 6 0.0424 3.2093 -6.8911 -8.8100 0.4260 38.9602
#
#
#
# Elastic Compliance Matrix: (Units=1/GPa)
#
#
# Indices 1 2 3 4 5 6 
#
# 1 0.013041 0.001967 -0.004953 -0.010696 -0.000685 -0.003463
# 2 0.001967 0.031428 -0.005946 -0.038486 0.002255 -0.012370
# 3 -0.004953 -0.005946 0.009099 0.008847 0.000373 0.004101
# 4 -0.010696 -0.038486 0.008847 0.097544 -0.005156 0.026861
# 5 -0.000685 0.002255 0.000373 -0.005156 0.021234 -0.001517
# 6 -0.003463 -0.012370 0.004101 0.026861 -0.001517 0.033506
#
#
# Mechanical properties :
#
#
# Convention : Reuss Voigt Hill
#
# Bulk Modulus (GPa) = 28.00704 63.15862 45.58283
# Shear Modulus (GPa) = 21.22089 37.26321 29.24205
#
# Velocity S-wave (km/s) = 2.99292 3.96601 3.51332
# Velocity P-wave (km/s) = 4.87499 6.90161 5.97486
#
# Compressibility (1/GPa) = 0.03570531
#
# Stress axis : x y z
#
# Youngs Moduli (GPa) = 76.68346 31.81838 109.89941
#
# Poissons Ratio (x) = -0.06258 0.54429
# Poissons Ratio (y) = -0.15083 0.65344
# Poissons Ratio (z) = 0.37978 0.18919
#
# Static dielectric constant tensor:
#      x y z
#    x 4.385380 -0.392150 -0.022750 
#    y -0.392150 4.583700 0.132310 
#    z -0.022750 0.132310 4.510550 
# 
# 
# High freq. dielectric constant tensor:
#      x y z
#    x 1.941490 -0.000570 -0.017330 
#    y -0.000570 1.949390 -0.007160 
#    z -0.017330 -0.007160 1.950100 
# 
# From -- ./inp_files/49194.got.cif
#   From: 2010.06.25/outbox.cif.g09.slc.cpg/sg2_25_cif.got.tgz:49194.got - 2010.06.27 13:26:56.
