data_PCOD8022870
_publ_section_title
;
Structure prediction by ZEFSAII (Michael W. Deem and Ramdas Pophale) SiO2 
 PCOD8022870
Probable space group: P -1
;
_chemical_formula_sum "Si O2"
_cell_formula_units_Z 16
_cell_length_a 5.608427
_cell_length_b 15.692464
_cell_length_c 18.985711
_cell_angle_alpha 151.324958
_cell_angle_beta 64.520249
_cell_angle_gamma 114.195874
_cell_volume 721.768545
_symmetry_space_group_name_H-M "P -1"
_symmetry_group_IT_number 2
_symmetry_cell_setting 'triclinic'
loop_
_space_group_symop_operation_xyz
x,y,z
-x,-y,-z
loop_
_atom_site_type_symbol
_atom_site_label
_atom_site_fract_x
_atom_site_fract_y
_atom_site_fract_z
Si Si1 0.389543 0.361039 0.515042
Si Si2 0.802281 0.461194 0.857408
Si Si3 0.163513 0.176008 0.629971
Si Si4 0.098631 0.500051 0.280556
Si Si5 0.614773 0.153758 0.453677
Si Si6 0.968659 0.192452 0.172734
Si Si7 0.293164 0.232530 0.809393
Si Si8 0.354684 0.297092 0.321411
O O1 0.459486 0.192671 0.430322
O O2 0.245776 0.285361 0.406875
O O3 0.634944 0.496730 0.556674
O O4 0.216238 0.484540 0.676387
O O5 0.742394 0.521280 0.828514
O O6 0.580977 0.324143 0.820392
O O7 0.064140 0.355728 0.740057
O O8 0.856188 0.635382 0.025382
O O9 0.455429 0.156087 0.549545
O O10 0.133174 0.195452 0.731425
O O11 0.000000 0.000000 0.500000
O O12 0.164279 0.687042 0.448183
O O13 0.143748 0.331922 0.202055
O O14 0.705025 0.955703 0.287569
O O15 0.654626 0.226175 0.235956
O O16 0.123794 0.193277 0.228999
O O17 0.000000 0.000000 0.000000
#
# Coordination Sequence:
#
# PCOD8022870 Si02
#       8
#     2   2   2   2   2   2   2   2
#     4  10  23  39  67  95 128 165 226 284 329 397
#     4  11  23  43  60  91 133 170 213 270 341 389
#     4  12  22  40  65  92 127 177 223 269 330 401
#     4  11  23  41  67  93 130 175 225 273 333 407
#     4  12  22  39  65  98 126 168 233 272 327 398
#     4  11  24  44  70  99 140 182 221 276 352 417
#     4  11  25  39  62  92 130 171 212 277 331 399
#     4  10  23  43  68 100 132 178 225 281 343 405
#
# _framework density 22.167770000000001
#
# number of rings (size 3 to 8) (size 9 to 14) (size 15 to 20)
#    0.000    1.000    5.000    1.875    1.750    2.500 
#    0.000    0.000    0.000    0.000    0.000    0.000 
#    0.000    0.000    0.000    0.000    0.000    0.000 
#
# Total GULP energy -198241.649880 kJ/mol
# GULP energy per Si atom -12390.103118 kJ/mol
# Density = 2.211731 g / cm^3
# Si number density = 22.167770 Si / 1000 Ang^3
#
#
#
# Elastic Constant Matrix: (Units=GPa)
#
#
# Indices 1 2 3 4 5 6 
#
# 1 79.1029 17.6142 36.9915 -1.5636 12.6063 -16.8118
# 2 17.6142 109.1046 55.1461 1.7848 7.5982 -21.3524
# 3 36.9915 55.1461 166.9560 9.9036 13.2162 -14.6335
# 4 -1.5636 1.7848 9.9036 33.0695 -5.9187 4.2697
# 5 12.6063 7.5982 13.2162 -5.9187 36.8703 -7.2397
# 6 -16.8118 -21.3524 -14.6335 4.2697 -7.2397 33.1339
#
#
#
# Elastic Compliance Matrix: (Units=1/GPa)
#
#
# Indices 1 2 3 4 5 6 
#
# 1 0.015714 0.000314 -0.002800 0.000192 -0.003182 0.006219
# 2 0.000314 0.012160 -0.003477 -0.000468 -0.000169 0.006484
# 3 -0.002800 -0.003477 0.008033 -0.002629 -0.001655 -0.000136
# 4 0.000192 -0.000468 -0.002629 0.032585 0.005340 -0.004397
# 5 -0.003182 -0.000169 -0.001655 0.005340 0.030382 0.003496
# 6 0.006219 0.006484 -0.000136 -0.004397 0.003496 0.038784
#
#
# Mechanical properties :
#
#
# Convention : Reuss Voigt Hill
#
# Bulk Modulus (GPa) = 41.69803 63.85191 52.77497
# Shear Modulus (GPa) = 31.73041 36.97552 34.35297
#
# Velocity S-wave (km/s) = 3.78746 4.08853 3.94087
# Velocity P-wave (km/s) = 6.16259 7.15224 6.67578
#
# Compressibility (1/GPa) = 0.02398195
#
# Stress axis : x y z
#
# Youngs Moduli (GPa) = 63.63886 82.23382 124.48164
#
# Poissons Ratio (x) = -0.02579 0.34851
# Poissons Ratio (y) = -0.01996 0.43279
# Poissons Ratio (z) = 0.17817 0.28591
#
# Static dielectric constant tensor:
#      x y z
#    x 9.900050 14.425250 -0.270070 
#    y 14.425250 39.110550 -0.735640 
#    z -0.270070 -0.735640 4.033720 
# 
# 
# High freq. dielectric constant tensor:
#      x y z
#    x 1.860010 -0.008090 0.002530 
#    y -0.008090 1.882020 -0.003500 
#    z 0.002530 -0.003500 1.868680 
# 
# From -- ./inp_files/37292.got.cif
#   From: 2010.06.25/outbox.cif.g09.slc.cpg/sg2_19_cif.got.tgz:37292.got - 2010.06.27 13:26:56.
