data_PCOD8022672
_publ_section_title
;
Structure prediction by ZEFSAII (Michael W. Deem and Ramdas Pophale) SiO2 
 PCOD8022672
Probable space group: P -1
;
_chemical_formula_sum "Si O2"
_cell_formula_units_Z 16
_cell_length_a 17.231746
_cell_length_b 12.281244
_cell_length_c 9.392969
_cell_angle_alpha 40.020152
_cell_angle_beta 136.034204
_cell_angle_gamma 141.102354
_cell_volume 764.049984
_symmetry_space_group_name_H-M "P -1"
_symmetry_group_IT_number 2
_symmetry_cell_setting 'triclinic'
loop_
_space_group_symop_operation_xyz
x,y,z
-x,-y,-z
loop_
_atom_site_type_symbol
_atom_site_label
_atom_site_fract_x
_atom_site_fract_y
_atom_site_fract_z
Si Si1 0.197532 0.063861 0.558451
Si Si2 0.364274 0.872646 0.869097
Si Si3 0.794204 0.427939 0.599741
Si Si4 0.236051 0.462557 0.269597
Si Si5 0.018297 0.181008 0.682708
Si Si6 0.854246 0.043000 0.859138
Si Si7 0.632402 0.110667 0.479805
Si Si8 0.066750 0.781796 0.916577
O O1 0.275207 0.302838 0.429219
O O2 0.282576 0.979041 0.687439
O O3 0.143423 0.980174 0.727002
O O4 0.071252 0.999363 0.359740
O O5 0.387086 0.865058 0.737163
O O6 0.294301 0.647724 0.055111
O O7 0.500000 0.000000 0.000000
O O8 0.711311 0.473258 0.561193
O O9 0.922691 0.619585 0.524137
O O10 0.714770 0.317968 0.463338
O O11 0.844007 0.315299 0.879020
O O12 0.080509 0.361226 0.181742
O O13 0.925315 0.185351 0.676941
O O14 0.131613 0.150542 0.932557
O O15 0.704417 0.984871 0.719438
O O16 0.935137 0.168578 0.972754
O O17 0.500000 0.000000 0.500000
#
# Coordination Sequence:
#
# PCOD8022672 Si02
#       8
#     2   2   2   2   2   2   2   2
#     4  12  23  43  72 101 142 173 219 284 342 405
#     4  12  28  48  70  95 132 181 237 283 326 400
#     4  11  23  38  67  97 141 178 221 273 347 402
#     4  12  23  41  71 102 137 177 223 273 343 405
#     4  11  21  40  62 108 135 170 218 281 348 407
#     4  10  23  37  66  92 140 171 212 280 338 397
#     4  11  26  47  66  90 133 186 228 277 334 396
#     4  11  21  37  63 105 138 172 210 275 342 406
#
# _framework density 20.941037999999999
#
# number of rings (size 3 to 8) (size 9 to 14) (size 15 to 20)
#    0.000    0.750    5.000    3.000    3.500    1.500 
#    0.000    0.625    0.000    0.000    0.000    0.000 
#    0.000    0.000    0.000    0.000    0.000    0.000 
#
# Total GULP energy -198301.923357 kJ/mol
# GULP energy per Si atom -12393.870210 kJ/mol
# Density = 2.089338 g / cm^3
# Si number density = 20.941038 Si / 1000 Ang^3
#
#
#
# Elastic Constant Matrix: (Units=GPa)
#
#
# Indices 1 2 3 4 5 6 
#
# 1 113.0309 53.8602 67.4264 -12.5787 -13.3327 -3.3665
# 2 53.8602 98.0917 57.4804 -9.1070 -0.5697 -10.8021
# 3 67.4264 57.4804 110.8183 -5.9633 -10.2673 -1.9893
# 4 -12.5787 -9.1070 -5.9633 38.1884 -3.5932 -3.8213
# 5 -13.3327 -0.5697 -10.2673 -3.5932 40.4957 9.1841
# 6 -3.3665 -10.8021 -1.9893 -3.8213 9.1841 35.6488
#
#
#
# Elastic Compliance Matrix: (Units=1/GPa)
#
#
# Indices 1 2 3 4 5 6 
#
# 1 0.015844 -0.004488 -0.006782 0.003370 0.003936 -0.000895
# 2 -0.004488 0.017128 -0.006321 0.001810 -0.003955 0.005626
# 3 -0.006782 -0.006321 0.016537 -0.001178 0.002300 -0.002352
# 4 0.003370 0.001810 -0.001178 0.028104 0.002618 0.003139
# 5 0.003936 -0.003955 0.002300 0.002618 0.028510 -0.007763
# 6 -0.000895 0.005626 -0.002352 0.003139 -0.007763 0.031877
#
#
# Mechanical properties :
#
#
# Convention : Reuss Voigt Hill
#
# Bulk Modulus (GPa) = 69.80753 75.49721 72.65237
# Shear Modulus (GPa) = 28.09644 32.41151 30.25397
#
# Velocity S-wave (km/s) = 3.66689 3.93841 3.80507
# Velocity P-wave (km/s) = 7.16489 7.53738 7.35349
#
# Compressibility (1/GPa) = 0.01432510
#
# Stress axis : x y z
#
# Youngs Moduli (GPa) = 63.11377 58.38494 60.47164
#
# Poissons Ratio (x) = 0.26204 0.41015
# Poissons Ratio (y) = 0.28327 0.38225
# Poissons Ratio (z) = 0.42807 0.36906
#
# Static dielectric constant tensor:
#      x y z
#    x 3.923660 -0.286620 -0.005950 
#    y -0.286620 3.810520 0.037840 
#    z -0.005950 0.037840 4.041900 
# 
# 
# High freq. dielectric constant tensor:
#      x y z
#    x 1.831430 -0.023310 -0.012870 
#    y -0.023310 1.805020 0.000460 
#    z -0.012870 0.000460 1.825400 
# 
# From -- ./inp_files/260975.got.cif
#   From: 2010.06.25/outbox.cif.g09.slc.cpg/sg2_131_cif.got.tgz:260975.got - 2010.06.27 13:26:56.
