data_PCOD8022244
_publ_section_title
;
Structure prediction by ZEFSAII (Michael W. Deem and Ramdas Pophale) SiO2 
 PCOD8022244
Probable space group: P -1
;
_chemical_formula_sum "Si O2"
_cell_formula_units_Z 16
_cell_length_a 12.312973
_cell_length_b 8.161552
_cell_length_c 13.948505
_cell_angle_alpha 54.454186
_cell_angle_beta 142.199210
_cell_angle_gamma 110.161697
_cell_volume 680.307708
_symmetry_space_group_name_H-M "P -1"
_symmetry_group_IT_number 2
_symmetry_cell_setting 'triclinic'
loop_
_space_group_symop_operation_xyz
x,y,z
-x,-y,-z
loop_
_atom_site_type_symbol
_atom_site_label
_atom_site_fract_x
_atom_site_fract_y
_atom_site_fract_z
Si Si1 0.366870 0.849446 0.458936
Si Si2 0.601555 0.526696 0.861452
Si Si3 0.695233 0.354719 0.698155
Si Si4 0.516920 0.753514 0.928774
Si Si5 0.049338 0.955882 0.347940
Si Si6 0.001857 0.407199 0.228769
Si Si7 0.667403 0.127367 0.948430
Si Si8 0.187313 0.610583 0.712594
O O1 0.487183 0.633269 0.654972
O O2 0.288740 0.827671 0.306118
O O3 0.190754 0.940266 0.366981
O O4 0.500000 0.000000 0.500000
O O5 0.531649 0.663259 0.860315
O O6 0.577819 0.286508 0.917331
O O7 0.818586 0.507673 0.007164
O O8 0.500000 0.500000 0.500000
O O9 0.844171 0.485962 0.737436
O O10 0.723365 0.257098 0.855876
O O11 0.313607 0.732100 0.824592
O O12 0.526365 0.991772 0.861583
O O13 0.675198 0.604424 0.153507
O O14 0.095801 0.747272 0.514246
O O15 0.063391 0.159568 0.346686
O O16 0.848777 0.968156 0.163853
O O17 0.964001 0.445479 0.303433
#
# Coordination Sequence:
#
# PCOD8022244 Si02
#       8
#     2   2   2   2   2   2   2   2
#     4  12  25  41  69 101 139 185 229 286 349 415
#     4  10  22  45  69 102 140 181 227 285 347 411
#     4  12  26  45  71 100 139 181 228 292 351 415
#     4  10  22  45  73 102 141 182 235 286 343 413
#     4  11  25  43  70 105 137 183 236 287 347 413
#     4  10  25  45  71 102 140 181 232 287 349 414
#     4  11  26  45  71 106 137 184 237 284 354 411
#     4  10  22  45  72  99 142 188 227 291 345 407
#
# _framework density 23.518768999999999
#
# number of rings (size 3 to 8) (size 9 to 14) (size 15 to 20)
#    0.000    1.250    2.500    1.875    7.000    2.000 
#    0.000   10.000    0.000    0.000    0.000    0.000 
#    0.000    0.000    0.000    0.000    0.000    0.000 
#
# Total GULP energy -198321.118615 kJ/mol
# GULP energy per Si atom -12395.069913 kJ/mol
# Density = 2.346524 g / cm^3
# Si number density = 23.518769 Si / 1000 Ang^3
#
#
#
# Elastic Constant Matrix: (Units=GPa)
#
#
# Indices 1 2 3 4 5 6 
#
# 1 46.0014 26.7504 0.7496 -1.8483 8.7554 4.8790
# 2 26.7504 120.4740 3.4027 3.1177 1.8552 9.5625
# 3 0.7496 3.4027 84.0145 -7.3347 -5.6374 -9.7096
# 4 -1.8483 3.1177 -7.3347 25.6345 0.5873 -0.8253
# 5 8.7554 1.8552 -5.6374 0.5873 34.6374 1.5261
# 6 4.8790 9.5625 -9.7096 -0.8253 1.5261 44.0647
#
#
#
# Elastic Compliance Matrix: (Units=1/GPa)
#
#
# Indices 1 2 3 4 5 6 
#
# 1 0.026574 -0.005738 -0.000385 0.002603 -0.006450 -0.001510
# 2 -0.005738 0.009761 -0.000640 -0.001860 0.000930 -0.001691
# 3 -0.000385 -0.000640 0.012739 0.003745 0.002010 0.002989
# 4 0.002603 -0.001860 0.003745 0.040567 -0.000713 0.001725
# 5 -0.006450 0.000930 0.002010 -0.000713 0.030796 -0.000125
# 6 -0.001510 -0.001691 0.002989 0.001725 -0.000125 0.023923
#
#
# Mechanical properties :
#
#
# Convention : Reuss Voigt Hill
#
# Bulk Modulus (GPa) = 28.12980 34.69948 31.41464
# Shear Modulus (GPa) = 29.45787 35.50646 32.48216
#
# Velocity S-wave (km/s) = 3.54294 3.88971 3.72037
# Velocity P-wave (km/s) = 5.35940 5.91262 5.64279
#
# Compressibility (1/GPa) = 0.03554949
#
# Stress axis : x y z
#
# Youngs Moduli (GPa) = 37.63122 102.45202 78.49717
#
# Poissons Ratio (x) = 0.58785 0.03020
# Poissons Ratio (y) = 0.21592 0.05020
# Poissons Ratio (z) = 0.01448 0.06552
#
# Static dielectric constant tensor:
#      x y z
#    x 4.366210 -0.282390 0.190500 
#    y -0.282390 1.022090 3.097380 
#    z 0.190500 3.097380 1.374890 
# 
# 
# High freq. dielectric constant tensor:
#      x y z
#    x 1.938040 -0.004630 0.003300 
#    y -0.004630 1.928840 -0.003800 
#    z 0.003300 -0.003800 1.936650 
# 
# From -- ./inp_files/515115.got.cif
#   From: 2010.06.25/outbox.cif.g09.slc.cpg/sg2_258_cif.got.tgz:515115.got - 2010.06.27 13:26:56.
