data_PCOD8022361
_publ_section_title
;
Structure prediction by ZEFSAII (Michael W. Deem and Ramdas Pophale) SiO2 
 PCOD8022361
Probable space group: P -1
;
_chemical_formula_sum "Si O2"
_cell_formula_units_Z 10
_cell_length_a 6.558692
_cell_length_b 9.171747
_cell_length_c 14.738045
_cell_angle_alpha 29.603333
_cell_angle_beta 90.517645
_cell_angle_gamma 90.578823
_cell_volume 437.932595
_symmetry_space_group_name_H-M "P -1"
_symmetry_group_IT_number 2
_symmetry_cell_setting 'triclinic'
loop_
_space_group_symop_operation_xyz
x,y,z
-x,-y,-z
loop_
_atom_site_type_symbol
_atom_site_label
_atom_site_fract_x
_atom_site_fract_y
_atom_site_fract_z
Si Si1 0.138781 0.727661 0.673272
Si Si2 0.796254 0.895041 0.179450
Si Si3 0.456200 0.658362 0.560687
Si Si4 0.630802 0.211906 0.176381
Si Si5 0.159859 0.685719 0.197885
O O1 0.345419 0.739187 0.609692
O O2 0.203243 0.725167 0.779366
O O3 0.009883 0.436362 0.807244
O O4 0.000000 0.000000 0.500000
O O5 0.659932 0.601422 0.353285
O O6 0.035751 0.805792 0.220411
O O7 0.762572 0.119625 0.139713
O O8 0.727459 0.052585 0.999026
O O9 0.686778 0.563852 0.634627
O O10 0.471350 0.951147 0.341427
O O11 0.500000 0.500000 0.000000
#
# Coordination Sequence:
#
# PCOD8022361 Si02
#       5
#     2   2   2   2   2
#     4  11  24  44  70  98 134 181 221 275 339 400
#     4  10  24  43  68 103 133 178 225 280 331 403
#     4  11  23  46  70  94 139 183 223 269 343 404
#     4  12  26  43  69 105 139 173 225 286 333 391
#     4  10  22  45  72  97 134 183 225 270 340 408
#
# _framework density 22.834565000000001
#
# number of rings (size 3 to 8) (size 9 to 14) (size 15 to 20)
#    0.000    1.200    2.000    3.000    2.800    4.800 
#    3.600    0.000    0.000    0.000    0.000    0.000 
#    0.000    0.000    0.000    0.000    0.000    0.000 
#
# Total GULP energy -124018.763359 kJ/mol
# GULP energy per Si atom -12401.876336 kJ/mol
# Density = 2.278259 g / cm^3
# Si number density = 22.834565 Si / 1000 Ang^3
#
#
#
# Elastic Constant Matrix: (Units=GPa)
#
#
# Indices 1 2 3 4 5 6 
#
# 1 128.5852 73.6526 62.2869 0.8799 24.4132 -27.3617
# 2 73.6526 157.2802 40.6287 -3.6735 20.8184 -34.6400
# 3 62.2869 40.6287 155.7815 -9.2499 16.2642 -10.2649
# 4 0.8799 -3.6735 -9.2499 27.7119 -2.5798 3.5562
# 5 24.4132 20.8184 16.2642 -2.5798 43.7865 -0.7384
# 6 -27.3617 -34.6400 -10.2649 3.5562 -0.7384 35.6724
#
#
#
# Elastic Compliance Matrix: (Units=1/GPa)
#
#
# Indices 1 2 3 4 5 6 
#
# 1 0.014045 -0.003599 -0.003969 -0.003509 -0.004744 0.006388
# 2 -0.003599 0.009967 -0.000451 0.000196 -0.002440 0.006718
# 3 -0.003969 -0.000451 0.008258 0.002958 -0.000489 -0.001412
# 4 -0.003509 0.000196 0.002958 0.038175 0.002923 -0.005396
# 5 -0.004744 -0.002440 -0.000489 0.002923 0.026898 -0.005884
# 6 0.006388 0.006718 -0.001412 -0.005396 -0.005884 0.039466
#
#
# Mechanical properties :
#
#
# Convention : Reuss Voigt Hill
#
# Bulk Modulus (GPa) = 61.61163 88.30925 74.96044
# Shear Modulus (GPa) = 31.59380 39.10607 35.34994
#
# Velocity S-wave (km/s) = 3.72371 4.14283 3.93884
# Velocity P-wave (km/s) = 6.74747 7.85121 7.32017
#
# Compressibility (1/GPa) = 0.01623070
#
# Stress axis : x y z
#
# Youngs Moduli (GPa) = 71.19907 100.32833 121.09869
#
# Poissons Ratio (x) = 0.36108 0.48067
# Poissons Ratio (y) = 0.25624 0.05468
# Poissons Ratio (z) = 0.28261 0.04530
#
# Static dielectric constant tensor:
#      x y z
#    x 3.868680 -0.433890 -0.109180 
#    y -0.433890 3.907300 -0.264950 
#    z -0.109180 -0.264950 4.150520 
# 
# 
# High freq. dielectric constant tensor:
#      x y z
#    x 1.901220 -0.019900 -0.004390 
#    y -0.019900 1.901530 -0.019600 
#    z -0.004390 -0.019600 1.912760 
# 
# From -- ./inp_files/16128.got.cif
#   From: 2010.06.25/outbox.cif.g09.slc.cpg/sg2_9_cif.got.tgz:16128.got - 2010.06.27 13:26:56.
