data_PCOD8022578
_publ_section_title
;
Structure prediction by ZEFSAII (Michael W. Deem and Ramdas Pophale) SiO2 
 PCOD8022578
Probable space group: P -1
;
_chemical_formula_sum "Si O2"
_cell_formula_units_Z 10
_cell_length_a 8.822597
_cell_length_b 11.386691
_cell_length_c 11.754367
_cell_angle_alpha 142.913532
_cell_angle_beta 137.786845
_cell_angle_gamma 69.851887
_cell_volume 379.803297
_symmetry_space_group_name_H-M "P -1"
_symmetry_group_IT_number 2
_symmetry_cell_setting 'triclinic'
loop_
_space_group_symop_operation_xyz
x,y,z
-x,-y,-z
loop_
_atom_site_type_symbol
_atom_site_label
_atom_site_fract_x
_atom_site_fract_y
_atom_site_fract_z
Si Si1 0.480557 0.927506 0.598979
Si Si2 0.101959 0.318841 0.175646
Si Si3 0.600611 0.528175 0.773183
Si Si4 0.722886 0.162495 0.344277
Si Si5 0.705893 0.749825 0.238922
O O1 0.318930 0.042644 0.565482
O O2 0.312837 0.637446 0.249267
O O3 0.493956 0.925605 0.740521
O O4 0.782498 0.078225 0.822744
O O5 0.283307 0.333291 0.394654
O O6 0.211204 0.305390 0.101936
O O7 0.104606 0.552513 0.367267
O O8 0.617527 0.695128 0.012984
O O9 0.962145 0.124872 0.468298
O O10 0.500000 0.000000 0.000000
O O11 0.500000 0.500000 0.000000
#
# Coordination Sequence:
#
# PCOD8022578 Si02
#       5
#     2   2   2   2   2
#     4  11  24  46  74 104 140 192 237 287 362 413
#     4  10  22  47  72 107 144 190 231 298 351 424
#     4  10  25  46  72 105 148 183 239 291 352 423
#     4  11  25  45  72 106 144 187 238 293 354 422
#     4  12  26  48  71 108 145 187 238 295 349 422
#
# _framework density 26.329415999999998
#
# number of rings (size 3 to 8) (size 9 to 14) (size 15 to 20)
#    0.000    1.200    2.000    2.400    2.800    5.600 
#    7.200    0.000    0.000    0.000    0.000    0.000 
#    0.000    0.000    0.000    0.000    0.000    0.000 
#
# Total GULP energy -123941.923666 kJ/mol
# GULP energy per Si atom -12394.192367 kJ/mol
# Density = 2.626949 g / cm^3
# Si number density = 26.329416 Si / 1000 Ang^3
#
#
#
# Elastic Constant Matrix: (Units=GPa)
#
#
# Indices 1 2 3 4 5 6 
#
# 1 105.1337 18.9792 38.9511 -14.3271 21.9527 9.4663
# 2 18.9792 101.0998 9.6351 4.6912 -7.0646 -1.7186
# 3 38.9511 9.6351 78.0046 -24.5084 8.7112 13.1133
# 4 -14.3271 4.6912 -24.5084 43.2011 3.1752 3.5499
# 5 21.9527 -7.0646 8.7112 3.1752 31.0261 2.7547
# 6 9.4663 -1.7186 13.1133 3.5499 2.7547 48.7387
#
#
#
# Elastic Compliance Matrix: (Units=1/GPa)
#
#
# Indices 1 2 3 4 5 6 
#
# 1 0.014359 -0.003159 -0.004339 0.003487 -0.009891 -0.001428
# 2 -0.003159 0.011264 -0.001913 -0.003890 0.005603 0.001492
# 3 -0.004339 -0.001913 0.019855 0.010719 -0.003580 -0.005145
# 4 0.003487 -0.003890 0.010719 0.031932 -0.009142 -0.005507
# 5 -0.009891 0.005603 -0.003580 -0.009142 0.042325 0.001355
# 6 -0.001428 0.001492 -0.005145 -0.005507 0.001355 0.022556
#
#
# Mechanical properties :
#
#
# Convention : Reuss Voigt Hill
#
# Bulk Modulus (GPa) = 37.51570 46.59653 42.05612
# Shear Modulus (GPa) = 29.41191 39.03802 34.22496
#
# Velocity S-wave (km/s) = 3.34589 3.85473 3.60929
# Velocity P-wave (km/s) = 5.40427 6.12763 5.77729
#
# Compressibility (1/GPa) = 0.02665551
#
# Stress axis : x y z
#
# Youngs Moduli (GPa) = 69.64378 88.77882 50.36428
#
# Poissons Ratio (x) = 0.28047 0.21855
# Poissons Ratio (y) = 0.22002 0.09633
# Poissons Ratio (z) = 0.30222 0.16980
#
# Static dielectric constant tensor:
#      x y z
#    x 4.901840 -0.246050 -0.007190 
#    y -0.246050 5.483750 0.092140 
#    z -0.007190 0.092140 4.455780 
# 
# 
# High freq. dielectric constant tensor:
#      x y z
#    x 2.061500 0.001460 -0.001950 
#    y 0.001460 2.080130 0.015050 
#    z -0.001950 0.015050 2.048080 
# 
# From -- ./inp_files/156327.got.cif
#   From: 2010.06.25/outbox.cif.g09.slc.cpg/sg2_79_cif.got.tgz:156327.got - 2010.06.27 13:26:56.
