data_PCOD8022597
_publ_section_title
;
Structure prediction by ZEFSAII (Michael W. Deem and Ramdas Pophale) SiO2 
 PCOD8022597
Probable space group: P -1
;
_chemical_formula_sum "Si O2"
_cell_formula_units_Z 16
_cell_length_a 8.666669
_cell_length_b 8.937250
_cell_length_c 12.257902
_cell_angle_alpha 66.907715
_cell_angle_beta 101.970204
_cell_angle_gamma 65.810299
_cell_volume 715.929373
_symmetry_space_group_name_H-M "P -1"
_symmetry_group_IT_number 2
_symmetry_cell_setting 'triclinic'
loop_
_space_group_symop_operation_xyz
x,y,z
-x,-y,-z
loop_
_atom_site_type_symbol
_atom_site_label
_atom_site_fract_x
_atom_site_fract_y
_atom_site_fract_z
Si Si1 0.049526 0.790565 0.534617
Si Si2 0.526529 0.452879 0.391906
Si Si3 0.262973 0.002517 0.730788
Si Si4 0.720496 0.341359 0.066544
Si Si5 0.879639 0.836442 0.111800
Si Si6 0.243262 0.805763 0.126613
Si Si7 0.574684 0.829332 0.647769
Si Si8 0.992573 0.408168 0.209187
O O1 0.254150 0.677793 0.549559
O O2 0.043463 0.661101 0.663725
O O3 0.000000 0.000000 0.500000
O O4 0.903194 0.818844 0.412397
O O5 0.500000 0.500000 0.500000
O O6 0.439333 0.655766 0.256887
O O7 0.433368 0.341784 0.362444
O O8 0.226558 0.830927 0.791468
O O9 0.456771 0.912321 0.718416
O O10 0.259847 0.089186 0.824694
O O11 0.854970 0.416504 0.093501
O O12 0.500000 0.500000 0.000000
O O13 0.768005 0.272832 0.969898
O O14 0.069699 0.834564 0.165738
O O15 0.935909 0.626527 0.145644
O O16 0.772475 0.990414 0.952537
O O17 0.787730 0.740615 0.743413
O O18 0.500000 0.000000 0.500000
#
# Coordination Sequence:
#
# PCOD8022597 Si02
#       8
#     2   2   2   2   2   2   2   2
#     4  12  22  41  69 100 140 186 238 283 353 423
#     4  12  25  45  73 101 136 189 234 286 362 427
#     4  11  23  45  68  96 144 191 228 284 363 421
#     4  11  24  44  74  97 138 196 236 284 354 432
#     4  10  24  43  71  98 141 187 232 297 347 416
#     4  10  22  48  67  99 144 187 235 283 365 426
#     4  12  24  44  66 110 145 177 235 304 347 415
#     4  12  24  43  74 109 136 183 246 294 349 409
#
# _framework density 22.348569999999999
#
# number of rings (size 3 to 8) (size 9 to 14) (size 15 to 20)
#    0.000    0.750    5.000    2.250    0.000    2.000 
#    0.000    5.625    0.000    0.000    0.000    0.000 
#    0.000    0.000    0.000    0.000    0.000    0.000 
#
# Total GULP energy -198382.616970 kJ/mol
# GULP energy per Si atom -12398.913561 kJ/mol
# Density = 2.229770 g / cm^3
# Si number density = 22.348570 Si / 1000 Ang^3
#
#
#
# Elastic Constant Matrix: (Units=GPa)
#
#
# Indices 1 2 3 4 5 6 
#
# 1 124.5194 60.4423 45.2314 6.5626 10.7382 -25.9104
# 2 60.4423 105.3603 67.9697 -27.3312 -3.1673 -19.9331
# 3 45.2314 67.9697 129.9261 -15.4271 1.1536 -4.3718
# 4 6.5626 -27.3312 -15.4271 36.6642 -5.5316 -7.5309
# 5 10.7382 -3.1673 1.1536 -5.5316 47.1572 -5.0405
# 6 -25.9104 -19.9331 -4.3718 -7.5309 -5.0405 39.0598
#
#
#
# Elastic Compliance Matrix: (Units=1/GPa)
#
#
# Indices 1 2 3 4 5 6 
#
# 1 0.015093 -0.011248 -0.000702 -0.011961 -0.005452 0.001183
# 2 -0.011248 0.031347 -0.009041 0.025808 0.009381 0.013710
# 3 -0.000702 -0.009041 0.012226 -0.002605 -0.001523 -0.004409
# 4 -0.011961 0.025808 -0.002605 0.052888 0.012516 0.016757
# 5 -0.005452 0.009381 -0.001523 0.012516 0.025296 0.006678
# 6 0.001183 0.013710 -0.004409 0.016757 0.006678 0.036982
#
#
# Mechanical properties :
#
#
# Convention : Reuss Voigt Hill
#
# Bulk Modulus (GPa) = 59.93566 78.56586 69.25076
# Shear Modulus (GPa) = 22.58607 36.98705 29.78656
#
# Velocity S-wave (km/s) = 3.18248 4.07259 3.65474
# Velocity P-wave (km/s) = 6.35461 7.57270 6.99024
#
# Compressibility (1/GPa) = 0.01668456
#
# Stress axis : x y z
#
# Youngs Moduli (GPa) = 66.25800 31.90100 81.79052
#
# Poissons Ratio (x) = 0.35883 0.05740
# Poissons Ratio (y) = 0.74529 0.73943
# Poissons Ratio (z) = 0.04650 0.28840
#
# Static dielectric constant tensor:
#      x y z
#    x 4.142910 -0.129810 -0.138900 
#    y -0.129810 4.209680 -0.368290 
#    z -0.138900 -0.368290 4.439080 
# 
# 
# High freq. dielectric constant tensor:
#      x y z
#    x 1.879970 -0.020250 -0.009650 
#    y -0.020250 1.882740 -0.018960 
#    z -0.009650 -0.018960 1.895020 
# 
# From -- ./inp_files/381761.got.cif
#   From: 2010.06.25/outbox.cif.g09.slc.cpg/sg2_191_cif.got.tgz:381761.got - 2010.06.27 13:26:56.
