data_PCOD8022528
_publ_section_title
;
Structure prediction by ZEFSAII (Michael W. Deem and Ramdas Pophale) SiO2 
 PCOD8022528
Probable space group: P -1
;
_chemical_formula_sum "Si O2"
_cell_formula_units_Z 12
_cell_length_a 18.180620
_cell_length_b 8.899405
_cell_length_c 5.946119
_cell_angle_alpha 125.771103
_cell_angle_beta 122.324613
_cell_angle_gamma 47.358586
_cell_volume 558.470299
_symmetry_space_group_name_H-M "P -1"
_symmetry_group_IT_number 2
_symmetry_cell_setting 'triclinic'
loop_
_space_group_symop_operation_xyz
x,y,z
-x,-y,-z
loop_
_atom_site_type_symbol
_atom_site_label
_atom_site_fract_x
_atom_site_fract_y
_atom_site_fract_z
Si Si1 0.581901 0.426134 0.261792
Si Si2 0.123096 0.569826 0.265770
Si Si3 0.469225 0.247739 0.150688
Si Si4 0.886355 0.102607 0.808181
Si Si5 0.275217 0.564960 0.814776
Si Si6 0.062538 0.330848 0.650845
O O1 0.569300 0.255443 0.243575
O O2 0.564929 0.632455 0.559929
O O3 0.691609 0.324176 0.227721
O O4 0.500000 0.500000 0.000000
O O5 0.125655 0.763420 0.316738
O O6 0.214287 0.464482 0.507152
O O7 0.013739 0.672863 0.296367
O O8 0.138188 0.390444 0.949803
O O9 0.374506 0.369882 0.929552
O O10 0.500000 0.000000 0.000000
O O11 0.867378 0.909794 0.547800
O O12 0.799997 0.247275 0.974123
O O13 0.000000 0.000000 0.000000
O O14 0.000000 0.500000 0.500000
#
# Coordination Sequence:
#
# PCOD8022528 Si02
#       6
#     2   2   2   2   2   2
#     4   9  21  43  68  97 129 167 215 278 338 403
#     4  11  23  41  64  92 133 180 230 274 323 391
#     4  10  22  46  73  95 133 169 216 283 344 398
#     4  12  23  42  67  92 137 184 221 276 327 387
#     4  11  23  41  66 100 134 174 228 268 335 405
#     4  11  23  41  63  92 130 184 228 274 326 379
#
# _framework density 21.487266000000002
#
# number of rings (size 3 to 8) (size 9 to 14) (size 15 to 20)
#    0.000    1.333    3.333    1.500    0.000    2.667 
#    0.000   31.667    0.000    0.000    0.000    0.000 
#    0.000    0.000    0.000    0.000    0.000    0.000 
#
# Total GULP energy -148768.617913 kJ/mol
# GULP energy per Si atom -12397.384826 kJ/mol
# Density = 2.143836 g / cm^3
# Si number density = 21.487266 Si / 1000 Ang^3
#
#
#
# Elastic Constant Matrix: (Units=GPa)
#
#
# Indices 1 2 3 4 5 6 
#
# 1 114.2500 55.1121 38.7536 19.6690 -16.9366 5.5264
# 2 55.1121 109.0193 75.9421 20.9016 4.3606 6.8520
# 3 38.7536 75.9421 181.4308 10.0252 11.9794 8.5298
# 4 19.6690 20.9016 10.0252 40.1648 0.3648 9.6857
# 5 -16.9366 4.3606 11.9794 0.3648 38.2629 -5.1316
# 6 5.5264 6.8520 8.5298 9.6857 -5.1316 30.0834
#
#
#
# Elastic Compliance Matrix: (Units=1/GPa)
#
#
# Indices 1 2 3 4 5 6 
#
# 1 0.013516 -0.005999 -0.000710 -0.003748 0.007127 0.001507
# 2 -0.005999 0.016916 -0.005348 -0.004430 -0.002908 -0.000304
# 3 -0.000710 -0.005348 0.008067 0.001593 -0.002498 -0.001878
# 4 -0.003748 -0.004430 0.001593 0.030899 -0.003187 -0.009246
# 5 0.007127 -0.002908 -0.002498 -0.003187 0.031295 0.006426
# 6 0.001507 -0.000304 -0.001878 -0.009246 0.006426 0.037639
#
#
# Mechanical properties :
#
#
# Convention : Reuss Voigt Hill
#
# Bulk Modulus (GPa) = 69.52100 82.70175 76.11137
# Shear Modulus (GPa) = 29.89675 37.36170 33.62923
#
# Velocity S-wave (km/s) = 3.73415 4.17440 3.96040
# Velocity P-wave (km/s) = 7.14259 7.86170 7.51076
#
# Compressibility (1/GPa) = 0.01438414
#
# Stress axis : x y z
#
# Youngs Moduli (GPa) = 73.98375 59.11688 123.95990
#
# Poissons Ratio (x) = 0.35466 0.08804
# Poissons Ratio (y) = 0.44386 0.66293
# Poissons Ratio (z) = 0.05255 0.31615
#
# Static dielectric constant tensor:
#      x y z
#    x 4.634180 -0.029460 0.032280 
#    y -0.029460 4.020020 -0.122230 
#    z 0.032280 -0.122230 4.373640 
# 
# 
# High freq. dielectric constant tensor:
#      x y z
#    x 1.857420 0.009740 -0.001900 
#    y 0.009740 1.810510 -0.014720 
#    z -0.001900 -0.014720 1.869630 
# 
# From -- ./inp_files/38274.got.cif
#   From: 2010.06.25/outbox.cif.g09.slc.cpg/sg2_20_cif.got.tgz:38274.got - 2010.06.27 13:26:56.
