data_PCOD8022991
_publ_section_title
;
Structure prediction by ZEFSAII (Michael W. Deem and Ramdas Pophale) SiO2 
 PCOD8022991
Probable space group: P -1
;
_chemical_formula_sum "Si O2"
_cell_formula_units_Z 16
_cell_length_a 11.084724
_cell_length_b 6.544038
_cell_length_c 11.943518
_cell_angle_alpha 72.154513
_cell_angle_beta 87.809766
_cell_angle_gamma 60.971424
_cell_volume 714.704578
_symmetry_space_group_name_H-M "P -1"
_symmetry_group_IT_number 2
_symmetry_cell_setting 'triclinic'
loop_
_space_group_symop_operation_xyz
x,y,z
-x,-y,-z
loop_
_atom_site_type_symbol
_atom_site_label
_atom_site_fract_x
_atom_site_fract_y
_atom_site_fract_z
Si Si1 0.974473 0.075577 0.817662
Si Si2 0.361427 0.991551 0.371863
Si Si3 0.333856 0.288284 0.529971
Si Si4 0.881766 0.392714 0.973778
Si Si5 0.166464 0.827766 0.514292
Si Si6 0.651847 0.282349 0.019023
Si Si7 0.775950 0.032223 0.291966
Si Si8 0.752164 0.949994 0.865965
O O1 0.822902 0.110080 0.791089
O O2 0.054550 0.127889 0.705977
O O3 0.979994 0.241921 0.890902
O O4 0.060780 0.780631 0.890556
O O5 0.515568 0.755584 0.426606
O O6 0.232053 0.957242 0.415367
O O7 0.347905 0.219158 0.409033
O O8 0.345085 0.055952 0.229017
O O9 0.210424 0.567430 0.499144
O O10 0.288994 0.128520 0.634069
O O11 0.866564 0.664106 0.943762
O O12 0.731774 0.421982 0.950042
O O13 0.239904 0.774103 0.643205
O O14 0.000000 0.000000 0.500000
O O15 0.701610 0.153496 0.158941
O O16 0.500000 0.500000 0.000000
O O17 0.665071 0.081509 0.959053
#
# Coordination Sequence:
#
# PCOD8022991 Si02
#       8
#     2   2   2   2   2   2   2   2
#     4   9  19  38  57  91 127 160 205 255 309 365
#     4  10  24  43  64  95 122 167 216 261 314 377
#     4  10  24  45  65  89 128 168 214 263 319 376
#     4   9  20  37  59  86 126 169 203 251 306 373
#     4  11  24  43  69  96 125 166 214 269 322 366
#     4  10  24  40  58  93 133 162 205 256 309 380
#     4  10  23  40  64  93 127 166 202 257 316 371
#     4  11  22  37  65  92 120 168 211 252 317 378
#
# _framework density 22.386869999999998
#
# number of rings (size 3 to 8) (size 9 to 14) (size 15 to 20)
#    0.000    2.000    0.000    2.250    3.500    9.500 
#    0.000    0.000    0.000    0.000    0.000    0.000 
#    0.000    0.000    0.000    0.000    0.000    0.000 
#
# Total GULP energy -198227.868786 kJ/mol
# GULP energy per Si atom -12389.241799 kJ/mol
# Density = 2.233592 g / cm^3
# Si number density = 22.386870 Si / 1000 Ang^3
#
#
#
# Elastic Constant Matrix: (Units=GPa)
#
#
# Indices 1 2 3 4 5 6 
#
# 1 88.8371 35.9410 16.9976 1.0345 -3.5293 -10.3998
# 2 35.9410 136.4627 38.1801 15.5027 9.3487 -15.3313
# 3 16.9976 38.1801 116.4566 29.0201 20.3524 -1.7906
# 4 1.0345 15.5027 29.0201 23.2245 2.0006 0.2255
# 5 -3.5293 9.3487 20.3524 2.0006 29.6238 0.7087
# 6 -10.3998 -15.3313 -1.7906 0.2255 0.7087 32.1748
#
#
#
# Elastic Compliance Matrix: (Units=1/GPa)
#
#
# Indices 1 2 3 4 5 6 
#
# 1 0.013532 -0.003332 -0.002731 0.004651 0.004166 0.002510
# 2 -0.003332 0.009596 -0.000943 -0.004894 -0.002531 0.003533
# 3 -0.002731 -0.000943 0.015304 -0.017564 -0.009352 -0.000152
# 4 0.004651 -0.004894 -0.017564 0.067255 0.009684 -0.002491
# 5 0.004166 -0.002531 -0.009352 0.009684 0.040855 -0.001348
# 6 0.002510 0.003533 -0.000152 -0.002491 -0.001348 0.033614
#
#
# Mechanical properties :
#
#
# Convention : Reuss Voigt Hill
#
# Bulk Modulus (GPa) = 40.95119 58.22152 49.58635
# Shear Modulus (GPa) = 24.71477 33.71379 29.21428
#
# Velocity S-wave (km/s) = 3.32623 3.88488 3.61636
# Velocity P-wave (km/s) = 5.75187 6.79607 6.29565
#
# Compressibility (1/GPa) = 0.02441931
#
# Stress axis : x y z
#
# Youngs Moduli (GPa) = 73.89776 104.21256 65.34341
#
# Poissons Ratio (x) = 0.34720 0.17847
# Poissons Ratio (y) = 0.24620 0.06164
# Poissons Ratio (z) = 0.20183 0.09831
#
# Static dielectric constant tensor:
#      x y z
#    x 4.591840 -0.134240 0.046860 
#    y -0.134240 3.991480 0.248880 
#    z 0.046860 0.248880 4.142900 
# 
# 
# High freq. dielectric constant tensor:
#      x y z
#    x 1.893840 -0.001000 0.001940 
#    y -0.001000 1.867480 0.023550 
#    z 0.001940 0.023550 1.878570 
# 
# From -- ./inp_files/95032.got.cif
#   From: 2010.06.25/outbox.cif.g09.slc.cpg/sg2_48_cif.got.tgz:95032.got - 2010.06.27 13:26:56.
