data_PCOD8022682
_publ_section_title
;
Structure prediction by ZEFSAII (Michael W. Deem and Ramdas Pophale) SiO2 
 PCOD8022682
Probable space group: P -1
;
_chemical_formula_sum "Si O2"
_cell_formula_units_Z 16
_cell_length_a 14.065346
_cell_length_b 8.671266
_cell_length_c 9.151808
_cell_angle_alpha 88.552490
_cell_angle_beta 48.357863
_cell_angle_gamma 69.041213
_cell_volume 741.992287
_symmetry_space_group_name_H-M "P -1"
_symmetry_group_IT_number 2
_symmetry_cell_setting 'triclinic'
loop_
_space_group_symop_operation_xyz
x,y,z
-x,-y,-z
loop_
_atom_site_type_symbol
_atom_site_label
_atom_site_fract_x
_atom_site_fract_y
_atom_site_fract_z
Si Si1 0.997631 0.566441 0.786318
Si Si2 0.546045 0.820305 0.377571
Si Si3 0.323839 0.365999 0.484290
Si Si4 0.690433 0.296485 0.429826
Si Si5 0.933211 0.300878 0.002021
Si Si6 0.551150 0.020769 0.104591
Si Si7 0.866441 0.890666 0.726746
Si Si8 0.081915 0.013829 0.631224
O O1 0.909938 0.459020 0.913179
O O2 0.163729 0.435197 0.583922
O O3 0.923196 0.691108 0.722422
O O4 0.988881 0.687873 0.929603
O O5 0.681325 0.684798 0.337311
O O6 0.429385 0.749559 0.509358
O O7 0.500000 0.000000 0.500000
O O8 0.574090 0.851533 0.180826
O O9 0.373902 0.517164 0.427446
O O10 0.436117 0.203199 0.282864
O O11 0.780086 0.162395 0.467297
O O12 0.784900 0.299915 0.194540
O O13 0.037970 0.122988 0.821724
O O14 0.704875 0.015265 0.937376
O O15 0.500000 0.000000 0.000000
O O16 0.954695 0.977393 0.708076
O O17 0.878008 0.887314 0.539132
#
# Coordination Sequence:
#
# PCOD8022682 Si02
#       8
#     2   2   2   2   2   2   2   2
#     4  10  23  44  68 104 132 169 226 283 331 389
#     4  10  24  39  68  93 134 178 219 271 334 398
#     4  10  23  44  67  96 139 170 221 284 330 391
#     4  11  22  43  68 103 135 172 230 278 340 389
#     4  10  23  37  71  97 137 166 222 280 335 380
#     4  11  26  46  66  96 133 186 221 268 334 413
#     4  11  25  45  67  96 137 173 232 263 340 403
#     4  11  24  42  69  98 132 180 220 283 327 400
#
# _framework density 21.563565000000001
#
# number of rings (size 3 to 8) (size 9 to 14) (size 15 to 20)
#    0.000    1.500    2.500    1.500   14.000    0.500 
#    0.000    2.500    0.000    0.000    0.000    0.000 
#    0.000    0.000    0.000    0.000    0.000    0.000 
#
# Total GULP energy -198359.021335 kJ/mol
# GULP energy per Si atom -12397.438833 kJ/mol
# Density = 2.151449 g / cm^3
# Si number density = 21.563565 Si / 1000 Ang^3
#
#
#
# Elastic Constant Matrix: (Units=GPa)
#
#
# Indices 1 2 3 4 5 6 
#
# 1 67.0887 29.9233 34.3780 0.2540 -4.8800 -12.7837
# 2 29.9233 116.0633 42.6940 -9.2970 6.9196 -19.4369
# 3 34.3780 42.6940 96.7108 -2.1001 -3.1710 -16.3575
# 4 0.2540 -9.2970 -2.1001 43.2620 1.0319 -0.8723
# 5 -4.8800 6.9196 -3.1710 1.0319 31.5547 -5.3805
# 6 -12.7837 -19.4369 -16.3575 -0.8723 -5.3805 42.2844
#
#
#
# Elastic Compliance Matrix: (Units=1/GPa)
#
#
# Indices 1 2 3 4 5 6 
#
# 1 0.019702 -0.003013 -0.005053 -0.001036 0.003758 0.003073
# 2 -0.003013 0.011545 -0.003619 0.002448 -0.002987 0.002666
# 3 -0.005053 -0.003619 0.014226 -0.000051 0.001878 0.002550
# 4 -0.001036 0.002448 -0.000051 0.023698 -0.001287 0.001117
# 5 0.003758 -0.002987 0.001878 -0.001287 0.033974 0.004786
# 6 0.003073 0.002666 0.002550 0.001117 0.004786 0.027423
#
#
# Mechanical properties :
#
#
# Convention : Reuss Voigt Hill
#
# Bulk Modulus (GPa) = 45.24482 54.87261 50.05872
# Shear Modulus (GPa) = 30.99730 34.94471 32.97101
#
# Velocity S-wave (km/s) = 3.79553 4.02997 3.91450
# Velocity P-wave (km/s) = 6.34316 6.86705 6.61030
#
# Compressibility (1/GPa) = 0.02210198
#
# Stress axis : x y z
#
# Youngs Moduli (GPa) = 50.75725 86.61847 70.29516
#
# Poissons Ratio (x) = 0.26100 0.35518
# Poissons Ratio (y) = 0.15294 0.25442
# Poissons Ratio (z) = 0.25646 0.31350
#
# Static dielectric constant tensor:
#      x y z
#    x 3.884050 -0.141040 0.023140 
#    y -0.141040 4.387740 -0.349510 
#    z 0.023140 -0.349510 3.970990 
# 
# 
# High freq. dielectric constant tensor:
#      x y z
#    x 1.840870 -0.003700 -0.004460 
#    y -0.003700 1.864570 -0.009450 
#    z -0.004460 -0.009450 1.836390 
# 
# From -- ./inp_files/292467.got.cif
#   From: 2010.06.25/outbox.cif.g09.slc.cpg/sg2_147_cif.got.tgz:292467.got - 2010.06.27 13:26:56.
