data_PCOD8022751
_publ_section_title
;
Structure prediction by ZEFSAII (Michael W. Deem and Ramdas Pophale) SiO2 
 PCOD8022751
Probable space group: P -1
;
_chemical_formula_sum "Si O2"
_cell_formula_units_Z 16
_cell_length_a 17.393336
_cell_length_b 8.851732
_cell_length_c 10.582096
_cell_angle_alpha 149.700981
_cell_angle_beta 63.413691
_cell_angle_gamma 123.480753
_cell_volume 683.977246
_symmetry_space_group_name_H-M "P -1"
_symmetry_group_IT_number 2
_symmetry_cell_setting 'triclinic'
loop_
_space_group_symop_operation_xyz
x,y,z
-x,-y,-z
loop_
_atom_site_type_symbol
_atom_site_label
_atom_site_fract_x
_atom_site_fract_y
_atom_site_fract_z
Si Si1 0.176556 0.805887 0.509067
Si Si2 0.691334 0.827683 0.701225
Si Si3 0.429637 0.821049 0.579924
Si Si4 0.617830 0.817583 0.329482
Si Si5 0.868089 0.256325 0.993629
Si Si6 0.451097 0.917551 0.105951
Si Si7 0.895293 0.944214 0.007791
Si Si8 0.865599 0.915519 0.506011
O O1 0.160036 0.430700 0.248746
O O2 0.285082 0.989056 0.537055
O O3 0.121845 0.878907 0.483508
O O4 0.146206 0.920741 0.746391
O O5 0.637394 0.550504 0.641325
O O6 0.757787 0.724305 0.483963
O O7 0.756905 0.126418 0.954459
O O8 0.623613 0.911705 0.714011
O O9 0.534313 0.887845 0.505723
O O10 0.380635 0.044068 0.713208
O O11 0.451660 0.931169 0.785106
O O12 0.602400 0.445817 0.073871
O O13 0.890412 0.125212 0.013790
O O14 0.914400 0.147638 0.758134
O O15 0.908820 0.643636 0.254214
O O16 0.500000 0.000000 0.000000
O O17 0.000000 0.000000 0.000000
#
# Coordination Sequence:
#
# PCOD8022751 Si02
#       8
#     2   2   2   2   2   2   2   2
#     4  12  26  47  76 106 143 185 232 296 357 419
#     4  10  23  38  67  91 141 186 240 279 339 407
#     4  11  24  41  57  96 140 187 234 289 329 395
#     4  11  26  41  63  95 141 182 240 282 346 401
#     4  10  23  44  73 101 141 182 238 275 349 429
#     4  12  24  37  60  92 133 187 234 289 329 390
#     4  12  28  51  77 108 140 179 229 291 369 443
#     4  10  23  42  71 107 138 185 238 281 340 419
#
# _framework density 23.392590999999999
#
# number of rings (size 3 to 8) (size 9 to 14) (size 15 to 20)
#    0.750    0.250    1.250    4.875    8.750    0.000 
#    0.000    3.750    0.000    0.000    0.000    0.000 
#    0.000    0.000    0.000    0.000    0.000    0.000 
#
# Total GULP energy -198225.232690 kJ/mol
# GULP energy per Si atom -12389.077043 kJ/mol
# Density = 2.333935 g / cm^3
# Si number density = 23.392591 Si / 1000 Ang^3
#
#
#
# Elastic Constant Matrix: (Units=GPa)
#
#
# Indices 1 2 3 4 5 6 
#
# 1 67.7490 32.1460 11.9273 0.2915 -13.3582 -19.7457
# 2 32.1460 66.2567 10.0939 -47.4210 -49.1917 -38.6235
# 3 11.9273 10.0939 109.7396 -52.8754 -59.5623 -22.0776
# 4 0.2915 -47.4210 -52.8754 -27.1544 -86.5054 -2.5193
# 5 -13.3582 -49.1917 -59.5623 -86.5054 -46.2640 4.4409
# 6 -19.7457 -38.6235 -22.0776 -2.5193 4.4409 58.1018
#
#
#
# Elastic Compliance Matrix: (Units=1/GPa)
#
#
# Indices 1 2 3 4 5 6 
#
# 1 0.019058 -0.006344 0.000271 -0.001434 0.003768 0.002013
# 2 -0.006344 0.017080 -0.003852 -0.002134 -0.006597 0.008146
# 3 0.000271 -0.003852 0.007539 -0.002016 -0.001876 0.000452
# 4 -0.001434 -0.002134 -0.002016 0.009172 -0.012002 -0.001357
# 5 0.003768 -0.006597 -0.001876 -0.012002 0.008689 -0.005003
# 6 0.002013 0.008146 0.000452 -0.001357 -0.005003 0.023806
#
#
# Mechanical properties :
#
#
# Convention : Reuss Voigt Hill
#
# Bulk Modulus (GPa) = 41.96658 39.11996 40.54327
# Shear Modulus (GPa) = 44.19425 9.57523 26.88474
#
# Velocity S-wave (km/s) = 4.35126 2.02538 3.39379
# Velocity P-wave (km/s) = 6.57447 4.71477 5.72070
#
# Compressibility (1/GPa) = 0.02382848
#
# Stress axis : x y z
#
# Youngs Moduli (GPa) = 52.47076 58.54667 132.64623
#
# Poissons Ratio (x) = 0.37140 -0.03595
# Poissons Ratio (y) = 0.33285 0.51094
# Poissons Ratio (z) = -0.01422 0.22552
#
# Static dielectric constant tensor:
#      x y z
#    x 3.803280 -0.227140 -0.020040 
#    y -0.227140 4.275460 0.003160 
#    z -0.020040 0.003160 4.164460 
# 
# 
# High freq. dielectric constant tensor:
#      x y z
#    x 1.937190 -0.009960 0.003240 
#    y -0.009960 1.937130 0.003440 
#    z 0.003240 0.003440 1.919740 
# 
# From -- ./inp_files/461727.got.cif
#   From: 2010.06.25/outbox.cif.g09.slc.cpg/sg2_231_cif.got.tgz:461727.got - 2010.06.27 13:26:56.
