data_PCOD8022450
_publ_section_title
;
Structure prediction by ZEFSAII (Michael W. Deem and Ramdas Pophale) SiO2 
 PCOD8022450
Probable space group: P -1
;
_chemical_formula_sum "Si O2"
_cell_formula_units_Z 16
_cell_length_a 20.700062
_cell_length_b 11.904873
_cell_length_c 8.933211
_cell_angle_alpha 54.906718
_cell_angle_beta 149.065837
_cell_angle_gamma 136.935500
_cell_volume 764.267543
_symmetry_space_group_name_H-M "P -1"
_symmetry_group_IT_number 2
_symmetry_cell_setting 'triclinic'
loop_
_space_group_symop_operation_xyz
x,y,z
-x,-y,-z
loop_
_atom_site_type_symbol
_atom_site_label
_atom_site_fract_x
_atom_site_fract_y
_atom_site_fract_z
Si Si1 0.302252 0.620156 0.706269
Si Si2 0.197943 0.348055 0.932829
Si Si3 0.352966 0.202638 0.174429
Si Si4 0.674928 0.508248 0.614518
Si Si5 0.906810 0.572923 0.811393
Si Si6 0.098137 0.942873 0.317828
Si Si7 0.358168 0.236358 0.806419
Si Si8 0.194891 0.864511 0.275646
O O1 0.246853 0.525881 0.827410
O O2 0.215930 0.469517 0.529108
O O3 0.256371 0.748650 0.495570
O O4 0.482758 0.723420 0.969251
O O5 0.016148 0.227789 0.687584
O O6 0.247365 0.253589 0.997918
O O7 0.282378 0.386529 0.229899
O O8 0.524915 0.326409 0.478015
O O9 0.306142 0.023633 0.274363
O O10 0.340765 0.199687 0.974929
O O11 0.811247 0.493296 0.837342
O O12 0.646677 0.604780 0.356619
O O13 0.000000 0.500000 0.000000
O O14 0.028763 0.768459 0.937970
O O15 0.187832 0.914956 0.391271
O O16 0.219808 0.075483 0.573651
O O17 0.000000 0.000000 0.000000
#
# Coordination Sequence:
#
# PCOD8022450 Si02
#       8
#     2   2   2   2   2   2   2   2
#     4  11  26  46  67 100 137 176 224 274 336 403
#     4  12  25  42  71  99 133 180 225 271 339 398
#     4  12  25  41  71 102 131 178 228 274 337 389
#     4  12  22  45  70 100 135 176 225 278 330 402
#     4  10  22  46  68  92 139 177 215 276 333 390
#     4  12  24  45  67 100 138 173 222 283 331 395
#     4  12  25  43  69 101 137 172 224 282 332 397
#     4  11  25  47  67  97 139 177 220 281 334 393
#
# _framework density 20.935077
#
# number of rings (size 3 to 8) (size 9 to 14) (size 15 to 20)
#    0.000    0.500    6.250    1.500    3.500    2.000 
#    0.000    0.000    0.000    0.000    0.000    0.000 
#    0.000    0.000    0.000    0.000    0.000    0.000 
#
# Total GULP energy -198406.989413 kJ/mol
# GULP energy per Si atom -12400.436838 kJ/mol
# Density = 2.088743 g / cm^3
# Si number density = 20.935077 Si / 1000 Ang^3
#
#
#
# Elastic Constant Matrix: (Units=GPa)
#
#
# Indices 1 2 3 4 5 6 
#
# 1 113.5563 48.1509 35.8316 1.6160 -2.4907 18.6581
# 2 48.1509 132.7827 49.7215 4.8998 5.6873 25.3117
# 3 35.8316 49.7215 91.1244 17.4103 3.8306 8.0876
# 4 1.6160 4.8998 17.4103 49.6678 1.8921 -1.6751
# 5 -2.4907 5.6873 3.8306 1.8921 21.7538 4.1605
# 6 18.6581 25.3117 8.0876 -1.6751 4.1605 39.4694
#
#
#
# Elastic Compliance Matrix: (Units=1/GPa)
#
#
# Indices 1 2 3 4 5 6 
#
# 1 0.011476 -0.002491 -0.003114 0.000728 0.003117 -0.003487
# 2 -0.002491 0.011170 -0.004724 0.000529 -0.001494 -0.004838
# 3 -0.003114 -0.004724 0.015655 -0.004812 -0.001702 0.001269
# 4 0.000728 0.000529 -0.004812 0.021843 -0.001370 0.001375
# 5 0.003117 -0.001494 -0.001702 -0.001370 0.048149 -0.005300
# 6 -0.003487 -0.004838 0.001269 0.001375 -0.005300 0.030444
#
#
# Mechanical properties :
#
#
# Convention : Reuss Voigt Hill
#
# Bulk Modulus (GPa) = 56.68189 67.20793 61.94491
# Shear Modulus (GPa) = 30.25233 35.76217 33.00725
#
# Velocity S-wave (km/s) = 3.80551 4.13757 3.97501
# Velocity P-wave (km/s) = 6.81492 7.41611 7.12186
#
# Compressibility (1/GPa) = 0.01764232
#
# Stress axis : x y z
#
# Youngs Moduli (GPa) = 87.13808 89.52394 63.87918
#
# Poissons Ratio (x) = 0.22302 0.19891
# Poissons Ratio (y) = 0.21708 0.30178
# Poissons Ratio (z) = 0.27133 0.42293
#
# Static dielectric constant tensor:
#      x y z
#    x 4.262290 0.095820 0.009990 
#    y 0.095820 4.008670 0.369650 
#    z 0.009990 0.369650 3.958320 
# 
# 
# High freq. dielectric constant tensor:
#      x y z
#    x 1.839780 0.002580 -0.000690 
#    y 0.002580 1.821800 0.024750 
#    z -0.000690 0.024750 1.815380 
# 
# From -- ./inp_files/238485.got.cif
#   From: 2010.06.25/outbox.cif.g09.slc.cpg/sg2_120_cif.got.tgz:238485.got - 2010.06.27 13:26:56.
