data_PCOD8022599
_publ_section_title
;
Structure prediction by ZEFSAII (Michael W. Deem and Ramdas Pophale) SiO2 
 PCOD8022599
Probable space group: P -1
;
_chemical_formula_sum "Si O2"
_cell_formula_units_Z 16
_cell_length_a 16.830086
_cell_length_b 18.168762
_cell_length_c 5.145751
_cell_angle_alpha 57.602481
_cell_angle_beta 65.119772
_cell_angle_gamma 30.537278
_cell_volume 671.990975
_symmetry_space_group_name_H-M "P -1"
_symmetry_group_IT_number 2
_symmetry_cell_setting 'triclinic'
loop_
_space_group_symop_operation_xyz
x,y,z
-x,-y,-z
loop_
_atom_site_type_symbol
_atom_site_label
_atom_site_fract_x
_atom_site_fract_y
_atom_site_fract_z
Si Si1 0.640784 0.317556 0.663090
Si Si2 0.179221 0.445942 0.517679
Si Si3 0.303711 0.829446 0.613795
Si Si4 0.968617 0.107678 0.657946
Si Si5 0.682678 0.941493 0.248135
Si Si6 0.900773 0.669900 0.115849
Si Si7 0.031424 0.240898 0.543454
Si Si8 0.463094 0.873668 0.405994
O O1 0.500000 0.500000 0.500000
O O2 0.606076 0.270257 0.587819
O O3 0.801059 0.234658 0.506796
O O4 0.659131 0.270093 0.021513
O O5 0.142904 0.387436 0.846634
O O6 0.360602 0.306261 0.461120
O O7 0.080258 0.520139 0.247437
O O8 0.121598 0.579080 0.496346
O O9 0.350260 0.883586 0.566793
O O10 0.118819 0.985600 0.491509
O O11 0.964347 0.203503 0.629451
O O12 0.000000 0.000000 0.000000
O O13 0.582317 0.018381 0.509722
O O14 0.774498 0.779510 0.325146
O O15 0.831629 0.885685 0.188076
O O16 0.557330 0.071492 0.956698
O O17 0.877510 0.773950 0.768988
#
# Coordination Sequence:
#
# PCOD8022599 Si02
#       8
#     2   2   2   2   2   2   2   2
#     4  11  25  43  65 100 132 177 224 288 343 406
#     4  10  26  41  71 104 142 184 231 287 351 415
#     4  11  23  44  67  92 140 174 226 278 345 407
#     4  10  23  43  69 100 132 184 229 282 337 414
#     4  11  23  44  69  98 138 183 229 283 342 410
#     4  10  22  48  69 102 140 188 232 286 342 426
#     4  11  22  46  71 100 138 188 233 283 351 418
#     4  12  25  43  69 106 138 183 229 292 346 408
#
# _framework density 23.809844999999999
#
# number of rings (size 3 to 8) (size 9 to 14) (size 15 to 20)
#    0.000    1.250    2.500    1.875    5.250    2.000 
#    9.000    0.000    0.000    0.000    0.000    0.000 
#    0.000    0.000    0.000    0.000    0.000    0.000 
#
# Total GULP energy -198242.610641 kJ/mol
# GULP energy per Si atom -12390.163165 kJ/mol
# Density = 2.375565 g / cm^3
# Si number density = 23.809845 Si / 1000 Ang^3
#
#
#
# Elastic Constant Matrix: (Units=GPa)
#
#
# Indices 1 2 3 4 5 6 
#
# 1 48.0221 28.0087 27.5531 -7.3212 1.1422 12.2116
# 2 28.0087 141.1160 32.2046 -13.3527 20.9542 -5.3951
# 3 27.5531 32.2046 75.2513 -6.7302 5.0113 2.4196
# 4 -7.3212 -13.3527 -6.7302 32.4652 3.9476 -0.6324
# 5 1.1422 20.9542 5.0113 3.9476 42.1673 -6.9879
# 6 12.2116 -5.3951 2.4196 -0.6324 -6.9879 42.5130
#
#
#
# Elastic Compliance Matrix: (Units=1/GPa)
#
#
# Indices 1 2 3 4 5 6 
#
# 1 0.031239 -0.004251 -0.009089 0.003169 0.000583 -0.008852
# 2 -0.004251 0.009373 -0.001956 0.003048 -0.004287 0.001863
# 3 -0.009089 -0.001956 0.017543 0.000897 -0.000742 0.001255
# 4 0.003169 0.003048 0.000897 0.033546 -0.004996 -0.000897
# 5 0.000583 -0.004287 -0.000742 -0.004996 0.026998 0.003694
# 6 -0.008852 0.001863 0.001255 -0.000897 0.003694 0.026824
#
#
# Mechanical properties :
#
#
# Convention : Reuss Voigt Hill
#
# Bulk Modulus (GPa) = 36.28330 48.88025 42.58178
# Shear Modulus (GPa) = 26.98276 35.20399 31.09337
#
# Velocity S-wave (km/s) = 3.37005 3.84936 3.61765
# Velocity P-wave (km/s) = 5.51496 6.35065 5.94750
#
# Compressibility (1/GPa) = 0.02756089
#
# Stress axis : x y z
#
# Youngs Moduli (GPa) = 32.01170 106.69205 57.00127
#
# Poissons Ratio (x) = 0.45356 0.51811
# Poissons Ratio (y) = 0.13608 0.11152
# Poissons Ratio (z) = 0.29097 0.20874
#
# Static dielectric constant tensor:
#      x y z
#    x 4.379420 -0.088510 0.098890 
#    y -0.088510 4.116510 -0.111520 
#    z 0.098890 -0.111520 4.038050 
# 
# 
# High freq. dielectric constant tensor:
#      x y z
#    x 1.944880 0.005490 0.007940 
#    y 0.005490 1.962360 -0.016890 
#    z 0.007940 -0.016890 1.918290 
# 
# From -- ./inp_files/111580.got.cif
#   From: 2010.06.25/outbox.cif.g09.slc.cpg/sg2_56_cif.got.tgz:111580.got - 2010.06.27 13:26:56.
