data_PCOD8022389
_publ_section_title
;
Structure prediction by ZEFSAII (Michael W. Deem and Ramdas Pophale) SiO2 
 PCOD8022389
Probable space group: P -1
;
_chemical_formula_sum "Si O2"
_cell_formula_units_Z 16
_cell_length_a 21.068266
_cell_length_b 12.185628
_cell_length_c 18.687768
_cell_angle_alpha 144.632502
_cell_angle_beta 161.564179
_cell_angle_gamma 27.682813
_cell_volume 694.897942
_symmetry_space_group_name_H-M "P -1"
_symmetry_group_IT_number 2
_symmetry_cell_setting 'triclinic'
loop_
_space_group_symop_operation_xyz
x,y,z
-x,-y,-z
loop_
_atom_site_type_symbol
_atom_site_label
_atom_site_fract_x
_atom_site_fract_y
_atom_site_fract_z
Si Si1 0.051042 0.356623 0.906451
Si Si2 0.977449 0.764055 0.974925
Si Si3 0.048390 0.220644 0.596337
Si Si4 0.423869 0.940851 0.176082
Si Si5 0.083184 0.101703 0.297414
Si Si6 0.164422 0.571105 0.675003
Si Si7 0.846700 0.422486 0.077303
Si Si8 0.289408 0.687150 0.581676
O O1 0.134305 0.480316 0.009286
O O2 0.813512 0.383337 0.631459
O O3 0.000000 0.500000 0.000000
O O4 0.267489 0.079544 0.010113
O O5 0.929391 0.769403 0.841083
O O6 0.722491 0.943620 0.843845
O O7 0.153328 0.844649 0.219291
O O8 0.196083 0.326991 0.831357
O O9 0.912861 0.337045 0.438715
O O10 0.842559 0.293021 0.474909
O O11 0.242854 0.934589 0.645041
O O12 0.539146 0.664197 0.137907
O O13 0.655731 0.950185 0.433965
O O14 0.890792 0.213127 0.219797
O O15 0.926119 0.294536 0.169918
O O16 0.000000 0.500000 0.500000
O O17 0.587091 0.479191 0.800629
#
# Coordination Sequence:
#
# PCOD8022389 Si02
#       8
#     2   2   2   2   2   2   2   2
#     4  10  24  47  66 102 139 183 236 283 350 418
#     4  11  26  44  70 101 138 196 229 280 362 411
#     4  11  24  48  71 108 143 187 234 293 362 416
#     4  10  24  46  70  99 146 176 232 303 339 419
#     4  11  26  45  69 111 134 187 237 287 360 418
#     4  10  22  45  74 105 139 179 239 293 355 412
#     4  12  25  46  72 105 145 179 245 290 348 432
#     4  11  27  46  72 104 143 190 236 291 357 416
#
# _framework density 23.024963
#
# number of rings (size 3 to 8) (size 9 to 14) (size 15 to 20)
#    0.000    1.250    3.750    0.750    8.750    5.500 
#    0.000    0.000    0.000    0.000    0.000    0.000 
#    0.000    0.000    0.000    0.000    0.000    0.000 
#
# Total GULP energy -198262.180210 kJ/mol
# GULP energy per Si atom -12391.386263 kJ/mol
# Density = 2.297256 g / cm^3
# Si number density = 23.024963 Si / 1000 Ang^3
#
#
#
# Elastic Constant Matrix: (Units=GPa)
#
#
# Indices 1 2 3 4 5 6 
#
# 1 106.4479 29.3188 36.6831 -8.0569 -20.7436 -11.2725
# 2 29.3188 84.0031 35.9130 12.9681 -8.5030 1.0119
# 3 36.6831 35.9130 96.5209 0.0585 -16.5841 10.4726
# 4 -8.0569 12.9681 0.0585 41.4276 -6.6920 -5.0184
# 5 -20.7436 -8.5030 -16.5841 -6.6920 29.4554 1.1914
# 6 -11.2725 1.0119 10.4726 -5.0184 1.1914 36.5016
#
#
#
# Elastic Compliance Matrix: (Units=1/GPa)
#
#
# Indices 1 2 3 4 5 6 
#
# 1 0.014242 -0.003743 -0.003259 0.006002 0.008236 0.005994
# 2 -0.003743 0.016011 -0.004777 -0.006190 -0.002068 -0.001013
# 3 -0.003259 -0.004777 0.014812 0.001042 0.005111 -0.005147
# 4 0.006002 -0.006190 0.001042 0.029437 0.009494 0.005463
# 5 0.008236 -0.002068 0.005111 0.009494 0.044146 0.000999
# 6 0.005994 -0.001013 -0.005147 0.005463 0.000999 0.031470
#
#
# Mechanical properties :
#
#
# Convention : Reuss Voigt Hill
#
# Bulk Modulus (GPa) = 46.49287 54.53354 50.51320
# Shear Modulus (GPa) = 27.64782 33.81408 30.73095
#
# Velocity S-wave (km/s) = 3.46898 3.83637 3.65729
# Velocity P-wave (km/s) = 6.02340 6.58480 6.31034
#
# Compressibility (1/GPa) = 0.02150867
#
# Stress axis : x y z
#
# Youngs Moduli (GPa) = 70.21426 62.45669 67.51133
#
# Poissons Ratio (x) = 0.23375 0.22003
# Poissons Ratio (y) = 0.26279 0.32248
# Poissons Ratio (z) = 0.22884 0.29834
#
# Static dielectric constant tensor:
#      x y z
#    x 4.685270 0.041430 -0.146470 
#    y 0.041430 5.050990 0.046970 
#    z -0.146470 0.046970 4.057170 
# 
# 
# High freq. dielectric constant tensor:
#      x y z
#    x 1.926070 0.002020 -0.007520 
#    y 0.002020 1.927070 0.019830 
#    z -0.007520 0.019830 1.896260 
# 
# From -- ./inp_files/578005.got.cif
#   From: 2010.06.25/outbox.cif.g09.slc.cpg/sg2_290_cif.got.tgz:578005.got - 2010.06.27 13:26:56.
