data_PCOD8022207
_publ_section_title
;
Structure prediction by ZEFSAII (Michael W. Deem and Ramdas Pophale) SiO2 
 PCOD8022207
Probable space group: P -1
;
_chemical_formula_sum "Si O2"
_cell_formula_units_Z 16
_cell_length_a 14.758013
_cell_length_b 22.468957
_cell_length_c 6.041927
_cell_angle_alpha 80.219185
_cell_angle_beta 101.137330
_cell_angle_gamma 160.196044
_cell_volume 665.579357
_symmetry_space_group_name_H-M "P -1"
_symmetry_group_IT_number 2
_symmetry_cell_setting 'triclinic'
loop_
_space_group_symop_operation_xyz
x,y,z
-x,-y,-z
loop_
_atom_site_type_symbol
_atom_site_label
_atom_site_fract_x
_atom_site_fract_y
_atom_site_fract_z
Si Si1 0.870974 0.376693 0.205065
Si Si2 0.875535 0.542067 0.367681
Si Si3 0.986079 0.936633 0.366304
Si Si4 0.539573 0.782066 0.887446
Si Si5 0.567223 0.444593 0.588577
Si Si6 0.352174 0.848140 0.090230
Si Si7 0.287732 0.363173 0.177457
Si Si8 0.253221 0.016993 0.768888
O O1 0.599416 0.241644 0.257083
O O2 0.063416 0.480131 0.439659
O O3 0.799468 0.269065 0.125649
O O4 0.000000 0.500000 0.000000
O O5 0.672199 0.400877 0.158591
O O6 0.754207 0.516435 0.490263
O O7 0.143164 0.733253 0.262201
O O8 0.672387 0.737117 0.274918
O O9 0.121399 0.959375 0.517482
O O10 0.000000 0.000000 0.500000
O O11 0.170436 0.061107 0.161847
O O12 0.592126 0.830931 0.139860
O O13 0.404547 0.387348 0.386412
O O14 0.749888 0.594461 0.750258
O O15 0.550683 0.918085 0.229152
O O16 0.500000 0.000000 0.000000
O O17 0.995081 0.160867 0.082856
O O18 0.500000 0.500000 0.000000
#
# Coordination Sequence:
#
# PCOD8022207 Si02
#       8
#     2   2   2   2   2   2   2   2
#     4  11  25  44  72 102 136 186 234 282 358 423
#     4  12  25  43  72 101 143 178 230 297 347 414
#     4  11  22  42  64 100 137 173 226 287 349 410
#     4  11  23  41  69  97 132 179 221 283 354 406
#     4  10  24  41  65 102 128 180 227 275 345 415
#     4  11  27  46  67 105 142 183 241 284 352 423
#     4  10  22  45  68  87 136 181 227 272 341 409
#     4  10  25  43  66  97 135 177 227 291 340 415
#
# _framework density 24.039209
#
# number of rings (size 3 to 8) (size 9 to 14) (size 15 to 20)
#    0.000    1.250    2.500    1.875    7.000    1.000 
#    6.750    0.000    0.000    0.000    0.000    0.000 
#    0.000    0.000    0.000    0.000    0.000    0.000 
#
# Total GULP energy -198270.270910 kJ/mol
# GULP energy per Si atom -12391.891932 kJ/mol
# Density = 2.398449 g / cm^3
# Si number density = 24.039209 Si / 1000 Ang^3
#
#
#
# Elastic Constant Matrix: (Units=GPa)
#
#
# Indices 1 2 3 4 5 6 
#
# 1 120.5642 39.2912 10.8995 -9.9083 -24.4865 8.8473
# 2 39.2912 136.5704 34.6740 -15.6751 -7.1549 5.3668
# 3 10.8995 34.6740 31.7171 -3.0509 -6.1093 -0.7674
# 4 -9.9083 -15.6751 -3.0509 43.9421 3.6806 -8.1489
# 5 -24.4865 -7.1549 -6.1093 3.6806 25.7916 -10.2772
# 6 8.8473 5.3668 -0.7674 -8.1489 -10.2772 45.5326
#
#
#
# Elastic Compliance Matrix: (Units=1/GPa)
#
#
# Indices 1 2 3 4 5 6 
#
# 1 0.011264 -0.003015 0.001519 0.000828 0.010371 0.000681
# 2 -0.003015 0.011360 -0.011813 0.002604 -0.003378 -0.001249
# 3 0.001519 -0.011813 0.046035 -0.000810 0.010849 0.004177
# 4 0.000828 0.002604 -0.000810 0.024572 -0.000692 0.003760
# 5 0.010371 -0.003378 0.010849 -0.000692 0.054643 0.010776
# 6 0.000681 -0.001249 0.004177 0.003760 0.010776 0.025153
#
#
# Mechanical properties :
#
#
# Convention : Reuss Voigt Hill
#
# Bulk Modulus (GPa) = 23.78731 50.95347 37.37039
# Shear Modulus (GPa) = 23.40193 36.65237 30.02715
#
# Velocity S-wave (km/s) = 3.12346 3.90897 3.53808
# Velocity P-wave (km/s) = 4.78798 6.45100 5.68067
#
# Compressibility (1/GPa) = 0.04203922
#
# Stress axis : x y z
#
# Youngs Moduli (GPa) = 88.78022 88.02993 21.72283
#
# Poissons Ratio (x) = 0.26537 -0.03299
# Poissons Ratio (y) = 0.26764 0.25662
# Poissons Ratio (z) = -0.13481 1.03993
#
# Static dielectric constant tensor:
#      x y z
#    x 4.531060 -0.176480 0.004390 
#    y -0.176480 0.175990 1.850270 
#    z 0.004390 1.850270 3.497550 
# 
# 
# High freq. dielectric constant tensor:
#      x y z
#    x 1.964220 0.013330 -0.008500 
#    y 0.013330 1.967210 0.003540 
#    z -0.008500 0.003540 1.930870 
# 
# From -- ./inp_files/101099.got.cif
#   From: 2010.06.25/outbox.cif.g09.slc.cpg/sg2_51_cif.got.tgz:101099.got - 2010.06.27 13:26:56.
