data_PCOD8022403
_publ_section_title
;
Structure prediction by ZEFSAII (Michael W. Deem and Ramdas Pophale) SiO2 
 PCOD8022403
Probable space group: P -1
;
_chemical_formula_sum "Si O2"
_cell_formula_units_Z 14
_cell_length_a 8.926271
_cell_length_b 12.653347
_cell_length_c 12.245751
_cell_angle_alpha 57.541429
_cell_angle_beta 112.182176
_cell_angle_gamma 145.011222
_cell_volume 663.664191
_symmetry_space_group_name_H-M "P -1"
_symmetry_group_IT_number 2
_symmetry_cell_setting 'triclinic'
loop_
_space_group_symop_operation_xyz
x,y,z
-x,-y,-z
loop_
_atom_site_type_symbol
_atom_site_label
_atom_site_fract_x
_atom_site_fract_y
_atom_site_fract_z
Si Si1 0.235393 0.152621 0.830211
Si Si2 0.331665 0.735773 0.694685
Si Si3 0.299275 0.084275 0.108406
Si Si4 0.908372 0.311468 0.703135
Si Si5 0.238978 0.390968 0.575854
Si Si6 0.803936 0.065479 0.480085
Si Si7 0.587396 0.815843 0.361471
O O1 0.337892 0.355598 0.716423
O O2 0.297976 0.098730 0.775899
O O3 0.389472 0.198280 0.954352
O O4 0.921462 0.961496 0.871680
O O5 0.448368 0.769987 0.825346
O O6 0.205422 0.795405 0.634120
O O7 0.104469 0.497707 0.737878
O O8 0.555079 0.868649 0.590853
O O9 0.173202 0.871674 0.167751
O O10 0.648401 0.232319 0.654799
O O11 0.044312 0.375354 0.586061
O O12 0.482204 0.608516 0.463335
O O13 0.068971 0.205167 0.545247
O O14 0.812842 0.985996 0.417594
#
# Coordination Sequence:
#
# PCOD8022403 Si02
#       7
#     2   2   2   2   2   2   2
#     4  10  24  42  61  82 127 166 191 238 303 355
#     4  11  19  36  64  93 113 157 200 249 287 353
#     4  10  22  46  61  82 119 167 203 233 290 367
#     4  11  20  36  66  91 115 155 202 243 295 346
#     4  11  21  40  59  92 125 156 193 243 300 363
#     4  11  20  33  62  93 122 145 198 249 301 336
#     4  12  22  37  61  97 120 149 197 257 298 343
#
# _framework density 21.095006000000001
#
# number of rings (size 3 to 8) (size 9 to 14) (size 15 to 20)
#    0.000    1.143    7.143    1.714    0.000    1.143 
#    0.000   10.000    0.000    0.000    0.000    0.000 
#    0.000    0.000    0.000    0.000    0.000    0.000 
#
# Total GULP energy -173655.542825 kJ/mol
# GULP energy per Si atom -12403.967345 kJ/mol
# Density = 2.104699 g / cm^3
# Si number density = 21.095006 Si / 1000 Ang^3
#
#
#
# Elastic Constant Matrix: (Units=GPa)
#
#
# Indices 1 2 3 4 5 6 
#
# 1 41.9270 22.7580 33.2610 1.7957 -12.5074 -7.9628
# 2 22.7580 141.7803 51.9476 13.9192 -0.9087 -19.1497
# 3 33.2610 51.9476 143.7570 21.6454 -8.5291 -5.4777
# 4 1.7957 13.9192 21.6454 26.0487 -0.6522 -3.0533
# 5 -12.5074 -0.9087 -8.5291 -0.6522 30.6015 8.5993
# 6 -7.9628 -19.1497 -5.4777 -3.0533 8.5993 26.2459
#
#
#
# Elastic Compliance Matrix: (Units=1/GPa)
#
#
# Indices 1 2 3 4 5 6 
#
# 1 0.034920 -0.002985 -0.007057 0.005794 0.011234 0.003937
# 2 -0.002985 0.009449 -0.002349 -0.002232 -0.003430 0.006363
# 3 -0.007057 -0.002349 0.010461 -0.007253 0.000566 -0.002701
# 4 0.005794 -0.002232 -0.007253 0.045668 0.000165 0.003875
# 5 0.011234 -0.003430 0.000566 0.000165 0.040792 -0.012322
# 6 0.003937 0.006363 -0.002701 0.003875 -0.012322 0.047862
#
#
# Mechanical properties :
#
#
# Convention : Reuss Voigt Hill
#
# Bulk Modulus (GPa) = 33.27904 60.37750 46.82827
# Shear Modulus (GPa) = 22.32647 31.21241 26.76944
#
# Velocity S-wave (km/s) = 3.25680 3.85074 3.56616
# Velocity P-wave (km/s) = 5.47288 6.96095 6.26128
#
# Compressibility (1/GPa) = 0.03004894
#
# Stress axis : x y z
#
# Youngs Moduli (GPa) = 28.63676 105.82620 95.59766
#
# Poissons Ratio (x) = 0.31586 0.67462
# Poissons Ratio (y) = 0.08547 0.22457
# Poissons Ratio (z) = 0.20208 0.24859
#
# Static dielectric constant tensor:
#      x y z
#    x 3.855010 -0.111450 0.086370 
#    y -0.111450 3.736510 0.094010 
#    z 0.086370 0.094010 3.785860 
# 
# 
# High freq. dielectric constant tensor:
#      x y z
#    x 1.837180 -0.007310 0.008070 
#    y -0.007310 1.813520 0.010510 
#    z 0.008070 0.010510 1.815850 
# 
# From -- ./inp_files/255663.got.cif
#   From: 2010.06.25/outbox.cif.g09.slc.cpg/sg2_128_cif.got.tgz:255663.got - 2010.06.27 13:26:56.
