data_PCOD8022043
_publ_section_title
;
Structure prediction by ZEFSAII (Michael W. Deem and Ramdas Pophale) SiO2 
 PCOD8022043
Probable space group: P -1
;
_chemical_formula_sum "Si O2"
_cell_formula_units_Z 14
_cell_length_a 20.042301
_cell_length_b 6.340777
_cell_length_c 13.819492
_cell_angle_alpha 100.635808
_cell_angle_beta 159.760705
_cell_angle_gamma 80.382530
_cell_volume 597.020556
_symmetry_space_group_name_H-M "P -1"
_symmetry_group_IT_number 2
_symmetry_cell_setting 'triclinic'
loop_
_space_group_symop_operation_xyz
x,y,z
-x,-y,-z
loop_
_atom_site_type_symbol
_atom_site_label
_atom_site_fract_x
_atom_site_fract_y
_atom_site_fract_z
Si Si1 0.428762 0.750889 0.780591
Si Si2 0.285981 0.861532 0.796764
Si Si3 0.692109 0.432363 0.020952
Si Si4 0.036489 0.598698 0.193831
Si Si5 0.149872 0.190902 0.215948
Si Si6 0.549167 0.064044 0.682384
Si Si7 0.117737 0.232128 0.814218
O O1 0.402972 0.738105 0.861293
O O2 0.214678 0.774468 0.445768
O O3 0.500299 0.528693 0.815449
O O4 0.582088 0.936170 0.974819
O O5 0.232199 0.721894 0.805464
O O6 0.069826 0.925298 0.471949
O O7 0.842332 0.622119 0.213994
O O8 0.645762 0.300858 0.847192
O O9 0.114892 0.355678 0.270399
O O10 0.933237 0.602794 0.156555
O O11 0.877492 0.663475 0.904663
O O12 0.356338 0.077083 0.486101
O O13 0.000000 0.000000 0.000000
O O14 0.500000 0.000000 0.500000
O O15 0.691151 0.893721 0.908280
#
# Coordination Sequence:
#
# PCOD8022043 Si02
#       7
#     2   2   2   2   2   2   2
#     4  10  22  44  73 101 142 177 239 289 338 418
#     4  10  24  46  71 105 138 189 232 287 346 413
#     4  12  25  42  72 101 146 184 229 288 350 414
#     4  10  23  45  68 105 133 190 231 288 342 420
#     4  11  25  43  73  97 138 181 242 284 349 410
#     4  12  27  47  67 107 140 184 227 291 357 410
#     4  11  26  44  71 104 148 177 234 285 353 418
#
# _framework density 23.449778999999999
#
# number of rings (size 3 to 8) (size 9 to 14) (size 15 to 20)
#    0.000    1.143    2.857    1.714    6.000    4.000 
#    0.000    2.857    0.000    0.000    0.000    0.000 
#    0.000    0.000    0.000    0.000    0.000    0.000 
#
# Total GULP energy -173473.486078 kJ/mol
# GULP energy per Si atom -12390.963291 kJ/mol
# Density = 2.339641 g / cm^3
# Si number density = 23.449779 Si / 1000 Ang^3
#
#
#
# Elastic Constant Matrix: (Units=GPa)
#
#
# Indices 1 2 3 4 5 6 
#
# 1 113.6408 57.7208 37.1231 -9.5619 9.0693 -17.7338
# 2 57.7208 114.5965 63.7503 1.5444 12.0067 -17.9279
# 3 37.1231 63.7503 140.1599 -7.6080 20.2514 -1.6085
# 4 -9.5619 1.5444 -7.6080 35.7219 -1.1343 5.0081
# 5 9.0693 12.0067 20.2514 -1.1343 34.5095 1.4732
# 6 -17.7338 -17.9279 -1.6085 5.0081 1.4732 46.5943
#
#
#
# Elastic Compliance Matrix: (Units=1/GPa)
#
#
# Indices 1 2 3 4 5 6 
#
# 1 0.012506 -0.005660 -0.000383 0.003159 -0.001085 0.002263
# 2 -0.005660 0.015460 -0.005567 -0.003968 -0.000928 0.004058
# 3 -0.000383 -0.005567 0.010449 0.002530 -0.003922 -0.002075
# 4 0.003159 -0.003968 0.002530 0.030043 0.000201 -0.003473
# 5 -0.001085 -0.000928 -0.003922 0.000201 0.031976 -0.001938
# 6 0.002263 0.004058 -0.002075 -0.003473 -0.001938 0.024247
#
#
# Mechanical properties :
#
#
# Convention : Reuss Voigt Hill
#
# Bulk Modulus (GPa) = 65.82489 76.17618 71.00053
# Shear Modulus (GPa) = 32.68670 37.35199 35.01934
#
# Velocity S-wave (km/s) = 3.73755 3.99538 3.86862
# Velocity P-wave (km/s) = 6.83793 7.33754 7.09213
#
# Compressibility (1/GPa) = 0.01519182
#
# Stress axis : x y z
#
# Youngs Moduli (GPa) = 79.96478 64.68339 95.70546
#
# Poissons Ratio (x) = 0.36613 0.03670
# Poissons Ratio (y) = 0.45263 0.53282
# Poissons Ratio (z) = 0.03067 0.36011
#
# Static dielectric constant tensor:
#      x y z
#    x 4.324530 -0.418710 0.002210 
#    y -0.418710 4.066790 0.053110 
#    z 0.002210 0.053110 4.430970 
# 
# 
# High freq. dielectric constant tensor:
#      x y z
#    x 1.935540 -0.027330 0.007290 
#    y -0.027330 1.911700 0.007300 
#    z 0.007290 0.007300 1.939850 
# 
# From -- ./inp_files/107109.got.cif
#   From: 2010.06.25/outbox.cif.g09.slc.cpg/sg2_54_cif.got.tgz:107109.got - 2010.06.27 13:26:56.
