data_PCOD8022460
_publ_section_title
;
Structure prediction by ZEFSAII (Michael W. Deem and Ramdas Pophale) SiO2 
 PCOD8022460
Probable space group: P -1
;
_chemical_formula_sum "Si O2"
_cell_formula_units_Z 16
_cell_length_a 8.536651
_cell_length_b 6.310068
_cell_length_c 19.060453
_cell_angle_alpha 70.269904
_cell_angle_beta 51.249993
_cell_angle_gamma 58.867093
_cell_volume 685.249247
_symmetry_space_group_name_H-M "P -1"
_symmetry_group_IT_number 2
_symmetry_cell_setting 'triclinic'
loop_
_space_group_symop_operation_xyz
x,y,z
-x,-y,-z
loop_
_atom_site_type_symbol
_atom_site_label
_atom_site_fract_x
_atom_site_fract_y
_atom_site_fract_z
Si Si1 0.094049 0.319570 0.428760
Si Si2 0.124418 0.387735 0.174607
Si Si3 0.470530 0.050032 0.843348
Si Si4 0.137552 0.056085 0.817558
Si Si5 0.683996 0.356496 0.684155
Si Si6 0.136967 0.925415 0.557381
Si Si7 0.289230 0.734339 0.678287
Si Si8 0.127376 0.249782 0.033253
O O1 0.242876 0.429142 0.330720
O O2 0.000000 0.500000 0.500000
O O3 0.898134 0.312169 0.435816
O O4 0.231445 0.046249 0.455996
O O5 0.060746 0.677033 0.172730
O O6 0.919974 0.329603 0.259617
O O7 0.332543 0.224276 0.182903
O O8 0.194258 0.310444 0.083512
O O9 0.312199 0.086339 0.817621
O O10 0.565957 0.261506 0.787753
O O11 0.346602 0.082785 0.948132
O O12 0.259155 0.934913 0.724850
O O13 0.034328 0.887131 0.902050
O O14 0.509883 0.486508 0.655685
O O15 0.890503 0.122533 0.623766
O O16 0.301607 0.850424 0.585858
O O17 0.000000 0.500000 0.000000
#
# Coordination Sequence:
#
# PCOD8022460 Si02
#       8
#     2   2   2   2   2   2   2   2
#     4   9  22  44  71  98 133 173 212 269 329 393
#     4  11  24  43  63  96 131 177 227 271 326 390
#     4  12  23  43  67  95 134 176 222 276 327 390
#     4  11  25  44  64  95 134 178 219 274 329 383
#     4  11  23  42  67 100 133 173 217 271 331 385
#     4  10  22  46  68  98 135 170 218 267 328 399
#     4  11  24  41  66 100 134 171 223 274 320 391
#     4  11  23  46  66  92 138 172 222 282 327 387
#
# _framework density 23.349164999999999
#
# number of rings (size 3 to 8) (size 9 to 14) (size 15 to 20)
#    0.000    1.250    3.750    1.500    1.750    4.000 
#    4.500    5.625    0.000    0.000    0.000    0.000 
#    0.000    0.000    0.000    0.000    0.000    0.000 
#
# Total GULP energy -198351.774155 kJ/mol
# GULP energy per Si atom -12396.985885 kJ/mol
# Density = 2.329602 g / cm^3
# Si number density = 23.349165 Si / 1000 Ang^3
#
#
#
# Elastic Constant Matrix: (Units=GPa)
#
#
# Indices 1 2 3 4 5 6 
#
# 1 61.0056 44.1470 22.7045 -9.5044 3.6967 -8.2540
# 2 44.1470 119.2140 15.7881 -17.3118 -6.7467 -7.5958
# 3 22.7045 15.7881 48.7640 -23.5388 2.7584 15.6032
# 4 -9.5044 -17.3118 -23.5388 39.5009 -1.1579 -4.5456
# 5 3.6967 -6.7467 2.7584 -1.1579 32.6938 -0.9644
# 6 -8.2540 -7.5958 15.6032 -4.5456 -0.9644 52.6624
#
#
#
# Elastic Compliance Matrix: (Units=1/GPa)
#
#
# Indices 1 2 3 4 5 6 
#
# 1 0.029216 -0.009349 -0.015307 -0.005473 -0.003922 0.007222
# 2 -0.009349 0.012432 0.002378 0.004733 0.003592 0.000098
# 3 -0.015307 0.002378 0.040560 0.020082 -0.000854 -0.012356
# 4 -0.005473 0.004733 0.020082 0.037746 0.001154 -0.002846
# 5 -0.003922 0.003592 -0.000854 0.001154 0.031909 0.000840
# 6 0.007222 0.000098 -0.012356 -0.002846 0.000840 0.023565
#
#
# Mechanical properties :
#
#
# Convention : Reuss Voigt Hill
#
# Bulk Modulus (GPa) = 26.55916 43.80696 35.18306
# Shear Modulus (GPa) = 21.50210 34.72769 28.11490
#
# Velocity S-wave (km/s) = 3.03792 3.86076 3.47379
# Velocity P-wave (km/s) = 4.86875 6.21904 5.58485
#
# Compressibility (1/GPa) = 0.03765180
#
# Stress axis : x y z
#
# Youngs Moduli (GPa) = 34.22785 80.43680 24.65506
#
# Poissons Ratio (x) = 0.75197 0.37739
# Poissons Ratio (y) = 0.31998 -0.05862
# Poissons Ratio (z) = 0.52392 -0.19124
#
# Static dielectric constant tensor:
#      x y z
#    x 4.305210 0.119560 0.078750 
#    y 0.119560 4.586690 -0.442450 
#    z 0.078750 -0.442450 4.963910 
# 
# 
# High freq. dielectric constant tensor:
#      x y z
#    x 1.914910 0.000410 0.003840 
#    y 0.000410 1.931390 -0.013120 
#    z 0.003840 -0.013120 1.922590 
# 
# From -- ./inp_files/112368.got.cif
#   From: 2010.06.25/outbox.cif.g09.slc.cpg/sg2_57_cif.got.tgz:112368.got - 2010.06.27 13:26:56.
