data_PCOD8022327
_publ_section_title
;
Structure prediction by ZEFSAII (Michael W. Deem and Ramdas Pophale) SiO2 
 PCOD8022327
Probable space group: P -1
;
_chemical_formula_sum "Si O2"
_cell_formula_units_Z 16
_cell_length_a 13.875112
_cell_length_b 25.741330
_cell_length_c 16.703529
_cell_angle_alpha 19.786840
_cell_angle_beta 156.681493
_cell_angle_gamma 158.724926
_cell_volume 689.734309
_symmetry_space_group_name_H-M "P -1"
_symmetry_group_IT_number 2
_symmetry_cell_setting 'triclinic'
loop_
_space_group_symop_operation_xyz
x,y,z
-x,-y,-z
loop_
_atom_site_type_symbol
_atom_site_label
_atom_site_fract_x
_atom_site_fract_y
_atom_site_fract_z
Si Si1 0.373277 0.717466 0.143190
Si Si2 0.229790 0.281737 0.164909
Si Si3 0.674748 0.340210 0.982409
Si Si4 0.252461 0.637725 0.652326
Si Si5 0.594891 0.985216 0.506318
Si Si6 0.890890 0.797595 0.642819
Si Si7 0.917992 0.015435 0.196119
Si Si8 0.640936 0.505601 0.396737
O O1 0.598941 0.910319 0.074058
O O2 0.322854 0.566692 0.385646
O O3 0.466275 0.674608 0.191198
O O4 0.088355 0.712944 0.910679
O O5 0.536733 0.307104 0.342466
O O6 0.105333 0.145108 0.344020
O O7 0.242453 0.464437 0.935658
O O8 0.027134 0.212561 0.030113
O O9 0.648782 0.152357 0.252296
O O10 0.485085 0.367023 0.864856
O O11 0.000000 0.500000 0.000000
O O12 0.355924 0.797892 0.561397
O O13 0.943340 0.601636 0.443391
O O14 0.500000 0.000000 0.500000
O O15 0.889830 0.985071 0.729411
O O16 0.984155 0.940715 0.436347
O O17 0.567241 0.648925 0.596566
#
# Coordination Sequence:
#
# PCOD8022327 Si02
#       8
#     2   2   2   2   2   2   2   2
#     4  11  22  42  70 100 142 173 235 292 336 407
#     4  10  22  45  71  93 139 184 229 290 335 407
#     4  12  24  44  72 102 139 187 228 285 347 406
#     4  10  24  45  65  97 139 183 229 275 351 409
#     4  11  26  44  69 102 145 179 226 288 342 416
#     4  11  21  42  71 100 134 177 235 293 334 400
#     4  10  23  45  67 105 132 182 233 282 350 401
#     4  11  24  40  70 103 135 184 236 272 351 414
#
# _framework density 23.197337999999998
#
# number of rings (size 3 to 8) (size 9 to 14) (size 15 to 20)
#    0.000    1.250    3.750    1.500    5.250    1.500 
#    2.250    0.000    0.000    0.000    0.000    0.000 
#    0.000    0.000    0.000    0.000    0.000    0.000 
#
# Total GULP energy -198276.934195 kJ/mol
# GULP energy per Si atom -12392.308387 kJ/mol
# Density = 2.314454 g / cm^3
# Si number density = 23.197338 Si / 1000 Ang^3
#
#
#
# Elastic Constant Matrix: (Units=GPa)
#
#
# Indices 1 2 3 4 5 6 
#
# 1 116.4416 26.3051 15.3277 -1.9097 14.0659 -7.6566
# 2 26.3051 121.1744 32.1040 0.2042 11.6929 -2.0234
# 3 15.3277 32.1040 62.2570 2.4781 10.3484 -0.5208
# 4 -1.9097 0.2042 2.4781 33.9858 4.9193 3.7211
# 5 14.0659 11.6929 10.3484 4.9193 39.2766 5.6185
# 6 -7.6566 -2.0234 -0.5208 3.7211 5.6185 36.1775
#
#
#
# Elastic Compliance Matrix: (Units=1/GPa)
#
#
# Indices 1 2 3 4 5 6 
#
# 1 0.009610 -0.001451 -0.001107 0.000830 -0.003157 0.002342
# 2 -0.001451 0.009904 -0.004540 0.000343 -0.001326 0.000352
# 3 -0.001107 -0.004540 0.019261 -0.001012 -0.003257 0.000399
# 4 0.000830 0.000343 -0.001012 0.030323 -0.003590 -0.002381
# 5 -0.003157 -0.001326 -0.003257 -0.003590 0.028998 -0.004923
# 6 0.002342 0.000352 0.000399 -0.002381 -0.004923 0.029172
#
#
# Mechanical properties :
#
#
# Convention : Reuss Voigt Hill
#
# Bulk Modulus (GPa) = 40.68322 49.70516 45.19419
# Shear Modulus (GPa) = 33.40988 36.96374 35.18681
#
# Velocity S-wave (km/s) = 3.79917 3.99613 3.89890
# Velocity P-wave (km/s) = 6.06802 6.53955 6.30819
#
# Compressibility (1/GPa) = 0.02458016
#
# Stress axis : x y z
#
# Youngs Moduli (GPa) = 104.05422 100.97324 51.91804
#
# Poissons Ratio (x) = 0.14648 0.05745
# Poissons Ratio (y) = 0.15095 0.23571
# Poissons Ratio (z) = 0.11515 0.45843
#
# Static dielectric constant tensor:
#      x y z
#    x 4.404960 -0.019370 0.162240 
#    y -0.019370 4.321090 -0.118430 
#    z 0.162240 -0.118430 3.972800 
# 
# 
# High freq. dielectric constant tensor:
#      x y z
#    x 1.929230 -0.003540 0.014130 
#    y -0.003540 1.929340 -0.006820 
#    z 0.014130 -0.006820 1.894120 
# 
# From -- ./inp_files/574534.got.cif
#   From: 2010.06.25/outbox.cif.g09.slc.cpg/sg2_288_cif.got.tgz:574534.got - 2010.06.27 13:26:56.
