data_PCOD8022508
_publ_section_title
;
Structure prediction by ZEFSAII (Michael W. Deem and Ramdas Pophale) SiO2 
 PCOD8022508
Probable space group: P -1
;
_chemical_formula_sum "Si O2"
_cell_formula_units_Z 16
_cell_length_a 7.625568
_cell_length_b 11.865589
_cell_length_c 13.700500
_cell_angle_alpha 148.529123
_cell_angle_beta 83.220265
_cell_angle_gamma 91.697888
_cell_volume 636.585132
_symmetry_space_group_name_H-M "P -1"
_symmetry_group_IT_number 2
_symmetry_cell_setting 'triclinic'
loop_
_space_group_symop_operation_xyz
x,y,z
-x,-y,-z
loop_
_atom_site_type_symbol
_atom_site_label
_atom_site_fract_x
_atom_site_fract_y
_atom_site_fract_z
Si Si1 0.705621 0.882540 0.391904
Si Si2 0.197892 0.699749 0.385550
Si Si3 0.690410 0.926325 0.106259
Si Si4 0.532755 0.365960 0.502981
Si Si5 0.063556 0.926473 0.050315
Si Si6 0.653091 0.810242 0.818708
Si Si7 0.653730 0.607861 0.020843
Si Si8 0.831268 0.579819 0.340282
O O1 0.764290 0.751190 0.387612
O O2 0.500000 0.000000 0.500000
O O3 0.828873 0.063817 0.488662
O O4 0.754615 0.697092 0.169997
O O5 0.365068 0.683313 0.437085
O O6 0.223506 0.543773 0.173620
O O7 0.020251 0.645950 0.413406
O O8 0.888014 0.968365 0.162164
O O9 0.577858 0.166006 0.274008
O O10 0.731596 0.763623 0.889795
O O11 0.578018 0.818463 0.115853
O O12 0.596016 0.584811 0.613606
O O13 0.320548 0.391166 0.546286
O O14 0.208588 0.088728 0.187660
O O15 0.151554 0.677041 0.876430
O O16 0.000000 0.000000 0.000000
O O17 0.500000 0.000000 0.000000
O O18 0.500000 0.500000 0.000000
#
# Coordination Sequence:
#
# PCOD8022508 Si02
#       8
#     2   2   2   2   2   2   2   2
#     4  12  24  43  68 103 145 183 236 290 348 423
#     4  12  24  45  68 100 145 190 233 288 348 424
#     4  11  24  45  70 101 141 183 238 296 351 426
#     4  12  24  46  74 102 143 185 238 296 359 421
#     4  10  22  46  71  98 140 183 235 298 355 413
#     4  11  23  43  71 101 139 183 234 299 358 414
#     4  12  22  39  71  99 140 192 228 278 358 420
#     4  12  24  45  73 102 144 191 234 296 356 422
#
# _framework density 25.134108000000001
#
# number of rings (size 3 to 8) (size 9 to 14) (size 15 to 20)
#    0.000    0.500    7.500    1.125    0.000    1.500 
#    2.250    1.250    0.000    0.000    0.000    0.000 
#    0.000    0.000    0.000    0.000    0.000    0.000 
#
# Total GULP energy -198212.511768 kJ/mol
# GULP energy per Si atom -12388.281986 kJ/mol
# Density = 2.507690 g / cm^3
# Si number density = 25.134108 Si / 1000 Ang^3
#
#
#
# Elastic Constant Matrix: (Units=GPa)
#
#
# Indices 1 2 3 4 5 6 
#
# 1 136.0951 44.4406 52.5140 14.2740 0.0524 44.0808
# 2 44.4406 123.6165 28.0046 30.3450 4.7157 29.4257
# 3 52.5140 28.0046 145.3128 14.6006 17.5045 20.0681
# 4 14.2740 30.3450 14.6006 49.5653 2.3138 7.5869
# 5 0.0524 4.7157 17.5045 2.3138 47.2508 7.4846
# 6 44.0808 29.4257 20.0681 7.5869 7.4846 49.4542
#
#
#
# Elastic Compliance Matrix: (Units=1/GPa)
#
#
# Indices 1 2 3 4 5 6 
#
# 1 0.011930 -0.001493 -0.003089 -0.000384 0.002700 -0.008842
# 2 -0.001493 0.011110 -0.000455 -0.005589 0.000007 -0.004239
# 3 -0.003089 -0.000455 0.008554 -0.001239 -0.003093 0.000212
# 4 -0.000384 -0.005589 -0.001239 0.024004 -0.000241 0.000525
# 5 0.002700 0.000007 -0.003093 -0.000241 0.023047 -0.004606
# 6 -0.008842 -0.004239 0.000212 0.000525 -0.004606 0.031154
#
#
# Mechanical properties :
#
#
# Convention : Reuss Voigt Hill
#
# Bulk Modulus (GPa) = 46.47099 72.77141 59.62120
# Shear Modulus (GPa) = 39.35503 47.92506 43.64005
#
# Velocity S-wave (km/s) = 3.96131 4.37140 4.17140
# Velocity P-wave (km/s) = 6.28109 7.38207 6.85372
#
# Compressibility (1/GPa) = 0.02151880
#
# Stress axis : x y z
#
# Youngs Moduli (GPa) = 83.81881 90.00712 116.90812
#
# Poissons Ratio (x) = 0.13440 0.36116
# Poissons Ratio (y) = 0.12516 0.05324
# Poissons Ratio (z) = 0.25894 0.04099
#
# Static dielectric constant tensor:
#      x y z
#    x 4.439910 -0.366190 0.101450 
#    y -0.366190 6.356550 -0.754610 
#    z 0.101450 -0.754610 5.715120 
# 
# 
# High freq. dielectric constant tensor:
#      x y z
#    x 2.001740 0.010110 0.010480 
#    y 0.010110 2.022740 0.021010 
#    z 0.010480 0.021010 2.008600 
# 
# From -- ./inp_files/501134.got.cif
#   From: 2010.06.25/outbox.cif.g09.slc.cpg/sg2_251_cif.got.tgz:501134.got - 2010.06.27 13:26:56.
