data_PCOD8022395
_publ_section_title
;
Structure prediction by ZEFSAII (Michael W. Deem and Ramdas Pophale) SiO2 
 PCOD8022395
Probable space group: P -1
;
_chemical_formula_sum "Si O2"
_cell_formula_units_Z 14
_cell_length_a 10.648918
_cell_length_b 15.554059
_cell_length_c 5.189264
_cell_angle_alpha 81.051987
_cell_angle_beta 112.910019
_cell_angle_gamma 130.728330
_cell_volume 593.973962
_symmetry_space_group_name_H-M "P -1"
_symmetry_group_IT_number 2
_symmetry_cell_setting 'triclinic'
loop_
_space_group_symop_operation_xyz
x,y,z
-x,-y,-z
loop_
_atom_site_type_symbol
_atom_site_label
_atom_site_fract_x
_atom_site_fract_y
_atom_site_fract_z
Si Si1 0.006592 0.410922 0.907505
Si Si2 0.997262 0.254672 0.356731
Si Si3 0.505016 0.100440 0.863166
Si Si4 0.712606 0.590983 0.099820
Si Si5 0.139092 0.014260 0.418602
Si Si6 0.904403 0.831318 0.920828
Si Si7 0.282957 0.781060 0.543407
O O1 0.204074 0.462995 0.936437
O O2 0.857680 0.354439 0.584648
O O3 0.936658 0.305560 0.088662
O O4 0.000000 0.500000 0.000000
O O5 0.197026 0.358886 0.571855
O O6 0.989905 0.157031 0.259120
O O7 0.847102 0.191843 0.492200
O O8 0.306821 0.053885 0.697936
O O9 0.403429 0.857913 0.362368
O O10 0.598369 0.196188 0.121782
O O11 0.500000 0.000000 0.000000
O O12 0.500000 0.500000 0.000000
O O13 0.759774 0.695466 0.919435
O O14 0.194354 0.116965 0.220818
O O15 0.000000 0.000000 0.500000
O O16 0.046008 0.897381 0.237921
#
# Coordination Sequence:
#
# PCOD8022395 Si02
#       7
#     2   2   2   2   2   2   2
#     4  10  23  46  72 106 150 197 247 315 384 449
#     4  10  22  45  75 100 147 196 246 308 386 441
#     4  12  29  46  76 111 149 194 254 307 375 455
#     4  10  23  44  72 107 142 197 256 312 383 450
#     4  11  27  47  70 108 150 200 246 309 385 442
#     4  10  24  46  74  99 153 194 253 302 384 453
#     4  11  25  48  72 109 148 193 245 304 377 443
#
# _framework density 23.570059000000001
#
# number of rings (size 3 to 8) (size 9 to 14) (size 15 to 20)
#    0.000    1.429    1.429    1.286   12.000    4.571 
#   10.286    0.000    0.000    0.000    0.000    0.000 
#    0.000    0.000    0.000    0.000    0.000    0.000 
#
# Total GULP energy -173514.475013 kJ/mol
# GULP energy per Si atom -12393.891072 kJ/mol
# Density = 2.351641 g / cm^3
# Si number density = 23.570059 Si / 1000 Ang^3
#
#
#
# Elastic Constant Matrix: (Units=GPa)
#
#
# Indices 1 2 3 4 5 6 
#
# 1 183.8207 69.1128 97.1153 25.4382 -0.2559 6.8051
# 2 69.1128 73.8020 33.0801 17.2094 7.1541 -10.9563
# 3 97.1153 33.0801 188.7491 24.2945 9.5456 2.8549
# 4 25.4382 17.2094 24.2945 36.0715 0.5732 -1.6933
# 5 -0.2559 7.1541 9.5456 0.5732 56.9479 1.4789
# 6 6.8051 -10.9563 2.8549 -1.6933 1.4789 46.1868
#
#
#
# Elastic Compliance Matrix: (Units=1/GPa)
#
#
# Indices 1 2 3 4 5 6 
#
# 1 0.011443 -0.009370 -0.004162 -0.001004 0.002034 -0.003753
# 2 -0.009370 0.024395 0.001328 -0.005542 -0.003455 0.006993
# 3 -0.004162 0.001328 0.007634 -0.002798 -0.001447 0.000400
# 4 -0.001004 -0.005542 -0.002798 0.032955 0.000824 0.000188
# 5 0.002034 -0.003455 -0.001447 0.000824 0.018279 -0.001585
# 6 -0.003753 0.006993 0.000400 0.000188 -0.001585 0.023896
#
#
# Mechanical properties :
#
#
# Convention : Reuss Voigt Hill
#
# Bulk Modulus (GPa) = 52.45800 93.88759 73.17280
# Shear Modulus (GPa) = 33.47510 44.31215 38.89362
#
# Velocity S-wave (km/s) = 3.77269 4.34062 4.06658
# Velocity P-wave (km/s) = 6.42512 8.06481 7.29121
#
# Compressibility (1/GPa) = 0.01906287
#
# Stress axis : x y z
#
# Youngs Moduli (GPa) = 87.39081 40.99244 130.99120
#
# Poissons Ratio (x) = 0.38411 0.54520
# Poissons Ratio (y) = 0.81888 -0.17397
# Poissons Ratio (z) = 0.36373 -0.05444
#
# Static dielectric constant tensor:
#      x y z
#    x 4.199810 0.111660 -1.711170 
#    y 0.111660 3.887290 2.123380 
#    z -1.711170 2.123380 -9.322300 
# 
# 
# High freq. dielectric constant tensor:
#      x y z
#    x 1.933120 -0.001420 -0.013820 
#    y -0.001420 1.918690 -0.006920 
#    z -0.013820 -0.006920 1.956490 
# 
# From -- ./inp_files/78026.got.cif
#   From: 2010.06.25/outbox.cif.g09.slc.cpg/sg2_40_cif.got.tgz:78026.got - 2010.06.27 13:26:56.
