data_PCOD8022600
_publ_section_title
;
Structure prediction by ZEFSAII (Michael W. Deem and Ramdas Pophale) SiO2 
 PCOD8022600
Probable space group: P -1
;
_chemical_formula_sum "Si O2"
_cell_formula_units_Z 16
_cell_length_a 14.509791
_cell_length_b 5.572279
_cell_length_c 14.483773
_cell_angle_alpha 67.969122
_cell_angle_beta 141.541957
_cell_angle_gamma 111.158324
_cell_volume 670.540021
_symmetry_space_group_name_H-M "P -1"
_symmetry_group_IT_number 2
_symmetry_cell_setting 'triclinic'
loop_
_space_group_symop_operation_xyz
x,y,z
-x,-y,-z
loop_
_atom_site_type_symbol
_atom_site_label
_atom_site_fract_x
_atom_site_fract_y
_atom_site_fract_z
Si Si1 0.745250 0.562030 0.211786
Si Si2 0.452256 0.661996 0.582221
Si Si3 0.881064 0.956282 0.993113
Si Si4 0.587340 0.690855 0.238138
Si Si5 0.261559 0.569644 0.981085
Si Si6 0.137277 0.922445 0.560038
Si Si7 0.624765 0.221942 0.687218
Si Si8 0.956293 0.029542 0.244176
O O1 0.602683 0.579559 0.162982
O O2 0.693487 0.479619 0.081362
O O3 0.856356 0.382678 0.375345
O O4 0.838395 0.843129 0.237655
O O5 0.364348 0.519976 0.619861
O O6 0.562322 0.459734 0.657340
O O7 0.339942 0.699394 0.403799
O O8 0.522415 0.942550 0.637749
O O9 0.775910 0.186429 0.867107
O O10 0.770093 0.686899 0.942692
O O11 0.971947 0.956454 0.160182
O O12 0.000000 0.000000 0.000000
O O13 0.698560 0.952669 0.297885
O O14 0.413579 0.737948 0.113903
O O15 0.107717 0.694681 0.843551
O O16 0.000000 0.000000 0.500000
O O17 0.113709 0.014580 0.421805
#
# Coordination Sequence:
#
# PCOD8022600 Si02
#       8
#     2   2   2   2   2   2   2   2
#     4  11  24  42  72  98 141 180 238 288 359 426
#     4  10  23  43  75 102 143 184 237 301 368 425
#     4  11  26  45  73  99 139 185 240 296 360 430
#     4  12  25  40  72 105 139 184 233 298 351 437
#     4  11  24  46  68 104 138 183 233 291 361 427
#     4  12  25  45  65  98 140 187 232 286 355 429
#     4  10  22  48  69 104 144 185 237 303 362 431
#     4  11  25  47  71  95 144 183 235 294 356 436
#
# _framework density 23.861364999999999
#
# number of rings (size 3 to 8) (size 9 to 14) (size 15 to 20)
#    0.000    1.000    3.750    1.500    1.750    6.500 
#    4.500    0.000    0.000    0.000    0.000    0.000 
#    0.000    0.000    0.000    0.000    0.000    0.000 
#
# Total GULP energy -198227.838097 kJ/mol
# GULP energy per Si atom -12389.239881 kJ/mol
# Density = 2.380706 g / cm^3
# Si number density = 23.861365 Si / 1000 Ang^3
#
#
#
# Elastic Constant Matrix: (Units=GPa)
#
#
# Indices 1 2 3 4 5 6 
#
# 1 101.3411 26.1447 17.4749 -1.4893 -16.2756 22.6384
# 2 26.1447 65.6852 24.6350 -7.8299 -4.0823 -2.9483
# 3 17.4749 24.6350 112.2626 -8.2056 -4.0453 18.0947
# 4 -1.4893 -7.8299 -8.2056 44.8082 1.2151 -3.4338
# 5 -16.2756 -4.0823 -4.0453 1.2151 40.1569 -10.2400
# 6 22.6384 -2.9483 18.0947 -3.4338 -10.2400 27.9874
#
#
#
# Elastic Compliance Matrix: (Units=1/GPa)
#
#
# Indices 1 2 3 4 5 6 
#
# 1 0.014604 -0.006910 0.001266 -0.001526 0.002135 -0.012765
# 2 -0.006910 0.020986 -0.005190 0.003375 0.001829 0.012239
# 3 0.001266 -0.005190 0.011342 0.000534 -0.001259 -0.009299
# 4 -0.001526 0.003375 0.000534 0.023269 0.000132 0.004148
# 5 0.002135 0.001829 -0.001259 0.000132 0.028282 0.009644
# 6 -0.012765 0.012239 -0.009299 0.004148 0.009644 0.057395
#
#
# Mechanical properties :
#
#
# Convention : Reuss Voigt Hill
#
# Bulk Modulus (GPa) = 39.58038 46.19977 42.89008
# Shear Modulus (GPa) = 26.88658 36.65943 31.77301
#
# Velocity S-wave (km/s) = 3.36040 3.92388 3.65302
# Velocity P-wave (km/s) = 5.62850 6.31925 5.98385
#
# Compressibility (1/GPa) = 0.02526504
#
# Stress axis : x y z
#
# Youngs Moduli (GPa) = 68.47351 47.65034 88.16871
#
# Poissons Ratio (x) = 0.32926 -0.11162
# Poissons Ratio (y) = 0.47315 0.45756
# Poissons Ratio (z) = -0.08669 0.24729
#
# Static dielectric constant tensor:
#      x y z
#    x 4.121550 -0.034180 -0.658710 
#    y -0.034180 4.346650 0.117980 
#    z -0.658710 0.117980 6.482610 
# 
# 
# High freq. dielectric constant tensor:
#      x y z
#    x 1.934110 -0.002800 -0.028660 
#    y -0.002800 1.939740 -0.015300 
#    z -0.028660 -0.015300 1.962600 
# 
# From -- ./inp_files/98635.got.cif
#   From: 2010.06.25/outbox.cif.g09.slc.cpg/sg2_50_cif.got.tgz:98635.got - 2010.06.27 13:26:56.
