data_PCOD8022826
_publ_section_title
;
Structure prediction by ZEFSAII (Michael W. Deem and Ramdas Pophale) SiO2 
 PCOD8022826
Probable space group: P -1
;
_chemical_formula_sum "Si O2"
_cell_formula_units_Z 14
_cell_length_a 9.694636
_cell_length_b 13.101178
_cell_length_c 12.391346
_cell_angle_alpha 34.346788
_cell_angle_beta 128.741139
_cell_angle_gamma 136.619017
_cell_volume 608.547033
_symmetry_space_group_name_H-M "P -1"
_symmetry_group_IT_number 2
_symmetry_cell_setting 'triclinic'
loop_
_space_group_symop_operation_xyz
x,y,z
-x,-y,-z
loop_
_atom_site_type_symbol
_atom_site_label
_atom_site_fract_x
_atom_site_fract_y
_atom_site_fract_z
Si Si1 0.293943 0.230565 0.656699
Si Si2 0.345772 0.859352 0.458926
Si Si3 0.032814 0.015831 0.127803
Si Si4 0.621091 0.043519 0.231093
Si Si5 0.044776 0.226156 0.357263
Si Si6 0.664349 0.547492 0.128919
Si Si7 0.558336 0.404772 0.820107
O O1 0.130898 0.282610 0.472621
O O2 0.478780 0.422710 0.643758
O O3 0.363346 0.117642 0.701246
O O4 0.176683 0.075251 0.832478
O O5 0.272340 0.626356 0.663948
O O6 0.500000 0.000000 0.500000
O O7 0.157145 0.899993 0.326006
O O8 0.456264 0.903458 0.359553
O O9 0.145330 0.257335 0.998617
O O10 0.000000 0.000000 0.000000
O O11 0.827680 0.211182 0.246532
O O12 0.556866 0.187126 0.007520
O O13 0.221536 0.401363 0.217698
O O14 0.000000 0.000000 0.500000
O O15 0.594926 0.603314 0.157780
O O16 0.500000 0.500000 0.000000
#
# Coordination Sequence:
#
# PCOD8022826 Si02
#       7
#     2   2   2   2   2   2   2
#     4  11  24  44  68  99 142 177 225 288 345 409
#     4  12  24  47  74 102 141 182 236 285 345 413
#     4  12  25  48  68 105 145 179 231 291 346 414
#     4  11  23  44  71 102 135 182 228 286 343 411
#     4  10  23  39  64  95 131 172 226 280 334 402
#     4  12  25  42  76  99 138 190 233 280 352 413
#     4  12  23  45  68 102 135 181 231 284 347 411
#
# _framework density 23.005617000000001
#
# number of rings (size 3 to 8) (size 9 to 14) (size 15 to 20)
#    0.000    0.571    4.286    3.857    4.000    0.571 
#    5.143    0.000    0.000    0.000    0.000    0.000 
#    0.000    0.000    0.000    0.000    0.000    0.000 
#
# Total GULP energy -173548.108718 kJ/mol
# GULP energy per Si atom -12396.293480 kJ/mol
# Density = 2.295326 g / cm^3
# Si number density = 23.005617 Si / 1000 Ang^3
#
#
#
# Elastic Constant Matrix: (Units=GPa)
#
#
# Indices 1 2 3 4 5 6 
#
# 1 74.7084 5.8889 6.4904 -3.2914 -1.5701 -9.6711
# 2 5.8889 105.5919 12.3194 11.5150 14.7716 -3.7167
# 3 6.4904 12.3194 101.7031 5.3078 23.3562 -7.9842
# 4 -3.2914 11.5150 5.3078 46.4760 -2.0087 -7.0626
# 5 -1.5701 14.7716 23.3562 -2.0087 33.7267 4.5764
# 6 -9.6711 -3.7167 -7.9842 -7.0626 4.5764 37.5628
#
#
#
# Elastic Compliance Matrix: (Units=1/GPa)
#
#
# Indices 1 2 3 4 5 6 
#
# 1 0.014113 -0.000955 -0.000917 0.001937 0.001344 0.003545
# 2 -0.000955 0.010549 0.000166 -0.002778 -0.005071 0.000929
# 3 -0.000917 0.000166 0.012303 -0.001414 -0.009160 0.003246
# 4 0.001937 -0.002778 -0.001414 0.023233 0.003139 0.003909
# 5 0.001344 -0.005071 -0.009160 0.003139 0.039319 -0.006303
# 6 0.003545 0.000929 0.003246 0.003909 -0.006303 0.029819
#
#
# Mechanical properties :
#
#
# Convention : Reuss Voigt Hill
#
# Bulk Modulus (GPa) = 29.80285 36.82232 33.31258
# Shear Modulus (GPa) = 34.73835 40.70674 37.72255
#
# Velocity S-wave (km/s) = 3.89008 4.21102 4.05373
# Velocity P-wave (km/s) = 5.75844 6.29953 6.03506
#
# Compressibility (1/GPa) = 0.03355384
#
# Stress axis : x y z
#
# Youngs Moduli (GPa) = 70.85799 94.79198 81.28016
#
# Poissons Ratio (x) = 0.09050 0.07450
# Poissons Ratio (y) = 0.06765 -0.01345
# Poissons Ratio (z) = 0.06494 -0.01569
#
# Static dielectric constant tensor:
#      x y z
#    x 3.434460 -0.302170 0.177840 
#    y -0.302170 3.993950 0.463460 
#    z 0.177840 0.463460 4.237810 
# 
# 
# High freq. dielectric constant tensor:
#      x y z
#    x 1.899580 0.009890 -0.015070 
#    y 0.009890 1.923250 0.008420 
#    z -0.015070 0.008420 1.926500 
# 
# From -- ./inp_files/271111.got.cif
#   From: 2010.06.25/outbox.cif.g09.slc.cpg/sg2_136_cif.got.tgz:271111.got - 2010.06.27 13:26:56.
