data_PCOD8022520
_publ_section_title
;
Structure prediction by ZEFSAII (Michael W. Deem and Ramdas Pophale) SiO2 
 PCOD8022520
Probable space group: P -1
;
_chemical_formula_sum "Si O2"
_cell_formula_units_Z 14
_cell_length_a 11.387807
_cell_length_b 7.087360
_cell_length_c 11.294151
_cell_angle_alpha 122.371450
_cell_angle_beta 131.659658
_cell_angle_gamma 57.175448
_cell_volume 549.579459
_symmetry_space_group_name_H-M "P -1"
_symmetry_group_IT_number 2
_symmetry_cell_setting 'triclinic'
loop_
_space_group_symop_operation_xyz
x,y,z
-x,-y,-z
loop_
_atom_site_type_symbol
_atom_site_label
_atom_site_fract_x
_atom_site_fract_y
_atom_site_fract_z
Si Si1 0.750774 0.646058 0.738489
Si Si2 0.548539 0.569686 0.182629
Si Si3 0.104548 0.781461 0.658349
Si Si4 0.032534 0.292462 0.689969
Si Si5 0.222270 0.532551 0.053461
Si Si6 0.569810 0.043843 0.438006
Si Si7 0.872711 0.978662 0.763788
O O1 0.787346 0.635823 0.899797
O O2 0.807572 0.849938 0.781607
O O3 0.852045 0.399710 0.665058
O O4 0.551923 0.712848 0.613035
O O5 0.712371 0.387646 0.279215
O O6 0.403401 0.560883 0.172352
O O7 0.573153 0.827138 0.280335
O O8 0.500000 0.500000 0.000000
O O9 0.990486 0.681086 0.459058
O O10 0.037765 0.809314 0.758037
O O11 0.111423 0.026549 0.691531
O O12 0.159299 0.433155 0.860972
O O13 0.096589 0.791320 0.080607
O O14 0.750856 0.061180 0.595147
O O15 0.500000 0.000000 0.500000
#
# Coordination Sequence:
#
# PCOD8022520 Si02
#       7
#     2   2   2   2   2   2   2
#     4  11  24  45  80 107 148 196 257 303 368 451
#     4  12  29  49  75 113 153 200 249 311 383 443
#     4  11  27  51  74 112 159 196 246 313 382 451
#     4  11  27  46  75 116 151 198 250 306 386 443
#     4  12  27  49  75 112 148 198 257 307 368 447
#     4  10  22  46  72 112 146 194 254 301 371 449
#     4  11  25  47  81 110 150 199 253 313 373 443
#
# _framework density 25.474024
#
# number of rings (size 3 to 8) (size 9 to 14) (size 15 to 20)
#    0.000    0.857    4.286    2.143    6.000    5.143 
#    0.000    0.000    0.000    0.000    0.000    0.000 
#    0.000    0.000    0.000    0.000    0.000    0.000 
#
# Total GULP energy -173591.738011 kJ/mol
# GULP energy per Si atom -12399.409858 kJ/mol
# Density = 2.541604 g / cm^3
# Si number density = 25.474024 Si / 1000 Ang^3
#
#
#
# Elastic Constant Matrix: (Units=GPa)
#
#
# Indices 1 2 3 4 5 6 
#
# 1 73.2465 19.2029 14.6116 -4.1714 -6.2221 -0.5775
# 2 19.2029 121.4257 14.7221 -7.5822 7.3352 -17.5076
# 3 14.6116 14.7221 119.2766 23.8376 -3.2095 7.7223
# 4 -4.1714 -7.5822 23.8376 31.6384 -0.4325 -6.3348
# 5 -6.2221 7.3352 -3.2095 -0.4325 35.8652 -4.8628
# 6 -0.5775 -17.5076 7.7223 -6.3348 -4.8628 42.5717
#
#
#
# Elastic Compliance Matrix: (Units=1/GPa)
#
#
# Indices 1 2 3 4 5 6 
#
# 1 0.015066 -0.001990 -0.002232 0.003357 0.002946 0.000627
# 2 -0.001990 0.009971 -0.002333 0.004862 -0.001856 0.005008
# 3 -0.002232 -0.002333 0.011300 -0.010269 0.000364 -0.004526
# 4 0.003357 0.004862 -0.010269 0.043038 0.000595 0.010380
# 5 0.002946 -0.001856 0.000364 0.000595 0.029169 0.002631
# 6 0.000627 0.005008 -0.004526 0.010380 0.002631 0.028224
#
#
# Mechanical properties :
#
#
# Convention : Reuss Voigt Hill
#
# Bulk Modulus (GPa) = 43.05310 45.66911 44.36111
# Shear Modulus (GPa) = 31.72159 39.70920 35.71539
#
# Velocity S-wave (km/s) = 3.53264 3.95246 3.74843
# Velocity P-wave (km/s) = 5.79456 6.22864 6.01551
#
# Compressibility (1/GPa) = 0.02322713
#
# Stress axis : x y z
#
# Youngs Moduli (GPa) = 66.37480 100.29248 88.49328
#
# Poissons Ratio (x) = 0.19957 0.19754
# Poissons Ratio (y) = 0.13208 0.20644
# Poissons Ratio (z) = 0.14817 0.23396
#
# Static dielectric constant tensor:
#      x y z
#    x 4.580910 0.175090 0.201980 
#    y 0.175090 12.843010 -0.220800 
#    z 0.201980 -0.220800 5.024790 
# 
# 
# High freq. dielectric constant tensor:
#      x y z
#    x 2.003630 -0.007710 -0.006200 
#    y -0.007710 2.033610 -0.004580 
#    z -0.006200 -0.004580 2.024770 
# 
# From -- ./inp_files/418484.got.cif
#   From: 2010.06.25/outbox.cif.g09.slc.cpg/sg2_210_cif.got.tgz:418484.got - 2010.06.27 13:26:56.
