data_PCOD8022683
_publ_section_title
;
Structure prediction by ZEFSAII (Michael W. Deem and Ramdas Pophale) SiO2 
 PCOD8022683
Probable space group: P -1
;
_chemical_formula_sum "Si O2"
_cell_formula_units_Z 14
_cell_length_a 19.264784
_cell_length_b 11.998227
_cell_length_c 10.620163
_cell_angle_alpha 132.090902
_cell_angle_beta 35.020502
_cell_angle_gamma 152.544527
_cell_volume 634.577191
_symmetry_space_group_name_H-M "P -1"
_symmetry_group_IT_number 2
_symmetry_cell_setting 'triclinic'
loop_
_space_group_symop_operation_xyz
x,y,z
-x,-y,-z
loop_
_atom_site_type_symbol
_atom_site_label
_atom_site_fract_x
_atom_site_fract_y
_atom_site_fract_z
Si Si1 0.006428 0.515419 0.151671
Si Si2 0.976058 0.165299 0.893790
Si Si3 0.049787 0.170212 0.183384
Si Si4 0.307808 0.051698 0.068033
Si Si5 0.342806 0.303446 0.693063
Si Si6 0.667831 0.591061 0.618861
Si Si7 0.275268 0.555735 0.347143
O O1 0.800938 0.378618 0.409440
O O2 0.186013 0.805495 0.141233
O O3 0.000000 0.500000 0.000000
O O4 0.032376 0.368890 0.048759
O O5 0.147813 0.304238 0.642980
O O6 0.943903 0.995568 0.903864
O O7 0.777938 0.004005 0.986144
O O8 0.102027 0.338180 0.342023
O O9 0.220254 0.332182 0.943385
O O10 0.824344 0.979706 0.324965
O O11 0.304140 0.201654 0.266945
O O12 0.530286 0.206692 0.840184
O O13 0.500000 0.500000 0.500000
O O14 0.463919 0.350118 0.665143
O O15 0.663870 0.525675 0.717434
#
# Coordination Sequence:
#
# PCOD8022683 Si02
#       7
#     2   2   2   2   2   2   2
#     4  10  23  38  54  94 135 162 196 252 310 367
#     4  11  21  38  60  91 130 161 199 249 311 363
#     4  11  23  41  65  93 123 157 209 261 300 368
#     4  11  21  36  60  92 125 159 201 255 305 363
#     4  11  24  39  62  96 123 158 201 262 317 355
#     4  12  20  38  65  96 122 157 204 262 308 358
#     4  12  22  39  66  96 124 161 207 255 310 360
#
# _framework density 22.061934000000001
#
# number of rings (size 3 to 8) (size 9 to 14) (size 15 to 20)
#    0.000    0.857    7.143    2.571    0.000    2.286 
#    2.571    0.000    0.000    6.857    0.000    0.000 
#    0.000    0.000    0.000    0.000    0.000    0.000 
#
# Total GULP energy -173541.692476 kJ/mol
# GULP energy per Si atom -12395.835177 kJ/mol
# Density = 2.201172 g / cm^3
# Si number density = 22.061934 Si / 1000 Ang^3
#
#
#
# Elastic Constant Matrix: (Units=GPa)
#
#
# Indices 1 2 3 4 5 6 
#
# 1 34.5168 34.1425 7.0100 3.8277 2.4002 21.8441
# 2 34.1425 105.9049 48.6895 -0.1269 -18.4242 16.1600
# 3 7.0100 48.6895 136.2955 0.5095 -8.3240 2.2135
# 4 3.8277 -0.1269 0.5095 38.3748 -1.7545 -5.9268
# 5 2.4002 -18.4242 -8.3240 -1.7545 14.8246 5.5926
# 6 21.8441 16.1600 2.2135 -5.9268 5.5926 46.1871
#
#
#
# Elastic Compliance Matrix: (Units=1/GPa)
#
#
# Indices 1 2 3 4 5 6 
#
# 1 0.077150 -0.030860 0.004965 -0.013240 -0.041078 -0.022653
# 2 -0.030860 0.028673 -0.006416 0.005118 0.037251 0.001017
# 3 0.004965 -0.006416 0.009157 -0.000837 -0.003658 -0.000207
# 4 -0.013240 0.005118 -0.000837 0.028914 0.008755 0.007161
# 5 -0.041078 0.037251 -0.003658 0.008755 0.122057 -0.007086
# 6 -0.022653 0.001017 -0.000207 0.007161 -0.007086 0.033796
#
#
# Mechanical properties :
#
#
# Convention : Reuss Voigt Hill
#
# Bulk Modulus (GPa) = 19.85856 50.71124 35.28490
# Shear Modulus (GPa) = 13.11803 32.33565 22.72684
#
# Velocity S-wave (km/s) = 2.44109 3.83257 3.21306
# Velocity P-wave (km/s) = 4.11898 6.52844 5.45832
#
# Compressibility (1/GPa) = 0.05035611
#
# Stress axis : x y z
#
# Youngs Moduli (GPa) = 12.96182 34.87635 109.20770
#
# Poissons Ratio (x) = 1.07629 -0.54222
# Poissons Ratio (y) = 0.40001 0.70071
# Poissons Ratio (z) = -0.06436 0.22378
#
# Static dielectric constant tensor:
#      x y z
#    x 3.895490 0.037740 -0.021460 
#    y 0.037740 4.468590 -0.064700 
#    z -0.021460 -0.064700 4.124930 
# 
# 
# High freq. dielectric constant tensor:
#      x y z
#    x 1.828890 0.019740 0.010090 
#    y 0.019740 1.864300 -0.012770 
#    z 0.010090 -0.012770 1.883990 
# 
# From -- ./inp_files/255415.got.cif
#   From: 2010.06.25/outbox.cif.g09.slc.cpg/sg2_128_cif.got.tgz:255415.got - 2010.06.27 13:26:56.
