data_PCOD8022522
_publ_section_title
;
Structure prediction by ZEFSAII (Michael W. Deem and Ramdas Pophale) SiO2 
 PCOD8022522
Probable space group: P -1
;
_chemical_formula_sum "Si O2"
_cell_formula_units_Z 12
_cell_length_a 8.568218
_cell_length_b 12.330223
_cell_length_c 7.671221
_cell_angle_alpha 69.195659
_cell_angle_beta 129.920373
_cell_angle_gamma 81.405446
_cell_volume 494.032202
_symmetry_space_group_name_H-M "P -1"
_symmetry_group_IT_number 2
_symmetry_cell_setting 'triclinic'
loop_
_space_group_symop_operation_xyz
x,y,z
-x,-y,-z
loop_
_atom_site_type_symbol
_atom_site_label
_atom_site_fract_x
_atom_site_fract_y
_atom_site_fract_z
Si Si1 0.423977 0.720198 0.649147
Si Si2 0.938593 0.145095 0.216578
Si Si3 0.698886 0.014795 0.729927
Si Si4 0.405351 0.557861 0.212990
Si Si5 0.556870 0.742859 0.092732
Si Si6 0.899315 0.841148 0.315305
O O1 0.383948 0.824943 0.403357
O O2 0.603649 0.561566 0.826142
O O3 0.173213 0.736755 0.517081
O O4 0.539016 0.762770 0.860185
O O5 0.100069 0.087349 0.541941
O O6 0.860861 0.304771 0.047022
O O7 0.695474 0.142277 0.065792
O O8 0.069087 0.054958 0.191614
O O9 0.500000 0.000000 0.500000
O O10 0.754205 0.951026 0.997471
O O11 0.500000 0.500000 0.500000
O O12 0.592044 0.594286 0.240753
O O13 0.772622 0.756065 0.310891
#
# Coordination Sequence:
#
# PCOD8022522 Si02
#       6
#     2   2   2   2   2   2
#     4  11  23  45  69 101 142 178 227 289 340 411
#     4   9  25  47  68 102 139 181 229 288 340 407
#     4  12  25  47  71 103 141 184 233 282 347 415
#     4  10  22  46  72  98 142 180 227 288 346 406
#     4   9  22  44  69 101 137 178 231 283 341 406
#     4  11  23  45  73 104 137 186 228 286 345 408
#
# _framework density 24.289916000000002
#
# number of rings (size 3 to 8) (size 9 to 14) (size 15 to 20)
#    1.000    0.667    1.667    2.000    0.000    5.333 
#    6.000    1.667    0.000    0.000    0.000    0.000 
#    0.000    0.000    0.000    0.000    0.000    0.000 
#
# Total GULP energy -148704.480827 kJ/mol
# GULP energy per Si atom -12392.040069 kJ/mol
# Density = 2.423463 g / cm^3
# Si number density = 24.289916 Si / 1000 Ang^3
#
#
#
# Elastic Constant Matrix: (Units=GPa)
#
#
# Indices 1 2 3 4 5 6 
#
# 1 54.0210 23.9787 19.5494 0.2321 -12.7889 5.8214
# 2 23.9787 101.2139 22.7331 -18.9049 6.6800 8.0469
# 3 19.5494 22.7331 90.0213 0.1670 -13.8307 -6.8763
# 4 0.2321 -18.9049 0.1670 49.8996 7.6555 3.0421
# 5 -12.7889 6.6800 -13.8307 7.6555 45.0229 16.3385
# 6 5.8214 8.0469 -6.8763 3.0421 16.3385 26.5203
#
#
#
# Elastic Compliance Matrix: (Units=1/GPa)
#
#
# Indices 1 2 3 4 5 6 
#
# 1 0.026693 -0.006131 -0.003246 -0.003616 0.012513 -0.012135
# 2 -0.006131 0.013567 -0.003002 0.006059 -0.005367 -0.000938
# 3 -0.003246 -0.003002 0.013250 -0.001784 0.002559 0.003687
# 4 -0.003616 0.006059 -0.001784 0.023349 -0.006344 -0.000277
# 5 0.012513 -0.005367 0.002559 -0.006344 0.036484 -0.022204
# 6 -0.012135 -0.000938 0.003687 -0.000277 -0.022204 0.055322
#
#
# Mechanical properties :
#
#
# Convention : Reuss Voigt Hill
#
# Bulk Modulus (GPa) = 34.78127 41.97542 38.37834
# Shear Modulus (GPa) = 24.62951 36.22157 30.42554
#
# Velocity S-wave (km/s) = 3.18776 3.86582 3.54305
# Velocity P-wave (km/s) = 5.28199 6.10283 5.70719
#
# Compressibility (1/GPa) = 0.02875111
#
# Stress axis : x y z
#
# Youngs Moduli (GPa) = 37.46264 73.70565 75.47373
#
# Poissons Ratio (x) = 0.45192 0.24500
# Poissons Ratio (y) = 0.22970 0.22658
# Poissons Ratio (z) = 0.12161 0.22127
#
# Static dielectric constant tensor:
#      x y z
#    x 4.708560 -0.583610 0.198110 
#    y -0.583610 6.679830 -1.568880 
#    z 0.198110 -1.568880 5.492810 
# 
# 
# High freq. dielectric constant tensor:
#      x y z
#    x 1.950310 0.007390 -0.026890 
#    y 0.007390 1.969450 0.003710 
#    z -0.026890 0.003710 1.965940 
# 
# From -- ./inp_files/176897.got.cif
#   From: 2010.06.25/outbox.cif.g09.slc.cpg/sg2_89_cif.got.tgz:176897.got - 2010.06.27 13:26:56.
