data_PCOD8022408
_publ_section_title
;
Structure prediction by ZEFSAII (Michael W. Deem and Ramdas Pophale) SiO2 
 PCOD8022408
Probable space group: P -1
;
_chemical_formula_sum "Si O2"
_cell_formula_units_Z 14
_cell_length_a 13.716029
_cell_length_b 11.033460
_cell_length_c 7.375625
_cell_angle_alpha 109.949124
_cell_angle_beta 138.106098
_cell_angle_gamma 62.001299
_cell_volume 658.040298
_symmetry_space_group_name_H-M "P -1"
_symmetry_group_IT_number 2
_symmetry_cell_setting 'triclinic'
loop_
_space_group_symop_operation_xyz
x,y,z
-x,-y,-z
loop_
_atom_site_type_symbol
_atom_site_label
_atom_site_fract_x
_atom_site_fract_y
_atom_site_fract_z
Si Si1 0.978254 0.140995 0.134735
Si Si2 0.067246 0.675038 0.162567
Si Si3 0.533644 0.640139 0.087061
Si Si4 0.192171 0.828633 0.712360
Si Si5 0.266331 0.024459 0.672750
Si Si6 0.553413 0.786945 0.843104
Si Si7 0.747448 0.638969 0.707817
O O1 0.870478 0.161600 0.168926
O O2 0.151404 0.131779 0.429833
O O3 0.900369 0.261287 0.947169
O O4 0.000000 0.000000 0.000000
O O5 0.122466 0.735017 0.446473
O O6 0.171638 0.517958 0.204680
O O7 0.882375 0.705569 0.936108
O O8 0.670794 0.649883 0.410313
O O9 0.500000 0.500000 0.000000
O O10 0.376688 0.765753 0.965604
O O11 0.587817 0.660833 0.968797
O O12 0.160501 0.976977 0.648727
O O13 0.372145 0.884969 0.643572
O O14 0.359190 0.106876 0.942632
O O15 0.607361 0.716951 0.689003
#
# Coordination Sequence:
#
# PCOD8022408 Si02
#       7
#     2   2   2   2   2   2   2
#     4  12  25  38  67  97 128 170 217 259 319 383
#     4  11  25  44  64 101 129 170 219 259 326 386
#     4  11  24  43  66  98 129 168 217 261 326 385
#     4  11  24  43  66  95 135 168 210 276 313 378
#     4  10  22  46  63  98 131 169 217 262 324 377
#     4  10  24  43  69  93 133 169 211 272 320 380
#     4  11  25  43  69  94 132 171 214 268 320 386
#
# _framework density 21.275293999999999
#
# number of rings (size 3 to 8) (size 9 to 14) (size 15 to 20)
#    0.000    1.143    2.857    2.143    6.000    0.571 
#    0.000    6.429    0.000    0.000    0.000    0.000 
#    0.000    0.000    0.000    0.000    0.000    0.000 
#
# Total GULP energy -173581.596973 kJ/mol
# GULP energy per Si atom -12398.685498 kJ/mol
# Density = 2.122687 g / cm^3
# Si number density = 21.275294 Si / 1000 Ang^3
#
#
#
# Elastic Constant Matrix: (Units=GPa)
#
#
# Indices 1 2 3 4 5 6 
#
# 1 108.3825 19.0129 23.5577 7.8196 -16.0672 1.1515
# 2 19.0129 58.5343 2.0567 4.8515 -7.8632 12.7593
# 3 23.5577 2.0567 80.3542 -7.0914 7.9917 -3.5505
# 4 7.8196 4.8515 -7.0914 32.9758 1.5384 2.6983
# 5 -16.0672 -7.8632 7.9917 1.5384 33.3944 4.8247
# 6 1.1515 12.7593 -3.5505 2.6983 4.8247 31.3979
#
#
#
# Elastic Compliance Matrix: (Units=1/GPa)
#
#
# Indices 1 2 3 4 5 6 
#
# 1 0.011824 -0.002379 -0.004397 -0.003648 0.006442 -0.000640
# 2 -0.002379 0.020785 -0.000969 -0.002209 0.005399 -0.009108
# 3 -0.004397 -0.000969 0.014929 0.004466 -0.006536 0.002864
# 4 -0.003648 -0.002209 0.004466 0.032743 -0.004774 -0.000544
# 5 0.006442 0.005399 -0.006536 -0.004774 0.037327 -0.008495
# 6 -0.000640 -0.009108 0.002864 -0.000544 -0.008495 0.037250
#
#
# Mechanical properties :
#
#
# Convention : Reuss Voigt Hill
#
# Bulk Modulus (GPa) = 31.20177 37.39172 34.29674
# Shear Modulus (GPa) = 27.61964 33.06320 30.34142
#
# Velocity S-wave (km/s) = 3.60697 3.94644 3.78052
# Velocity P-wave (km/s) = 5.66079 6.19509 5.93396
#
# Compressibility (1/GPa) = 0.03204947
#
# Stress axis : x y z
#
# Youngs Moduli (GPa) = 84.57042 48.11257 66.98204
#
# Poissons Ratio (x) = 0.11446 0.29449
# Poissons Ratio (y) = 0.20119 0.06490
# Poissons Ratio (z) = 0.37182 0.04661
#
# Static dielectric constant tensor:
#      x y z
#    x 4.372790 -0.044210 0.278530 
#    y -0.044210 3.761970 -0.070140 
#    z 0.278530 -0.070140 4.011640 
# 
# 
# High freq. dielectric constant tensor:
#      x y z
#    x 1.839810 0.005930 0.008730 
#    y 0.005930 1.837340 -0.008870 
#    z 0.008730 -0.008870 1.845280 
# 
# From -- ./inp_files/68370.got.cif
#   From: 2010.06.25/outbox.cif.g09.slc.cpg/sg2_35_cif.got.tgz:68370.got - 2010.06.27 13:26:56.
