data_PCOD8022319
_publ_section_title
;
Structure prediction by ZEFSAII (Michael W. Deem and Ramdas Pophale) SiO2 
 PCOD8022319
Probable space group: P -1
;
_chemical_formula_sum "Si O2"
_cell_formula_units_Z 16
_cell_length_a 13.132122
_cell_length_b 5.445328
_cell_length_c 11.767592
_cell_angle_alpha 49.605221
_cell_angle_beta 109.864578
_cell_angle_gamma 95.389650
_cell_volume 593.299376
_symmetry_space_group_name_H-M "P -1"
_symmetry_group_IT_number 2
_symmetry_cell_setting 'triclinic'
loop_
_space_group_symop_operation_xyz
x,y,z
-x,-y,-z
loop_
_atom_site_type_symbol
_atom_site_label
_atom_site_fract_x
_atom_site_fract_y
_atom_site_fract_z
Si Si1 0.624537 0.537033 0.669391
Si Si2 0.533872 0.125325 0.322006
Si Si3 0.804690 0.626402 0.139091
Si Si4 0.926808 0.372075 0.604109
Si Si5 0.858725 0.583709 0.746708
Si Si6 0.917853 0.222785 0.094977
Si Si7 0.748077 0.290229 0.426467
Si Si8 0.444543 0.081136 0.076815
O O1 0.583399 0.784883 0.685406
O O2 0.755378 0.385591 0.769312
O O3 0.587966 0.742489 0.477985
O O4 0.562394 0.234111 0.752169
O O5 0.617658 0.352966 0.338817
O O6 0.520444 0.240922 0.148793
O O7 0.852873 0.466570 0.088801
O O8 0.817333 0.340053 0.324696
O O9 0.854925 0.933344 0.114604
O O10 0.674892 0.720294 0.046431
O O11 0.942616 0.503793 0.696598
O O12 0.797945 0.498822 0.481718
O O13 0.000000 0.500000 0.500000
O O14 0.966779 0.969707 0.747399
O O15 0.789202 0.941578 0.603238
O O16 0.934722 0.455616 0.923510
O O17 0.500000 0.000000 0.000000
#
# Coordination Sequence:
#
# PCOD8022319 Si02
#       8
#     2   2   2   2   2   2   2   2
#     4  10  22  45  71 106 152 200 252 314 389 462
#     4  10  24  44  72 108 154 201 260 315 389 463
#     4  12  28  49  80 113 161 205 263 319 401 465
#     4  12  27  50  79 109 154 202 269 325 407 460
#     4  11  26  46  80 114 150 205 261 329 392 473
#     4  12  28  51  80 113 157 206 262 332 389 466
#     4  11  27  46  76 108 154 207 265 319 394 471
#     4  12  26  42  77 110 158 204 255 316 392 466
#
# _framework density 26.967835000000001
#
# number of rings (size 3 to 8) (size 9 to 14) (size 15 to 20)
#    0.000    0.750    2.500    3.000    5.250    8.500 
#    0.000    0.000    0.000    0.000    0.000    0.000 
#    0.000    0.000    0.000    0.000    0.000    0.000 
#
# Total GULP energy -198214.185704 kJ/mol
# GULP energy per Si atom -12388.386606 kJ/mol
# Density = 2.690646 g / cm^3
# Si number density = 26.967835 Si / 1000 Ang^3
#
#
#
# Elastic Constant Matrix: (Units=GPa)
#
#
# Indices 1 2 3 4 5 6 
#
# 1 111.9671 40.9828 56.9539 29.9233 6.7789 -11.8064
# 2 40.9828 92.9993 25.2234 37.9988 10.5677 -10.5630
# 3 56.9539 25.2234 145.8625 40.4694 -4.4838 3.9671
# 4 29.9233 37.9988 40.4694 52.0434 4.0904 -4.2620
# 5 6.7789 10.5677 -4.4838 4.0904 55.4630 4.2843
# 6 -11.8064 -10.5630 3.9671 -4.2620 4.2843 44.8070
#
#
#
# Elastic Compliance Matrix: (Units=1/GPa)
#
#
# Indices 1 2 3 4 5 6 
#
# 1 0.013182 -0.003643 -0.004306 -0.001214 -0.001409 0.003015
# 2 -0.003643 0.016956 0.001449 -0.011087 -0.002009 0.002047
# 3 -0.004306 0.001449 0.010347 -0.006978 0.001798 -0.002545
# 4 -0.001214 -0.011087 -0.006978 0.033579 -0.000854 0.000960
# 5 -0.001409 -0.002009 0.001798 -0.000854 0.019018 -0.002903
# 6 0.003015 0.002047 -0.002545 0.000960 -0.002903 0.024189
#
#
# Mechanical properties :
#
#
# Convention : Reuss Voigt Hill
#
# Bulk Modulus (GPa) = 36.38286 66.34989 51.36638
# Shear Modulus (GPa) = 35.85966 45.64060 40.75013
#
# Velocity S-wave (km/s) = 3.65049 4.11835 3.89146
# Velocity P-wave (km/s) = 5.59362 6.87540 6.26737
#
# Compressibility (1/GPa) = 0.02748547
#
# Stress axis : x y z
#
# Youngs Moduli (GPa) = 75.85858 58.97694 96.64698
#
# Poissons Ratio (x) = 0.21485 0.41615
# Poissons Ratio (y) = 0.27635 -0.14003
# Poissons Ratio (z) = 0.32664 -0.08545
#
# Static dielectric constant tensor:
#      x y z
#    x 5.521010 0.648320 0.201620 
#    y 0.648320 4.877920 0.130730 
#    z 0.201620 0.130730 5.573840 
# 
# 
# High freq. dielectric constant tensor:
#      x y z
#    x 2.098670 0.028310 -0.000070 
#    y 0.028310 2.071360 0.006630 
#    z -0.000070 0.006630 2.124680 
# 
# From -- ./inp_files/441578.got.cif
#   From: 2010.06.25/outbox.cif.g09.slc.cpg/sg2_221_cif.got.tgz:441578.got - 2010.06.27 13:26:56.
