data_PCOD8022458
_publ_section_title
;
Structure prediction by ZEFSAII (Michael W. Deem and Ramdas Pophale) SiO2 
 PCOD8022458
Probable space group: P -1
;
_chemical_formula_sum "Si O2"
_cell_formula_units_Z 12
_cell_length_a 15.179109
_cell_length_b 12.209818
_cell_length_c 10.064138
_cell_angle_alpha 66.858818
_cell_angle_beta 64.698673
_cell_angle_gamma 18.259391
_cell_volume 527.806396
_symmetry_space_group_name_H-M "P -1"
_symmetry_group_IT_number 2
_symmetry_cell_setting 'triclinic'
loop_
_space_group_symop_operation_xyz
x,y,z
-x,-y,-z
loop_
_atom_site_type_symbol
_atom_site_label
_atom_site_fract_x
_atom_site_fract_y
_atom_site_fract_z
Si Si1 0.830765 0.129909 0.431712
Si Si2 0.122596 0.357309 0.842058
Si Si3 0.662966 0.871805 0.659220
Si Si4 0.331942 0.869365 0.866937
Si Si5 0.105657 0.908191 0.119790
Si Si6 0.932052 0.776798 0.404528
O O1 0.500000 0.500000 0.500000
O O2 0.962991 0.845956 0.459657
O O3 0.000000 0.000000 0.500000
O O4 0.856682 0.182775 0.258264
O O5 0.862130 0.653854 0.765261
O O6 0.333228 0.227537 0.742529
O O7 0.324139 0.010428 0.863037
O O8 0.000000 0.500000 0.000000
O O9 0.679454 0.976311 0.517441
O O10 0.775579 0.635553 0.602909
O O11 0.652671 0.464233 0.814245
O O12 0.144474 0.072991 0.757464
O O13 0.221654 0.909878 0.037206
O O14 0.000000 0.000000 0.000000
#
# Coordination Sequence:
#
# PCOD8022458 Si02
#       6
#     2   2   2   2   2   2
#     4  12  27  43  66 102 142 172 220 289 347 393
#     4  11  24  43  64 102 137 173 220 282 346 400
#     4  10  24  42  72  96 129 181 230 275 332 410
#     4  10  23  41  72  95 133 180 235 280 325 417
#     4  11  23  44  70  97 129 187 238 267 336 416
#     4  10  22  46  68  98 133 179 230 280 338 408
#
# _framework density 22.735612
#
# number of rings (size 3 to 8) (size 9 to 14) (size 15 to 20)
#    0.000    1.333    1.667    2.500    4.667   12.667 
#    0.000    0.000    0.000    0.000    0.000    0.000 
#    0.000    0.000    0.000    0.000    0.000    0.000 
#
# Total GULP energy -148823.449030 kJ/mol
# GULP energy per Si atom -12401.954086 kJ/mol
# Density = 2.268386 g / cm^3
# Si number density = 22.735612 Si / 1000 Ang^3
#
#
#
# Elastic Constant Matrix: (Units=GPa)
#
#
# Indices 1 2 3 4 5 6 
#
# 1 128.4244 46.2802 52.6341 12.5188 9.5301 -0.6075
# 2 46.2802 62.6635 41.1937 13.7733 -7.9241 -12.8915
# 3 52.6341 41.1937 134.5728 30.9369 -5.8173 2.4419
# 4 12.5188 13.7733 30.9369 43.2324 -4.8404 -13.5477
# 5 9.5301 -7.9241 -5.8173 -4.8404 37.1607 1.7465
# 6 -0.6075 -12.8915 2.4419 -13.5477 1.7465 37.4498
#
#
#
# Elastic Compliance Matrix: (Units=1/GPa)
#
#
# Indices 1 2 3 4 5 6 
#
# 1 0.012250 -0.008698 -0.002160 -0.000652 -0.005295 -0.002643
# 2 -0.008698 0.028791 -0.005608 0.001393 0.007189 0.010304
# 3 -0.002160 -0.005608 0.011909 -0.007809 0.000468 -0.005589
# 4 -0.000652 0.001393 -0.007809 0.032769 0.002913 0.012697
# 5 -0.005295 0.007189 0.000468 0.002913 0.030160 0.002006
# 6 -0.002643 0.010304 -0.005589 0.012697 0.002006 0.035070
#
#
# Mechanical properties :
#
#
# Convention : Reuss Voigt Hill
#
# Bulk Modulus (GPa) = 49.95058 67.31964 58.63511
# Shear Modulus (GPa) = 26.23936 35.93876 31.08906
#
# Velocity S-wave (km/s) = 3.40090 3.98015 3.70187
# Velocity P-wave (km/s) = 6.11877 7.12714 6.64212
#
# Compressibility (1/GPa) = 0.02001979
#
# Stress axis : x y z
#
# Youngs Moduli (GPa) = 81.63074 34.73299 83.96881
#
# Poissons Ratio (x) = 0.30209 0.18137
# Poissons Ratio (y) = 0.70999 0.47088
# Poissons Ratio (z) = 0.17632 0.19477
#
# Static dielectric constant tensor:
#      x y z
#    x 4.284750 0.161050 -0.375190 
#    y 0.161050 3.858470 0.035730 
#    z -0.375190 0.035730 4.548320 
# 
# 
# High freq. dielectric constant tensor:
#      x y z
#    x 1.906080 -0.006880 -0.017670 
#    y -0.006880 1.880150 0.004570 
#    z -0.017670 0.004570 1.909690 
# 
# From -- ./inp_files/25757.got.cif
#   From: 2010.06.25/outbox.cif.g09.slc.cpg/sg2_13_cif.got.tgz:25757.got - 2010.06.27 13:26:56.
