data_PCOD8022400
_publ_section_title
;
Structure prediction by ZEFSAII (Michael W. Deem and Ramdas Pophale) SiO2 
 PCOD8022400
Probable space group: P -1
;
_chemical_formula_sum "Si O2"
_cell_formula_units_Z 16
_cell_length_a 18.885446
_cell_length_b 10.209342
_cell_length_c 12.862308
_cell_angle_alpha 33.946115
_cell_angle_beta 34.509373
_cell_angle_gamma 33.396435
_cell_volume 689.035618
_symmetry_space_group_name_H-M "P -1"
_symmetry_group_IT_number 2
_symmetry_cell_setting 'triclinic'
loop_
_space_group_symop_operation_xyz
x,y,z
-x,-y,-z
loop_
_atom_site_type_symbol
_atom_site_label
_atom_site_fract_x
_atom_site_fract_y
_atom_site_fract_z
Si Si1 0.575481 0.204878 0.057289
Si Si2 0.070571 0.716429 0.934886
Si Si3 0.300844 0.237250 0.415149
Si Si4 0.853114 0.123895 0.466646
Si Si5 0.307148 0.718917 0.769999
Si Si6 0.434593 0.814446 0.166769
Si Si7 0.213655 0.784974 0.061968
Si Si8 0.909779 0.407282 0.395958
O O1 0.474526 0.092326 0.301982
O O2 0.500000 0.500000 0.000000
O O3 0.584213 0.179843 0.939043
O O4 0.735022 0.086006 0.990675
O O5 0.150106 0.691060 0.746610
O O6 0.186030 0.641156 0.936004
O O7 0.950254 0.022047 0.891778
O O8 0.006878 0.513208 0.151264
O O9 0.237761 0.485161 0.248557
O O10 0.223482 0.353495 0.542525
O O11 0.272214 0.996299 0.571128
O O12 0.715502 0.080981 0.662739
O O13 0.844497 0.288126 0.471459
O O14 0.993292 0.832435 0.484151
O O15 0.463574 0.478794 0.716492
O O16 0.305955 0.768495 0.861376
O O17 0.500000 0.000000 0.000000
#
# Coordination Sequence:
#
# PCOD8022400 Si02
#       8
#     2   2   2   2   2   2   2   2
#     4  10  22  45  76 101 137 188 238 292 352 414
#     4  12  26  45  68 106 145 189 237 291 357 428
#     4  11  23  43  76 105 131 183 240 296 359 404
#     4  11  26  46  72  98 151 192 231 289 364 429
#     4  12  27  45  70 104 142 184 242 292 361 420
#     4  12  27  50  74 105 151 187 234 297 362 434
#     4  11  23  46  72 103 144 179 242 306 345 416
#     4  11  24  45  73 108 137 187 246 293 351 425
#
# _framework density 23.220859999999998
#
# number of rings (size 3 to 8) (size 9 to 14) (size 15 to 20)
#    0.000    0.750    5.000    3.000    3.500    3.500 
#    4.500    0.000    0.000    0.000    0.000    0.000 
#    0.000    0.000    0.000    0.000    0.000    0.000 
#
# Total GULP energy -198341.998842 kJ/mol
# GULP energy per Si atom -12396.374928 kJ/mol
# Density = 2.316801 g / cm^3
# Si number density = 23.220860 Si / 1000 Ang^3
#
#
#
# Elastic Constant Matrix: (Units=GPa)
#
#
# Indices 1 2 3 4 5 6 
#
# 1 91.6735 14.0297 24.1196 -3.6927 1.6289 -10.2482
# 2 14.0297 72.0413 13.8274 -4.8984 2.8033 -7.1964
# 3 24.1196 13.8274 130.0667 -0.6201 -7.5186 2.6191
# 4 -3.6927 -4.8984 -0.6201 41.0616 1.8242 -1.2090
# 5 1.6289 2.8033 -7.5186 1.8242 31.0288 3.7869
# 6 -10.2482 -7.1964 2.6191 -1.2090 3.7869 24.5797
#
#
#
# Elastic Compliance Matrix: (Units=1/GPa)
#
#
# Indices 1 2 3 4 5 6 
#
# 1 0.012411 -0.001271 -0.002376 0.001169 -0.001840 0.005397
# 2 -0.001271 0.015105 -0.001588 0.001901 -0.002346 0.004517
# 3 -0.002376 -0.001588 0.008508 -0.000477 0.002700 -0.002801
# 4 0.001169 0.001901 -0.000477 0.024851 -0.002133 0.002646
# 5 -0.001840 -0.002346 0.002700 -0.002133 0.034184 -0.007113
# 6 0.005397 0.004517 -0.002801 0.002646 -0.007113 0.045781
#
#
# Mechanical properties :
#
#
# Convention : Reuss Voigt Hill
#
# Bulk Modulus (GPa) = 39.13100 44.19277 41.66188
# Shear Modulus (GPa) = 31.28391 35.45433 33.36912
#
# Velocity S-wave (km/s) = 3.67445 3.91171 3.79493
# Velocity P-wave (km/s) = 5.90680 6.28289 6.09775
#
# Compressibility (1/GPa) = 0.02555519
#
# Stress axis : x y z
#
# Youngs Moduli (GPa) = 80.57410 66.20404 117.53770
#
# Poissons Ratio (x) = 0.08413 0.27925
# Poissons Ratio (y) = 0.10239 0.18660
# Poissons Ratio (z) = 0.19143 0.10511
#
# Static dielectric constant tensor:
#      x y z
#    x 4.899360 -0.312880 -0.443370 
#    y -0.312880 4.165240 0.133490 
#    z -0.443370 0.133490 4.530730 
# 
# 
# High freq. dielectric constant tensor:
#      x y z
#    x 1.912230 -0.005600 -0.007430 
#    y -0.005600 1.913280 0.006140 
#    z -0.007430 0.006140 1.928940 
# 
# From -- ./inp_files/461793.got.cif
#   From: 2010.06.25/outbox.cif.g09.slc.cpg/sg2_231_cif.got.tgz:461793.got - 2010.06.27 13:26:56.
