data_PCOD8022617
_publ_section_title
;
Structure prediction by ZEFSAII (Michael W. Deem and Ramdas Pophale) SiO2 
 PCOD8022617
Probable space group: P -1
;
_chemical_formula_sum "Si O2"
_cell_formula_units_Z 16
_cell_length_a 13.706645
_cell_length_b 11.427757
_cell_length_c 14.844685
_cell_angle_alpha 55.087882
_cell_angle_beta 28.851853
_cell_angle_gamma 43.863716
_cell_volume 765.230010
_symmetry_space_group_name_H-M "P -1"
_symmetry_group_IT_number 2
_symmetry_cell_setting 'triclinic'
loop_
_space_group_symop_operation_xyz
x,y,z
-x,-y,-z
loop_
_atom_site_type_symbol
_atom_site_label
_atom_site_fract_x
_atom_site_fract_y
_atom_site_fract_z
Si Si1 0.374992 0.634917 0.299622
Si Si2 0.888829 0.245289 0.363083
Si Si3 0.931113 0.084799 0.893958
Si Si4 0.543702 0.028970 0.169502
Si Si5 0.216948 0.729062 0.893628
Si Si6 0.368544 0.189904 0.058401
Si Si7 0.046872 0.097231 0.593341
Si Si8 0.989076 0.669931 0.945291
O O1 0.336625 0.664608 0.425443
O O2 0.503305 0.432543 0.263908
O O3 0.122427 0.734938 0.404569
O O4 0.549964 0.695977 0.103963
O O5 0.083746 0.277009 0.235148
O O6 0.825363 0.328863 0.277462
O O7 0.987188 0.045672 0.359666
O O8 0.958481 0.138594 0.749308
O O9 0.702482 0.064961 0.092085
O O10 0.878656 0.231092 0.943364
O O11 0.174954 0.901945 0.806441
O O12 0.431707 0.175287 0.119403
O O13 0.325476 0.037684 0.394751
O O14 0.718794 0.837618 0.069526
O O15 0.064062 0.673694 0.984960
O O16 0.500000 0.000000 0.000000
O O17 0.000000 0.500000 0.000000
#
# Coordination Sequence:
#
# PCOD8022617 Si02
#       8
#     2   2   2   2   2   2   2   2
#     4  12  24  37  65 101 127 165 214 264 323 378
#     4  12  23  36  62  98 134 165 206 261 326 386
#     4  10  22  50  66  85 128 174 220 261 318 374
#     4  11  22  39  64  92 125 170 213 257 320 382
#     4  10  24  44  68  88 128 175 214 267 313 377
#     4  12  19  37  59  92 135 168 200 258 324 382
#     4  12  22  39  68  97 124 171 215 259 324 383
#     4  11  23  41  62  96 131 172 211 261 321 380
#
# _framework density 20.908745
#
# number of rings (size 3 to 8) (size 9 to 14) (size 15 to 20)
#    0.000    0.750    7.500    1.875    1.750    2.000 
#    0.000    8.750    0.000    0.000    0.000    0.000 
#    0.000    0.000    0.000    0.000    0.000    0.000 
#
# Total GULP energy -198367.143381 kJ/mol
# GULP energy per Si atom -12397.946461 kJ/mol
# Density = 2.086116 g / cm^3
# Si number density = 20.908745 Si / 1000 Ang^3
#
#
#
# Elastic Constant Matrix: (Units=GPa)
#
#
# Indices 1 2 3 4 5 6 
#
# 1 106.9706 50.8076 57.2569 3.1892 24.1458 8.6892
# 2 50.8076 105.0096 42.2855 15.4225 11.5498 4.6419
# 3 57.2569 42.2855 121.5654 -2.4496 11.6822 2.8552
# 4 3.1892 15.4225 -2.4496 21.1294 9.3814 3.0798
# 5 24.1458 11.5498 11.6822 9.3814 33.4697 7.7300
# 6 8.6892 4.6419 2.8552 3.0798 7.7300 25.8364
#
#
#
# Elastic Compliance Matrix: (Units=1/GPa)
#
#
# Indices 1 2 3 4 5 6 
#
# 1 0.016906 -0.005952 -0.004804 0.005797 -0.009655 -0.001888
# 2 -0.005952 0.014969 -0.002982 -0.011934 0.003511 0.000014
# 3 -0.004804 -0.002982 0.011703 0.004626 -0.001029 0.000614
# 4 0.005797 -0.011934 0.004626 0.064579 -0.019260 -0.002252
# 5 -0.009655 0.003511 -0.001029 -0.019260 0.043215 -0.007904
# 6 -0.001888 0.000014 0.000614 -0.002252 -0.007904 0.041903
#
#
# Mechanical properties :
#
#
# Convention : Reuss Voigt Hill
#
# Bulk Modulus (GPa) = 62.09357 70.47171 66.28264
# Shear Modulus (GPa) = 22.11234 28.30015 25.20625
#
# Velocity S-wave (km/s) = 3.25555 3.68300 3.47585
# Velocity P-wave (km/s) = 6.62521 7.20163 6.91943
#
# Compressibility (1/GPa) = 0.01610473
#
# Stress axis : x y z
#
# Youngs Moduli (GPa) = 59.14976 66.80312 85.44534
#
# Poissons Ratio (x) = 0.39759 0.41044
# Poissons Ratio (y) = 0.35204 0.25479
# Poissons Ratio (z) = 0.28413 0.19920
#
# Static dielectric constant tensor:
#      x y z
#    x 3.960970 -0.199610 0.095050 
#    y -0.199610 3.841280 0.023460 
#    z 0.095050 0.023460 3.772900 
# 
# 
# High freq. dielectric constant tensor:
#      x y z
#    x 1.823020 -0.016350 0.011200 
#    y -0.016350 1.805700 0.001920 
#    z 0.011200 0.001920 1.805670 
# 
# From -- ./inp_files/472197.got.cif
#   From: 2010.06.25/outbox.cif.g09.slc.cpg/sg2_237_cif.got.tgz:472197.got - 2010.06.27 13:26:56.
