data_PCOD8022992
_publ_section_title
;
Structure prediction by ZEFSAII (Michael W. Deem and Ramdas Pophale) SiO2 
 PCOD8022992
Probable space group: P -1
;
_chemical_formula_sum "Si O2"
_cell_formula_units_Z 12
_cell_length_a 9.946597
_cell_length_b 12.819595
_cell_length_c 10.988876
_cell_angle_alpha 40.918677
_cell_angle_beta 39.998011
_cell_angle_gamma 36.414470
_cell_volume 497.817822
_symmetry_space_group_name_H-M "P -1"
_symmetry_group_IT_number 2
_symmetry_cell_setting 'triclinic'
loop_
_space_group_symop_operation_xyz
x,y,z
-x,-y,-z
loop_
_atom_site_type_symbol
_atom_site_label
_atom_site_fract_x
_atom_site_fract_y
_atom_site_fract_z
Si Si1 0.497625 0.697376 0.919883
Si Si2 0.803310 0.025526 0.711812
Si Si3 0.526261 0.936724 0.295872
Si Si4 0.778555 0.294171 0.671504
Si Si5 0.179501 0.888666 0.752540
Si Si6 0.972495 0.546342 0.336699
O O1 0.301543 0.742180 0.907740
O O2 0.765900 0.530262 0.840707
O O3 0.493733 0.885272 0.785252
O O4 0.423628 0.623354 0.153018
O O5 0.595820 0.002774 0.809160
O O6 0.679869 0.234282 0.675531
O O7 0.000000 0.000000 0.500000
O O8 0.969416 0.870380 0.839702
O O9 0.396410 0.856427 0.539280
O O10 0.812158 0.770999 0.228971
O O11 0.834967 0.451398 0.453799
O O12 0.033907 0.106824 0.708982
O O13 0.000000 0.500000 0.500000
#
# Coordination Sequence:
#
# PCOD8022992 Si02
#       6
#     2   2   2   2   2   2
#     4  12  22  42  66  94 128 161 209 267 308 369
#     4   8  18  38  63  92 121 168 207 249 313 377
#     4  11  21  40  68  89 127 168 208 254 313 377
#     4  10  23  40  64  94 128 162 209 261 315 366
#     4   9  18  39  63  88 121 166 200 255 310 360
#     4  12  24  40  63  97 126 164 211 258 316 372
#
# _framework density 24.105201999999998
#
# number of rings (size 3 to 8) (size 9 to 14) (size 15 to 20)
#    1.000    0.667    3.333    2.000    0.000    2.000 
#    3.000    0.833    0.000    0.000    0.000    0.000 
#    0.000    0.000    0.000    0.000    0.000    0.000 
#
# Total GULP energy -148712.217785 kJ/mol
# GULP energy per Si atom -12392.684815 kJ/mol
# Density = 2.405034 g / cm^3
# Si number density = 24.105202 Si / 1000 Ang^3
#
#
#
# Elastic Constant Matrix: (Units=GPa)
#
#
# Indices 1 2 3 4 5 6 
#
# 1 150.2677 43.1677 18.8274 8.9408 15.3261 -9.2642
# 2 43.1677 138.5859 25.1355 33.1776 -0.6071 -13.1825
# 3 18.8274 25.1355 42.4543 15.0972 15.3846 6.3036
# 4 8.9408 33.1776 15.0972 30.2942 9.5767 2.0060
# 5 15.3261 -0.6071 15.3846 9.5767 26.5876 4.1348
# 6 -9.2642 -13.1825 6.3036 2.0060 4.1348 33.9342
#
#
#
# Elastic Compliance Matrix: (Units=1/GPa)
#
#
# Indices 1 2 3 4 5 6 
#
# 1 0.008117 -0.002844 -0.001297 0.002930 -0.005333 0.001829
# 2 -0.002844 0.012950 -0.005631 -0.013840 0.009405 0.004973
# 3 -0.001297 -0.005631 0.036938 -0.005845 -0.017574 -0.006916
# 4 0.002930 -0.013840 -0.005845 0.056265 -0.018174 -0.004602
# 5 -0.005333 0.009405 -0.017574 -0.018174 0.057692 -0.000493
# 6 0.001829 0.004973 -0.006916 -0.004602 -0.000493 0.033517
#
#
# Mechanical properties :
#
#
# Convention : Reuss Voigt Hill
#
# Bulk Modulus (GPa) = 26.00034 56.17436 41.08735
# Shear Modulus (GPa) = 21.02237 34.44167 27.73202
#
# Velocity S-wave (km/s) = 2.95635 3.78406 3.39552
# Velocity P-wave (km/s) = 4.73951 6.51510 5.69691
#
# Compressibility (1/GPa) = 0.03846103
#
# Stress axis : x y z
#
# Youngs Moduli (GPa) = 123.20491 77.21744 27.07272
#
# Poissons Ratio (x) = 0.21960 0.03510
# Poissons Ratio (y) = 0.35039 0.15245
# Poissons Ratio (z) = 0.15974 0.43483
#
# Static dielectric constant tensor:
#      x y z
#    x 4.892070 -0.007010 0.034790 
#    y -0.007010 4.329900 0.331400 
#    z 0.034790 0.331400 4.034890 
# 
# 
# High freq. dielectric constant tensor:
#      x y z
#    x 1.957540 0.008030 -0.001710 
#    y 0.008030 1.952970 0.026890 
#    z -0.001710 0.026890 1.944130 
# 
# From -- ./inp_files/430880.got.cif
#   From: 2010.06.25/outbox.cif.g09.slc.cpg/sg2_216_cif.got.tgz:430880.got - 2010.06.27 13:26:56.
