data_PCOD8022604
_publ_section_title
;
Structure prediction by ZEFSAII (Michael W. Deem and Ramdas Pophale) SiO2 
 PCOD8022604
Probable space group: P -1
;
_chemical_formula_sum "Si O2"
_cell_formula_units_Z 12
_cell_length_a 10.195811
_cell_length_b 10.978053
_cell_length_c 6.496828
_cell_angle_alpha 100.452919
_cell_angle_beta 76.143898
_cell_angle_gamma 56.768536
_cell_volume 545.044261
_symmetry_space_group_name_H-M "P -1"
_symmetry_group_IT_number 2
_symmetry_cell_setting 'triclinic'
loop_
_space_group_symop_operation_xyz
x,y,z
-x,-y,-z
loop_
_atom_site_type_symbol
_atom_site_label
_atom_site_fract_x
_atom_site_fract_y
_atom_site_fract_z
Si Si1 0.312218 0.107123 0.507355
Si Si2 0.699053 0.523594 0.958890
Si Si3 0.857471 0.036942 0.407397
Si Si4 0.966648 0.757302 0.041417
Si Si5 0.402212 0.609869 0.376692
Si Si6 0.847324 0.661771 0.714718
O O1 0.170960 0.238825 0.763507
O O2 0.297770 0.205659 0.346943
O O3 0.500000 0.000000 0.500000
O O4 0.263199 0.993115 0.434285
O O5 0.684723 0.452009 0.734615
O O6 0.746835 0.635309 0.909632
O O7 0.841413 0.385693 0.012057
O O8 0.523102 0.621817 0.184106
O O9 0.746856 0.216340 0.426859
O O10 0.938396 0.921589 0.139730
O O11 0.000000 0.000000 0.500000
O O12 0.933155 0.733289 0.813207
O O13 0.500000 0.500000 0.500000
O O14 0.000000 0.500000 0.500000
#
# Coordination Sequence:
#
# PCOD8022604 Si02
#       6
#     2   2   2   2   2   2
#     4  10  25  43  68 107 143 181 234 294 351 410
#     4  11  25  44  70 108 138 181 245 281 355 422
#     4  10  22  48  71  97 146 182 231 292 347 425
#     4  10  24  43  69 104 138 184 237 281 353 418
#     4  11  26  45  73 102 139 185 233 297 348 422
#     4  12  25  43  76 100 140 190 232 290 350 420
#
# _framework density 22.016563000000001
#
# number of rings (size 3 to 8) (size 9 to 14) (size 15 to 20)
#    1.000    0.333    3.333    0.500    7.000    0.667 
#    6.000    1.667    0.000    0.000    0.000    0.000 
#    0.000    0.000    0.000    0.000    0.000    0.000 
#
# Total GULP energy -148753.281181 kJ/mol
# GULP energy per Si atom -12396.106765 kJ/mol
# Density = 2.196645 g / cm^3
# Si number density = 22.016563 Si / 1000 Ang^3
#
#
#
# Elastic Constant Matrix: (Units=GPa)
#
#
# Indices 1 2 3 4 5 6 
#
# 1 132.3401 49.9936 31.8764 2.9384 28.1269 -13.0145
# 2 49.9936 158.2004 33.6562 -4.8963 32.0457 -16.2476
# 3 31.8764 33.6562 70.0241 6.9659 35.1338 1.8533
# 4 2.9384 -4.8963 6.9659 34.1711 4.0702 4.1240
# 5 28.1269 32.0457 35.1338 4.0702 38.9462 -3.2431
# 6 -13.0145 -16.2476 1.8533 4.1240 -3.2431 38.2827
#
#
#
# Elastic Compliance Matrix: (Units=1/GPa)
#
#
# Indices 1 2 3 4 5 6 
#
# 1 0.009657 -0.001696 -0.001677 -0.000566 -0.003808 0.002383
# 2 -0.001696 0.008340 -0.001207 0.001833 -0.004537 0.002440
# 3 -0.001677 -0.001207 0.027235 -0.002419 -0.022449 -0.004042
# 4 -0.000566 0.001833 -0.002419 0.030688 -0.002358 -0.002803
# 5 -0.003808 -0.004537 -0.022449 -0.002358 0.052875 0.002600
# 6 0.002383 0.002440 -0.004042 -0.002803 0.002600 0.028685
#
#
# Mechanical properties :
#
#
# Convention : Reuss Voigt Hill
#
# Bulk Modulus (GPa) = 27.72178 65.73524 46.72851
# Shear Modulus (GPa) = 27.98536 38.61588 33.30062
#
# Velocity S-wave (km/s) = 3.56912 4.19256 3.89334
# Velocity P-wave (km/s) = 5.44091 7.30471 6.44058
#
# Compressibility (1/GPa) = 0.03607272
#
# Stress axis : x y z
#
# Youngs Moduli (GPa) = 103.54828 119.89991 36.71694
#
# Poissons Ratio (x) = 0.20341 0.06157
# Poissons Ratio (y) = 0.17567 0.04431
# Poissons Ratio (z) = 0.17362 0.14471
#
# Static dielectric constant tensor:
#      x y z
#    x 4.013400 -0.186340 0.127740 
#    y -0.186340 3.236710 0.201010 
#    z 0.127740 0.201010 3.898170 
# 
# 
# High freq. dielectric constant tensor:
#      x y z
#    x 1.878800 -0.004820 0.009170 
#    y -0.004820 1.865780 0.008100 
#    z 0.009170 0.008100 1.852110 
# 
# From -- ./inp_files/28078.got.cif
#   From: 2010.06.25/outbox.cif.g09.slc.cpg/sg2_15_cif.got.tgz:28078.got - 2010.06.27 13:26:56.
