data_PCOD8022481
_publ_section_title
;
Structure prediction by ZEFSAII (Michael W. Deem and Ramdas Pophale) SiO2 
 PCOD8022481
Probable space group: P -1
;
_chemical_formula_sum "Si O2"
_cell_formula_units_Z 12
_cell_length_a 13.389722
_cell_length_b 10.533529
_cell_length_c 12.782895
_cell_angle_alpha 145.139453
_cell_angle_beta 148.025694
_cell_angle_gamma 31.958018
_cell_volume 471.496645
_symmetry_space_group_name_H-M "P -1"
_symmetry_group_IT_number 2
_symmetry_cell_setting 'triclinic'
loop_
_space_group_symop_operation_xyz
x,y,z
-x,-y,-z
loop_
_atom_site_type_symbol
_atom_site_label
_atom_site_fract_x
_atom_site_fract_y
_atom_site_fract_z
Si Si1 0.624274 0.409895 0.191902
Si Si2 0.928885 0.816977 0.868352
Si Si3 0.706648 0.527704 0.683059
Si Si4 0.258956 0.368235 0.729538
Si Si5 0.116019 0.132270 0.889937
Si Si6 0.487086 0.166139 0.479673
O O1 0.791943 0.466243 0.311328
O O2 0.452381 0.668868 0.276522
O O3 0.763034 0.171506 0.231957
O O4 0.495638 0.316757 0.940765
O O5 0.075635 0.522611 0.757523
O O6 0.676512 0.923119 0.675764
O O7 0.959122 0.818705 0.021476
O O8 0.000000 0.000000 0.000000
O O9 0.500000 0.500000 0.500000
O O10 0.687524 0.616267 0.606825
O O11 0.914845 0.255651 0.714085
O O12 0.727765 0.747518 0.915913
O O13 0.298967 0.079547 0.546768
#
# Coordination Sequence:
#
# PCOD8022481 Si02
#       6
#     2   2   2   2   2   2
#     4  11  22  43  68  99 142 176 224 293 340 423
#     4  11  21  42  69  99 138 180 223 285 352 411
#     4  10  23  45  70  98 140 184 240 287 341 415
#     4  11  22  42  67 100 142 178 219 278 362 414
#     4  10  22  46  70 102 142 180 235 293 342 414
#     4  11  25  44  65 105 135 179 240 279 340 428
#
# _framework density 25.450869999999998
#
# number of rings (size 3 to 8) (size 9 to 14) (size 15 to 20)
#    0.000    1.333    5.000    1.500    2.333    2.667 
#    0.000    5.000    0.000    0.000    0.000    0.000 
#    0.000    0.000    0.000    0.000    0.000    0.000 
#
# Total GULP energy -148683.289372 kJ/mol
# GULP energy per Si atom -12390.274114 kJ/mol
# Density = 2.539294 g / cm^3
# Si number density = 25.450870 Si / 1000 Ang^3
#
#
#
# Elastic Constant Matrix: (Units=GPa)
#
#
# Indices 1 2 3 4 5 6 
#
# 1 33.1326 28.8556 21.6211 25.0071 10.2533 -13.9375
# 2 28.8556 158.8673 44.5434 43.0621 -4.5475 1.5340
# 3 21.6211 44.5434 93.7987 25.1847 3.1182 -6.6148
# 4 25.0071 43.0621 25.1847 39.2397 -14.9989 -8.4120
# 5 10.2533 -4.5475 3.1182 -14.9989 35.6786 10.1462
# 6 -13.9375 1.5340 -6.6148 -8.4120 10.1462 45.8460
#
#
#
# Elastic Compliance Matrix: (Units=1/GPa)
#
#
# Indices 1 2 3 4 5 6 
#
# 1 -2.969886 -0.093728 -0.155292 2.770109 2.280870 -0.918640
# 2 -0.093728 0.006737 -0.006605 0.076429 0.069314 -0.030989
# 3 -0.155292 -0.006605 0.006107 0.135746 0.113489 -0.046316
# 4 2.770109 0.076429 0.135746 -2.531827 -2.107391 0.860994
# 5 2.280870 0.069314 0.113489 -2.107391 -1.713516 0.699998
# 6 -0.918640 -0.030989 -0.046316 0.860994 0.699998 -0.260043
#
#
# Mechanical properties :
#
#
# Convention : Reuss Voigt Hill
#
# Bulk Modulus (GPa) = -0.28833 52.87099 26.29133
# Shear Modulus (GPa) = -0.61673 36.87143 18.12735
#
# Velocity S-wave (km/s) = -0.49280 3.81035 2.67169
# Velocity P-wave (km/s) = 0.66131 6.33855 4.45757
#
# Compressibility (1/GPa) = -3.46829085
#
# Stress axis : x y z
#
# Youngs Moduli (GPa) = -0.33671 148.42505 163.75062
#
# Poissons Ratio (x) = 13.91156 25.42908
# Poissons Ratio (y) = -0.03156 1.08160
# Poissons Ratio (z) = -0.05229 0.98038
#
# Static dielectric constant tensor:
#      x y z
#    x 5.840900 1.166570 0.658880 
#    y 1.166570 5.183670 0.415190 
#    z 0.658880 0.415190 5.000540 
# 
# 
# High freq. dielectric constant tensor:
#      x y z
#    x 1.979440 0.020540 0.001600 
#    y 0.020540 2.027560 0.005820 
#    z 0.001600 0.005820 2.027120 
# 
# From -- ./inp_files/530821.got.cif
#   From: 2010.06.25/outbox.cif.g09.slc.cpg/sg2_266_cif.got.tgz:530821.got - 2010.06.27 13:26:56.
