data_PCOD8022093
_publ_section_title
;
Structure prediction by ZEFSAII (Michael W. Deem and Ramdas Pophale) SiO2 
 PCOD8022093
Probable space group: P -1
;
_chemical_formula_sum "Si O2"
_cell_formula_units_Z 12
_cell_length_a 8.616503
_cell_length_b 10.821639
_cell_length_c 9.046120
_cell_angle_alpha 124.696843
_cell_angle_beta 130.446167
_cell_angle_gamma 48.844256
_cell_volume 468.174439
_symmetry_space_group_name_H-M "P -1"
_symmetry_group_IT_number 2
_symmetry_cell_setting 'triclinic'
loop_
_space_group_symop_operation_xyz
x,y,z
-x,-y,-z
loop_
_atom_site_type_symbol
_atom_site_label
_atom_site_fract_x
_atom_site_fract_y
_atom_site_fract_z
Si Si1 0.057489 0.921256 0.642500
Si Si2 0.287262 0.008265 0.286481
Si Si3 0.437860 0.560627 0.334083
Si Si4 0.843622 0.624900 0.614793
Si Si5 0.515115 0.227828 0.022892
Si Si6 0.005731 0.339912 0.735292
O O1 0.317014 0.884808 0.817585
O O2 0.882519 0.028382 0.736676
O O3 0.027981 0.750074 0.494347
O O4 0.000000 0.000000 0.500000
O O5 0.152728 0.195281 0.256232
O O6 0.500000 0.000000 0.500000
O O7 0.371585 0.856613 0.118700
O O8 0.500000 0.500000 0.500000
O O9 0.576298 0.664541 0.448309
O O10 0.504801 0.411584 0.153732
O O11 0.158730 0.668299 0.240058
O O12 0.000000 0.500000 0.500000
O O13 0.935989 0.531592 0.767917
O O14 0.262271 0.243021 0.893511
#
# Coordination Sequence:
#
# PCOD8022093 Si02
#       6
#     2   2   2   2   2   2
#     4  12  27  49  78 111 157 200 254 320 383 459
#     4  12  26  49  77 118 156 198 258 320 381 460
#     4  10  22  44  75 108 151 196 254 312 372 450
#     4  11  21  46  77 105 156 198 246 322 372 444
#     4  12  24  50  80 113 151 205 258 312 393 451
#     4  11  24  47  75 112 151 197 264 311 378 451
#
# _framework density 25.631473
#
# number of rings (size 3 to 8) (size 9 to 14) (size 15 to 20)
#    0.000    0.667    6.667    1.000    2.333    0.667 
#    9.000    7.500    0.000    0.000    0.000    0.000 
#    0.000    0.000    0.000    0.000    0.000    0.000 
#
# Total GULP energy -148732.963572 kJ/mol
# GULP energy per Si atom -12394.413631 kJ/mol
# Density = 2.557313 g / cm^3
# Si number density = 25.631473 Si / 1000 Ang^3
#
#
#
# Elastic Constant Matrix: (Units=GPa)
#
#
# Indices 1 2 3 4 5 6 
#
# 1 175.1574 62.0966 54.9382 -14.9968 12.7492 -27.3409
# 2 62.0966 74.0641 46.7012 -3.6190 -2.9005 -23.0441
# 3 54.9382 46.7012 153.7329 -10.5111 13.3832 -28.6957
# 4 -14.9968 -3.6190 -10.5111 60.5942 -25.6011 0.6131
# 5 12.7492 -2.9005 13.3832 -25.6011 36.0833 -6.4613
# 6 -27.3409 -23.0441 -28.6957 0.6131 -6.4613 46.3286
#
#
#
# Elastic Compliance Matrix: (Units=1/GPa)
#
#
# Indices 1 2 3 4 5 6 
#
# 1 0.008665 -0.006663 -0.000602 0.000405 -0.002905 0.001016
# 2 -0.006663 0.024460 -0.004392 0.002865 0.009193 0.006758
# 3 -0.000602 -0.004392 0.008769 -0.000232 -0.003117 0.002460
# 4 0.000405 0.002865 -0.000232 0.024351 0.018118 0.003725
# 5 -0.002905 0.009193 -0.003117 0.018118 0.044730 0.006926
# 6 0.001016 0.006758 0.002460 0.003725 0.006926 0.027986
#
#
# Mechanical properties :
#
#
# Convention : Reuss Voigt Hill
#
# Bulk Modulus (GPa) = 53.82411 81.15848 67.49130
# Shear Modulus (GPa) = 29.67900 44.54913 37.11407
#
# Velocity S-wave (km/s) = 3.40650 4.17353 3.80937
# Velocity P-wave (km/s) = 6.04294 7.41329 6.76291
#
# Compressibility (1/GPa) = 0.01857904
#
# Stress axis : x y z
#
# Youngs Moduli (GPa) = 115.40944 40.88233 114.03907
#
# Poissons Ratio (x) = 0.27239 0.06868
# Poissons Ratio (y) = 0.76896 0.50091
# Poissons Ratio (z) = 0.06951 0.17957
#
# Static dielectric constant tensor:
#      x y z
#    x 4.914930 -0.372860 0.337950 
#    y -0.372860 5.189560 0.332380 
#    z 0.337950 0.332380 4.886910 
# 
# 
# High freq. dielectric constant tensor:
#      x y z
#    x 2.024750 -0.026700 0.009430 
#    y -0.026700 2.021390 0.005500 
#    z 0.009430 0.005500 2.020750 
# 
# From -- ./inp_files/182901.got.cif
#   From: 2010.06.25/outbox.cif.g09.slc.cpg/sg2_92_cif.got.tgz:182901.got - 2010.06.27 13:26:56.
