data_PCOD8022468
_publ_section_title
;
Structure prediction by ZEFSAII (Michael W. Deem and Ramdas Pophale) SiO2 
 PCOD8022468
Probable space group: P -1
;
_chemical_formula_sum "Si O2"
_cell_formula_units_Z 12
_cell_length_a 22.000086
_cell_length_b 17.900014
_cell_length_c 5.561392
_cell_angle_alpha 43.938532
_cell_angle_beta 139.306303
_cell_angle_gamma 161.669502
_cell_volume 449.092490
_symmetry_space_group_name_H-M "P -1"
_symmetry_group_IT_number 2
_symmetry_cell_setting 'triclinic'
loop_
_space_group_symop_operation_xyz
x,y,z
-x,-y,-z
loop_
_atom_site_type_symbol
_atom_site_label
_atom_site_fract_x
_atom_site_fract_y
_atom_site_fract_z
Si Si1 0.021029 0.846514 0.339330
Si Si2 0.479904 0.814776 0.781960
Si Si3 0.938481 0.538165 0.882447
Si Si4 0.331791 0.799077 0.770410
Si Si5 0.857325 0.754723 0.574671
Si Si6 0.453548 0.356539 0.512478
O O1 0.096243 0.799977 0.710346
O O2 0.906687 0.760662 0.444750
O O3 0.219570 0.128375 0.241656
O O4 0.884715 0.707417 0.007756
O O5 0.286836 0.642931 0.431711
O O6 0.405006 0.764710 0.942105
O O7 0.673800 0.098926 0.654128
O O8 0.542499 0.754607 0.080075
O O9 0.898497 0.458037 0.221624
O O10 0.000000 0.500000 0.000000
O O11 0.500000 0.000000 0.000000
O O12 0.613022 0.528797 0.368637
O O13 0.000000 0.000000 0.500000
O O14 0.500000 0.500000 0.500000
#
# Coordination Sequence:
#
# PCOD8022468 Si02
#       6
#     2   2   2   2   2   2
#     4  12  29  50  81 115 157 208 258 326 397 463
#     4  10  22  46  69 104 152 194 255 318 382 457
#     4  11  25  44  70 110 150 198 250 319 392 462
#     4   9  21  41  71 100 140 194 244 313 381 449
#     4  12  27  54  78 112 160 204 266 328 380 464
#     4  12  27  49  79 114 155 212 264 322 393 468
#
# _framework density 26.720555000000001
#
# number of rings (size 3 to 8) (size 9 to 14) (size 15 to 20)
#    0.000    1.000    3.333    1.500    7.000    4.000 
#    3.000    0.000    0.000    0.000    0.000    0.000 
#    0.000    0.000    0.000    0.000    0.000    0.000 
#
# Total GULP energy -148675.078671 kJ/mol
# GULP energy per Si atom -12389.589889 kJ/mol
# Density = 2.665974 g / cm^3
# Si number density = 26.720555 Si / 1000 Ang^3
#
#
#
# Elastic Constant Matrix: (Units=GPa)
#
#
# Indices 1 2 3 4 5 6 
#
# 1 187.9625 45.0046 47.9583 -23.1049 -4.4982 3.7416
# 2 45.0046 117.1753 2.8078 -31.2064 -14.0553 11.3415
# 3 47.9583 2.8078 61.2739 -5.2876 -1.9676 3.3483
# 4 -23.1049 -31.2064 -5.2876 50.4032 -7.2243 -9.4213
# 5 -4.4982 -14.0553 -1.9676 -7.2243 51.0180 -16.5736
# 6 3.7416 11.3415 3.3483 -9.4213 -16.5736 51.5581
#
#
#
# Elastic Compliance Matrix: (Units=1/GPa)
#
#
# Indices 1 2 3 4 5 6 
#
# 1 0.007519 -0.002381 -0.005674 0.001543 0.000235 0.000704
# 2 -0.002381 0.011752 0.002058 0.007001 0.004117 0.000057
# 3 -0.005674 0.002058 0.020809 0.000751 0.000634 -0.001051
# 4 0.001543 0.007001 0.000751 0.027160 0.007816 0.005775
# 5 0.000235 0.004117 0.000634 0.007816 0.024608 0.008375
# 6 0.000704 0.000057 -0.001051 0.005775 0.008375 0.023148
#
#
# Mechanical properties :
#
#
# Convention : Reuss Voigt Hill
#
# Bulk Modulus (GPa) = 35.60256 61.99478 48.79867
# Shear Modulus (GPa) = 36.66967 48.63861 42.65414
#
# Velocity S-wave (km/s) = 3.70853 4.27109 3.99971
# Velocity P-wave (km/s) = 5.62944 6.89743 6.29544
#
# Compressibility (1/GPa) = 0.02808787
#
# Stress axis : x y z
#
# Youngs Moduli (GPa) = 132.99175 85.08872 48.05535
#
# Poissons Ratio (x) = 0.20260 0.27266
# Poissons Ratio (y) = 0.31667 -0.09892
# Poissons Ratio (z) = 0.75458 -0.17515
#
# Static dielectric constant tensor:
#      x y z
#    x 4.655880 -0.017460 -0.217740 
#    y -0.017460 5.703390 -0.810310 
#    z -0.217740 -0.810310 6.339760 
# 
# 
# High freq. dielectric constant tensor:
#      x y z
#    x 2.061640 -0.002620 0.005750 
#    y -0.002620 2.105670 -0.013700 
#    z 0.005750 -0.013700 2.090640 
# 
# From -- ./inp_files/119845.got.cif
#   From: 2010.06.25/outbox.cif.g09.slc.cpg/sg2_60_cif.got.tgz:119845.got - 2010.06.27 13:26:56.
