data_PCOD8022255
_publ_section_title
;
Structure prediction by ZEFSAII (Michael W. Deem and Ramdas Pophale) SiO2 
 PCOD8022255
Probable space group: P -1
;
_chemical_formula_sum "Si O2"
_cell_formula_units_Z 16
_cell_length_a 13.574229
_cell_length_b 11.414856
_cell_length_c 17.450242
_cell_angle_alpha 52.157961
_cell_angle_beta 32.263254
_cell_angle_gamma 31.220915
_cell_volume 686.892249
_symmetry_space_group_name_H-M "P -1"
_symmetry_group_IT_number 2
_symmetry_cell_setting 'triclinic'
loop_
_space_group_symop_operation_xyz
x,y,z
-x,-y,-z
loop_
_atom_site_type_symbol
_atom_site_label
_atom_site_fract_x
_atom_site_fract_y
_atom_site_fract_z
Si Si1 0.648683 0.369847 0.834890
Si Si2 0.219125 0.834593 0.628537
Si Si3 0.291201 0.174235 0.823333
Si Si4 0.665297 0.199987 0.608582
Si Si5 0.386517 0.332331 0.152913
Si Si6 0.629634 0.554842 0.157303
Si Si7 0.162844 0.447996 0.654255
Si Si8 0.784664 0.908577 0.821926
O O1 0.629957 0.538126 0.820987
O O2 0.437335 0.518494 0.837673
O O3 0.519379 0.319064 0.993084
O O4 0.998757 0.113284 0.684038
O O5 0.342820 0.747680 0.494722
O O6 0.535482 0.663836 0.535611
O O7 0.014968 0.813555 0.777951
O O8 0.535462 0.114571 0.734170
O O9 0.263579 0.249375 0.724187
O O10 0.387144 0.941036 0.856633
O O11 0.966032 0.404930 0.986814
O O12 0.436114 0.457813 0.706387
O O13 0.000000 0.000000 0.500000
O O14 0.044779 0.488915 0.301407
O O15 0.355505 0.851801 0.216810
O O16 0.966315 0.698703 0.724858
O O17 0.500000 0.000000 0.000000
#
# Coordination Sequence:
#
# PCOD8022255 Si02
#       8
#     2   2   2   2   2   2   2   2
#     4  10  22  45  69  91 128 173 221 275 322 380
#     4  10  23  40  66  94 132 174 211 266 336 388
#     4  11  24  42  65  99 129 172 220 265 321 390
#     4  11  21  38  62  95 133 165 207 262 324 390
#     4  11  24  44  69  95 125 173 227 271 318 377
#     4  11  21  42  65  93 135 171 209 269 321 387
#     4  11  22  42  64  93 138 168 212 272 324 380
#     4  11  19  36  66  91 126 175 205 257 326 386
#
# _framework density 23.293319
#
# number of rings (size 3 to 8) (size 9 to 14) (size 15 to 20)
#    0.000    1.250    5.000    2.250    0.000    1.000 
#   11.250    2.500    0.000    0.000    0.000    0.000 
#    0.000    0.000    0.000    0.000    0.000    0.000 
#
# Total GULP energy -198223.476566 kJ/mol
# GULP energy per Si atom -12388.967285 kJ/mol
# Density = 2.324030 g / cm^3
# Si number density = 23.293319 Si / 1000 Ang^3
#
#
#
# Elastic Constant Matrix: (Units=GPa)
#
#
# Indices 1 2 3 4 5 6 
#
# 1 110.6699 45.8587 45.1341 8.4372 -11.2535 25.0349
# 2 45.8587 98.9138 35.4392 3.5522 -16.4920 11.5974
# 3 45.1341 35.4392 157.3907 20.6761 -29.2785 14.4208
# 4 8.4372 3.5522 20.6761 25.4308 -4.2376 -3.7588
# 5 -11.2535 -16.4920 -29.2785 -4.2376 45.6897 0.3390
# 6 25.0349 11.5974 14.4208 -3.7588 0.3390 32.4014
#
#
#
# Elastic Compliance Matrix: (Units=1/GPa)
#
#
# Indices 1 2 3 4 5 6 
#
# 1 0.013953 -0.004656 -0.001527 -0.003974 0.000475 -0.008900
# 2 -0.004656 0.013208 -0.001182 0.001080 0.002967 -0.000509
# 3 -0.001527 -0.001182 0.009009 -0.006391 0.004401 -0.003194
# 4 -0.003974 0.001080 -0.006391 0.047250 -0.000384 0.011014
# 5 0.000475 0.002967 0.004401 -0.000384 0.025887 -0.003703
# 6 -0.008900 -0.000509 -0.003194 0.011014 -0.003703 0.040660
#
#
# Mechanical properties :
#
#
# Convention : Reuss Voigt Hill
#
# Bulk Modulus (GPa) = 46.64448 68.87093 57.75770
# Shear Modulus (GPa) = 29.09645 36.74054 32.91849
#
# Velocity S-wave (km/s) = 3.53814 3.97583 3.76335
# Velocity P-wave (km/s) = 6.06297 7.12091 6.61313
#
# Compressibility (1/GPa) = 0.02143877
#
# Stress axis : x y z
#
# Youngs Moduli (GPa) = 71.67135 75.71342 111.00544
#
# Poissons Ratio (x) = 0.35254 0.16949
# Poissons Ratio (y) = 0.33372 0.13120
# Poissons Ratio (z) = 0.10943 0.08949
#
# Static dielectric constant tensor:
#      x y z
#    x 6.361000 -1.524030 0.727620 
#    y -1.524030 5.071250 -0.783820 
#    z 0.727620 -0.783820 5.061170 
# 
# 
# High freq. dielectric constant tensor:
#      x y z
#    x 1.914310 -0.009270 -0.020210 
#    y -0.009270 1.911590 0.010370 
#    z -0.020210 0.010370 1.944060 
# 
# From -- ./inp_files/532201.got.cif
#   From: 2010.06.25/outbox.cif.g09.slc.cpg/sg2_267_cif.got.tgz:532201.got - 2010.06.27 13:26:56.
