data_PCOD8022462
_publ_section_title
;
Structure prediction by ZEFSAII (Michael W. Deem and Ramdas Pophale) SiO2 
 PCOD8022462
Probable space group: P -1
;
_chemical_formula_sum "Si O2"
_cell_formula_units_Z 12
_cell_length_a 10.747579
_cell_length_b 4.817044
_cell_length_c 12.055784
_cell_angle_alpha 97.821498
_cell_angle_beta 131.665146
_cell_angle_gamma 94.538008
_cell_volume 449.635845
_symmetry_space_group_name_H-M "P -1"
_symmetry_group_IT_number 2
_symmetry_cell_setting 'triclinic'
loop_
_space_group_symop_operation_xyz
x,y,z
-x,-y,-z
loop_
_atom_site_type_symbol
_atom_site_label
_atom_site_fract_x
_atom_site_fract_y
_atom_site_fract_z
Si Si1 0.820684 0.195297 0.560504
Si Si2 0.555407 0.381726 0.892957
Si Si3 0.826825 0.870953 0.156952
Si Si4 0.308933 0.312938 0.389622
Si Si5 0.666545 0.199824 0.234999
Si Si6 0.161768 0.361266 0.075349
O O1 0.807600 0.513230 0.603589
O O2 0.696774 0.975014 0.558785
O O3 0.765498 0.133123 0.398330
O O4 0.017268 0.184738 0.682271
O O5 0.509100 0.052965 0.888650
O O6 0.675023 0.393348 0.855660
O O7 0.384538 0.495509 0.767537
O O8 0.661754 0.597215 0.062798
O O9 0.780548 0.163066 0.192038
O O10 0.876743 0.892230 0.056180
O O11 0.500000 0.500000 0.500000
O O12 0.216452 0.224145 0.212031
O O13 0.000000 0.500000 0.000000
#
# Coordination Sequence:
#
# PCOD8022462 Si02
#       6
#     2   2   2   2   2   2
#     4  12  26  43  70  99 140 176 225 280 339 401
#     4  10  25  43  72  99 136 177 229 280 335 399
#     4  10  25  45  71 102 136 181 223 289 333 404
#     4  12  25  46  66 102 135 183 224 275 335 407
#     4  12  23  48  68 105 133 179 230 277 344 398
#     4  10  22  46  68  98 139 175 229 271 340 396
#
# _framework density 26.688264
#
# number of rings (size 3 to 8) (size 9 to 14) (size 15 to 20)
#    1.000    0.000    1.667    5.000    0.000    6.000 
#    0.000    3.333    0.000    0.000    0.000    0.000 
#    0.000    0.000    0.000    0.000    0.000    0.000 
#
# Total GULP energy -148787.665888 kJ/mol
# GULP energy per Si atom -12398.972157 kJ/mol
# Density = 2.662752 g / cm^3
# Si number density = 26.688264 Si / 1000 Ang^3
#
#
#
# Elastic Constant Matrix: (Units=GPa)
#
#
# Indices 1 2 3 4 5 6 
#
# 1 123.0633 24.1490 52.4044 -5.7693 -22.4477 -38.1771
# 2 24.1490 68.6855 6.9606 -6.2244 -10.9490 -7.9719
# 3 52.4044 6.9606 140.7015 -26.5954 -14.1459 -1.2866
# 4 -5.7693 -6.2244 -26.5954 26.7883 -3.0651 3.1288
# 5 -22.4477 -10.9490 -14.1459 -3.0651 55.3727 -3.4157
# 6 -38.1771 -7.9719 -1.2866 3.1288 -3.4157 42.7940
#
#
#
# Elastic Compliance Matrix: (Units=1/GPa)
#
#
# Indices 1 2 3 4 5 6 
#
# 1 0.016810 -0.003101 -0.006290 -0.004491 0.005270 0.014979
# 2 -0.003101 0.016388 0.001553 0.004965 0.002666 0.000183
# 3 -0.006290 0.001553 0.011545 0.011248 0.000976 -0.005719
# 4 -0.004491 0.004965 0.011248 0.049894 0.004424 -0.006038
# 5 0.005270 0.002666 0.000976 0.004424 0.021626 0.006630
# 6 0.014979 0.000183 -0.005719 -0.006038 0.006630 0.037564
#
#
# Mechanical properties :
#
#
# Convention : Reuss Voigt Hill
#
# Bulk Modulus (GPa) = 34.40364 55.49759 44.95061
# Shear Modulus (GPa) = 27.90272 41.58676 34.74474
#
# Velocity S-wave (km/s) = 3.23694 3.95174 3.61206
# Velocity P-wave (km/s) = 5.18548 6.45458 5.85452
#
# Compressibility (1/GPa) = 0.02906669
#
# Stress axis : x y z
#
# Youngs Moduli (GPa) = 59.48670 61.01921 86.61780
#
# Poissons Ratio (x) = 0.18924 0.54480
# Poissons Ratio (y) = 0.18449 -0.13448
# Poissons Ratio (z) = 0.37416 -0.09474
#
# Static dielectric constant tensor:
#      x y z
#    x 4.918590 -0.101200 -0.036110 
#    y -0.101200 4.471970 -0.041810 
#    z -0.036110 -0.041810 4.868690 
# 
# 
# High freq. dielectric constant tensor:
#      x y z
#    x 2.086180 -0.009470 -0.001240 
#    y -0.009470 2.057890 -0.013000 
#    z -0.001240 -0.013000 2.080390 
# 
# From -- ./inp_files/510033.got.cif
#   From: 2010.06.25/outbox.cif.g09.slc.cpg/sg2_256_cif.got.tgz:510033.got - 2010.06.27 13:26:56.
