data_PCOD8022912
_publ_section_title
;
Structure prediction by ZEFSAII (Michael W. Deem and Ramdas Pophale) SiO2 
 PCOD8022912
Probable space group: P -1
;
_chemical_formula_sum "Si O2"
_cell_formula_units_Z 14
_cell_length_a 17.056591
_cell_length_b 9.071770
_cell_length_c 19.996726
_cell_angle_alpha 126.142989
_cell_angle_beta 159.845242
_cell_angle_gamma 42.009401
_cell_volume 630.844589
_symmetry_space_group_name_H-M "P -1"
_symmetry_group_IT_number 2
_symmetry_cell_setting 'triclinic'
loop_
_space_group_symop_operation_xyz
x,y,z
-x,-y,-z
loop_
_atom_site_type_symbol
_atom_site_label
_atom_site_fract_x
_atom_site_fract_y
_atom_site_fract_z
Si Si1 0.114906 0.055750 0.332972
Si Si2 0.675228 0.798726 0.259235
Si Si3 0.015511 0.257432 0.887034
Si Si4 0.132955 0.229098 0.262599
Si Si5 0.763895 0.360105 0.259063
Si Si6 0.321698 0.277873 0.908722
Si Si7 0.793009 0.775876 0.824785
O O1 0.987155 0.179118 0.189657
O O2 0.834945 0.251111 0.211594
O O3 0.419139 0.004951 0.584246
O O4 0.181651 0.803124 0.316576
O O5 0.625776 0.640529 0.220706
O O6 0.790249 0.684636 0.246858
O O7 0.920218 0.803477 0.489108
O O8 0.351416 0.082763 0.074199
O O9 0.834782 0.536599 0.798572
O O10 0.055710 0.209039 0.986566
O O11 0.047254 0.231928 0.117235
O O12 0.991439 0.509166 0.241346
O O13 0.500000 0.000000 0.500000
O O14 0.544517 0.332284 0.111352
O O15 0.500000 0.000000 0.000000
#
# Coordination Sequence:
#
# PCOD8022912 Si02
#       7
#     2   2   2   2   2   2   2
#     4  11  20  40  64  90 119 164 212 253 311 366
#     4  11  22  40  67  93 123 161 215 264 306 368
#     4  11  21  37  65  90 121 164 204 259 309 373
#     4  10  23  41  62  88 131 164 203 255 313 377
#     4  11  23  39  67  94 121 163 215 261 305 375
#     4  12  24  42  66  95 130 164 207 265 322 369
#     4  10  23  40  57  93 128 158 205 252 317 378
#
# _framework density 22.192471999999999
#
# number of rings (size 3 to 8) (size 9 to 14) (size 15 to 20)
#    0.000    1.143    4.286    2.571    0.000    1.143 
#    0.000    2.857    0.000    0.000    0.000    0.000 
#    0.000    0.000    0.000    0.000    0.000    0.000 
#
# Total GULP energy -173535.285289 kJ/mol
# GULP energy per Si atom -12395.377521 kJ/mol
# Density = 2.214196 g / cm^3
# Si number density = 22.192472 Si / 1000 Ang^3
#
#
#
# Elastic Constant Matrix: (Units=GPa)
#
#
# Indices 1 2 3 4 5 6 
#
# 1 84.4376 10.2798 26.1725 -1.2588 -0.5401 -13.5971
# 2 10.2798 98.8767 23.2818 -11.1725 12.2458 -3.9080
# 3 26.1725 23.2818 64.9299 2.4960 3.4390 1.9602
# 4 -1.2588 -11.1725 2.4960 41.4005 -5.6924 2.7137
# 5 -0.5401 12.2458 3.4390 -5.6924 21.1036 -5.5590
# 6 -13.5971 -3.9080 1.9602 2.7137 -5.5590 38.3304
#
#
#
# Elastic Compliance Matrix: (Units=1/GPa)
#
#
# Indices 1 2 3 4 5 6 
#
# 1 0.014812 -0.000128 -0.006312 0.000857 0.003288 0.005980
# 2 -0.000128 0.012102 -0.004113 0.002725 -0.005513 0.000406
# 3 -0.006312 -0.004113 0.019783 -0.002615 -0.002726 -0.003880
# 4 0.000857 0.002725 -0.002615 0.025886 0.005775 -0.000280
# 5 0.003288 -0.005513 -0.002726 0.005775 0.054855 0.008290
# 6 0.005980 0.000406 -0.003880 -0.000280 0.008290 0.029672
#
#
# Mechanical properties :
#
#
# Convention : Reuss Voigt Hill
#
# Bulk Modulus (GPa) = 39.07692 40.85694 39.96693
# Shear Modulus (GPa) = 26.77432 32.73422 29.75427
#
# Velocity S-wave (km/s) = 3.47718 3.84476 3.66558
# Velocity P-wave (km/s) = 5.81098 6.17736 5.99697
#
# Compressibility (1/GPa) = 0.02559055
#
# Stress axis : x y z
#
# Youngs Moduli (GPa) = 67.51254 82.62973 50.54966
#
# Poissons Ratio (x) = 0.01055 0.31909
# Poissons Ratio (y) = 0.00862 0.20791
# Poissons Ratio (z) = 0.42617 0.33986
#
# Static dielectric constant tensor:
#      x y z
#    x 4.333620 -0.193920 -0.108740 
#    y -0.193920 4.030310 -0.163360 
#    z -0.108740 -0.163360 3.771630 
# 
# 
# High freq. dielectric constant tensor:
#      x y z
#    x 1.872990 -0.015730 -0.010410 
#    y -0.015730 1.876870 -0.019620 
#    z -0.010410 -0.019620 1.861420 
# 
# From -- ./inp_files/257069.got.cif
#   From: 2010.06.25/outbox.cif.g09.slc.cpg/sg2_129_cif.got.tgz:257069.got - 2010.06.27 13:26:56.
