data_PCOD8022967
_publ_section_title
;
Structure prediction by ZEFSAII (Michael W. Deem and Ramdas Pophale) SiO2 
 PCOD8022967
Probable space group: P -1
;
_chemical_formula_sum "Si O2"
_cell_formula_units_Z 14
_cell_length_a 15.208655
_cell_length_b 6.650619
_cell_length_c 15.068475
_cell_angle_alpha 69.185233
_cell_angle_beta 29.077235
_cell_angle_gamma 81.150624
_cell_volume 649.856227
_symmetry_space_group_name_H-M "P -1"
_symmetry_group_IT_number 2
_symmetry_cell_setting 'triclinic'
loop_
_space_group_symop_operation_xyz
x,y,z
-x,-y,-z
loop_
_atom_site_type_symbol
_atom_site_label
_atom_site_fract_x
_atom_site_fract_y
_atom_site_fract_z
Si Si1 0.099982 0.311900 0.450122
Si Si2 0.391183 0.104564 0.453353
Si Si3 0.730040 0.955937 0.228894
Si Si4 0.574147 0.448043 0.736902
Si Si5 0.917594 0.620878 0.127767
Si Si6 0.820615 0.274233 0.421162
Si Si7 0.160971 0.192747 0.219431
O O1 0.286411 0.405901 0.332856
O O2 0.180219 0.253938 0.296164
O O3 0.000000 0.500000 0.500000
O O4 0.939937 0.079754 0.665046
O O5 0.291171 0.055067 0.644515
O O6 0.469648 0.374807 0.320896
O O7 0.555566 0.989325 0.324885
O O8 0.245014 0.978779 0.523854
O O9 0.761617 0.721790 0.205836
O O10 0.916008 0.171479 0.005835
O O11 0.676740 0.289864 0.622998
O O12 0.373817 0.275953 0.977776
O O13 0.814875 0.449177 0.322408
O O14 0.000000 0.500000 0.000000
O O15 0.033631 0.327283 0.264406
#
# Coordination Sequence:
#
# PCOD8022967 Si02
#       7
#     2   2   2   2   2   2   2
#     4  11  24  48  75 101 137 173 224 283 338 423
#     4  11  23  42  64  95 135 177 234 283 331 408
#     4  10  23  40  63  92 131 183 230 283 341 386
#     4  12  25  46  70 102 142 180 222 284 348 402
#     4  11  22  40  65  93 134 182 231 284 336 397
#     4  12  24  43  66 102 137 178 236 279 336 415
#     4  11  26  45  72 103 136 178 223 277 348 413
#
# _framework density 21.543227999999999
#
# number of rings (size 3 to 8) (size 9 to 14) (size 15 to 20)
#    0.000    0.857    5.714    1.286    0.000    4.571 
#    2.571    0.000    0.000    0.000    0.000    0.000 
#    0.000    0.000    0.000    0.000    0.000    0.000 
#
# Total GULP energy -173621.672660 kJ/mol
# GULP energy per Si atom -12401.548047 kJ/mol
# Density = 2.149419 g / cm^3
# Si number density = 21.543228 Si / 1000 Ang^3
#
#
#
# Elastic Constant Matrix: (Units=GPa)
#
#
# Indices 1 2 3 4 5 6 
#
# 1 81.8910 26.2955 31.4611 5.8184 -10.5768 2.2503
# 2 26.2955 109.7019 37.7641 8.8080 -7.3234 -13.0400
# 3 31.4611 37.7641 137.5692 -0.7330 -10.1158 -2.3566
# 4 5.8184 8.8080 -0.7330 41.3483 -4.8570 -1.2615
# 5 -10.5768 -7.3234 -10.1158 -4.8570 25.3144 3.1911
# 6 2.2503 -13.0400 -2.3566 -1.2615 3.1911 36.3487
#
#
#
# Elastic Compliance Matrix: (Units=1/GPa)
#
#
# Indices 1 2 3 4 5 6 
#
# 1 0.014684 -0.002607 -0.002356 -0.001094 0.004536 -0.002433
# 2 -0.002607 0.011209 -0.002399 -0.001904 0.000334 0.003932
# 3 -0.002356 -0.002399 0.008618 0.001226 0.002037 -0.000292
# 4 -0.001094 -0.001904 0.001226 0.025274 0.004336 -0.000039
# 5 0.004536 0.000334 0.002037 0.004336 0.043608 -0.003707
# 6 -0.002433 0.003932 -0.000292 -0.000039 -0.003707 0.029378
#
#
# Mechanical properties :
#
#
# Convention : Reuss Voigt Hill
#
# Bulk Modulus (GPa) = 50.54123 57.80040 54.17081
# Shear Modulus (GPa) = 32.44818 36.17836 34.31327
#
# Velocity S-wave (km/s) = 3.88518 4.10242 3.99527
# Velocity P-wave (km/s) = 6.60586 7.02339 6.81782
#
# Compressibility (1/GPa) = 0.01978583
#
# Stress axis : x y z
#
# Youngs Moduli (GPa) = 68.09969 89.21487 116.03844
#
# Poissons Ratio (x) = 0.23260 0.27344
# Poissons Ratio (y) = 0.17755 0.27837
# Poissons Ratio (z) = 0.16047 0.21402
#
# Static dielectric constant tensor:
#      x y z
#    x 4.098350 -0.034200 0.017020 
#    y -0.034200 4.138920 -0.010490 
#    z 0.017020 -0.010490 3.858670 
# 
# 
# High freq. dielectric constant tensor:
#      x y z
#    x 1.845320 -0.008420 -0.001430 
#    y -0.008420 1.860700 0.001010 
#    z -0.001430 0.001010 1.845260 
# 
# From -- ./inp_files/43015.got.cif
#   From: 2010.06.25/outbox.cif.g09.slc.cpg/sg2_22_cif.got.tgz:43015.got - 2010.06.27 13:26:56.
