data_PCOD8022732
_publ_section_title
;
Structure prediction by ZEFSAII (Michael W. Deem and Ramdas Pophale) SiO2 
 PCOD8022732
Probable space group: P -1
;
_chemical_formula_sum "Si O2"
_cell_formula_units_Z 14
_cell_length_a 8.888740
_cell_length_b 24.494891
_cell_length_c 8.253123
_cell_angle_alpha 29.169584
_cell_angle_beta 120.067522
_cell_angle_gamma 131.276777
_cell_volume 644.257721
_symmetry_space_group_name_H-M "P -1"
_symmetry_group_IT_number 2
_symmetry_cell_setting 'triclinic'
loop_
_space_group_symop_operation_xyz
x,y,z
-x,-y,-z
loop_
_atom_site_type_symbol
_atom_site_label
_atom_site_fract_x
_atom_site_fract_y
_atom_site_fract_z
Si Si1 0.178549 0.302793 0.844587
Si Si2 0.927902 0.144892 0.402170
Si Si3 0.818222 0.913476 0.747638
Si Si4 0.357301 0.350121 0.138998
Si Si5 0.677117 0.406417 0.416176
Si Si6 0.369073 0.775103 0.844618
Si Si7 0.091464 0.520016 0.173120
O O1 0.199683 0.436566 0.452336
O O2 0.192802 0.226989 0.889696
O O3 0.365186 0.334798 0.987290
O O4 0.967699 0.212604 0.067985
O O5 0.138403 0.227821 0.404245
O O6 0.866081 0.992374 0.739377
O O7 0.745590 0.147135 0.386657
O O8 0.600807 0.884628 0.635741
O O9 0.000000 0.000000 0.500000
O O10 0.540618 0.345988 0.335934
O O11 0.366473 0.486038 0.817176
O O12 0.613917 0.294129 0.805142
O O13 0.915426 0.470887 0.340222
O O14 0.256935 0.671760 0.906554
O O15 0.000000 0.500000 0.000000
#
# Coordination Sequence:
#
# PCOD8022732 Si02
#       7
#     2   2   2   2   2   2   2
#     4   9  19  40  60  88 132 155 194 255 309 356
#     4   9  18  40  65  85 118 169 207 240 291 367
#     4  10  23  38  65  88 121 165 211 248 303 353
#     4   9  19  34  67  86 128 156 203 249 301 365
#     4  11  20  38  60  97 121 163 200 250 303 376
#     4  12  21  40  66  88 122 166 202 251 307 359
#     4  12  24  36  63  96 129 154 198 255 316 365
#
# _framework density 21.730433999999999
#
# number of rings (size 3 to 8) (size 9 to 14) (size 15 to 20)
#    0.857    0.857    4.286    0.857    2.000    2.857 
#    0.000    0.714    3.143    3.429    0.000    0.000 
#    0.000    0.000    0.000    0.000    0.000    0.000 
#
# Total GULP energy -173456.271822 kJ/mol
# GULP energy per Si atom -12389.733702 kJ/mol
# Density = 2.168097 g / cm^3
# Si number density = 21.730434 Si / 1000 Ang^3
#
#
#
# Elastic Constant Matrix: (Units=GPa)
#
#
# Indices 1 2 3 4 5 6 
#
# 1 85.4137 22.4663 15.0722 -26.9348 9.9094 12.0534
# 2 22.4663 121.3983 43.2557 -14.1200 4.4681 7.5027
# 3 15.0722 43.2557 38.7498 -13.0649 13.8492 -12.9968
# 4 -26.9348 -14.1200 -13.0649 37.1444 -6.4248 -0.2755
# 5 9.9094 4.4681 13.8492 -6.4248 30.9574 -12.0389
# 6 12.0534 7.5027 -12.9968 -0.2755 -12.0389 36.4304
#
#
#
# Elastic Compliance Matrix: (Units=1/GPa)
#
#
# Indices 1 2 3 4 5 6 
#
# 1 0.017627 0.000726 -0.005734 0.010143 -0.004784 -0.009531
# 2 0.000726 0.017796 -0.025956 -0.001246 0.003935 -0.011874
# 3 -0.005734 -0.025956 0.075576 0.010242 -0.014654 0.029440
# 4 0.010143 -0.001246 0.010242 0.037505 0.000529 0.001013
# 5 -0.004784 0.003935 -0.014654 0.000529 0.043833 0.010034
# 6 -0.009531 -0.011874 0.029440 0.001013 0.010034 0.046875
#
#
# Mechanical properties :
#
#
# Convention : Reuss Voigt Hill
#
# Bulk Modulus (GPa) = 20.37896 45.23891 32.80894
# Shear Modulus (GPa) = 15.74819 31.89096 23.81958
#
# Velocity S-wave (km/s) = 2.69496 3.83505 3.31439
# Velocity P-wave (km/s) = 4.36831 6.36188 5.45691
#
# Compressibility (1/GPa) = 0.04907021
#
# Stress axis : x y z
#
# Youngs Moduli (GPa) = 56.73034 56.19334 13.23174
#
# Poissons Ratio (x) = -0.04078 0.07587
# Poissons Ratio (y) = -0.04117 0.34345
# Poissons Ratio (z) = 0.32527 1.45857
#
# Static dielectric constant tensor:
#      x y z
#    x 4.015010 0.079070 0.190350 
#    y 0.079070 4.209230 -0.405810 
#    z 0.190350 -0.405810 3.625460 
# 
# 
# High freq. dielectric constant tensor:
#      x y z
#    x 1.859180 0.005310 0.013220 
#    y 0.005310 1.853880 -0.032600 
#    z 0.013220 -0.032600 1.815390 
# 
# From -- ./inp_files/225853.got.cif
#   From: 2010.06.25/outbox.cif.g09.slc.cpg/sg2_113_cif.got.tgz:225853.got - 2010.06.27 13:26:56.
