data_PCOD8022339
_publ_section_title
;
Structure prediction by ZEFSAII (Michael W. Deem and Ramdas Pophale) SiO2 
 PCOD8022339
Probable space group: P -1
;
_chemical_formula_sum "Si O2"
_cell_formula_units_Z 16
_cell_length_a 11.846982
_cell_length_b 11.702220
_cell_length_c 13.787378
_cell_angle_alpha 31.756222
_cell_angle_beta 84.543560
_cell_angle_gamma 63.603271
_cell_volume 720.772430
_symmetry_space_group_name_H-M "P -1"
_symmetry_group_IT_number 2
_symmetry_cell_setting 'triclinic'
loop_
_space_group_symop_operation_xyz
x,y,z
-x,-y,-z
loop_
_atom_site_type_symbol
_atom_site_label
_atom_site_fract_x
_atom_site_fract_y
_atom_site_fract_z
Si Si1 0.156131 0.210050 0.649453
Si Si2 0.119786 0.149522 0.219381
Si Si3 0.854713 0.164674 0.213427
Si Si4 0.380518 0.857621 0.246795
Si Si5 0.669069 0.291067 0.314050
Si Si6 0.454606 0.250828 0.252780
Si Si7 0.379012 0.727031 0.135152
Si Si8 0.411148 0.197317 0.595233
O O1 0.240900 0.325613 0.537169
O O2 0.000000 0.500000 0.500000
O O3 0.123501 0.112804 0.624768
O O4 0.245615 0.936548 0.915311
O O5 0.023974 0.055348 0.276650
O O6 0.224333 0.046610 0.188947
O O7 0.232434 0.992863 0.416752
O O8 0.000000 0.500000 0.000000
O O9 0.791678 0.263563 0.258551
O O10 0.730898 0.447548 0.947348
O O11 0.500000 0.500000 0.500000
O O12 0.331538 0.936590 0.080971
O O13 0.486807 0.915841 0.232885
O O14 0.561744 0.312315 0.227668
O O15 0.547395 0.586199 0.179638
O O16 0.500000 0.000000 0.500000
O O17 0.494734 0.118591 0.237827
O O18 0.395035 0.446362 0.358411
#
# Coordination Sequence:
#
# PCOD8022339 Si02
#       8
#     2   2   2   2   2   2   2   2
#     4  12  28  44  65 106 145 188 239 296 363 421
#     4  12  26  45  71 107 145 184 238 300 368 421
#     4  12  26  43  68 108 150 177 230 313 357 422
#     4  10  22  45  71  98 136 189 241 286 348 432
#     4  12  22  43  70 101 140 186 234 285 364 424
#     4  12  20  41  71 100 133 181 237 285 351 431
#     4  11  24  45  73 102 137 194 242 292 346 435
#     4  11  22  43  73  99 136 184 240 289 351 432
#
# _framework density 22.198407
#
# number of rings (size 3 to 8) (size 9 to 14) (size 15 to 20)
#    0.000    0.500    6.250    3.000    3.500    2.000 
#    2.250    1.250    0.000    0.000    0.000    0.000 
#    0.000    0.000    0.000    0.000    0.000    0.000 
#
# Total GULP energy -198311.065309 kJ/mol
# GULP energy per Si atom -12394.441582 kJ/mol
# Density = 2.214788 g / cm^3
# Si number density = 22.198407 Si / 1000 Ang^3
#
#
#
# Elastic Constant Matrix: (Units=GPa)
#
#
# Indices 1 2 3 4 5 6 
#
# 1 126.3412 54.3417 10.5265 -16.8864 3.9653 -0.2157
# 2 54.3417 161.4117 35.7434 -21.3892 6.4486 -3.4148
# 3 10.5265 35.7434 77.5433 -12.1830 16.5985 -4.5658
# 4 -16.8864 -21.3892 -12.1830 33.7620 -6.0836 12.6375
# 5 3.9653 6.4486 16.5985 -6.0836 27.6212 1.5042
# 6 -0.2157 -3.4148 -4.5658 12.6375 1.5042 39.9662
#
#
#
# Elastic Compliance Matrix: (Units=1/GPa)
#
#
# Indices 1 2 3 4 5 6 
#
# 1 0.009601 -0.002898 0.000563 0.003612 -0.000176 -0.001267
# 2 -0.002898 0.008227 -0.003199 0.003071 0.001132 -0.000692
# 3 0.000563 -0.003199 0.016618 0.002167 -0.008912 0.001278
# 4 0.003612 0.003071 0.002167 0.040046 0.006958 -0.012395
# 5 -0.000176 0.001132 -0.008912 0.006958 0.043112 -0.004745
# 6 -0.001267 -0.000692 0.001278 -0.012395 -0.004745 0.029199
#
#
# Mechanical properties :
#
#
# Convention : Reuss Voigt Hill
#
# Bulk Modulus (GPa) = 42.77823 62.94660 52.86242
# Shear Modulus (GPa) = 30.18181 37.91552 34.04867
#
# Velocity S-wave (km/s) = 3.69133 4.13731 3.92067
# Velocity P-wave (km/s) = 6.12214 7.15829 6.66039
#
# Compressibility (1/GPa) = 0.02337638
#
# Stress axis : x y z
#
# Youngs Moduli (GPa) = 104.15844 121.55817 60.17686
#
# Poissons Ratio (x) = 0.35229 -0.03388
# Poissons Ratio (y) = 0.30186 0.19251
# Poissons Ratio (z) = -0.05864 0.38888
#
# Static dielectric constant tensor:
#      x y z
#    x 4.328720 0.326580 0.052080 
#    y 0.326580 4.608360 -0.092040 
#    z 0.052080 -0.092040 4.201980 
# 
# 
# High freq. dielectric constant tensor:
#      x y z
#    x 1.873010 0.007020 0.006250 
#    y 0.007020 1.891630 -0.004220 
#    z 0.006250 -0.004220 1.865580 
# 
# From -- ./inp_files/519489.got.cif
#   From: 2010.06.25/outbox.cif.g09.slc.cpg/sg2_260_cif.got.tgz:519489.got - 2010.06.27 13:26:56.
