data_PCOD8022882
_publ_section_title
;
Structure prediction by ZEFSAII (Michael W. Deem and Ramdas Pophale) SiO2 
 PCOD8022882
Probable space group: P -1
;
_chemical_formula_sum "Si O2"
_cell_formula_units_Z 16
_cell_length_a 27.340612
_cell_length_b 17.889400
_cell_length_c 14.671912
_cell_angle_alpha 20.883515
_cell_angle_beta 19.675960
_cell_angle_gamma 18.411952
_cell_volume 704.465735
_symmetry_space_group_name_H-M "P -1"
_symmetry_group_IT_number 2
_symmetry_cell_setting 'triclinic'
loop_
_space_group_symop_operation_xyz
x,y,z
-x,-y,-z
loop_
_atom_site_type_symbol
_atom_site_label
_atom_site_fract_x
_atom_site_fract_y
_atom_site_fract_z
Si Si1 0.652442 0.238224 0.120838
Si Si2 0.384543 0.295255 0.392227
Si Si3 0.393835 0.050435 0.317548
Si Si4 0.909143 0.700882 0.014819
Si Si5 0.757766 0.460307 0.064162
Si Si6 0.990568 0.128809 0.186812
Si Si7 0.312464 0.885141 0.203767
Si Si8 0.461305 0.668030 0.491823
O O1 0.465307 0.325715 0.307324
O O2 0.689459 0.053927 0.349770
O O3 0.630710 0.503271 0.885761
O O4 0.805677 0.094883 0.937565
O O5 0.184004 0.393688 0.650871
O O6 0.500000 0.000000 0.500000
O O7 0.435290 0.907772 0.312686
O O8 0.237555 0.348583 0.232221
O O9 0.577460 0.005766 0.078219
O O10 0.000000 0.500000 0.000000
O O11 0.033496 0.729245 0.834975
O O12 0.760555 0.988635 0.911250
O O13 0.924334 0.324463 0.994561
O O14 0.571649 0.631074 0.250304
O O15 0.731814 0.267820 0.270299
O O16 0.865562 0.024648 0.527676
O O17 0.436084 0.576604 0.340169
#
# Coordination Sequence:
#
# PCOD8022882 Si02
#       8
#     2   2   2   2   2   2   2   2
#     4  11  25  42  68  97 133 183 223 269 344 409
#     4  11  24  45  67  95 140 180 225 273 341 414
#     4  11  22  40  71  98 127 179 232 267 326 407
#     4  12  25  42  70 104 130 178 227 282 345 402
#     4   9  21  40  63  96 133 175 221 276 339 380
#     4  11  24  45  64  98 147 173 216 291 337 402
#     4  10  23  39  68  98 132 165 225 276 335 392
#     4   9  20  40  65  96 129 175 220 282 326 394
#
# _framework density 22.712247999999999
#
# number of rings (size 3 to 8) (size 9 to 14) (size 15 to 20)
#    0.000    1.500    2.500    2.250    5.250    0.500 
#    2.250    0.625    0.000    0.000    0.000    0.000 
#    0.000    0.000    0.000    0.000    0.000    0.000 
#
# Total GULP energy -198225.368037 kJ/mol
# GULP energy per Si atom -12389.085502 kJ/mol
# Density = 2.266055 g / cm^3
# Si number density = 22.712248 Si / 1000 Ang^3
#
#
#
# Elastic Constant Matrix: (Units=GPa)
#
#
# Indices 1 2 3 4 5 6 
#
# 1 93.8976 27.3891 39.4198 -9.8543 -8.3422 -23.1372
# 2 27.3891 59.8113 35.4895 -6.9145 -10.5382 -2.9857
# 3 39.4198 35.4895 137.2413 -18.7310 7.7560 0.1336
# 4 -9.8543 -6.9145 -18.7310 33.5737 -5.9066 6.8472
# 5 -8.3422 -10.5382 7.7560 -5.9066 36.0309 -7.2157
# 6 -23.1372 -2.9857 0.1336 6.8472 -7.2157 39.4796
#
#
#
# Elastic Compliance Matrix: (Units=1/GPa)
#
#
# Indices 1 2 3 4 5 6 
#
# 1 0.016554 -0.003510 -0.004085 0.000774 0.005894 0.010393
# 2 -0.003510 0.022913 -0.005061 0.002033 0.007452 0.000702
# 3 -0.004085 -0.005061 0.010553 0.003660 -0.004970 -0.004356
# 4 0.000774 0.002033 0.003660 0.034213 0.004697 -0.004480
# 5 0.005894 0.007452 -0.004970 0.004697 0.035066 0.009629
# 6 0.010393 0.000702 -0.004356 -0.004480 0.009629 0.034025
#
#
# Mechanical properties :
#
#
# Convention : Reuss Voigt Hill
#
# Bulk Modulus (GPa) = 40.47264 55.06079 47.76672
# Shear Modulus (GPa) = 26.75605 34.39362 30.57483
#
# Velocity S-wave (km/s) = 3.43599 3.89565 3.67302
# Velocity P-wave (km/s) = 5.79653 6.67309 6.25020
#
# Compressibility (1/GPa) = 0.02470805
#
# Stress axis : x y z
#
# Youngs Moduli (GPa) = 60.40660 43.64370 94.75839
#
# Poissons Ratio (x) = 0.15320 0.38706
# Poissons Ratio (y) = 0.21204 0.47959
# Poissons Ratio (z) = 0.24674 0.22089
#
# Static dielectric constant tensor:
#      x y z
#    x 4.020120 -0.199960 -0.020170 
#    y -0.199960 3.814620 -0.129940 
#    z -0.020170 -0.129940 4.771630 
# 
# 
# High freq. dielectric constant tensor:
#      x y z
#    x 1.885520 -0.018290 -0.000240 
#    y -0.018290 1.866470 -0.015010 
#    z -0.000240 -0.015010 1.915020 
# 
# From -- ./inp_files/536448.got.cif
#   From: 2010.06.25/outbox.cif.g09.slc.cpg/sg2_269_cif.got.tgz:536448.got - 2010.06.27 13:26:56.
