data_PCOD8022815
_publ_section_title
;
Structure prediction by ZEFSAII (Michael W. Deem and Ramdas Pophale) SiO2 
 PCOD8022815
Probable space group: P -1
;
_chemical_formula_sum "Si O2"
_cell_formula_units_Z 12
_cell_length_a 14.443330
_cell_length_b 6.737777
_cell_length_c 12.626916
_cell_angle_alpha 110.047168
_cell_angle_beta 31.058745
_cell_angle_gamma 93.944777
_cell_volume 527.573448
_symmetry_space_group_name_H-M "P -1"
_symmetry_group_IT_number 2
_symmetry_cell_setting 'triclinic'
loop_
_space_group_symop_operation_xyz
x,y,z
-x,-y,-z
loop_
_atom_site_type_symbol
_atom_site_label
_atom_site_fract_x
_atom_site_fract_y
_atom_site_fract_z
Si Si1 0.277316 0.784723 0.678532
Si Si2 0.813079 0.478302 0.901285
Si Si3 0.087708 0.294825 0.963045
Si Si4 0.838041 0.900315 0.623031
Si Si5 0.559513 0.889679 0.076986
Si Si6 0.384324 0.716714 0.801015
O O1 0.274723 0.801545 0.811987
O O2 0.470407 0.566478 0.401107
O O3 0.087839 0.749149 0.820936
O O4 0.252412 0.038981 0.705026
O O5 0.805716 0.637778 0.036613
O O6 0.034224 0.353561 0.607391
O O7 0.638956 0.648230 0.022319
O O8 0.766475 0.267024 0.952554
O O9 0.000000 0.500000 0.000000
O O10 0.646284 0.076635 0.771368
O O11 0.743671 0.852033 0.812058
O O12 0.000000 0.000000 0.500000
O O13 0.508539 0.122338 0.242556
#
# Coordination Sequence:
#
# PCOD8022815 Si02
#       6
#     2   2   2   2   2   2
#     4  10  23  39  63  95 138 182 224 279 327 405
#     4  12  24  43  70 102 136 183 227 283 344 406
#     4  11  22  40  64  97 136 182 227 273 337 402
#     4  11  25  48  74  98 135 176 234 286 349 411
#     4  11  25  48  70 102 139 177 226 292 343 404
#     4  11  22  42  65  98 137 177 231 275 338 406
#
# _framework density 22.745647999999999
#
# number of rings (size 3 to 8) (size 9 to 14) (size 15 to 20)
#    0.000    1.000    5.000    1.500    0.000    4.000 
#    6.000    0.000    0.000    0.000    0.000    0.000 
#    0.000    0.000    0.000    0.000    0.000    0.000 
#
# Total GULP energy -148748.595639 kJ/mol
# GULP energy per Si atom -12395.716303 kJ/mol
# Density = 2.269388 g / cm^3
# Si number density = 22.745648 Si / 1000 Ang^3
#
#
#
# Elastic Constant Matrix: (Units=GPa)
#
#
# Indices 1 2 3 4 5 6 
#
# 1 80.0002 14.8049 34.4443 -10.7985 -17.9130 -9.0415
# 2 14.8049 107.6816 41.5366 15.1902 -0.2128 -13.5393
# 3 34.4443 41.5366 90.6717 9.4095 -8.3857 -3.6102
# 4 -10.7985 15.1902 9.4095 34.5801 2.5465 -6.4062
# 5 -17.9130 -0.2128 -8.3857 2.5465 34.1381 -2.2300
# 6 -9.0415 -13.5393 -3.6102 -6.4062 -2.2300 40.3479
#
#
#
# Elastic Compliance Matrix: (Units=1/GPa)
#
#
# Indices 1 2 3 4 5 6 
#
# 1 0.019131 -0.000447 -0.006987 0.008462 0.008034 0.005300
# 2 -0.000447 0.012134 -0.004996 -0.003501 -0.000934 0.002917
# 3 -0.006987 -0.004996 0.016437 -0.004969 0.000546 -0.002530
# 4 0.008462 -0.003501 -0.004969 0.035486 0.000940 0.005963
# 5 0.008034 -0.000934 0.000546 0.000940 0.033799 0.003553
# 6 0.005300 0.002917 -0.002530 0.005963 0.003553 0.027868
#
#
# Mechanical properties :
#
#
# Convention : Reuss Voigt Hill
#
# Bulk Modulus (GPa) = 43.77685 51.10280 47.43983
# Shear Modulus (GPa) = 28.19643 34.31771 31.25707
#
# Velocity S-wave (km/s) = 3.52467 3.88849 3.71104
# Velocity P-wave (km/s) = 5.98769 6.53271 6.26613
#
# Compressibility (1/GPa) = 0.02284313
#
# Stress axis : x y z
#
# Youngs Moduli (GPa) = 52.27131 82.41366 60.83864
#
# Poissons Ratio (x) = 0.03681 0.42507
# Poissons Ratio (y) = 0.02334 0.30394
# Poissons Ratio (z) = 0.36522 0.41172
#
# Static dielectric constant tensor:
#      x y z
#    x 4.202010 -0.010230 0.133720 
#    y -0.010230 4.341600 0.078260 
#    z 0.133720 0.078260 4.298680 
# 
# 
# High freq. dielectric constant tensor:
#      x y z
#    x 1.900390 0.003030 -0.001450 
#    y 0.003030 1.903370 0.011200 
#    z -0.001450 0.011200 1.896200 
# 
# From -- ./inp_files/301007.got.cif
#   From: 2010.06.25/outbox.cif.g09.slc.cpg/sg2_151_cif.got.tgz:301007.got - 2010.06.27 13:26:56.
