data_PCOD8022366
_publ_section_title
;
Structure prediction by ZEFSAII (Michael W. Deem and Ramdas Pophale) SiO2 
 PCOD8022366
Probable space group: P -1
;
_chemical_formula_sum "Si O2"
_cell_formula_units_Z 16
_cell_length_a 12.002503
_cell_length_b 9.254034
_cell_length_c 21.164460
_cell_angle_alpha 134.327873
_cell_angle_beta 26.029902
_cell_angle_gamma 141.271330
_cell_volume 645.389575
_symmetry_space_group_name_H-M "P -1"
_symmetry_group_IT_number 2
_symmetry_cell_setting 'triclinic'
loop_
_space_group_symop_operation_xyz
x,y,z
-x,-y,-z
loop_
_atom_site_type_symbol
_atom_site_label
_atom_site_fract_x
_atom_site_fract_y
_atom_site_fract_z
Si Si1 0.610103 0.576317 0.801384
Si Si2 0.293423 0.738063 0.923010
Si Si3 0.751694 0.638213 0.962570
Si Si4 0.508895 0.902069 0.323133
Si Si5 0.465275 0.036630 0.811916
Si Si6 0.975843 0.981828 0.209184
Si Si7 0.664973 0.773722 0.427172
Si Si8 0.065613 0.419893 0.674772
O O1 0.547757 0.713458 0.820091
O O2 0.666816 0.375177 0.682567
O O3 0.332680 0.464562 0.955157
O O4 0.893877 0.759148 0.750757
O O5 0.405101 0.818751 0.819234
O O6 0.000000 0.500000 0.000000
O O7 0.241039 0.931752 0.043748
O O8 0.029652 0.618564 0.791460
O O9 0.500000 0.500000 0.000000
O O10 0.786970 0.894965 0.023359
O O11 0.569587 0.035297 0.265596
O O12 0.810369 0.969430 0.225302
O O13 0.322405 0.985611 0.485480
O O14 0.785685 0.254886 0.725521
O O15 0.757988 0.795043 0.313311
O O16 0.890435 0.739894 0.345435
O O17 0.344152 0.553386 0.528680
#
# Coordination Sequence:
#
# PCOD8022366 Si02
#       8
#     2   2   2   2   2   2   2   2
#     4  11  24  46  74 106 142 191 233 304 367 410
#     4  12  25  45  73 112 144 182 235 306 369 422
#     4   9  19  39  73 105 131 180 237 292 354 424
#     4  11  27  46  68 111 137 194 246 285 352 426
#     4  10  24  45  74 104 139 185 238 305 360 419
#     4  12  25  47  71 103 152 185 240 292 362 432
#     4  11  26  44  68 107 145 198 240 292 342 435
#     4  10  22  45  73 102 142 194 243 287 361 421
#
# _framework density 24.791228
#
# number of rings (size 3 to 8) (size 9 to 14) (size 15 to 20)
#    0.000    1.250    1.250    3.750    7.000    4.500 
#    2.250    0.000    0.000    0.000    0.000    0.000 
#    0.000    0.000    0.000    0.000    0.000    0.000 
#
# Total GULP energy -198426.732071 kJ/mol
# GULP energy per Si atom -12401.670754 kJ/mol
# Density = 2.473480 g / cm^3
# Si number density = 24.791228 Si / 1000 Ang^3
#
#
#
# Elastic Constant Matrix: (Units=GPa)
#
#
# Indices 1 2 3 4 5 6 
#
# 1 153.7306 52.4673 34.5418 -6.8358 10.2684 -14.6247
# 2 52.4673 104.9581 4.4321 -7.1907 -2.5249 -1.4702
# 3 34.5418 4.4321 70.9294 0.4887 2.5526 -14.4654
# 4 -6.8358 -7.1907 0.4887 37.2921 -13.6602 -0.1723
# 5 10.2684 -2.5249 2.5526 -13.6602 34.6645 -10.2565
# 6 -14.6247 -1.4702 -14.4654 -0.1723 -10.2565 53.2782
#
#
#
# Elastic Compliance Matrix: (Units=1/GPa)
#
#
# Indices 1 2 3 4 5 6 
#
# 1 0.009154 -0.004463 -0.003917 -0.000050 -0.002519 0.000841
# 2 -0.004463 0.011960 0.001310 0.002627 0.003154 0.000076
# 3 -0.003917 0.001310 0.016639 -0.000301 0.000997 0.003670
# 4 -0.000050 0.002627 -0.000301 0.032384 0.013800 0.002738
# 5 -0.002519 0.003154 0.000997 0.013800 0.037224 0.006877
# 6 0.000841 0.000076 0.003670 0.002738 0.006877 0.021331
#
#
# Mechanical properties :
#
#
# Convention : Reuss Voigt Hill
#
# Bulk Modulus (GPa) = 42.34787 56.94451 49.64619
# Shear Modulus (GPa) = 33.17801 40.92542 37.05171
#
# Velocity S-wave (km/s) = 3.66224 4.06741 3.87013
# Velocity P-wave (km/s) = 5.91621 6.71401 6.32770
#
# Compressibility (1/GPa) = 0.02361394
#
# Stress axis : x y z
#
# Youngs Moduli (GPa) = 109.24050 83.61089 60.10148
#
# Poissons Ratio (x) = 0.37315 0.23539
# Poissons Ratio (y) = 0.48753 -0.07873
# Poissons Ratio (z) = 0.42784 -0.10953
#
# Static dielectric constant tensor:
#      x y z
#    x 4.629120 -0.225860 0.034100 
#    y -0.225860 4.563320 0.351880 
#    z 0.034100 0.351880 4.570170 
# 
# 
# High freq. dielectric constant tensor:
#      x y z
#    x 2.001540 -0.009080 0.003390 
#    y -0.009080 1.994510 0.001970 
#    z 0.003390 0.001970 1.969380 
# 
# From -- ./inp_files/594182.got.cif
#   From: 2010.06.25/outbox.cif.g09.slc.cpg/sg2_298_cif.got.tgz:594182.got - 2010.06.27 13:26:56.
