data_PCOD8022281
_publ_section_title
;
Structure prediction by ZEFSAII (Michael W. Deem and Ramdas Pophale) SiO2 
 PCOD8022281
Probable space group: P -1
;
_chemical_formula_sum "Si O2"
_cell_formula_units_Z 14
_cell_length_a 11.982593
_cell_length_b 14.920585
_cell_length_c 22.758981
_cell_angle_alpha 158.887715
_cell_angle_beta 28.036777
_cell_angle_gamma 152.722859
_cell_volume 635.436422
_symmetry_space_group_name_H-M "P -1"
_symmetry_group_IT_number 2
_symmetry_cell_setting 'triclinic'
loop_
_space_group_symop_operation_xyz
x,y,z
-x,-y,-z
loop_
_atom_site_type_symbol
_atom_site_label
_atom_site_fract_x
_atom_site_fract_y
_atom_site_fract_z
Si Si1 0.720981 0.488345 0.552479
Si Si2 0.535955 0.214424 0.866694
Si Si3 0.664556 0.315558 0.105983
Si Si4 0.125002 0.940166 0.720922
Si Si5 0.922756 0.738034 0.951981
Si Si6 0.648382 0.353604 0.377277
Si Si7 0.263584 0.463468 0.919778
O O1 0.441208 0.507098 0.694582
O O2 0.710036 0.208750 0.415074
O O3 0.802990 0.517501 0.463182
O O4 0.908380 0.737868 0.656072
O O5 0.746848 0.428758 0.859475
O O6 0.564899 0.928006 0.671515
O O7 0.242006 0.160423 0.953402
O O8 0.566790 0.299957 0.972179
O O9 0.632392 0.418400 0.119223
O O10 0.961509 0.389560 0.026050
O O11 0.500000 0.000000 0.000000
O O12 0.309020 0.188337 0.746082
O O13 0.002861 0.070273 0.907578
O O14 0.174492 0.731096 0.800850
O O15 0.500000 0.500000 0.500000
#
# Coordination Sequence:
#
# PCOD8022281 Si02
#       7
#     2   2   2   2   2   2   2
#     4  11  25  41  68 104 136 173 228 289 334 396
#     4  10  23  43  70  97 128 181 234 271 331 408
#     4  11  24  44  67  99 143 177 222 276 348 412
#     4  10  22  45  70 100 128 175 237 277 331 397
#     4  10  23  48  70  94 136 182 231 274 336 413
#     4  12  28  42  67 102 143 183 220 280 352 402
#     4  10  24  42  72 100 126 188 229 272 340 416
#
# _framework density 22.032101000000001
#
# number of rings (size 3 to 8) (size 9 to 14) (size 15 to 20)
#    0.000    1.429    2.857    0.429    8.000    2.286 
#    2.571    0.000    0.000    0.000    0.000    0.000 
#    0.000    0.000    0.000    0.000    0.000    0.000 
#
# Total GULP energy -173528.358960 kJ/mol
# GULP energy per Si atom -12394.882783 kJ/mol
# Density = 2.198196 g / cm^3
# Si number density = 22.032101 Si / 1000 Ang^3
#
#
#
# Elastic Constant Matrix: (Units=GPa)
#
#
# Indices 1 2 3 4 5 6 
#
# 1 145.1709 40.5294 61.4207 23.4386 4.9418 -21.3116
# 2 40.5294 81.1457 56.3869 13.4879 -4.0110 -13.9570
# 3 61.4207 56.3869 137.3135 15.5556 -3.6501 -17.3769
# 4 23.4386 13.4879 15.5556 22.3435 -4.0156 3.9029
# 5 4.9418 -4.0110 -3.6501 -4.0156 42.2340 10.4233
# 6 -21.3116 -13.9570 -17.3769 3.9029 10.4233 26.4936
#
#
#
# Elastic Compliance Matrix: (Units=1/GPa)
#
#
# Indices 1 2 3 4 5 6 
#
# 1 0.012423 -0.000229 -0.002326 -0.014669 -0.006274 0.012977
# 2 -0.000229 0.019299 -0.005814 -0.009046 -0.001500 0.008092
# 3 -0.002326 -0.005814 0.011372 -0.002545 -0.000282 0.003011
# 4 -0.014669 -0.009046 -0.002545 0.076724 0.016859 -0.036169
# 5 -0.006274 -0.001500 -0.000282 0.016859 0.030952 -0.020683
# 6 0.012977 0.008092 0.003011 -0.036169 -0.020683 0.067887
#
#
# Mechanical properties :
#
#
# Convention : Reuss Voigt Hill
#
# Bulk Modulus (GPa) = 37.93936 75.58935 56.76435
# Shear Modulus (GPa) = 20.47668 31.90042 26.18855
#
# Velocity S-wave (km/s) = 3.05192 3.80926 3.45143
# Velocity P-wave (km/s) = 5.44760 7.33011 6.45782
#
# Compressibility (1/GPa) = 0.02635785
#
# Stress axis : x y z
#
# Youngs Moduli (GPa) = 80.49378 51.81643 87.93395
#
# Poissons Ratio (x) = 0.01185 0.20452
# Poissons Ratio (y) = 0.01841 0.51122
# Poissons Ratio (z) = 0.18722 0.30125
#
# Static dielectric constant tensor:
#      x y z
#    x 4.239310 -0.211830 -0.098450 
#    y -0.211830 3.885220 0.239070 
#    z -0.098450 0.239070 4.090070 
# 
# 
# High freq. dielectric constant tensor:
#      x y z
#    x 1.889870 -0.015990 -0.001400 
#    y -0.015990 1.854490 0.020510 
#    z -0.001400 0.020510 1.866360 
# 
# From -- ./inp_files/260466.got.cif
#   From: 2010.06.25/outbox.cif.g09.slc.cpg/sg2_131_cif.got.tgz:260466.got - 2010.06.27 13:26:56.
