data_PCOD8022474
_publ_section_title
;
Structure prediction by ZEFSAII (Michael W. Deem and Ramdas Pophale) SiO2 
 PCOD8022474
Probable space group: P -1
;
_chemical_formula_sum "Si O2"
_cell_formula_units_Z 16
_cell_length_a 9.906942
_cell_length_b 5.201106
_cell_length_c 19.473786
_cell_angle_alpha 81.131553
_cell_angle_beta 135.153973
_cell_angle_gamma 84.470137
_cell_volume 668.008870
_symmetry_space_group_name_H-M "P -1"
_symmetry_group_IT_number 2
_symmetry_cell_setting 'triclinic'
loop_
_space_group_symop_operation_xyz
x,y,z
-x,-y,-z
loop_
_atom_site_type_symbol
_atom_site_label
_atom_site_fract_x
_atom_site_fract_y
_atom_site_fract_z
Si Si1 0.544462 0.764366 0.270536
Si Si2 0.209656 0.727734 0.062423
Si Si3 0.113070 0.078062 0.250040
Si Si4 0.813359 0.975356 0.563312
Si Si5 0.980385 0.582207 0.411164
Si Si6 0.473284 0.238606 0.331470
Si Si7 0.286617 0.529511 0.955695
Si Si8 0.016260 0.762658 0.119971
O O1 0.369990 0.861761 0.147775
O O2 0.747603 0.658380 0.304087
O O3 0.515290 0.518656 0.316795
O O4 0.554079 0.016883 0.310264
O O5 0.130605 0.571570 0.104316
O O6 0.318654 0.523997 0.049734
O O7 0.035584 0.950059 0.950984
O O8 0.233438 0.284753 0.256518
O O9 0.873761 0.210370 0.148090
O O10 0.185461 0.999805 0.355585
O O11 0.164240 0.800912 0.233577
O O12 0.589791 0.112813 0.448530
O O13 0.955240 0.145159 0.580524
O O14 0.893183 0.660076 0.582140
O O15 0.000000 0.500000 0.500000
O O16 0.182733 0.288795 0.917425
O O17 0.500000 0.500000 0.000000
#
# Coordination Sequence:
#
# PCOD8022474 Si02
#       8
#     2   2   2   2   2   2   2   2
#     4  12  25  40  75 101 141 178 239 285 352 412
#     4  10  23  41  71 102 127 190 232 296 349 421
#     4  11  27  43  69  99 139 183 237 290 354 422
#     4  12  26  44  72 100 146 188 233 284 360 408
#     4  12  24  46  68 103 142 187 232 293 341 427
#     4  12  24  46  68 106 136 185 234 292 339 417
#     4  11  26  44  68 101 143 180 232 295 361 428
#     4  10  22  46  69  97 137 176 242 292 347 424
#
# _framework density 23.951777
#
# number of rings (size 3 to 8) (size 9 to 14) (size 15 to 20)
#    0.000    0.750    3.750    2.625    5.250    3.000 
#    0.000    2.500    0.000    0.000    0.000    0.000 
#    0.000    0.000    0.000    0.000    0.000    0.000 
#
# Total GULP energy -198259.575499 kJ/mol
# GULP energy per Si atom -12391.223469 kJ/mol
# Density = 2.389726 g / cm^3
# Si number density = 23.951777 Si / 1000 Ang^3
#
#
#
# Elastic Constant Matrix: (Units=GPa)
#
#
# Indices 1 2 3 4 5 6 
#
# 1 130.3828 15.5532 32.8900 15.7988 15.9907 -2.7195
# 2 15.5532 76.3595 12.1352 18.8962 -8.0153 -2.3378
# 3 32.8900 12.1352 130.5841 22.9969 -5.4246 -19.6297
# 4 15.7988 18.8962 22.9969 33.0836 -9.3822 3.4357
# 5 15.9907 -8.0153 -5.4246 -9.3822 55.9929 5.0913
# 6 -2.7195 -2.3378 -19.6297 3.4357 5.0913 36.3350
#
#
#
# Elastic Compliance Matrix: (Units=1/GPa)
#
#
# Indices 1 2 3 4 5 6 
#
# 1 0.009099 -0.001036 -0.001598 -0.003721 -0.003580 0.000604
# 2 -0.001036 0.015535 0.000711 -0.008818 0.000928 0.002010
# 3 -0.001598 0.000711 0.010231 -0.007474 -0.000266 0.006197
# 4 -0.003721 -0.008818 -0.007474 0.045462 0.007626 -0.010251
# 5 -0.003580 0.000928 -0.000266 0.007626 0.020627 -0.003964
# 6 0.000604 0.002010 0.006197 -0.010251 -0.003964 0.032569
#
#
# Mechanical properties :
#
#
# Convention : Reuss Voigt Hill
#
# Bulk Modulus (GPa) = 32.23856 50.94256 41.59056
# Shear Modulus (GPa) = 33.85033 43.53218 38.69126
#
# Velocity S-wave (km/s) = 3.76343 4.26783 4.02354
# Velocity P-wave (km/s) = 5.68977 6.75284 6.24397
#
# Compressibility (1/GPa) = 0.03101876
#
# Stress axis : x y z
#
# Youngs Moduli (GPa) = 109.90295 64.37052 97.74139
#
# Poissons Ratio (x) = 0.06668 0.15620
# Poissons Ratio (y) = 0.11385 -0.06948
# Poissons Ratio (z) = 0.17563 -0.04576
#
# Static dielectric constant tensor:
#      x y z
#    x 5.006920 -0.033950 0.166630 
#    y -0.033950 4.463340 0.113170 
#    z 0.166630 0.113170 4.696320 
# 
# 
# High freq. dielectric constant tensor:
#      x y z
#    x 1.942840 0.003810 0.003500 
#    y 0.003810 1.949610 0.008250 
#    z 0.003500 0.008250 1.969370 
# 
# From -- ./inp_files/90330.got.cif
#   From: 2010.06.25/outbox.cif.g09.slc.cpg/sg2_46_cif.got.tgz:90330.got - 2010.06.27 13:26:56.
