data_PCOD8022891
_publ_section_title
;
Structure prediction by ZEFSAII (Michael W. Deem and Ramdas Pophale) SiO2 
 PCOD8022891
Probable space group: P -1
;
_chemical_formula_sum "Si O2"
_cell_formula_units_Z 16
_cell_length_a 14.699925
_cell_length_b 8.827159
_cell_length_c 12.409116
_cell_angle_alpha 132.225210
_cell_angle_beta 66.099958
_cell_angle_gamma 140.696324
_cell_volume 732.271810
_symmetry_space_group_name_H-M "P -1"
_symmetry_group_IT_number 2
_symmetry_cell_setting 'triclinic'
loop_
_space_group_symop_operation_xyz
x,y,z
-x,-y,-z
loop_
_atom_site_type_symbol
_atom_site_label
_atom_site_fract_x
_atom_site_fract_y
_atom_site_fract_z
Si Si1 0.956929 0.237403 0.153685
Si Si2 0.486413 0.038414 0.646139
Si Si3 0.469921 0.235238 0.336715
Si Si4 0.987365 0.237681 0.376940
Si Si5 0.356852 0.425508 0.043526
Si Si6 0.239693 0.611161 0.056847
Si Si7 0.833675 0.469560 0.374854
Si Si8 0.240151 0.411061 0.743142
O O1 0.003144 0.195102 0.223793
O O2 0.949975 0.470516 0.286063
O O3 0.077831 0.354507 0.065107
O O4 0.795390 0.927834 0.040273
O O5 0.610709 0.399641 0.779189
O O6 0.500000 0.000000 0.500000
O O7 0.521210 0.889548 0.623219
O O8 0.324848 0.872618 0.682932
O O9 0.500000 0.500000 0.500000
O O10 0.587501 0.367985 0.250460
O O11 0.313556 0.942794 0.212930
O O12 0.000000 0.500000 0.500000
O O13 0.110289 0.335215 0.447591
O O14 0.830814 0.910570 0.337157
O O15 0.342352 0.574247 0.026396
O O16 0.500000 0.500000 0.000000
O O17 0.219405 0.559511 0.912867
O O18 0.829306 0.626096 0.355543
#
# Coordination Sequence:
#
# PCOD8022891 Si02
#       8
#     2   2   2   2   2   2   2   2
#     4  11  23  43  70 104 136 179 239 282 350 403
#     4  10  23  41  65  98 135 176 231 286 334 406
#     4  10  25  43  66  95 135 185 232 278 345 414
#     4  10  23  39  69  98 136 177 226 286 340 409
#     4  11  22  42  69  99 138 178 228 287 342 405
#     4  11  25  43  72 101 141 181 234 291 343 418
#     4  10  23  41  65 101 140 183 227 284 351 407
#     4  11  23  45  67  99 143 181 233 284 352 415
#
# _framework density 21.849809
#
# number of rings (size 3 to 8) (size 9 to 14) (size 15 to 20)
#    0.000    1.500    2.500    1.125    7.000    2.500 
#    2.250    0.000    0.000    0.000    0.000    0.000 
#    0.000    0.000    0.000    0.000    0.000    0.000 
#
# Total GULP energy -198259.757198 kJ/mol
# GULP energy per Si atom -12391.234825 kJ/mol
# Density = 2.180008 g / cm^3
# Si number density = 21.849809 Si / 1000 Ang^3
#
#
#
# Elastic Constant Matrix: (Units=GPa)
#
#
# Indices 1 2 3 4 5 6 
#
# 1 75.8218 37.3837 43.0272 -3.6904 1.0481 13.8912
# 2 37.3837 136.3704 82.7548 -2.6245 7.9337 3.9080
# 3 43.0272 82.7548 161.6870 2.3215 14.8097 7.8331
# 4 -3.6904 -2.6245 2.3215 46.6685 -1.4673 -0.1728
# 5 1.0481 7.9337 14.8097 -1.4673 35.4903 4.4270
# 6 13.8912 3.9080 7.8331 -0.1728 4.4270 24.9393
#
#
#
# Elastic Compliance Matrix: (Units=1/GPa)
#
#
# Indices 1 2 3 4 5 6 
#
# 1 0.018118 -0.002920 -0.003148 0.001474 0.002627 -0.009102
# 2 -0.002920 0.011143 -0.004964 0.000633 -0.000498 0.001532
# 3 -0.003148 -0.004964 0.009851 -0.001111 -0.002948 -0.000047
# 4 0.001474 0.000633 -0.001111 0.021672 0.001255 -0.000644
# 5 0.002627 -0.000498 -0.002948 0.001255 0.030218 -0.005815
# 6 -0.009102 0.001532 -0.000047 -0.000644 -0.005815 0.045969
#
#
# Mechanical properties :
#
#
# Convention : Reuss Voigt Hill
#
# Bulk Modulus (GPa) = 58.65550 77.80118 68.22834
# Shear Modulus (GPa) = 30.35494 35.46718 32.91106
#
# Velocity S-wave (km/s) = 3.73131 4.03330 3.88524
# Velocity P-wave (km/s) = 6.74290 7.57460 7.17082
#
# Compressibility (1/GPa) = 0.01704870
#
# Stress axis : x y z
#
# Youngs Moduli (GPa) = 55.19449 89.74279 101.50983
#
# Poissons Ratio (x) = 0.26207 0.31952
# Poissons Ratio (y) = 0.16118 0.50387
# Poissons Ratio (z) = 0.17373 0.44546
#
# Static dielectric constant tensor:
#      x y z
#    x 3.944150 -0.063790 0.272690 
#    y -0.063790 4.004080 0.240650 
#    z 0.272690 0.240650 4.473220 
# 
# 
# High freq. dielectric constant tensor:
#      x y z
#    x 1.837030 0.000630 0.013680 
#    y 0.000630 1.857420 0.010080 
#    z 0.013680 0.010080 1.878950 
# 
# From -- ./inp_files/448198.got.cif
#   From: 2010.06.25/outbox.cif.g09.slc.cpg/sg2_225_cif.got.tgz:448198.got - 2010.06.27 13:26:56.
