data_PCOD8022527
_publ_section_title
;
Structure prediction by ZEFSAII (Michael W. Deem and Ramdas Pophale) SiO2 
 PCOD8022527
Probable space group: P -1
;
_chemical_formula_sum "Si O2"
_cell_formula_units_Z 14
_cell_length_a 6.046701
_cell_length_b 17.813791
_cell_length_c 8.367575
_cell_angle_alpha 53.486830
_cell_angle_beta 118.456050
_cell_angle_gamma 129.484631
_cell_volume 552.048427
_symmetry_space_group_name_H-M "P -1"
_symmetry_group_IT_number 2
_symmetry_cell_setting 'triclinic'
loop_
_space_group_symop_operation_xyz
x,y,z
-x,-y,-z
loop_
_atom_site_type_symbol
_atom_site_label
_atom_site_fract_x
_atom_site_fract_y
_atom_site_fract_z
Si Si1 0.828638 0.050877 0.293862
Si Si2 0.656549 0.344192 0.527558
Si Si3 0.298305 0.830612 0.394209
Si Si4 0.722600 0.568153 0.854139
Si Si5 0.766213 0.486391 0.658464
Si Si6 0.733611 0.223742 0.187578
Si Si7 0.894490 0.885124 0.030352
O O1 0.870203 0.148393 0.295060
O O2 0.940205 0.097243 0.100293
O O3 0.493452 0.959411 0.287023
O O4 0.000000 0.000000 0.500000
O O5 0.586472 0.221781 0.633931
O O6 0.387829 0.359762 0.365657
O O7 0.734316 0.379496 0.695933
O O8 0.932743 0.413255 0.421706
O O9 0.326157 0.784805 0.632238
O O10 0.976881 0.811180 0.265365
O O11 0.761480 0.486585 0.850406
O O12 0.034807 0.651692 0.933136
O O13 0.500000 0.500000 0.000000
O O14 0.500000 0.500000 0.500000
O O15 0.448317 0.184670 0.031356
O O16 0.000000 0.000000 0.000000
#
# Coordination Sequence:
#
# PCOD8022527 Si02
#       7
#     2   2   2   2   2   2   2
#     4  12  24  46  75 112 155 194 245 316 385 462
#     4  10  22  46  73 107 143 200 258 314 388 450
#     4  12  24  48  77 109 158 199 248 320 383 465
#     4  11  25  48  73 108 151 205 260 320 387 457
#     4   9  20  46  71 101 142 185 261 311 374 450
#     4  12  26  50  73 111 153 202 256 313 388 458
#     4  12  27  49  74 113 154 203 257 307 380 469
#
# _framework density 25.360095999999999
#
# number of rings (size 3 to 8) (size 9 to 14) (size 15 to 20)
#    0.000    0.857    4.286    2.571    0.000    0.571 
#   10.286    0.000    0.000    0.000    0.000    0.000 
#    0.000    0.000    0.000    0.000    0.000    0.000 
#
# Total GULP energy -173595.752199 kJ/mol
# GULP energy per Si atom -12399.696586 kJ/mol
# Density = 2.530238 g / cm^3
# Si number density = 25.360096 Si / 1000 Ang^3
#
#
#
# Elastic Constant Matrix: (Units=GPa)
#
#
# Indices 1 2 3 4 5 6 
#
# 1 112.0663 66.2751 28.4976 20.6167 -13.4324 -19.8763
# 2 66.2751 173.4077 42.8069 24.3116 -18.4685 -15.9481
# 3 28.4976 42.8069 93.3674 24.7690 10.9167 -3.8191
# 4 20.6167 24.3116 24.7690 34.3842 10.2491 0.6090
# 5 -13.4324 -18.4685 10.9167 10.2491 53.4052 2.8766
# 6 -19.8763 -15.9481 -3.8191 0.6090 2.8766 66.8489
#
#
#
# Elastic Compliance Matrix: (Units=1/GPa)
#
#
# Indices 1 2 3 4 5 6 
#
# 1 0.013173 -0.003287 -0.001270 -0.005717 0.003373 0.002967
# 2 -0.003287 0.008476 -0.002348 -0.003290 0.003172 0.000804
# 3 -0.001270 -0.002348 0.014387 -0.007137 -0.002706 0.000066
# 4 -0.005717 -0.003290 -0.007137 0.042763 -0.009168 -0.002888
# 5 0.003373 0.003172 -0.002706 -0.009168 0.022945 0.000701
# 6 0.002967 0.000804 0.000066 -0.002888 0.000701 0.016033
#
#
# Mechanical properties :
#
#
# Convention : Reuss Voigt Hill
#
# Bulk Modulus (GPa) = 44.99327 72.66672 58.83000
# Shear Modulus (GPa) = 35.97278 47.01179 41.49228
#
# Velocity S-wave (km/s) = 3.77036 4.31021 4.04929
# Velocity P-wave (km/s) = 6.06089 7.31346 6.71644
#
# Compressibility (1/GPa) = 0.02222555
#
# Stress axis : x y z
#
# Youngs Moduli (GPa) = 75.91518 117.98243 69.50863
#
# Poissons Ratio (x) = 0.38785 0.08825
# Poissons Ratio (y) = 0.24956 0.16319
# Poissons Ratio (z) = 0.09639 0.27699
#
# Static dielectric constant tensor:
#      x y z
#    x 4.997890 -0.297150 -0.062740 
#    y -0.297150 5.094660 0.490300 
#    z -0.062740 0.490300 4.520220 
# 
# 
# High freq. dielectric constant tensor:
#      x y z
#    x 2.027430 -0.007270 0.007710 
#    y -0.007270 2.024300 0.020570 
#    z 0.007710 0.020570 2.008140 
# 
# From -- ./inp_files/138811.got.cif
#   From: 2010.06.25/outbox.cif.g09.slc.cpg/sg2_70_cif.got.tgz:138811.got - 2010.06.27 13:26:56.
