data_PCOD8022304
_publ_section_title
;
Structure prediction by ZEFSAII (Michael W. Deem and Ramdas Pophale) SiO2 
 PCOD8022304
Probable space group: P -1
;
_chemical_formula_sum "Si O2"
_cell_formula_units_Z 14
_cell_length_a 11.386219
_cell_length_b 9.253029
_cell_length_c 8.971389
_cell_angle_alpha 59.883941
_cell_angle_beta 52.262058
_cell_angle_gamma 58.830211
_cell_volume 615.211996
_symmetry_space_group_name_H-M "P -1"
_symmetry_group_IT_number 2
_symmetry_cell_setting 'triclinic'
loop_
_space_group_symop_operation_xyz
x,y,z
-x,-y,-z
loop_
_atom_site_type_symbol
_atom_site_label
_atom_site_fract_x
_atom_site_fract_y
_atom_site_fract_z
Si Si1 0.647580 0.011707 0.467963
Si Si2 0.003253 0.630323 0.722045
Si Si3 0.815957 0.723015 0.102098
Si Si4 0.485916 0.837984 0.192174
Si Si5 0.176049 0.375442 0.396760
Si Si6 0.824967 0.068962 0.051998
Si Si7 0.249378 0.682800 0.295052
O O1 0.773903 0.817705 0.473160
O O2 0.500000 0.000000 0.500000
O O3 0.609966 0.090190 0.620713
O O4 0.722839 0.136012 0.246590
O O5 0.115748 0.428763 0.750856
O O6 0.105094 0.733345 0.499586
O O7 0.837860 0.644427 0.761498
O O8 0.952885 0.712822 0.880485
O O9 0.656685 0.704360 0.165235
O O10 0.765671 0.913012 0.115674
O O11 0.397555 0.724357 0.227697
O O12 0.500000 0.000000 0.000000
O O13 0.293436 0.478383 0.313349
O O14 0.000000 0.500000 0.500000
O O15 0.804168 0.215114 0.869081
O O16 0.000000 0.000000 0.000000
#
# Coordination Sequence:
#
# PCOD8022304 Si02
#       7
#     2   2   2   2   2   2   2
#     4  12  25  46  72 100 142 187 229 282 358 409
#     4  10  23  43  71 102 132 190 227 294 338 419
#     4  11  23  44  68  97 147 176 235 282 357 402
#     4  12  25  46  69 102 144 181 226 293 348 413
#     4  10  22  45  70  98 138 180 231 285 346 407
#     4  12  24  41  68 102 136 181 235 290 335 420
#     4  11  24  43  72 102 137 180 237 285 347 414
#
# _framework density 22.756381000000001
#
# number of rings (size 3 to 8) (size 9 to 14) (size 15 to 20)
#    0.000    0.857    2.857    5.143    2.000    1.143 
#    0.000    5.000    0.000    0.000    0.000    0.000 
#    0.000    0.000    0.000    0.000    0.000    0.000 
#
# Total GULP energy -173518.664599 kJ/mol
# GULP energy per Si atom -12394.190328 kJ/mol
# Density = 2.270459 g / cm^3
# Si number density = 22.756381 Si / 1000 Ang^3
#
#
#
# Elastic Constant Matrix: (Units=GPa)
#
#
# Indices 1 2 3 4 5 6 
#
# 1 127.9638 5.6804 26.2133 -15.8167 -6.0510 4.9567
# 2 5.6804 54.4778 23.2821 -8.0838 5.9058 -7.6083
# 3 26.2133 23.2821 169.5152 -3.4277 11.5476 -3.0644
# 4 -15.8167 -8.0838 -3.4277 28.3712 -2.1674 -2.9452
# 5 -6.0510 5.9058 11.5476 -2.1674 37.1776 -6.3809
# 6 4.9567 -7.6083 -3.0644 -2.9452 -6.3809 39.5233
#
#
#
# Elastic Compliance Matrix: (Units=1/GPa)
#
#
# Indices 1 2 3 4 5 6 
#
# 1 0.008823 0.000124 -0.001432 0.004887 0.002061 -0.000497
# 2 0.000124 0.021089 -0.002620 0.006071 -0.001466 0.004057
# 3 -0.001432 -0.002620 0.006591 -0.000918 -0.001952 -0.000197
# 4 0.004887 0.006071 -0.000918 0.040245 0.003148 0.003992
# 5 0.002061 -0.001466 -0.001952 0.003148 0.028980 0.004221
# 6 -0.000497 0.004057 -0.000197 0.003992 0.004221 0.027108
#
#
# Mechanical properties :
#
#
# Convention : Reuss Voigt Hill
#
# Bulk Modulus (GPa) = 34.90545 51.36759 43.13652
# Shear Modulus (GPa) = 33.27964 40.79983 37.03974
#
# Velocity S-wave (km/s) = 3.82832 4.23885 4.03881
# Velocity P-wave (km/s) = 5.90876 6.82488 6.38328
#
# Compressibility (1/GPa) = 0.02864882
#
# Stress axis : x y z
#
# Youngs Moduli (GPa) = 113.33626 47.41807 151.71631
#
# Poissons Ratio (x) = -0.00590 0.21726
# Poissons Ratio (y) = -0.01410 0.39746
# Poissons Ratio (z) = 0.16230 0.12422
#
# Static dielectric constant tensor:
#      x y z
#    x 4.969260 0.551300 -0.254350 
#    y 0.551300 4.289770 -0.309160 
#    z -0.254350 -0.309160 4.643460 
# 
# 
# High freq. dielectric constant tensor:
#      x y z
#    x 1.915490 -0.001670 0.020820 
#    y -0.001670 1.875310 0.004690 
#    z 0.020820 0.004690 1.912540 
# 
# From -- ./inp_files/159374.got.cif
#   From: 2010.06.25/outbox.cif.g09.slc.cpg/sg2_80_cif.got.tgz:159374.got - 2010.06.27 13:26:56.
