data_PCOD8022752
_publ_section_title
;
Structure prediction by ZEFSAII (Michael W. Deem and Ramdas Pophale) SiO2 
 PCOD8022752
Probable space group: P -1
;
_chemical_formula_sum "Si O2"
_cell_formula_units_Z 14
_cell_length_a 9.242808
_cell_length_b 11.752702
_cell_length_c 18.134294
_cell_angle_alpha 35.642287
_cell_angle_beta 146.077463
_cell_angle_gamma 130.063403
_cell_volume 637.747375
_symmetry_space_group_name_H-M "P -1"
_symmetry_group_IT_number 2
_symmetry_cell_setting 'triclinic'
loop_
_space_group_symop_operation_xyz
x,y,z
-x,-y,-z
loop_
_atom_site_type_symbol
_atom_site_label
_atom_site_fract_x
_atom_site_fract_y
_atom_site_fract_z
Si Si1 0.828275 0.679789 0.367603
Si Si2 0.283663 0.758722 0.139741
Si Si3 0.852720 0.612677 0.127205
Si Si4 0.649097 0.811608 0.072857
Si Si5 0.961234 0.018844 0.597602
Si Si6 0.321090 0.805806 0.744890
Si Si7 0.910225 0.285148 0.074799
O O1 0.550081 0.617220 0.312615
O O2 0.759251 0.832770 0.190889
O O3 0.000000 0.500000 0.500000
O O4 0.979115 0.781765 0.441512
O O5 0.093429 0.779276 0.977696
O O6 0.132322 0.670155 0.189346
O O7 0.370883 0.972399 0.085173
O O8 0.834829 0.660719 0.181403
O O9 0.840967 0.383979 0.227693
O O10 0.624752 0.743426 0.918300
O O11 0.372372 0.721886 0.003843
O O12 0.209229 0.939184 0.694953
O O13 0.895274 0.859371 0.715864
O O14 0.714811 0.072896 0.411024
O O15 0.000000 0.500000 0.000000
#
# Coordination Sequence:
#
# PCOD8022752 Si02
#       7
#     2   2   2   2   2   2   2
#     4  11  22  41  67  95 127 177 220 274 334 386
#     4  11  22  40  67  97 130 175 219 273 326 397
#     4  11  22  41  65 101 129 177 232 253 336 404
#     4  11  21  42  67  94 133 177 213 276 328 393
#     4  11  20  43  64  94 135 176 218 272 338 380
#     4  10  23  38  67  93 139 179 209 280 324 391
#     4  11  21  38  68  95 129 176 223 266 327 395
#
# _framework density 21.952264
#
# number of rings (size 3 to 8) (size 9 to 14) (size 15 to 20)
#    0.000    1.143    4.286    3.000    2.000    0.000 
#    0.000    9.286    0.000    0.000    0.000    0.000 
#    0.000    0.000    0.000    0.000    0.000    0.000 
#
# Total GULP energy -173586.512600 kJ/mol
# GULP energy per Si atom -12399.036614 kJ/mol
# Density = 2.190230 g / cm^3
# Si number density = 21.952264 Si / 1000 Ang^3
#
#
#
# Elastic Constant Matrix: (Units=GPa)
#
#
# Indices 1 2 3 4 5 6 
#
# 1 112.6385 40.4726 4.0325 -10.1011 8.5013 0.2184
# 2 40.4726 104.4974 12.7484 -19.0668 0.6905 -5.0459
# 3 4.0325 12.7484 68.9187 -5.0847 1.2358 -2.1544
# 4 -10.1011 -19.0668 -5.0847 33.4269 -11.3642 -5.7157
# 5 8.5013 0.6905 1.2358 -11.3642 36.9483 -0.6901
# 6 0.2184 -5.0459 -2.1544 -5.7157 -0.6901 45.1340
#
#
#
# Elastic Compliance Matrix: (Units=1/GPa)
#
#
# Indices 1 2 3 4 5 6 
#
# 1 0.010527 -0.004116 0.000168 -0.000041 -0.002374 -0.000545
# 2 -0.004116 0.012767 -0.001569 0.007228 0.003028 0.002334
# 3 0.000168 -0.001569 0.014927 0.001545 -0.000020 0.000732
# 4 -0.000041 0.007228 0.001545 0.039394 0.012052 0.006055
# 5 -0.002374 0.003028 -0.000020 0.012052 0.031306 0.002354
# 6 -0.000545 0.002334 0.000732 0.006055 0.002354 0.023258
#
#
# Mechanical properties :
#
#
# Convention : Reuss Voigt Hill
#
# Bulk Modulus (GPa) = 36.78107 44.50685 40.64396
# Shear Modulus (GPa) = 32.83519 38.35525 35.59522
#
# Velocity S-wave (km/s) = 3.87169 4.18450 4.03113
# Velocity P-wave (km/s) = 6.06449 6.60796 6.34205
#
# Compressibility (1/GPa) = 0.02718790
#
# Stress axis : x y z
#
# Youngs Moduli (GPa) = 94.99039 78.32889 66.99081
#
# Poissons Ratio (x) = 0.32240 -0.01125
# Poissons Ratio (y) = 0.39097 0.10509
# Poissons Ratio (z) = -0.01595 0.12288
#
# Static dielectric constant tensor:
#      x y z
#    x 3.949420 -0.256960 -0.171200 
#    y -0.256960 3.829060 0.083400 
#    z -0.171200 0.083400 4.150470 
# 
# 
# High freq. dielectric constant tensor:
#      x y z
#    x 1.859160 -0.025720 -0.008170 
#    y -0.025720 1.859460 0.000280 
#    z -0.008170 0.000280 1.857040 
# 
# From -- ./inp_files/153883.got.cif
#   From: 2010.06.25/outbox.cif.g09.slc.cpg/sg2_77_cif.got.tgz:153883.got - 2010.06.27 13:26:56.
