data_PCOD8022825
_publ_section_title
;
Structure prediction by ZEFSAII (Michael W. Deem and Ramdas Pophale) SiO2 
 PCOD8022825
Probable space group: P -1
;
_chemical_formula_sum "Si O2"
_cell_formula_units_Z 14
_cell_length_a 13.900769
_cell_length_b 29.857085
_cell_length_c 12.084754
_cell_angle_alpha 159.063160
_cell_angle_beta 29.607495
_cell_angle_gamma 158.431178
_cell_volume 658.858553
_symmetry_space_group_name_H-M "P -1"
_symmetry_group_IT_number 2
_symmetry_cell_setting 'triclinic'
loop_
_space_group_symop_operation_xyz
x,y,z
-x,-y,-z
loop_
_atom_site_type_symbol
_atom_site_label
_atom_site_fract_x
_atom_site_fract_y
_atom_site_fract_z
Si Si1 0.526190 0.127234 0.687098
Si Si2 0.891225 0.982963 0.330847
Si Si3 0.456185 0.860201 0.650055
Si Si4 0.676531 0.633381 0.230122
Si Si5 0.954529 0.239503 0.351707
Si Si6 0.668540 0.424875 0.364127
Si Si7 0.910875 0.485034 0.678279
O O1 0.279662 0.029049 0.624164
O O2 0.808643 0.229592 0.583053
O O3 0.500000 0.000000 0.500000
O O4 0.516838 0.251172 0.051066
O O5 0.719790 0.921160 0.470907
O O6 0.164739 0.173775 0.517912
O O7 0.969612 0.873702 0.974488
O O8 0.237926 0.814865 0.680865
O O9 0.357032 0.705478 0.471159
O O10 0.500000 0.000000 0.000000
O O11 0.519405 0.584421 0.386442
O O12 0.500000 0.500000 0.000000
O O13 0.887435 0.622693 0.029853
O O14 0.220954 0.431500 0.507086
O O15 0.889925 0.462615 0.305540
O O16 0.000000 0.500000 0.500000
#
# Coordination Sequence:
#
# PCOD8022825 Si02
#       7
#     2   2   2   2   2   2   2
#     4  11  24  44  69  95 128 168 218 267 322 384
#     4  11  25  43  64  96 132 168 217 270 320 383
#     4  10  23  39  64  92 128 174 211 262 320 380
#     4  12  25  39  64  95 129 169 215 262 322 384
#     4  10  24  43  65  97 129 168 217 264 322 385
#     4  11  24  43  67  96 128 172 214 263 324 383
#     4  11  22  41  63  91 131 167 211 262 317 380
#
# _framework density 21.248871000000001
#
# number of rings (size 3 to 8) (size 9 to 14) (size 15 to 20)
#    0.000    1.143    1.429    3.857    4.000    6.857 
#    0.000    0.000    0.000    0.000    0.000    0.000 
#    0.000    0.000    0.000    0.000    0.000    0.000 
#
# Total GULP energy -173566.728784 kJ/mol
# GULP energy per Si atom -12397.623485 kJ/mol
# Density = 2.120051 g / cm^3
# Si number density = 21.248871 Si / 1000 Ang^3
#
#
#
# Elastic Constant Matrix: (Units=GPa)
#
#
# Indices 1 2 3 4 5 6 
#
# 1 69.5036 41.2798 37.0182 2.7058 -5.1457 -16.2332
# 2 41.2798 122.9719 37.8606 -4.1383 6.6571 -18.1286
# 3 37.0182 37.8606 132.9522 -5.1732 1.4301 -5.7562
# 4 2.7058 -4.1383 -5.1732 50.6313 -0.5719 -1.9244
# 5 -5.1457 6.6571 1.4301 -0.5719 44.3465 -4.4808
# 6 -16.2332 -18.1286 -5.7562 -1.9244 -4.4808 33.8096
#
#
#
# Elastic Compliance Matrix: (Units=1/GPa)
#
#
# Indices 1 2 3 4 5 6 
#
# 1 0.021946 -0.005191 -0.004421 -0.001718 0.004200 0.007460
# 2 -0.005191 0.010895 -0.001468 0.001107 -0.001882 0.002913
# 3 -0.004421 -0.001468 0.009157 0.000991 -0.000716 -0.001389
# 4 -0.001718 0.001107 0.000991 0.020075 -0.000030 0.001076
# 5 0.004200 -0.001882 -0.000716 -0.000030 0.023750 0.004031
# 6 0.007460 0.002913 -0.001389 0.001076 0.004031 0.035080
#
#
# Mechanical properties :
#
#
# Convention : Reuss Voigt Hill
#
# Bulk Modulus (GPa) = 50.41031 61.97169 56.19100
# Shear Modulus (GPa) = 33.40593 39.70877 36.55735
#
# Velocity S-wave (km/s) = 3.96931 4.32759 4.15232
# Velocity P-wave (km/s) = 6.69197 7.36198 7.03496
#
# Compressibility (1/GPa) = 0.01983721
#
# Stress axis : x y z
#
# Youngs Moduli (GPa) = 45.56707 91.78514 109.21121
#
# Poissons Ratio (x) = 0.47647 0.48284
# Poissons Ratio (y) = 0.23654 0.16029
# Poissons Ratio (z) = 0.20146 0.13472
#
# Static dielectric constant tensor:
#      x y z
#    x 3.811490 -0.089750 -0.146680 
#    y -0.089750 4.162430 0.063110 
#    z -0.146680 0.063110 4.023270 
# 
# 
# High freq. dielectric constant tensor:
#      x y z
#    x 1.834490 -0.008250 -0.005430 
#    y -0.008250 1.847890 -0.004070 
#    z -0.005430 -0.004070 1.848940 
# 
# From -- ./inp_files/46714.got.cif
#   From: 2010.06.25/outbox.cif.g09.slc.cpg/sg2_24_cif.got.tgz:46714.got - 2010.06.27 13:26:56.
