data_PCOD8022880
_publ_section_title
;
Structure prediction by ZEFSAII (Michael W. Deem and Ramdas Pophale) SiO2 
 PCOD8022880
Probable space group: P -1
;
_chemical_formula_sum "Si O2"
_cell_formula_units_Z 16
_cell_length_a 9.138007
_cell_length_b 11.045394
_cell_length_c 10.538777
_cell_angle_alpha 119.486765
_cell_angle_beta 124.855745
_cell_angle_gamma 63.771651
_cell_volume 740.346198
_symmetry_space_group_name_H-M "P -1"
_symmetry_group_IT_number 2
_symmetry_cell_setting 'triclinic'
loop_
_space_group_symop_operation_xyz
x,y,z
-x,-y,-z
loop_
_atom_site_type_symbol
_atom_site_label
_atom_site_fract_x
_atom_site_fract_y
_atom_site_fract_z
Si Si1 0.041472 0.462790 0.647011
Si Si2 0.320481 0.626392 0.976504
Si Si3 0.574122 0.269085 0.666721
Si Si4 0.269795 0.096779 0.849275
Si Si5 0.644962 0.469743 0.448819
Si Si6 0.714963 0.848140 0.400611
Si Si7 0.102197 0.924546 0.386423
Si Si8 0.588178 0.211241 0.127007
O O1 0.840935 0.468913 0.609222
O O2 0.000000 0.500000 0.500000
O O3 0.137550 0.575965 0.820768
O O4 0.166438 0.307993 0.650022
O O5 0.347914 0.751863 0.961323
O O6 0.500000 0.500000 0.000000
O O7 0.296005 0.689088 0.138564
O O8 0.414808 0.405517 0.620543
O O9 0.466694 0.154751 0.611338
O O10 0.709134 0.201074 0.581632
O O11 0.331761 0.074907 0.720382
O O12 0.050987 0.146379 0.790758
O O13 0.317130 0.947975 0.870134
O O14 0.369486 0.215222 0.018952
O O15 0.500000 0.500000 0.500000
O O16 0.644145 0.318261 0.309378
O O17 0.834475 0.943739 0.585984
O O18 0.000000 0.000000 0.500000
#
# Coordination Sequence:
#
# PCOD8022880 Si02
#       8
#     2   2   2   2   2   2   2   2
#     4  12  22  42  73 103 134 178 223 279 349 401
#     4  12  21  43  73 103 136 176 225 287 338 406
#     4  12  24  45  70 103 132 180 234 279 346 405
#     4  10  23  39  68  95 131 188 221 267 346 406
#     4  12  28  41  66 105 142 172 225 287 339 407
#     4  11  21  41  70  96 133 176 228 277 335 404
#     4  10  25  42  65  95 133 178 227 280 332 408
#     4  11  21  43  68  94 140 176 222 281 342 399
#
# _framework density 21.611512999999999
#
# number of rings (size 3 to 8) (size 9 to 14) (size 15 to 20)
#    0.000    0.750    6.250    1.125    7.000    1.000 
#    0.000    1.875    0.000    0.000    0.000    0.000 
#    0.000    0.000    0.000    0.000    0.000    0.000 
#
# Total GULP energy -198222.224835 kJ/mol
# GULP energy per Si atom -12388.889052 kJ/mol
# Density = 2.156232 g / cm^3
# Si number density = 21.611513 Si / 1000 Ang^3
#
#
#
# Elastic Constant Matrix: (Units=GPa)
#
#
# Indices 1 2 3 4 5 6 
#
# 1 115.6589 30.6050 53.3480 1.8731 32.2899 -9.6303
# 2 30.6050 81.4736 23.8321 1.7038 10.9697 7.3822
# 3 53.3480 23.8321 117.3357 6.8975 42.0226 2.4818
# 4 1.8731 1.7038 6.8975 31.3205 9.0320 1.5299
# 5 32.2899 10.9697 42.0226 9.0320 55.0787 -0.1030
# 6 -9.6303 7.3822 2.4818 1.5299 -0.1030 37.2321
#
#
#
# Elastic Compliance Matrix: (Units=1/GPa)
#
#
# Indices 1 2 3 4 5 6 
#
# 1 0.012815 -0.003558 -0.003796 0.001241 -0.004103 0.004211
# 2 -0.003558 0.014289 -0.001283 -0.000173 0.000241 -0.003660
# 3 -0.003796 -0.001283 0.013286 -0.000358 -0.007600 -0.001619
# 4 0.001241 -0.000173 -0.000358 0.033708 -0.005949 -0.001022
# 5 -0.004103 0.000241 -0.007600 -0.005949 0.027287 -0.000282
# 6 0.004211 -0.003660 -0.001619 -0.001022 -0.000282 0.028823
#
#
# Mechanical properties :
#
#
# Convention : Reuss Voigt Hill
#
# Bulk Modulus (GPa) = 43.26192 58.89315 51.07753
# Shear Modulus (GPa) = 32.21923 38.50513 35.36218
#
# Velocity S-wave (km/s) = 3.86532 4.22559 4.04947
# Velocity P-wave (km/s) = 6.32317 7.14965 6.74907
#
# Compressibility (1/GPa) = 0.02311502
#
# Stress axis : x y z
#
# Youngs Moduli (GPa) = 78.03507 69.98521 75.26554
#
# Poissons Ratio (x) = 0.24903 0.28571
# Poissons Ratio (y) = 0.27768 0.09656
# Poissons Ratio (z) = 0.29623 0.08979
#
# Static dielectric constant tensor:
#      x y z
#    x 4.307700 0.009720 0.911000 
#    y 0.009720 4.776160 -0.908070 
#    z 0.911000 -0.908070 5.054180 
# 
# 
# High freq. dielectric constant tensor:
#      x y z
#    x 1.849940 0.020320 0.031440 
#    y 0.020320 1.844550 0.002560 
#    z 0.031440 0.002560 1.848790 
# 
# From -- ./inp_files/391186.got.cif
#   From: 2010.06.25/outbox.cif.g09.slc.cpg/sg2_196_cif.got.tgz:391186.got - 2010.06.27 13:26:56.
