data_PCOD8022062
_publ_section_title
;
Structure prediction by ZEFSAII (Michael W. Deem and Ramdas Pophale) SiO2 
 PCOD8022062
Probable space group: P -1
;
_chemical_formula_sum "Si O2"
_cell_formula_units_Z 16
_cell_length_a 8.601778
_cell_length_b 15.321192
_cell_length_c 12.099442
_cell_angle_alpha 28.180845
_cell_angle_beta 89.823704
_cell_angle_gamma 81.826466
_cell_volume 719.462381
_symmetry_space_group_name_H-M "P -1"
_symmetry_group_IT_number 2
_symmetry_cell_setting 'triclinic'
loop_
_space_group_symop_operation_xyz
x,y,z
-x,-y,-z
loop_
_atom_site_type_symbol
_atom_site_label
_atom_site_fract_x
_atom_site_fract_y
_atom_site_fract_z
Si Si1 0.354337 0.356696 0.084746
Si Si2 0.573377 0.469847 0.413235
Si Si3 0.002782 0.831781 0.810915
Si Si4 0.058235 0.740621 0.672414
Si Si5 0.264873 0.265700 0.417189
Si Si6 0.753180 0.727556 0.049915
Si Si7 0.653300 0.356421 0.963024
Si Si8 0.469672 0.929954 0.198950
O O1 0.349384 0.232698 0.332633
O O2 0.222229 0.568192 0.846590
O O3 0.328195 0.236611 0.111750
O O4 0.537256 0.377712 0.047180
O O5 0.500000 0.500000 0.500000
O O6 0.740962 0.528996 0.331544
O O7 0.447814 0.637210 0.155360
O O8 0.592995 0.259241 0.599537
O O9 0.987412 0.724615 0.814033
O O10 0.897356 0.057377 0.558712
O O11 0.940343 0.722345 0.033331
O O12 0.191052 0.834337 0.823948
O O13 0.921234 0.738382 0.584454
O O14 0.259361 0.476232 0.224682
O O15 0.369642 0.110934 0.678458
O O16 0.675194 0.906311 0.929922
O O17 0.500000 0.000000 0.000000
#
# Coordination Sequence:
#
# PCOD8022062 Si02
#       8
#     2   2   2   2   2   2   2   2
#     4  11  22  41  66 100 137 184 224 267 352 410
#     4  10  22  44  73  95 127 184 226 284 343 396
#     4  11  24  40  60 100 142 182 226 276 339 402
#     4  11  24  39  63  97 150 183 217 279 336 416
#     4  11  22  39  67  95 134 183 220 276 343 406
#     4  11  24  41  69  98 139 175 226 280 343 404
#     4  10  23  39  66  96 135 177 230 276 333 417
#     4  11  25  44  71 104 133 174 236 288 336 405
#
# _framework density 22.238827000000001
#
# number of rings (size 3 to 8) (size 9 to 14) (size 15 to 20)
#    0.000    1.250    3.750    1.500    8.750    1.500 
#    0.000    0.625    5.500    1.500    0.000    0.000 
#    0.000    0.000    0.000    0.000    0.000    0.000 
#
# Total GULP energy -198328.265800 kJ/mol
# GULP energy per Si atom -12395.516612 kJ/mol
# Density = 2.218821 g / cm^3
# Si number density = 22.238827 Si / 1000 Ang^3
#
#
#
# Elastic Constant Matrix: (Units=GPa)
#
#
# Indices 1 2 3 4 5 6 
#
# 1 134.8962 40.9167 50.9413 4.0166 -3.9230 -24.1782
# 2 40.9167 120.3159 44.7771 6.7459 -0.6112 -21.1424
# 3 50.9413 44.7771 88.8829 13.2959 -3.4192 -14.2137
# 4 4.0166 6.7459 13.2959 46.0077 -0.7964 -3.7417
# 5 -3.9230 -0.6112 -3.4192 -0.7964 29.8857 6.0018
# 6 -24.1782 -21.1424 -14.2137 -3.7417 6.0018 28.4032
#
#
#
# Elastic Compliance Matrix: (Units=1/GPa)
#
#
# Indices 1 2 3 4 5 6 
#
# 1 0.010542 -0.000752 -0.004847 0.001089 -0.000406 0.006218
# 2 -0.000752 0.011203 -0.004354 0.000132 -0.001542 0.005863
# 3 -0.004847 -0.004354 0.016885 -0.003770 0.001032 0.000367
# 4 0.001089 0.000132 -0.003770 0.022886 -0.000113 0.002177
# 5 -0.000406 -0.001542 0.001032 -0.000113 0.035183 -0.008426
# 6 0.006218 0.005863 0.000367 0.002177 -0.008426 0.047116
#
#
# Mechanical properties :
#
#
# Convention : Reuss Voigt Hill
#
# Bulk Modulus (GPa) = 53.41042 68.59615 61.00328
# Shear Modulus (GPa) = 29.41839 34.68998 32.05419
#
# Velocity S-wave (km/s) = 3.64103 3.95382 3.80065
# Velocity P-wave (km/s) = 6.46104 7.19415 6.83743
#
# Compressibility (1/GPa) = 0.01872294
#
# Stress axis : x y z
#
# Youngs Moduli (GPa) = 94.86014 89.26477 59.22416
#
# Poissons Ratio (x) = 0.06708 0.28709
# Poissons Ratio (y) = 0.07129 0.25788
# Poissons Ratio (z) = 0.45983 0.38868
#
# Static dielectric constant tensor:
#      x y z
#    x 4.247210 0.039170 -0.126100 
#    y 0.039170 4.062750 0.066150 
#    z -0.126100 0.066150 4.100350 
# 
# 
# High freq. dielectric constant tensor:
#      x y z
#    x 1.873710 0.001240 -0.016400 
#    y 0.001240 1.875280 -0.012550 
#    z -0.016400 -0.012550 1.861030 
# 
# From -- ./inp_files/398158.got.cif
#   From: 2010.06.25/outbox.cif.g09.slc.cpg/sg2_200_cif.got.tgz:398158.got - 2010.06.27 13:26:56.
