data_PCOD8022426
_publ_section_title
;
Structure prediction by ZEFSAII (Michael W. Deem and Ramdas Pophale) SiO2 
 PCOD8022426
Probable space group: P -1
;
_chemical_formula_sum "Si O2"
_cell_formula_units_Z 16
_cell_length_a 25.273075
_cell_length_b 9.076265
_cell_length_c 6.689700
_cell_angle_alpha 130.878357
_cell_angle_beta 112.183780
_cell_angle_gamma 40.643427
_cell_volume 733.331746
_symmetry_space_group_name_H-M "P -1"
_symmetry_group_IT_number 2
_symmetry_cell_setting 'triclinic'
loop_
_space_group_symop_operation_xyz
x,y,z
-x,-y,-z
loop_
_atom_site_type_symbol
_atom_site_label
_atom_site_fract_x
_atom_site_fract_y
_atom_site_fract_z
Si Si1 0.603938 0.084972 0.150305
Si Si2 0.015027 0.259100 0.708451
Si Si3 0.145615 0.015379 0.348295
Si Si4 0.317534 0.429144 0.926038
Si Si5 0.849722 0.611621 0.525329
Si Si6 0.316232 0.111749 0.322661
Si Si7 0.938597 0.039380 0.091566
Si Si8 0.586413 0.415717 0.758475
O O1 0.613982 0.265560 0.444421
O O2 0.511190 0.292646 0.116448
O O3 0.621973 0.858630 0.116694
O O4 0.670740 0.900552 0.904748
O O5 0.934788 0.411290 0.596645
O O6 0.101821 0.058685 0.529641
O O7 0.025886 0.069268 0.729267
O O8 0.000000 0.500000 0.000000
O O9 0.154321 0.227578 0.523642
O O10 0.232784 0.685824 0.155699
O O11 0.083506 0.117765 0.165541
O O12 0.302940 0.356643 0.627068
O O13 0.363996 0.517794 0.040792
O O14 0.763397 0.837079 0.724024
O O15 0.853190 0.379410 0.249672
O O16 0.395994 0.801638 0.253391
O O17 0.000000 0.000000 0.000000
#
# Coordination Sequence:
#
# PCOD8022426 Si02
#       8
#     2   2   2   2   2   2   2   2
#     4  10  24  42  69  98 132 169 221 264 328 400
#     4  12  26  43  67  97 126 175 223 261 328 388
#     4  12  25  44  65  93 134 172 216 271 322 383
#     4  11  24  41  67  98 133 171 217 271 327 384
#     4  12  24  44  64  92 133 170 216 271 321 381
#     4  11  24  41  67 100 131 171 220 269 328 389
#     4  12  25  44  68  92 128 172 218 270 320 384
#     4  10  22  46  66  96 133 175 211 271 330 388
#
# _framework density 21.818228000000001
#
# number of rings (size 3 to 8) (size 9 to 14) (size 15 to 20)
#    0.000    0.750    5.000    2.250    1.750    2.500 
#    0.000    0.000    0.000    0.000    0.000    0.000 
#    0.000    0.000    0.000    0.000    0.000    0.000 
#
# Total GULP energy -198294.319244 kJ/mol
# GULP energy per Si atom -12393.394953 kJ/mol
# Density = 2.176857 g / cm^3
# Si number density = 21.818228 Si / 1000 Ang^3
#
#
#
# Elastic Constant Matrix: (Units=GPa)
#
#
# Indices 1 2 3 4 5 6 
#
# 1 95.7281 18.2554 39.2243 -1.8781 -0.4033 7.2765
# 2 18.2554 75.4385 18.3715 16.8089 -3.4803 13.0782
# 3 39.2243 18.3715 92.0343 5.1311 -8.7888 12.3344
# 4 -1.8781 16.8089 5.1311 28.8508 4.4064 -3.3318
# 5 -0.4033 -3.4803 -8.7888 4.4064 36.3157 -0.6392
# 6 7.2765 13.0782 12.3344 -3.3318 -0.6392 32.2745
#
#
#
# Elastic Compliance Matrix: (Units=1/GPa)
#
#
# Indices 1 2 3 4 5 6 
#
# 1 0.013315 -0.002956 -0.005586 0.003963 -0.001956 0.000701
# 2 -0.002956 0.018245 -0.000384 -0.012103 0.002955 -0.007771
# 3 -0.005586 -0.000384 0.014493 -0.003810 0.003793 -0.004442
# 4 0.003963 -0.012103 -0.003810 0.044915 -0.007312 0.009959
# 5 -0.001956 0.002955 0.003793 -0.007312 0.029561 -0.002375
# 6 0.000701 -0.007771 -0.004442 0.009959 -0.002375 0.036654
#
#
# Mechanical properties :
#
#
# Convention : Reuss Voigt Hill
#
# Bulk Modulus (GPa) = 35.46087 46.10036 40.78062
# Shear Modulus (GPa) = 27.10980 31.97818 29.54399
#
# Velocity S-wave (km/s) = 3.52878 3.83255 3.68380
# Velocity P-wave (km/s) = 5.73508 6.38434 6.06840
#
# Compressibility (1/GPa) = 0.02820010
#
# Stress axis : x y z
#
# Youngs Moduli (GPa) = 75.10191 54.81012 68.99937
#
# Poissons Ratio (x) = 0.16204 0.38546
# Poissons Ratio (y) = 0.22203 0.02647
# Poissons Ratio (z) = 0.41955 0.02103
#
# Static dielectric constant tensor:
#      x y z
#    x 3.468510 -0.256010 -0.510050 
#    y -0.256010 3.961980 -0.112720 
#    z -0.510050 -0.112720 3.314970 
# 
# 
# High freq. dielectric constant tensor:
#      x y z
#    x 1.857420 -0.001600 0.010100 
#    y -0.001600 1.863220 0.017110 
#    z 0.010100 0.017110 1.863270 
# 
# From -- ./inp_files/126518.got.cif
#   From: 2010.06.25/outbox.cif.g09.slc.cpg/sg2_64_cif.got.tgz:126518.got - 2010.06.27 13:26:56.
