data_PCOD8022087
_publ_section_title
;
Structure prediction by ZEFSAII (Michael W. Deem and Ramdas Pophale) SiO2 
 PCOD8022087
Probable space group: P -1
;
_chemical_formula_sum "Si O2"
_cell_formula_units_Z 16
_cell_length_a 15.834984
_cell_length_b 15.332480
_cell_length_c 16.120844
_cell_angle_alpha 35.142851
_cell_angle_beta 161.101738
_cell_angle_gamma 145.575134
_cell_volume 701.617574
_symmetry_space_group_name_H-M "P -1"
_symmetry_group_IT_number 2
_symmetry_cell_setting 'triclinic'
loop_
_space_group_symop_operation_xyz
x,y,z
-x,-y,-z
loop_
_atom_site_type_symbol
_atom_site_label
_atom_site_fract_x
_atom_site_fract_y
_atom_site_fract_z
Si Si1 0.224108 0.753666 0.707857
Si Si2 0.877295 0.295260 0.959525
Si Si3 0.814669 0.941203 0.130004
Si Si4 0.530065 0.260745 0.394756
Si Si5 0.383866 0.562403 0.264779
Si Si6 0.705251 0.395801 0.282933
Si Si7 0.063272 0.928506 0.028831
Si Si8 0.773802 0.503374 0.560489
O O1 0.283962 0.698038 0.716856
O O2 0.019468 0.861357 0.427467
O O3 0.082498 0.604301 0.750979
O O4 0.505616 0.848600 0.937669
O O5 0.741615 0.302509 0.919315
O O6 0.736079 0.354618 0.703380
O O7 0.171853 0.415325 0.140238
O O8 0.883721 0.118416 0.089431
O O9 0.852895 0.938354 0.067817
O O10 0.594364 0.268893 0.350576
O O11 0.686419 0.145721 0.671139
O O12 0.634440 0.434367 0.397433
O O13 0.206862 0.200278 0.154250
O O14 0.500000 0.500000 0.500000
O O15 0.616948 0.621599 0.365446
O O16 0.000000 0.500000 0.500000
O O17 0.500000 0.500000 0.000000
O O18 0.000000 0.000000 0.000000
#
# Coordination Sequence:
#
# PCOD8022087 Si02
#       8
#     2   2   2   2   2   2   2   2
#     4  12  28  44  66 103 145 185 225 286 349 409
#     4  10  22  44  75 101 135 179 231 284 344 413
#     4  12  26  45  67 101 144 182 223 284 359 406
#     4  12  24  40  70  98 126 182 243 282 330 404
#     4   9  21  41  75 105 131 170 236 287 335 406
#     4  12  24  43  65  95 142 188 233 282 343 399
#     4  12  24  42  65  94 135 178 232 291 340 401
#     4  11  24  42  71 100 135 178 237 283 339 414
#
# _framework density 22.804444
#
# number of rings (size 3 to 8) (size 9 to 14) (size 15 to 20)
#    0.000    0.750    2.500    4.875    5.250    0.000 
#    0.000    1.250    0.000    0.000    0.000    0.000 
#    0.000    0.000    0.000    0.000    0.000    0.000 
#
# Total GULP energy -198387.313301 kJ/mol
# GULP energy per Si atom -12399.207081 kJ/mol
# Density = 2.275254 g / cm^3
# Si number density = 22.804444 Si / 1000 Ang^3
#
#
#
# Elastic Constant Matrix: (Units=GPa)
#
#
# Indices 1 2 3 4 5 6 
#
# 1 108.2526 33.7898 6.4240 2.3813 20.1231 -11.4257
# 2 33.7898 89.7924 26.2001 1.5435 11.0153 -13.6526
# 3 6.4240 26.2001 115.5872 4.5256 15.1663 -4.3126
# 4 2.3813 1.5435 4.5256 36.2584 1.9601 3.2762
# 5 20.1231 11.0153 15.1663 1.9601 25.2038 2.8179
# 6 -11.4257 -13.6526 -4.3126 3.2762 2.8179 39.5124
#
#
#
# Elastic Compliance Matrix: (Units=1/GPa)
#
#
# Indices 1 2 3 4 5 6 
#
# 1 0.012355 -0.003394 0.001490 -0.000632 -0.009597 0.003299
# 2 -0.003394 0.014013 -0.002536 -0.000274 -0.002288 0.003769
# 3 0.001490 -0.002536 0.010037 -0.001015 -0.006173 0.001174
# 4 -0.000632 -0.000274 -0.001015 0.028036 -0.000647 -0.002667
# 5 -0.009597 -0.002288 -0.006173 -0.000647 0.052995 -0.007965
# 6 0.003299 0.003769 0.001174 -0.002667 -0.007965 0.028482
#
#
# Mechanical properties :
#
#
# Convention : Reuss Voigt Hill
#
# Bulk Modulus (GPa) = 36.33209 49.60668 42.96939
# Shear Modulus (GPa) = 30.49294 36.67613 33.58454
#
# Velocity S-wave (km/s) = 3.66067 4.01470 3.84177
# Velocity P-wave (km/s) = 5.81670 6.57957 6.20986
#
# Compressibility (1/GPa) = 0.02752388
#
# Stress axis : x y z
#
# Youngs Moduli (GPa) = 80.94006 71.36461 99.63063
#
# Poissons Ratio (x) = 0.24222 -0.14843
# Poissons Ratio (y) = 0.27472 0.25266
# Poissons Ratio (z) = -0.12058 0.18098
#
# Static dielectric constant tensor:
#      x y z
#    x 4.929220 -0.199820 0.348940 
#    y -0.199820 3.974290 0.158600 
#    z 0.348940 0.158600 4.156630 
# 
# 
# High freq. dielectric constant tensor:
#      x y z
#    x 1.912690 -0.007950 0.011220 
#    y -0.007950 1.881980 0.013480 
#    z 0.011220 0.013480 1.911870 
# 
# From -- ./inp_files/116980.got.cif
#   From: 2010.06.25/outbox.cif.g09.slc.cpg/sg2_59_cif.got.tgz:116980.got - 2010.06.27 13:26:56.
