data_PCOD8022120
_publ_section_title
;
Structure prediction by ZEFSAII (Michael W. Deem and Ramdas Pophale) SiO2 
 PCOD8022120
Probable space group: P -1
;
_chemical_formula_sum "Si O2"
_cell_formula_units_Z 10
_cell_length_a 11.757165
_cell_length_b 11.821642
_cell_length_c 11.437175
_cell_angle_alpha 148.920279
_cell_angle_beta 39.357662
_cell_angle_gamma 148.537252
_cell_volume 422.913769
_symmetry_space_group_name_H-M "P -1"
_symmetry_group_IT_number 2
_symmetry_cell_setting 'triclinic'
loop_
_space_group_symop_operation_xyz
x,y,z
-x,-y,-z
loop_
_atom_site_type_symbol
_atom_site_label
_atom_site_fract_x
_atom_site_fract_y
_atom_site_fract_z
Si Si1 0.642154 0.743724 0.516241
Si Si2 0.974851 0.769365 0.655059
Si Si3 0.687393 0.802673 0.087780
Si Si4 0.941113 0.103863 0.793757
Si Si5 0.274238 0.781522 0.738948
O O1 0.500000 0.500000 0.500000
O O2 0.483044 0.777262 0.593729
O O3 0.796831 0.699678 0.271755
O O4 0.802672 0.013320 0.703609
O O5 0.908853 0.470271 0.419778
O O6 0.893145 0.845048 0.673284
O O7 0.868886 0.769790 0.861155
O O8 0.232516 0.009133 0.691292
O O9 0.623582 0.936155 0.158354
O O10 0.500000 0.500000 0.000000
O O11 0.861165 0.251420 0.065602
#
# Coordination Sequence:
#
# PCOD8022120 Si02
#       5
#     2   2   2   2   2
#     4  11  23  45  68 100 141 178 229 279 338 409
#     4  10  22  45  65 103 139 174 229 287 331 409
#     4  10  24  44  69  99 139 178 229 283 339 409
#     4  10  24  44  66 102 142 175 226 286 330 411
#     4  11  23  45  74 100 136 187 224 278 351 398
#
# _framework density 23.645481
#
# number of rings (size 3 to 8) (size 9 to 14) (size 15 to 20)
#    0.000    1.600    2.000    1.200    2.800    1.600 
#   14.400    0.000    0.000    0.000    0.000    0.000 
#    0.000    0.000    0.000    0.000    0.000    0.000 
#
# Total GULP energy -123940.024924 kJ/mol
# GULP energy per Si atom -12394.002492 kJ/mol
# Density = 2.359166 g / cm^3
# Si number density = 23.645481 Si / 1000 Ang^3
#
#
#
# Elastic Constant Matrix: (Units=GPa)
#
#
# Indices 1 2 3 4 5 6 
#
# 1 101.0587 45.2174 40.5144 7.5733 5.1792 18.3568
# 2 45.2174 150.9188 61.6727 10.2387 -2.2070 7.4116
# 3 40.5144 61.6727 108.1998 3.0208 10.8577 16.9899
# 4 7.5733 10.2387 3.0208 43.5223 0.5002 -2.9863
# 5 5.1792 -2.2070 10.8577 0.5002 36.7133 2.2804
# 6 18.3568 7.4116 16.9899 -2.9863 2.2804 33.2668
#
#
#
# Elastic Compliance Matrix: (Units=1/GPa)
#
#
# Indices 1 2 3 4 5 6 
#
# 1 0.013237 -0.002566 -0.002473 -0.001900 -0.000918 -0.005577
# 2 -0.002566 0.009424 -0.004839 -0.001357 0.002284 0.001509
# 3 -0.002473 -0.004839 0.013992 0.000339 -0.003811 -0.004412
# 4 -0.001900 -0.001357 0.000339 0.023838 -0.000446 0.003348
# 5 -0.000918 0.002284 -0.003811 -0.000446 0.028642 -0.000060
# 6 -0.005577 0.001509 -0.004412 0.003348 -0.000060 0.035359
#
#
# Mechanical properties :
#
#
# Convention : Reuss Voigt Hill
#
# Bulk Modulus (GPa) = 59.18210 72.77626 65.97918
# Shear Modulus (GPa) = 33.35999 36.88535 35.12267
#
# Velocity S-wave (km/s) = 3.76019 3.95388 3.85825
# Velocity P-wave (km/s) = 6.62837 7.18952 6.91464
#
# Compressibility (1/GPa) = 0.01689700
#
# Stress axis : x y z
#
# Youngs Moduli (GPa) = 75.54356 106.11565 71.46982
#
# Poissons Ratio (x) = 0.27231 0.17675
# Poissons Ratio (y) = 0.19385 0.34583
# Poissons Ratio (z) = 0.18682 0.51348
#
# Static dielectric constant tensor:
#      x y z
#    x 4.645130 0.389610 0.228030 
#    y 0.389610 4.543330 -0.029740 
#    z 0.228030 -0.029740 4.270580 
# 
# 
# High freq. dielectric constant tensor:
#      x y z
#    x 1.943780 -0.002500 0.011260 
#    y -0.002500 1.935060 -0.003010 
#    z 0.011260 -0.003010 1.929340 
# 
# From -- ./inp_files/1489.got.cif
#   From: 2010.06.25/outbox.cif.g09.slc.cpg/sg2_1_cif.got.tgz:1489.got - 2010.06.27 13:26:56.
