data_PCOD8022202
_publ_section_title
;
Structure prediction by ZEFSAII (Michael W. Deem and Ramdas Pophale) SiO2 
 PCOD8022202
Probable space group: P -1
;
_chemical_formula_sum "Si O2"
_cell_formula_units_Z 12
_cell_length_a 13.985487
_cell_length_b 5.335624
_cell_length_c 14.108644
_cell_angle_alpha 89.996026
_cell_angle_beta 140.080063
_cell_angle_gamma 100.997013
_cell_volume 645.080108
_symmetry_space_group_name_H-M "P -1"
_symmetry_group_IT_number 2
_symmetry_cell_setting 'triclinic'
loop_
_space_group_symop_operation_xyz
x,y,z
-x,-y,-z
loop_
_atom_site_type_symbol
_atom_site_label
_atom_site_fract_x
_atom_site_fract_y
_atom_site_fract_z
Si Si1 0.919183 0.959639 0.148116
Si Si2 0.597488 0.298814 0.860936
Si Si3 0.927549 0.463824 0.047792
Si Si4 0.455917 0.227898 0.131854
Si Si5 0.119400 0.059687 0.675805
Si Si6 0.309502 0.654690 0.848643
O O1 0.982482 0.743030 0.143537
O O2 0.980967 0.990439 0.302753
O O3 0.982506 0.239600 0.143594
O O4 0.731484 0.865860 0.013731
O O5 0.491803 0.496206 0.770416
O O6 0.491768 0.995779 0.770424
O O7 0.739065 0.369559 0.893920
O O8 0.671312 0.335793 0.023795
O O9 0.000000 0.500000 0.000000
O O10 0.521212 0.260635 0.074645
O O11 0.221421 0.362739 0.746836
O O12 0.221401 0.858594 0.746850
O O13 0.000000 0.000000 0.500000
#
# Coordination Sequence:
#
# PCOD8022202 Si02
#       6
#     2   2   2   2   2   2
#     4  10  19  34  46  74 102 124 157 207 237 285
#     4  10  17  29  45  73 100 120 153 199 241 291
#     4  10  18  30  49  69  99 130 155 194 251 298
#     4  10  18  28  51  71  97 130 152 193 257 296
#     4  12  23  34  47  67 104 143 169 190 225 284
#     4  12  19  33  49  70  99 137 159 195 244 290
#
# _framework density 18.602340000000002
#
# number of rings (size 3 to 8) (size 9 to 14) (size 15 to 20)
#    0.000    1.333    6.667    3.000    0.000    0.000 
#    0.000    0.000    0.000    0.000    0.000    0.000 
#    0.000  106.667    0.000    0.000    0.000    0.000 
#
# Total GULP energy -148675.451057 kJ/mol
# GULP energy per Si atom -12389.620921 kJ/mol
# Density = 1.856000 g / cm^3
# Si number density = 18.602340 Si / 1000 Ang^3
#
#
#
# Elastic Constant Matrix: (Units=GPa)
#
#
# Indices 1 2 3 4 5 6 
#
# 1 136.4237 56.8147 23.7447 -4.3233 -24.3564 6.7406
# 2 56.8147 207.2798 26.5073 -9.9305 -10.0414 -24.2825
# 3 23.7447 26.5073 43.5515 -2.7278 -12.8809 -0.7668
# 4 -4.3233 -9.9305 -2.7278 8.9062 2.0540 -3.8911
# 5 -24.3564 -10.0414 -12.8809 2.0540 17.6419 -2.2661
# 6 6.7406 -24.2825 -0.7668 -3.8911 -2.2661 29.5155
#
#
#
# Elastic Compliance Matrix: (Units=1/GPa)
#
#
# Indices 1 2 3 4 5 6 
#
# 1 0.011135 -0.003006 -0.000682 -0.003085 0.012952 -0.004446
# 2 -0.003006 0.007250 -0.002654 0.009657 -0.002097 0.007694
# 3 -0.000682 -0.002654 0.031000 0.001826 0.020041 0.000557
# 4 -0.003085 0.009657 0.001826 0.135678 -0.009909 0.025823
# 5 0.012952 -0.002097 0.020041 -0.009909 0.089336 0.001390
# 6 -0.004446 0.007694 0.000557 0.025823 0.001390 0.044752
#
#
# Mechanical properties :
#
#
# Convention : Reuss Voigt Hill
#
# Bulk Modulus (GPa) = 27.24691 66.82092 47.03391
# Shear Modulus (GPa) = 14.53198 29.89194 22.21196
#
# Velocity S-wave (km/s) = 2.79801 4.01295 3.45924
# Velocity P-wave (km/s) = 5.01172 7.58092 6.42603
#
# Compressibility (1/GPa) = 0.03670141
#
# Stress axis : x y z
#
# Youngs Moduli (GPa) = 89.80671 137.92748 32.25818
#
# Poissons Ratio (x) = 0.41462 0.02200
# Poissons Ratio (y) = 0.26996 0.08560
# Poissons Ratio (z) = 0.06125 0.36602
#
# Static dielectric constant tensor:
#      x y z
#    x 3.476320 -0.434090 -0.074640 
#    y -0.434090 5.402070 -0.113300 
#    z -0.074640 -0.113300 2.690240 
# 
# 
# High freq. dielectric constant tensor:
#      x y z
#    x 1.721230 -0.012390 -0.005960 
#    y -0.012390 1.775490 -0.006560 
#    z -0.005960 -0.006560 1.625460 
# 
# From -- ./inp_files/24234.got.cif
#   From: 2010.06.25/outbox.cif.g09.slc.cpg/sg2_13_cif.got.tgz:24234.got - 2010.06.27 13:26:56.
