data_PCOD8022238
_publ_section_title
;
Structure prediction by ZEFSAII (Michael W. Deem and Ramdas Pophale) SiO2 
 PCOD8022238
Probable space group: P -1
;
_chemical_formula_sum "Si O2"
_cell_formula_units_Z 16
_cell_length_a 12.791936
_cell_length_b 9.132593
_cell_length_c 11.664514
_cell_angle_alpha 52.174791
_cell_angle_beta 95.603770
_cell_angle_gamma 128.170206
_cell_volume 754.388485
_symmetry_space_group_name_H-M "P -1"
_symmetry_group_IT_number 2
_symmetry_cell_setting 'triclinic'
loop_
_space_group_symop_operation_xyz
x,y,z
-x,-y,-z
loop_
_atom_site_type_symbol
_atom_site_label
_atom_site_fract_x
_atom_site_fract_y
_atom_site_fract_z
Si Si1 0.881509 0.288134 0.335128
Si Si2 0.586773 0.421200 0.066743
Si Si3 0.101874 0.284983 0.430351
Si Si4 0.904231 0.738912 0.039079
Si Si5 0.123337 0.999412 0.737041
Si Si6 0.442095 0.122754 0.406500
Si Si7 0.434268 0.403705 0.665923
Si Si8 0.398579 0.695243 0.127856
O O1 0.900933 0.531402 0.198023
O O2 0.007769 0.358483 0.399723
O O3 0.887633 0.178196 0.271501
O O4 0.727889 0.053661 0.494939
O O5 0.739813 0.620969 0.061321
O O6 0.463920 0.160663 0.253977
O O7 0.500000 0.500000 0.000000
O O8 0.625265 0.371876 0.976124
O O9 0.151316 0.244738 0.572521
O O10 0.238444 0.518416 0.253522
O O11 0.000000 0.000000 0.500000
O O12 0.000000 0.000000 0.000000
O O13 0.974110 0.807002 0.887850
O O14 0.261986 0.129384 0.772259
O O15 0.550537 0.387888 0.364507
O O16 0.500000 0.000000 0.500000
O O17 0.500000 0.500000 0.500000
O O18 0.520075 0.366052 0.769886
O O19 0.500000 0.000000 0.000000
#
# Coordination Sequence:
#
# PCOD8022238 Si02
#       8
#     2   2   2   2   2   2   2   2
#     4  11  24  44  72 101 136 185 243 290 360 431
#     4  12  27  47  72 101 151 191 235 300 367 434
#     4  10  22  45  69 101 136 184 239 295 359 427
#     4  12  28  48  69 106 145 191 242 298 367 436
#     4  11  24  42  76  97 141 183 240 295 356 427
#     4  12  25  45  71 101 139 188 238 289 367 429
#     4  12  23  45  70 105 139 186 238 296 357 435
#     4  12  28  44  73 111 144 185 249 303 367 429
#
# _framework density 21.209232
#
# number of rings (size 3 to 8) (size 9 to 14) (size 15 to 20)
#    0.000    0.500    5.000    3.375    7.000    0.000 
#    0.000    0.625    0.000    0.000    0.000    0.000 
#    0.000    0.000    0.000    0.000    0.000    0.000 
#
# Total GULP energy -198318.143206 kJ/mol
# GULP energy per Si atom -12394.883950 kJ/mol
# Density = 2.116096 g / cm^3
# Si number density = 21.209232 Si / 1000 Ang^3
#
#
#
# Elastic Constant Matrix: (Units=GPa)
#
#
# Indices 1 2 3 4 5 6 
#
# 1 138.0815 40.2112 34.3357 -6.7557 5.8620 10.6516
# 2 40.2112 85.8020 31.4681 -8.4107 8.8447 7.8938
# 3 34.3357 31.4681 125.9821 1.1776 -9.0297 -0.8174
# 4 -6.7557 -8.4107 1.1776 38.2694 -1.6260 1.4534
# 5 5.8620 8.8447 -9.0297 -1.6260 51.4638 -4.2802
# 6 10.6516 7.8938 -0.8174 1.4534 -4.2802 23.8801
#
#
#
# Elastic Compliance Matrix: (Units=1/GPa)
#
#
# Indices 1 2 3 4 5 6 
#
# 1 0.008912 -0.003008 -0.001784 0.001047 -0.001052 -0.003294
# 2 -0.003008 0.015307 -0.003287 0.002974 -0.003152 -0.004577
# 3 -0.001784 -0.003287 0.009463 -0.001322 0.002616 0.002756
# 4 0.001047 0.002974 -0.001322 0.027120 -0.000271 -0.003195
# 5 -0.001052 -0.003152 0.002616 -0.000271 0.020990 0.005379
# 6 -0.003294 -0.004577 0.002756 -0.003195 0.005379 0.046111
#
#
# Mechanical properties :
#
#
# Convention : Reuss Voigt Hill
#
# Bulk Modulus (GPa) = 57.06618 62.43284 59.74951
# Shear Modulus (GPa) = 33.35506 38.97937 36.16722
#
# Velocity S-wave (km/s) = 3.96999 4.29167 4.13396
# Velocity P-wave (km/s) = 6.92670 7.35244 7.14274
#
# Compressibility (1/GPa) = 0.01752351
#
# Stress axis : x y z
#
# Youngs Moduli (GPa) = 112.21196 65.32754 105.67859
#
# Poissons Ratio (x) = 0.19651 0.18854
# Poissons Ratio (y) = 0.33753 0.34738
# Poissons Ratio (z) = 0.20019 0.21474
#
# Static dielectric constant tensor:
#      x y z
#    x 4.395550 0.245510 0.251180 
#    y 0.245510 3.949160 0.241160 
#    z 0.251180 0.241160 4.194390 
# 
# 
# High freq. dielectric constant tensor:
#      x y z
#    x 1.854940 0.010230 -0.002490 
#    y 0.010230 1.816310 0.003670 
#    z -0.002490 0.003670 1.850810 
# 
# From -- ./inp_files/418929.got.cif
#   From: 2010.06.25/outbox.cif.g09.slc.cpg/sg2_210_cif.got.tgz:418929.got - 2010.06.27 13:26:56.
