data_PCOD8022947
_publ_section_title
;
Structure prediction by ZEFSAII (Michael W. Deem and Ramdas Pophale) SiO2 
 PCOD8022947
Probable space group: P -1
;
_chemical_formula_sum "Si O2"
_cell_formula_units_Z 16
_cell_length_a 18.033762
_cell_length_b 9.725123
_cell_length_c 9.083481
_cell_angle_alpha 52.983070
_cell_angle_beta 124.782255
_cell_angle_gamma 138.570621
_cell_volume 820.026149
_symmetry_space_group_name_H-M "P -1"
_symmetry_group_IT_number 2
_symmetry_cell_setting 'triclinic'
loop_
_space_group_symop_operation_xyz
x,y,z
-x,-y,-z
loop_
_atom_site_type_symbol
_atom_site_label
_atom_site_fract_x
_atom_site_fract_y
_atom_site_fract_z
Si Si1 0.245205 0.672869 0.952295
Si Si2 0.686478 0.956814 0.988123
Si Si3 0.468322 0.777998 0.667246
Si Si4 0.202546 0.962473 0.234681
Si Si5 0.656190 0.584249 0.737121
Si Si6 0.738218 0.317172 0.352076
Si Si7 0.040354 0.395978 0.716978
Si Si8 0.586720 0.604045 0.335058
O O1 0.308300 0.800609 0.786523
O O2 0.106621 0.530270 0.857096
O O3 0.277686 0.516699 0.129715
O O4 0.283164 0.833162 0.027717
O O5 0.563634 0.825063 0.856446
O O6 0.785820 0.035647 0.930406
O O7 0.675176 0.787910 0.199342
O O8 0.346966 0.645466 0.698673
O O9 0.457727 0.635463 0.611623
O O10 0.500000 0.000000 0.500000
O O11 0.278382 0.209733 0.213659
O O12 0.246317 0.831767 0.432207
O O13 0.070325 0.847221 0.206230
O O14 0.658238 0.669479 0.522954
O O15 0.524815 0.406049 0.759409
O O16 0.857619 0.566871 0.293768
O O17 0.000000 0.500000 0.500000
#
# Coordination Sequence:
#
# PCOD8022947 Si02
#       8
#     2   2   2   2   2   2   2   2
#     4  10  23  40  62  95 117 165 206 258 297 365
#     4  12  24  36  63  95 127 160 201 253 316 366
#     4  12  21  37  63  94 127 159 203 254 313 362
#     4  11  21  40  66  89 122 166 203 254 310 361
#     4  11  23  41  62  88 130 164 210 245 305 374
#     4   9  20  39  62  88 121 161 204 248 304 366
#     4   8  20  41  66  86 117 164 212 251 302 366
#     4  11  25  39  59  92 133 168 197 251 309 372
#
# _framework density 19.511574
#
# number of rings (size 3 to 8) (size 9 to 14) (size 15 to 20)
#    0.750    0.750    2.500    2.625    1.750    5.000 
#    0.000    0.000    0.000    1.500    0.000    0.000 
#    0.000    0.000    0.000    0.000    0.000    0.000 
#
# Total GULP energy -198238.447889 kJ/mol
# GULP energy per Si atom -12389.902993 kJ/mol
# Density = 1.946716 g / cm^3
# Si number density = 19.511574 Si / 1000 Ang^3
#
#
#
# Elastic Constant Matrix: (Units=GPa)
#
#
# Indices 1 2 3 4 5 6 
#
# 1 106.2223 39.8421 40.0244 3.9312 -11.5450 12.3137
# 2 39.8421 64.7472 28.0987 0.4597 -2.5851 -9.9364
# 3 40.0244 28.0987 75.1108 -6.7607 -19.9422 -2.4259
# 4 3.9312 0.4597 -6.7607 28.8931 2.7956 -5.0171
# 5 -11.5450 -2.5851 -19.9422 2.7956 32.6870 0.1099
# 6 12.3137 -9.9364 -2.4259 -5.0171 0.1099 37.1820
#
#
#
# Elastic Compliance Matrix: (Units=1/GPa)
#
#
# Indices 1 2 3 4 5 6 
#
# 1 0.016250 -0.008826 -0.005535 -0.005099 0.002130 -0.008796
# 2 -0.008826 0.024352 -0.005153 0.001664 -0.004509 0.009332
# 3 -0.005535 -0.005153 0.021480 0.005308 0.010280 0.002543
# 4 -0.005099 0.001664 0.005308 0.038007 -0.001707 0.007613
# 5 0.002130 -0.004509 0.010280 -0.001707 0.037412 -0.001581
# 6 -0.008796 0.009332 0.002543 0.007613 -0.001581 0.033499
#
#
# Mechanical properties :
#
#
# Convention : Reuss Voigt Hill
#
# Bulk Modulus (GPa) = 43.37475 51.33452 47.35463
# Shear Modulus (GPa) = 22.96598 28.96011 25.96305
#
# Velocity S-wave (km/s) = 3.43453 3.85678 3.65176
# Velocity P-wave (km/s) = 6.16494 6.79705 6.48870
#
# Compressibility (1/GPa) = 0.02305489
#
# Stress axis : x y z
#
# Youngs Moduli (GPa) = 61.53803 41.06379 46.55496
#
# Poissons Ratio (x) = 0.36243 0.25767
# Poissons Ratio (y) = 0.54314 0.23989
# Poissons Ratio (z) = 0.34060 0.21160
#
# Static dielectric constant tensor:
#      x y z
#    x 3.848710 0.210200 -0.070960 
#    y 0.210200 3.496300 0.151400 
#    z -0.070960 0.151400 3.758410 
# 
# 
# High freq. dielectric constant tensor:
#      x y z
#    x 1.756390 0.006950 -0.008010 
#    y 0.006950 1.740090 0.004660 
#    z -0.008010 0.004660 1.771490 
# 
# From -- ./inp_files/325815.got.cif
#   From: 2010.06.25/outbox.cif.g09.slc.cpg/sg2_163_cif.got.tgz:325815.got - 2010.06.27 13:26:56.
