data_PCOD8022103
_publ_section_title
;
Structure prediction by ZEFSAII (Michael W. Deem and Ramdas Pophale) SiO2 
 PCOD8022103
Probable space group: P -1
;
_chemical_formula_sum "Si O2"
_cell_formula_units_Z 16
_cell_length_a 12.594044
_cell_length_b 11.324673
_cell_length_c 14.037402
_cell_angle_alpha 148.516417
_cell_angle_beta 45.455589
_cell_angle_gamma 125.369574
_cell_volume 744.188314
_symmetry_space_group_name_H-M "P -1"
_symmetry_group_IT_number 2
_symmetry_cell_setting 'triclinic'
loop_
_space_group_symop_operation_xyz
x,y,z
-x,-y,-z
loop_
_atom_site_type_symbol
_atom_site_label
_atom_site_fract_x
_atom_site_fract_y
_atom_site_fract_z
Si Si1 0.164794 0.149087 0.098462
Si Si2 0.519592 0.710227 0.063035
Si Si3 0.779032 0.763477 0.661252
Si Si4 0.574662 0.892132 0.472671
Si Si5 0.835565 0.240869 0.914194
Si Si6 0.890768 0.666016 0.064998
Si Si7 0.941882 0.305974 0.201309
Si Si8 0.523779 0.403990 0.201670
O O1 0.154759 0.192111 0.246199
O O2 0.009080 0.260178 0.232305
O O3 0.304946 0.260574 0.039265
O O4 0.173373 0.882031 0.884880
O O5 0.434004 0.929857 0.313491
O O6 0.500000 0.500000 0.000000
O O7 0.448382 0.672610 0.978443
O O8 0.856435 0.547425 0.413754
O O9 0.603547 0.728128 0.756673
O O10 0.811260 0.978742 0.722118
O O11 0.747125 0.816162 0.293287
O O12 0.484931 0.673936 0.410609
O O13 0.500000 0.000000 0.500000
O O14 0.960766 0.249614 0.921462
O O15 0.878560 0.397028 0.905589
O O16 0.675132 0.344231 0.124725
O O17 0.913188 0.701541 0.963588
#
# Coordination Sequence:
#
# PCOD8022103 Si02
#       8
#     2   2   2   2   2   2   2   2
#     4  10  23  40  61  93 131 156 201 262 312 375
#     4  11  22  39  62  94 122 159 208 255 308 373
#     4  11  22  41  65  91 122 166 209 259 306 367
#     4  11  21  40  64  93 127 162 201 259 319 362
#     4  10  22  45  61  87 130 166 211 258 301 363
#     4  10  23  42  65  89 129 168 204 259 305 370
#     4  11  22  41  64  92 125 165 206 252 319 367
#     4  10  23  42  63  91 124 165 209 256 312 365
#
# _framework density 21.499934
#
# number of rings (size 3 to 8) (size 9 to 14) (size 15 to 20)
#    0.000    1.500    2.500    2.250    1.750    2.500 
#    6.750    0.625    0.000    0.000    0.000    0.000 
#    0.000    0.000    0.000    0.000    0.000    0.000 
#
# Total GULP energy -198382.358097 kJ/mol
# GULP energy per Si atom -12398.897381 kJ/mol
# Density = 2.145100 g / cm^3
# Si number density = 21.499934 Si / 1000 Ang^3
#
#
#
# Elastic Constant Matrix: (Units=GPa)
#
#
# Indices 1 2 3 4 5 6 
#
# 1 80.5627 18.4761 20.3830 2.4934 -9.6464 12.7202
# 2 18.4761 125.5875 33.6036 25.0188 -0.3483 17.2817
# 3 20.3830 33.6036 108.6142 20.6248 4.4316 0.3166
# 4 2.4934 25.0188 20.6248 42.6570 -1.1991 0.0183
# 5 -9.6464 -0.3483 4.4316 -1.1991 23.8596 5.2352
# 6 12.7202 17.2817 0.3166 0.0183 5.2352 24.8131
#
#
#
# Elastic Compliance Matrix: (Units=1/GPa)
#
#
# Indices 1 2 3 4 5 6 
#
# 1 0.016016 -0.000256 -0.003503 0.001175 0.009368 -0.009965
# 2 -0.000256 0.010705 -0.002358 -0.005066 0.001925 -0.007697
# 3 -0.003503 -0.002358 0.011561 -0.004137 -0.004748 0.004295
# 4 0.001175 -0.005066 -0.004137 0.028402 0.002043 0.002527
# 5 0.009368 0.001925 -0.004748 0.002043 0.050379 -0.016713
# 6 -0.009965 -0.007697 0.004295 0.002527 -0.016713 0.054240
#
#
# Mechanical properties :
#
#
# Convention : Reuss Voigt Hill
#
# Bulk Modulus (GPa) = 38.39024 51.07666 44.73345
# Shear Modulus (GPa) = 26.01196 34.41938 30.21567
#
# Velocity S-wave (km/s) = 3.48208 4.00547 3.75291
# Velocity P-wave (km/s) = 5.83620 6.72309 6.29529
#
# Compressibility (1/GPa) = 0.02604828
#
# Stress axis : x y z
#
# Youngs Moduli (GPa) = 62.43627 93.41550 86.50058
#
# Poissons Ratio (x) = 0.02390 0.30300
# Poissons Ratio (y) = 0.01598 0.20397
# Poissons Ratio (z) = 0.21871 0.22028
#
# Static dielectric constant tensor:
#      x y z
#    x 3.842500 0.126770 0.027760 
#    y 0.126770 4.143830 0.219940 
#    z 0.027760 0.219940 3.743480 
# 
# 
# High freq. dielectric constant tensor:
#      x y z
#    x 1.843600 0.010510 -0.007240 
#    y 0.010510 1.863510 0.015830 
#    z -0.007240 0.015830 1.828630 
# 
# From -- ./inp_files/438526.got.cif
#   From: 2010.06.25/outbox.cif.g09.slc.cpg/sg2_220_cif.got.tgz:438526.got - 2010.06.27 13:26:56.
