data_PCOD8022844
_publ_section_title
;
Structure prediction by ZEFSAII (Michael W. Deem and Ramdas Pophale) SiO2 
 PCOD8022844
Probable space group: P -1
;
_chemical_formula_sum "Si O2"
_cell_formula_units_Z 14
_cell_length_a 7.212246
_cell_length_b 19.977873
_cell_length_c 14.346633
_cell_angle_alpha 17.699950
_cell_angle_beta 106.349885
_cell_angle_gamma 106.694580
_cell_volume 601.768795
_symmetry_space_group_name_H-M "P -1"
_symmetry_group_IT_number 2
_symmetry_cell_setting 'triclinic'
loop_
_space_group_symop_operation_xyz
x,y,z
-x,-y,-z
loop_
_atom_site_type_symbol
_atom_site_label
_atom_site_fract_x
_atom_site_fract_y
_atom_site_fract_z
Si Si1 0.570269 0.342414 0.497923
Si Si2 0.147134 0.336265 0.778272
Si Si3 0.814847 0.082964 0.161472
Si Si4 0.211527 0.350470 0.154166
Si Si5 0.556256 0.349649 0.082641
Si Si6 0.135574 0.797660 0.792831
Si Si7 0.581192 0.869858 0.062199
O O1 0.731450 0.530563 0.301678
O O2 0.452096 0.443311 0.263326
O O3 0.426414 0.276972 0.650274
O O4 0.661657 0.119651 0.767444
O O5 0.282667 0.241436 0.844346
O O6 0.000000 0.500000 0.500000
O O7 0.020898 0.130309 0.077382
O O8 0.806984 0.245296 0.035289
O O9 0.805798 0.830514 0.526937
O O10 0.638122 0.131489 0.005049
O O11 0.310470 0.576884 0.906852
O O12 0.003111 0.399158 0.013832
O O13 0.348269 0.258693 0.212704
O O14 0.666888 0.162429 0.292123
O O15 0.000000 0.000000 0.500000
#
# Coordination Sequence:
#
# PCOD8022844 Si02
#       7
#     2   2   2   2   2   2   2
#     4  11  24  47  73 101 138 186 226 279 348 401
#     4  12  26  43  69 103 138 181 225 279 341 410
#     4  11  23  45  66 102 136 176 226 279 341 402
#     4  10  23  43  66  98 130 176 227 280 336 397
#     4  11  22  42  69  96 134 178 228 276 339 410
#     4  10  23  39  65  97 132 174 220 280 336 395
#     4  11  25  47  70 102 143 178 227 286 337 408
#
# _framework density 23.264748999999998
#
# number of rings (size 3 to 8) (size 9 to 14) (size 15 to 20)
#    0.000    1.143    2.857    2.571    2.000    5.143 
#    5.143    0.000    0.000    0.000    0.000    0.000 
#    0.000    0.000    0.000    0.000    0.000    0.000 
#
# Total GULP energy -173540.210166 kJ/mol
# GULP energy per Si atom -12395.729298 kJ/mol
# Density = 2.321180 g / cm^3
# Si number density = 23.264749 Si / 1000 Ang^3
#
#
#
# Elastic Constant Matrix: (Units=GPa)
#
#
# Indices 1 2 3 4 5 6 
#
# 1 117.2792 34.6626 24.2697 -9.4514 -10.0469 -23.6054
# 2 34.6626 103.0213 15.5998 -5.1033 -0.1314 -1.8257
# 3 24.2697 15.5998 72.9319 1.7442 -7.5312 -14.4268
# 4 -9.4514 -5.1033 1.7442 32.6417 -5.6988 1.6071
# 5 -10.0469 -0.1314 -7.5312 -5.6988 29.8046 1.5800
# 6 -23.6054 -1.8257 -14.4268 1.6071 1.5800 35.8121
#
#
#
# Elastic Compliance Matrix: (Units=1/GPa)
#
#
# Indices 1 2 3 4 5 6 
#
# 1 0.011805 -0.003450 -0.001554 0.003306 0.003850 0.006661
# 2 -0.003450 0.011142 -0.001870 0.000733 -0.001317 -0.002434
# 3 -0.001554 -0.001870 0.016008 -0.001337 0.002979 0.005258
# 4 0.003306 0.000733 -0.001337 0.033024 0.007101 -0.000117
# 5 0.003850 -0.001317 0.002979 0.007101 0.036863 0.001726
# 6 0.006661 -0.002434 0.005258 -0.000117 0.001726 0.034237
#
#
# Mechanical properties :
#
#
# Convention : Reuss Voigt Hill
#
# Bulk Modulus (GPa) = 39.67235 49.14408 44.40822
# Shear Modulus (GPa) = 30.26076 34.23169 32.24622
#
# Velocity S-wave (km/s) = 3.61045 3.84004 3.72701
# Velocity P-wave (km/s) = 5.87112 6.38991 6.13600
#
# Compressibility (1/GPa) = 0.02520647
#
# Stress axis : x y z
#
# Youngs Moduli (GPa) = 84.71084 89.74930 62.46780
#
# Poissons Ratio (x) = 0.30962 0.09709
# Poissons Ratio (y) = 0.29223 0.11683
# Poissons Ratio (z) = 0.13167 0.16786
#
# Static dielectric constant tensor:
#      x y z
#    x 4.631060 0.294910 -0.238310 
#    y 0.294910 4.961340 -0.039600 
#    z -0.238310 -0.039600 3.894740 
# 
# 
# High freq. dielectric constant tensor:
#      x y z
#    x 1.922570 0.004140 -0.009960 
#    y 0.004140 1.946030 -0.001350 
#    z -0.009960 -0.001350 1.898700 
# 
# From -- ./inp_files/119447.got.cif
#   From: 2010.06.25/outbox.cif.g09.slc.cpg/sg2_60_cif.got.tgz:119447.got - 2010.06.27 13:26:56.
