data_PCOD8022286
_publ_section_title
;
Structure prediction by ZEFSAII (Michael W. Deem and Ramdas Pophale) SiO2 
 PCOD8022286
Probable space group: P -1
;
_chemical_formula_sum "Si O2"
_cell_formula_units_Z 14
_cell_length_a 8.789084
_cell_length_b 14.628483
_cell_length_c 5.131797
_cell_angle_alpha 82.798941
_cell_angle_beta 60.807817
_cell_angle_gamma 61.657676
_cell_volume 502.085599
_symmetry_space_group_name_H-M "P -1"
_symmetry_group_IT_number 2
_symmetry_cell_setting 'triclinic'
loop_
_space_group_symop_operation_xyz
x,y,z
-x,-y,-z
loop_
_atom_site_type_symbol
_atom_site_label
_atom_site_fract_x
_atom_site_fract_y
_atom_site_fract_z
Si Si1 0.228657 0.758720 0.162867
Si Si2 0.474271 0.279441 0.690457
Si Si3 0.107856 0.564070 0.288325
Si Si4 0.072254 0.313586 0.116536
Si Si5 0.810872 0.875158 0.282921
Si Si6 0.500915 0.567730 0.719505
Si Si7 0.583255 0.111137 0.281433
O O1 0.277027 0.658812 0.966057
O O2 0.351734 0.822600 0.982001
O O3 0.338747 0.708308 0.359459
O O4 0.997707 0.841110 0.331611
O O5 0.278030 0.314181 0.016329
O O6 0.400041 0.360681 0.480529
O O7 0.558703 0.158608 0.575139
O O8 0.352838 0.496287 0.130800
O O9 0.000000 0.500000 0.500000
O O10 0.049693 0.595827 0.026905
O O11 0.044757 0.662047 0.515228
O O12 0.120218 0.201518 0.997531
O O13 0.636640 0.874104 0.605860
O O14 0.746415 0.990013 0.184091
O O15 0.500000 0.500000 0.500000
#
# Coordination Sequence:
#
# PCOD8022286 Si02
#       7
#     2   2   2   2   2   2   2
#     4  11  23  43  68  98 137 182 228 295 353 424
#     4  10  23  41  64  98 136 177 234 288 353 421
#     4  12  24  43  68  98 136 194 237 285 355 421
#     4  11  25  43  68 104 139 186 240 293 349 426
#     4  10  22  45  70 101 137 178 236 287 355 426
#     4  11  25  40  62  94 139 180 232 292 346 416
#     4   9  22  46  67  99 137 177 232 289 357 422
#
# _framework density 27.883689
#
# number of rings (size 3 to 8) (size 9 to 14) (size 15 to 20)
#    0.000    1.429    1.429    2.571    8.000    1.143 
#    2.571    2.143    0.000    0.000    0.000    0.000 
#    0.000    0.000    0.000    0.000    0.000    0.000 
#
# Total GULP energy -173517.915055 kJ/mol
# GULP energy per Si atom -12394.136790 kJ/mol
# Density = 2.782022 g / cm^3
# Si number density = 27.883689 Si / 1000 Ang^3
#
#
#
# Elastic Constant Matrix: (Units=GPa)
#
#
# Indices 1 2 3 4 5 6 
#
# 1 174.9960 40.9018 23.3690 20.2572 -14.3182 -29.7756
# 2 40.9018 148.1339 26.5744 22.1822 -8.7512 -1.5115
# 3 23.3690 26.5744 97.9235 18.2857 -1.0701 -23.9513
# 4 20.2572 22.1822 18.2857 35.5761 -5.2695 -9.7375
# 5 -14.3182 -8.7512 -1.0701 -5.2695 40.6906 7.1092
# 6 -29.7756 -1.5115 -23.9513 -9.7375 7.1092 41.0296
#
#
#
# Elastic Compliance Matrix: (Units=1/GPa)
#
#
# Indices 1 2 3 4 5 6 
#
# 1 0.007152 -0.001641 0.000208 -0.001716 0.001135 0.004648
# 2 -0.001641 0.008151 -0.001839 -0.003875 0.001165 -0.003085
# 3 0.000208 -0.001839 0.013131 -0.004038 -0.001739 0.007092
# 4 -0.001716 -0.003875 -0.004038 0.035058 0.002266 0.004182
# 5 0.001135 0.001165 -0.001739 0.002266 0.026198 -0.004150
# 6 0.004648 -0.003085 0.007092 0.004182 -0.004150 0.033483
#
#
# Mechanical properties :
#
#
# Convention : Reuss Voigt Hill
#
# Bulk Modulus (GPa) = 45.67980 66.97151 56.32566
# Shear Modulus (GPa) = 36.49264 45.47315 40.98289
#
# Velocity S-wave (km/s) = 3.62158 4.04272 3.83793
# Velocity P-wave (km/s) = 5.82286 6.77213 6.31535
#
# Compressibility (1/GPa) = 0.02189151
#
# Stress axis : x y z
#
# Youngs Moduli (GPa) = 139.81181 122.68266 76.15611
#
# Poissons Ratio (x) = 0.20129 -0.01584
# Poissons Ratio (y) = 0.22939 0.14004
# Poissons Ratio (z) = -0.02908 0.22559
#
# Static dielectric constant tensor:
#      x y z
#    x 5.287600 0.209060 -0.324210 
#    y 0.209060 5.362100 -0.038490 
#    z -0.324210 -0.038490 5.119120 
# 
# 
# High freq. dielectric constant tensor:
#      x y z
#    x 2.147390 0.011220 -0.026640 
#    y 0.011220 2.148930 -0.011550 
#    z -0.026640 -0.011550 2.121320 
# 
# From -- ./inp_files/38417.got.cif
#   From: 2010.06.25/outbox.cif.g09.slc.cpg/sg2_20_cif.got.tgz:38417.got - 2010.06.27 13:26:56.
