data_PCOD8022948
_publ_section_title
;
Structure prediction by ZEFSAII (Michael W. Deem and Ramdas Pophale) SiO2 
 PCOD8022948
Probable space group: P -1
;
_chemical_formula_sum "Si O2"
_cell_formula_units_Z 16
_cell_length_a 14.370806
_cell_length_b 9.116588
_cell_length_c 12.217964
_cell_angle_alpha 122.860127
_cell_angle_beta 72.165511
_cell_angle_gamma 61.821962
_cell_volume 770.783629
_symmetry_space_group_name_H-M "P -1"
_symmetry_group_IT_number 2
_symmetry_cell_setting 'triclinic'
loop_
_space_group_symop_operation_xyz
x,y,z
-x,-y,-z
loop_
_atom_site_type_symbol
_atom_site_label
_atom_site_fract_x
_atom_site_fract_y
_atom_site_fract_z
Si Si1 0.847876 0.831397 0.658763
Si Si2 0.655349 0.504014 0.736196
Si Si3 0.407357 0.739873 0.224493
Si Si4 0.749904 0.604778 0.938885
Si Si5 0.604767 0.743631 0.272400
Si Si6 0.134646 0.858349 0.978541
Si Si7 0.006060 0.029925 0.330737
Si Si8 0.696315 0.033004 0.026096
O O1 0.000000 0.500000 0.500000
O O2 0.905155 0.934661 0.627969
O O3 0.726846 0.936232 0.648973
O O4 0.733651 0.005710 0.874942
O O5 0.681176 0.270331 0.669892
O O6 0.643410 0.652305 0.905547
O O7 0.814204 0.320438 0.534015
O O8 0.496481 0.738061 0.808914
O O9 0.526139 0.675784 0.233611
O O10 0.500000 0.500000 0.000000
O O11 0.650735 0.780423 0.158872
O O12 0.792712 0.735118 0.928077
O O13 0.914515 0.262081 0.769679
O O14 0.759390 0.466227 0.174491
O O15 0.500000 0.000000 0.500000
O O16 0.242459 0.871674 0.903210
O O17 0.000000 0.000000 0.000000
O O18 0.037644 0.032791 0.195036
#
# Coordination Sequence:
#
# PCOD8022948 Si02
#       8
#     2   2   2   2   2   2   2   2
#     4  11  22  37  61  96 129 170 212 257 325 389
#     4  12  21  38  68  99 131 165 212 271 329 380
#     4  12  20  42  68  93 132 177 214 267 325 387
#     4  11  22  40  65  97 135 164 210 272 329 386
#     4  11  24  44  66  94 128 177 221 266 328 389
#     4  10  23  48  65  85 129 177 221 266 323 389
#     4  10  23  40  62  95 131 166 210 271 330 380
#     4  11  23  39  64  97 126 164 218 269 320 384
#
# _framework density 20.758095999999998
#
# number of rings (size 3 to 8) (size 9 to 14) (size 15 to 20)
#    0.000    1.000    5.000    2.250    1.750    4.000 
#    2.250    2.500    0.000    0.000    0.000    0.000 
#    0.000    0.000    0.000    0.000    0.000    0.000 
#
# Total GULP energy -198233.769269 kJ/mol
# GULP energy per Si atom -12389.610579 kJ/mol
# Density = 2.071085 g / cm^3
# Si number density = 20.758096 Si / 1000 Ang^3
#
#
#
# Elastic Constant Matrix: (Units=GPa)
#
#
# Indices 1 2 3 4 5 6 
#
# 1 101.4065 51.9805 38.1434 -2.4651 -7.5381 -8.4515
# 2 51.9805 116.6873 27.8945 19.5564 -7.3784 2.3896
# 3 38.1434 27.8945 108.6291 2.9173 -7.5544 -5.7725
# 4 -2.4651 19.5564 2.9173 25.4600 -0.4293 -8.0613
# 5 -7.5381 -7.3784 -7.5544 -0.4293 33.0879 -1.2142
# 6 -8.4515 2.3896 -5.7725 -8.0613 -1.2142 41.4777
#
#
#
# Elastic Compliance Matrix: (Units=1/GPa)
#
#
# Indices 1 2 3 4 5 6 
#
# 1 0.016011 -0.007948 -0.003470 0.009712 0.001399 0.005166
# 2 -0.007948 0.014766 -0.000847 -0.013650 0.000920 -0.005214
# 3 -0.003470 -0.000847 0.010805 -0.000657 0.001507 0.000762
# 4 0.009712 -0.013650 -0.000657 0.055015 0.000224 0.013373
# 5 0.001399 0.000920 0.001507 0.000224 0.031144 0.001397
# 6 0.005166 -0.005214 0.000762 0.013373 0.001397 0.028208
#
#
# Mechanical properties :
#
#
# Convention : Reuss Voigt Hill
#
# Bulk Modulus (GPa) = 58.64944 62.52884 60.58914
# Shear Modulus (GPa) = 26.85799 33.91877 30.38838
#
# Velocity S-wave (km/s) = 3.60092 4.04666 3.83028
# Velocity P-wave (km/s) = 6.75307 7.21263 6.98663
#
# Compressibility (1/GPa) = 0.01705046
#
# Stress axis : x y z
#
# Youngs Moduli (GPa) = 62.45569 67.72480 92.55288
#
# Poissons Ratio (x) = 0.53828 0.32118
# Poissons Ratio (y) = 0.49640 0.07842
# Poissons Ratio (z) = 0.21674 0.05738
#
# Static dielectric constant tensor:
#      x y z
#    x 3.876740 0.062620 -0.194420 
#    y 0.062620 3.846640 0.042750 
#    z -0.194420 0.042750 3.735490 
# 
# 
# High freq. dielectric constant tensor:
#      x y z
#    x 1.801500 0.004510 -0.022490 
#    y 0.004510 1.825740 0.008250 
#    z -0.022490 0.008250 1.794930 
# 
# From -- ./inp_files/240997.got.cif
#   From: 2010.06.25/outbox.cif.g09.slc.cpg/sg2_121_cif.got.tgz:240997.got - 2010.06.27 13:26:56.
