data_PCOD8022945
_publ_section_title
;
Structure prediction by ZEFSAII (Michael W. Deem and Ramdas Pophale) SiO2 
 PCOD8022945
Probable space group: P -1
;
_chemical_formula_sum "Si O2"
_cell_formula_units_Z 14
_cell_length_a 20.449592
_cell_length_b 4.998514
_cell_length_c 21.637995
_cell_angle_alpha 120.132984
_cell_angle_beta 160.945621
_cell_angle_gamma 54.028421
_cell_volume 572.412686
_symmetry_space_group_name_H-M "P -1"
_symmetry_group_IT_number 2
_symmetry_cell_setting 'triclinic'
loop_
_space_group_symop_operation_xyz
x,y,z
-x,-y,-z
loop_
_atom_site_type_symbol
_atom_site_label
_atom_site_fract_x
_atom_site_fract_y
_atom_site_fract_z
Si Si1 0.357483 0.192655 0.952299
Si Si2 0.864492 0.589603 0.032024
Si Si3 0.191391 0.579039 0.410646
Si Si4 0.821566 0.477290 0.793877
Si Si5 0.359021 0.768793 0.290623
Si Si6 0.478929 0.803988 0.141177
Si Si7 0.123738 0.328204 0.444094
O O1 0.105816 0.346520 0.723236
O O2 0.422772 0.487431 0.069306
O O3 0.500000 0.000000 0.000000
O O4 0.406281 0.926049 0.020793
O O5 0.998446 0.464406 0.201142
O O6 0.039673 0.698897 0.163535
O O7 0.814847 0.295430 0.918631
O O8 0.639037 0.906185 0.879516
O O9 0.398169 0.480940 0.538906
O O10 0.262585 0.387660 0.517594
O O11 0.083327 0.985910 0.365250
O O12 0.688322 0.287828 0.686540
O O13 0.649863 0.858684 0.674162
O O14 0.000000 0.500000 0.000000
O O15 0.738087 0.689878 0.371949
#
# Coordination Sequence:
#
# PCOD8022945 Si02
#       7
#     2   2   2   2   2   2   2
#     4  12  27  49  75 109 142 173 224 283 344 419
#     4  11  23  42  69  96 131 184 232 278 341 401
#     4  12  25  40  70  99 136 180 234 290 330 405
#     4  10  23  40  62  93 135 180 228 289 346 392
#     4  11  24  42  62  95 136 180 231 289 342 394
#     4  12  26  45  76 103 138 189 224 275 349 406
#     4  12  25  46  69 107 139 176 232 280 340 413
#
# _framework density 24.457878999999998
#
# number of rings (size 3 to 8) (size 9 to 14) (size 15 to 20)
#    0.000    0.571    4.286    3.857    2.000    6.857 
#    0.000    0.000    0.000    0.000    0.000    0.000 
#    0.000    0.000    0.000    0.000    0.000    0.000 
#
# Total GULP energy -173571.818324 kJ/mol
# GULP energy per Si atom -12397.987023 kJ/mol
# Density = 2.440221 g / cm^3
# Si number density = 24.457879 Si / 1000 Ang^3
#
#
#
# Elastic Constant Matrix: (Units=GPa)
#
#
# Indices 1 2 3 4 5 6 
#
# 1 82.7811 17.3837 31.2659 -16.6862 8.2210 -0.0403
# 2 17.3837 41.8439 15.5695 -6.4994 0.2628 11.9648
# 3 31.2659 15.5695 157.8996 -13.3949 -3.4565 -0.5968
# 4 -16.6862 -6.4994 -13.3949 32.6210 4.3158 2.2933
# 5 8.2210 0.2628 -3.4565 4.3158 33.6370 -7.8465
# 6 -0.0403 11.9648 -0.5968 2.2933 -7.8465 38.5369
#
#
#
# Elastic Compliance Matrix: (Units=1/GPa)
#
#
# Indices 1 2 3 4 5 6 
#
# 1 0.015756 -0.004634 -0.002186 0.006889 -0.004921 0.000010
# 2 -0.004634 0.029959 -0.001794 0.003843 -0.002110 -0.009992
# 3 -0.002186 -0.001794 0.007077 0.001194 0.001324 0.000863
# 4 0.006889 0.003843 0.001194 0.036762 -0.007444 -0.004871
# 5 -0.004921 -0.002110 0.001324 -0.007444 0.033910 0.008018
# 6 0.000010 -0.009992 0.000863 -0.004871 0.008018 0.030987
#
#
# Mechanical properties :
#
#
# Convention : Reuss Voigt Hill
#
# Bulk Modulus (GPa) = 28.11993 45.66253 36.89123
# Shear Modulus (GPa) = 27.24287 35.51267 31.37777
#
# Velocity S-wave (km/s) = 3.34109 3.81464 3.58569
# Velocity P-wave (km/s) = 5.13868 6.17352 5.67972
#
# Compressibility (1/GPa) = 0.03556197
#
# Stress axis : x y z
#
# Youngs Moduli (GPa) = 63.46688 33.37940 141.31255
#
# Poissons Ratio (x) = 0.15468 0.30895
# Poissons Ratio (y) = 0.29411 0.25356
# Poissons Ratio (z) = 0.13876 0.05989
#
# Static dielectric constant tensor:
#      x y z
#    x 6.060110 0.758070 0.176630 
#    y 0.758070 4.405750 0.056110 
#    z 0.176630 0.056110 4.583240 
# 
# 
# High freq. dielectric constant tensor:
#      x y z
#    x 1.968100 0.010040 -0.002140 
#    y 0.010040 1.957190 -0.003780 
#    z -0.002140 -0.003780 1.994070 
# 
# From -- ./inp_files/600823.got.cif
#   From: 2010.06.25/outbox.cif.g09.slc.cpg/sg2_301_cif.got.tgz:600823.got - 2010.06.27 13:26:56.
