data_PCOD8022589
_publ_section_title
;
Structure prediction by ZEFSAII (Michael W. Deem and Ramdas Pophale) SiO2 
 PCOD8022589
Probable space group: P -1
;
_chemical_formula_sum "Si O2"
_cell_formula_units_Z 14
_cell_length_a 8.573035
_cell_length_b 16.954656
_cell_length_c 19.985774
_cell_angle_alpha 19.617043
_cell_angle_beta 140.409657
_cell_angle_gamma 131.454513
_cell_volume 593.214680
_symmetry_space_group_name_H-M "P -1"
_symmetry_group_IT_number 2
_symmetry_cell_setting 'triclinic'
loop_
_space_group_symop_operation_xyz
x,y,z
-x,-y,-z
loop_
_atom_site_type_symbol
_atom_site_label
_atom_site_fract_x
_atom_site_fract_y
_atom_site_fract_z
Si Si1 0.413152 0.957416 0.196301
Si Si2 0.023740 0.669080 0.312805
Si Si3 0.924618 0.699539 0.003436
Si Si4 0.516898 0.335606 0.031066
Si Si5 0.552352 0.138234 0.472207
Si Si6 0.056674 0.349224 0.207386
Si Si7 0.239013 0.470569 0.410470
O O1 0.263298 0.772843 0.323402
O O2 0.690213 0.801626 0.381566
O O3 0.466273 0.122399 0.140406
O O4 0.239860 0.109598 0.957254
O O5 0.050385 0.510570 0.379431
O O6 0.000000 0.500000 0.500000
O O7 0.670589 0.619980 0.002189
O O8 0.080683 0.523565 0.137352
O O9 0.108143 0.676254 0.147017
O O10 0.825638 0.981862 0.719014
O O11 0.443321 0.589032 0.762104
O O12 0.816078 0.244488 0.224718
O O13 0.331305 0.144430 0.450327
O O14 0.500000 0.000000 0.500000
O O15 0.000000 0.500000 0.000000
O O16 0.500000 0.500000 0.500000
#
# Coordination Sequence:
#
# PCOD8022589 Si02
#       7
#     2   2   2   2   2   2   2
#     4  10  23  46  68 103 146 176 237 301 356 430
#     4  10  22  47  75  99 138 185 241 301 360 422
#     4  12  24  46  75 100 143 197 237 300 360 422
#     4  11  24  45  69 110 143 189 237 291 366 427
#     4  11  25  47  71 103 150 190 243 296 348 437
#     4  10  23  45  67 106 143 182 243 288 355 429
#     4  10  24  48  70 104 141 187 243 293 364 427
#
# _framework density 23.600225999999999
#
# number of rings (size 3 to 8) (size 9 to 14) (size 15 to 20)
#    0.000    1.429    4.286    0.429    2.000    3.429 
#    7.714    0.000    0.000    0.000    0.000    0.000 
#    0.000    0.000    0.000    0.000    0.000    0.000 
#
# Total GULP energy -173561.731197 kJ/mol
# GULP energy per Si atom -12397.266514 kJ/mol
# Density = 2.354651 g / cm^3
# Si number density = 23.600226 Si / 1000 Ang^3
#
#
#
# Elastic Constant Matrix: (Units=GPa)
#
#
# Indices 1 2 3 4 5 6 
#
# 1 104.0850 24.3587 52.7835 -13.6092 2.9813 -27.7552
# 2 24.3587 81.3885 36.6830 -8.7614 1.2390 -20.5098
# 3 52.7835 36.6830 136.7303 2.3181 13.0929 -15.7215
# 4 -13.6092 -8.7614 2.3181 42.6499 -2.8661 -0.2854
# 5 2.9813 1.2390 13.0929 -2.8661 46.6220 -2.5792
# 6 -27.7552 -20.5098 -15.7215 -0.2854 -2.5792 37.0542
#
#
#
# Elastic Compliance Matrix: (Units=1/GPa)
#
#
# Indices 1 2 3 4 5 6 
#
# 1 0.015402 0.000828 -0.005253 0.005528 0.001356 0.009904
# 2 0.000828 0.016257 -0.003946 0.003960 0.001313 0.008066
# 3 -0.005253 -0.003946 0.010509 -0.003260 -0.002815 -0.001881
# 4 0.005528 0.003960 -0.003260 0.026396 0.002374 0.005318
# 5 0.001356 0.001313 -0.002815 0.002374 0.022381 0.002124
# 6 0.009904 0.008066 -0.001881 0.005318 0.002124 0.038261
#
#
# Mechanical properties :
#
#
# Convention : Reuss Voigt Hill
#
# Bulk Modulus (GPa) = 39.33169 61.09490 50.21330
# Shear Modulus (GPa) = 32.37830 39.15712 35.76771
#
# Velocity S-wave (km/s) = 3.70800 4.07773 3.89725
# Velocity P-wave (km/s) = 5.91898 6.93643 6.44781
#
# Compressibility (1/GPa) = 0.02542479
#
# Stress axis : x y z
#
# Youngs Moduli (GPa) = 64.92478 61.51344 95.15855
#
# Poissons Ratio (x) = -0.05093 0.49986
# Poissons Ratio (y) = -0.05375 0.37554
# Poissons Ratio (z) = 0.34104 0.24276
#
# Static dielectric constant tensor:
#      x y z
#    x 4.873240 -0.079030 0.726380 
#    y -0.079030 4.241340 -0.000990 
#    z 0.726380 -0.000990 4.998610 
# 
# 
# High freq. dielectric constant tensor:
#      x y z
#    x 1.934100 -0.017740 0.018630 
#    y -0.017740 1.922800 0.008390 
#    z 0.018630 0.008390 1.948400 
# 
# From -- ./inp_files/590933.got.cif
#   From: 2010.06.25/outbox.cif.g09.slc.cpg/sg2_296_cif.got.tgz:590933.got - 2010.06.27 13:26:56.
