data_PCOD8022282
_publ_section_title
;
Structure prediction by ZEFSAII (Michael W. Deem and Ramdas Pophale) SiO2 
 PCOD8022282
Probable space group: P -1
;
_chemical_formula_sum "Si O2"
_cell_formula_units_Z 16
_cell_length_a 14.675907
_cell_length_b 6.117150
_cell_length_c 12.916336
_cell_angle_alpha 133.197574
_cell_angle_beta 121.980129
_cell_angle_gamma 48.523577
_cell_volume 627.131328
_symmetry_space_group_name_H-M "P -1"
_symmetry_group_IT_number 2
_symmetry_cell_setting 'triclinic'
loop_
_space_group_symop_operation_xyz
x,y,z
-x,-y,-z
loop_
_atom_site_type_symbol
_atom_site_label
_atom_site_fract_x
_atom_site_fract_y
_atom_site_fract_z
Si Si1 0.478168 0.319333 0.161507
Si Si2 0.675023 0.489583 0.069308
Si Si3 0.670115 0.892769 0.616631
Si Si4 0.126585 0.962703 0.286541
Si Si5 0.937175 0.335055 0.137745
Si Si6 0.315649 0.223229 0.183302
Si Si7 0.033139 0.026981 0.643076
Si Si8 0.683358 0.450990 0.299726
O O1 0.442828 0.143197 0.177046
O O2 0.624236 0.200257 0.206134
O O3 0.417508 0.718619 0.279732
O O4 0.433562 0.267067 0.000493
O O5 0.791119 0.520115 0.111762
O O6 0.642602 0.601663 0.206562
O O7 0.707217 0.096899 0.948677
O O8 0.683861 0.685504 0.664742
O O9 0.621486 0.759577 0.447798
O O10 0.800980 0.837808 0.636795
O O11 0.206180 0.560303 0.171336
O O12 0.083045 0.998613 0.389473
O O13 0.989869 0.171042 0.226662
O O14 0.979333 0.606922 0.215164
O O15 0.000000 0.000000 0.000000
O O16 0.170629 0.740419 0.663081
O O17 0.000000 0.000000 0.500000
#
# Coordination Sequence:
#
# PCOD8022282 Si02
#       8
#     2   2   2   2   2   2   2   2
#     4  10  24  47  72  96 141 186 232 286 342 414
#     4  11  25  43  67 106 139 177 234 287 346 404
#     4  10  23  45  71 102 134 184 237 282 345 418
#     4  11  22  42  71  95 139 179 221 287 338 411
#     4  12  25  42  69 100 138 187 235 274 341 426
#     4  10  22  45  70 100 136 183 237 285 338 411
#     4  12  28  45  66 107 143 176 227 287 357 411
#     4  12  25  45  69 105 143 181 227 290 354 412
#
# _framework density 25.513000000000002
#
# number of rings (size 3 to 8) (size 9 to 14) (size 15 to 20)
#    0.000    1.000    1.250    6.000    5.250    3.000 
#    4.500    0.000    0.000    0.000    0.000    0.000 
#    0.000    0.000    0.000    0.000    0.000    0.000 
#
# Total GULP energy -198250.167164 kJ/mol
# GULP energy per Si atom -12390.635448 kJ/mol
# Density = 2.545493 g / cm^3
# Si number density = 25.513000 Si / 1000 Ang^3
#
#
#
# Elastic Constant Matrix: (Units=GPa)
#
#
# Indices 1 2 3 4 5 6 
#
# 1 193.0909 24.3904 59.0047 -15.4800 -4.7936 21.1358
# 2 24.3904 96.4643 35.0923 -19.3083 -3.8302 4.3720
# 3 59.0047 35.0923 164.8739 -8.7353 -18.7495 9.5553
# 4 -15.4800 -19.3083 -8.7353 34.8663 -1.8959 0.7396
# 5 -4.7936 -3.8302 -18.7495 -1.8959 45.6597 -3.4484
# 6 21.1358 4.3720 9.5553 0.7396 -3.4484 33.7060
#
#
#
# Elastic Compliance Matrix: (Units=1/GPa)
#
#
# Indices 1 2 3 4 5 6 
#
# 1 0.006358 -0.000318 -0.001925 0.002221 -0.000320 -0.003482
# 2 -0.000318 0.012539 -0.002129 0.006307 0.000336 -0.000928
# 3 -0.001925 -0.002129 0.007535 0.000008 0.002685 -0.000378
# 4 0.002221 0.006307 0.000008 0.033326 0.001942 -0.002746
# 5 -0.000320 0.000336 0.002685 0.001942 0.023210 0.001728
# 6 -0.003482 -0.000928 -0.000378 -0.002746 0.001728 0.032316
#
#
# Mechanical properties :
#
#
# Convention : Reuss Voigt Hill
#
# Bulk Modulus (GPa) = 56.53087 76.82264 66.67675
# Shear Modulus (GPa) = 38.48395 45.24253 41.86324
#
# Velocity S-wave (km/s) = 3.88803 4.21564 4.05515
# Velocity P-wave (km/s) = 6.50857 7.33976 6.93663
#
# Compressibility (1/GPa) = 0.01768945
#
# Stress axis : x y z
#
# Youngs Moduli (GPa) = 157.26981 79.74942 132.71427
#
# Poissons Ratio (x) = 0.02534 0.25546
# Poissons Ratio (y) = 0.04998 0.28255
# Poissons Ratio (z) = 0.30272 0.16979
#
# Static dielectric constant tensor:
#      x y z
#    x 8.481360 -0.554090 0.458010 
#    y -0.554090 4.743360 -0.040300 
#    z 0.458010 -0.040300 4.824010 
# 
# 
# High freq. dielectric constant tensor:
#      x y z
#    x 2.041870 -0.004160 -0.010190 
#    y -0.004160 2.030450 0.004910 
#    z -0.010190 0.004910 2.019170 
# 
# From -- ./inp_files/442283.got.cif
#   From: 2010.06.25/outbox.cif.g09.slc.cpg/sg2_222_cif.got.tgz:442283.got - 2010.06.27 13:26:56.
