data_PCOD8022660
_publ_section_title
;
Structure prediction by ZEFSAII (Michael W. Deem and Ramdas Pophale) SiO2 
 PCOD8022660
Probable space group: P -1
;
_chemical_formula_sum "Si O2"
_cell_formula_units_Z 14
_cell_length_a 17.864946
_cell_length_b 19.911091
_cell_length_c 11.519688
_cell_angle_alpha 146.792344
_cell_angle_beta 146.824572
_cell_angle_gamma 22.155933
_cell_volume 807.204586
_symmetry_space_group_name_H-M "P -1"
_symmetry_group_IT_number 2
_symmetry_cell_setting 'triclinic'
loop_
_space_group_symop_operation_xyz
x,y,z
-x,-y,-z
loop_
_atom_site_type_symbol
_atom_site_label
_atom_site_fract_x
_atom_site_fract_y
_atom_site_fract_z
Si Si1 0.186227 0.927010 0.925478
Si Si2 0.532177 0.616858 0.495026
Si Si3 0.349991 0.988531 0.769836
Si Si4 0.487280 0.607344 0.009323
Si Si5 0.783396 0.082823 0.314205
Si Si6 0.855417 0.294778 0.166245
Si Si7 0.965675 0.243346 0.488962
O O1 0.245418 0.925452 0.870314
O O2 0.064417 0.880636 0.704796
O O3 0.404803 0.770762 0.054116
O O4 0.038023 0.130118 0.080150
O O5 0.480999 0.779776 0.597747
O O6 0.398800 0.702577 0.565446
O O7 0.776753 0.444994 0.596062
O O8 0.471300 0.545304 0.230019
O O9 0.230401 0.036066 0.804055
O O10 0.184138 0.138836 0.673470
O O11 0.500000 0.000000 0.000000
O O12 0.704978 0.494837 0.193006
O O13 0.300764 0.711165 0.010291
O O14 0.000000 0.000000 0.500000
O O15 0.959071 0.279356 0.394910
#
# Coordination Sequence:
#
# PCOD8022660 Si02
#       7
#     2   2   2   2   2   2   2
#     4  10  17  29  47  75 105 130 155 199 260 291
#     4   8  19  31  47  74 101 128 168 202 242 300
#     4  10  21  36  51  73 100 136 171 206 246 292
#     4   9  16  27  45  72 104 128 159 201 250 290
#     4  10  18  33  50  75 107 129 164 206 250 302
#     4   9  17  27  44  74 102 129 162 198 243 304
#     4  10  18  31  52  73 101 135 165 205 251 287
#
# _framework density 17.343806000000001
#
# number of rings (size 3 to 8) (size 9 to 14) (size 15 to 20)
#    0.857    2.000    1.429    3.429    0.000    5.143 
#    2.571    0.000    0.000    0.857    0.000    5.000 
#    0.000    0.000    0.000    0.000    0.000    0.000 
#
# Total GULP energy -173436.445053 kJ/mol
# GULP energy per Si atom -12388.317504 kJ/mol
# Density = 1.730433 g / cm^3
# Si number density = 17.343806 Si / 1000 Ang^3
#
#
#
# Elastic Constant Matrix: (Units=GPa)
#
#
# Indices 1 2 3 4 5 6 
#
# 1 83.9646 44.5350 39.7705 -9.3509 -22.4113 -1.8208
# 2 44.5350 142.7220 50.0494 -18.1920 -17.7149 1.7747
# 3 39.7705 50.0494 48.7804 -17.1535 -12.9819 -4.2727
# 4 -9.3509 -18.1920 -17.1535 35.6175 -1.5643 -16.4172
# 5 -22.4113 -17.7149 -12.9819 -1.5643 30.2572 -0.9945
# 6 -1.8208 1.7747 -4.2727 -16.4172 -0.9945 27.0990
#
#
#
# Elastic Compliance Matrix: (Units=1/GPa)
#
#
# Indices 1 2 3 4 5 6 
#
# 1 0.021786 -0.000306 -0.016611 -0.003384 0.008561 -0.002871
# 2 -0.000306 0.011241 -0.011936 -0.001722 0.001025 -0.003644
# 3 -0.016611 -0.011936 0.064865 0.036127 0.011465 0.032200
# 4 -0.003384 -0.001722 0.036127 0.065635 0.016890 0.045965
# 5 0.008561 0.001025 0.011465 0.016890 0.046251 0.014245
# 6 -0.002871 -0.003644 0.032200 0.045965 0.014245 0.070394
#
#
# Mechanical properties :
#
#
# Convention : Reuss Voigt Hill
#
# Bulk Modulus (GPa) = 24.88441 60.46407 42.67424
# Shear Modulus (GPa) = 14.23392 28.00224 21.11808
#
# Velocity S-wave (km/s) = 2.86788 4.02249 3.49322
# Velocity P-wave (km/s) = 5.03440 7.51742 6.39753
#
# Compressibility (1/GPa) = 0.04018581
#
# Stress axis : x y z
#
# Youngs Moduli (GPa) = 45.90086 88.96252 15.41662
#
# Poissons Ratio (x) = 0.02722 0.25609
# Poissons Ratio (y) = 0.01404 0.18401
# Poissons Ratio (z) = 0.76247 1.06183
#
# Static dielectric constant tensor:
#      x y z
#    x 3.289800 0.259950 -0.553920 
#    y 0.259950 3.610420 -0.188970 
#    z -0.553920 -0.188970 2.926260 
# 
# 
# High freq. dielectric constant tensor:
#      x y z
#    x 1.635930 0.004010 -0.045340 
#    y 0.004010 1.692150 -0.005380 
#    z -0.045340 -0.005380 1.622440 
# 
# From -- ./inp_files/472903.got.cif
#   From: 2010.06.25/outbox.cif.g09.slc.cpg/sg2_237_cif.got.tgz:472903.got - 2010.06.27 13:26:56.
