data_PCOD8022580
_publ_section_title
;
Structure prediction by ZEFSAII (Michael W. Deem and Ramdas Pophale) SiO2 
 PCOD8022580
Probable space group: P -1
;
_chemical_formula_sum "Si O2"
_cell_formula_units_Z 16
_cell_length_a 7.858712
_cell_length_b 10.219473
_cell_length_c 12.028190
_cell_angle_alpha 59.319541
_cell_angle_beta 115.362804
_cell_angle_gamma 121.509298
_cell_volume 690.862606
_symmetry_space_group_name_H-M "P -1"
_symmetry_group_IT_number 2
_symmetry_cell_setting 'triclinic'
loop_
_space_group_symop_operation_xyz
x,y,z
-x,-y,-z
loop_
_atom_site_type_symbol
_atom_site_label
_atom_site_fract_x
_atom_site_fract_y
_atom_site_fract_z
Si Si1 0.679917 0.964613 0.695304
Si Si2 0.974835 0.637814 0.697557
Si Si3 0.312707 0.988309 0.679211
Si Si4 0.685758 0.619638 0.812506
Si Si5 0.090298 0.204249 0.595120
Si Si6 0.965712 0.676311 0.074173
Si Si7 0.343376 0.978531 0.091987
Si Si8 0.318703 0.279097 0.852861
O O1 0.474663 0.008578 0.613020
O O2 0.616922 0.773159 0.729420
O O3 0.756974 0.989289 0.834634
O O4 0.862239 0.079478 0.618268
O O5 0.766215 0.602356 0.720988
O O6 0.930290 0.651924 0.548219
O O7 0.151650 0.802077 0.721169
O O8 0.046306 0.488857 0.796866
O O9 0.438650 0.029264 0.812728
O O10 0.192895 0.109359 0.584571
O O11 0.494248 0.453162 0.858456
O O12 0.865920 0.639021 0.941199
O O13 0.231835 0.286430 0.703365
O O14 0.855446 0.760257 0.086697
O O15 0.199155 0.806283 0.069894
O O16 0.390837 0.127166 0.952121
#
# Coordination Sequence:
#
# PCOD8022580 Si02
#       8
#     2   2   2   2   2   2   2   2
#     4  10  22  47  73 105 132 186 229 284 352 404
#     4  12  28  45  65 105 145 185 231 281 345 419
#     4  10  23  46  71 101 137 182 233 285 339 408
#     4  12  25  43  72 103 144 179 228 299 344 403
#     4  12  26  48  70 101 145 186 232 281 343 420
#     4  12  23  46  70 103 141 179 237 288 350 408
#     4  10  23  44  74 103 131 179 237 287 349 405
#     4  12  24  44  73 103 138 185 229 291 352 408
#
# _framework density 23.159452000000002
#
# number of rings (size 3 to 8) (size 9 to 14) (size 15 to 20)
#    0.750    0.000    3.750    3.750    1.750    2.000 
#    2.250    0.000    0.000    0.000    0.000    0.000 
#    0.000    0.000    0.000    0.000    0.000    0.000 
#
# Total GULP energy -198397.556223 kJ/mol
# GULP energy per Si atom -12399.847264 kJ/mol
# Density = 2.310674 g / cm^3
# Si number density = 23.159452 Si / 1000 Ang^3
#
#
#
# Elastic Constant Matrix: (Units=GPa)
#
#
# Indices 1 2 3 4 5 6 
#
# 1 79.8782 -23.3688 3.5559 -3.9454 -4.3063 5.0455
# 2 -23.3688 68.1643 -7.8238 4.7248 2.0519 12.6456
# 3 3.5559 -7.8238 87.8625 -0.5766 -9.3120 -1.1007
# 4 -3.9454 4.7248 -0.5766 31.3179 2.4460 9.8162
# 5 -4.3063 2.0519 -9.3120 2.4460 24.7457 -0.3995
# 6 5.0455 12.6456 -1.1007 9.8162 -0.3995 23.9509
#
#
#
# Elastic Compliance Matrix: (Units=1/GPa)
#
#
# Indices 1 2 3 4 5 6 
#
# 1 0.015131 0.006376 0.000056 0.003281 0.001674 -0.007868
# 2 0.006376 0.019139 0.001267 0.001767 -0.000371 -0.012120
# 3 0.000056 0.001267 0.011961 -0.000336 0.004440 0.000081
# 4 0.003281 0.001767 -0.000336 0.037743 -0.003710 -0.017170
# 5 0.001674 -0.000371 0.004440 -0.003710 0.042808 0.002282
# 6 -0.007868 -0.012120 0.000081 -0.017170 0.002282 0.056888
#
#
# Mechanical properties :
#
#
# Convention : Reuss Voigt Hill
#
# Bulk Modulus (GPa) = 16.22662 20.07017 18.14840
# Shear Modulus (GPa) = 26.48086 33.57234 30.02660
#
# Velocity S-wave (km/s) = 3.38511 3.81151 3.60462
# Velocity P-wave (km/s) = 4.72232 5.29671 5.01774
#
# Compressibility (1/GPa) = 0.06162711
#
# Stress axis : x y z
#
# Youngs Moduli (GPa) = 66.08921 52.25004 83.60246
#
# Poissons Ratio (x) = -0.33313 -0.00466
# Poissons Ratio (y) = -0.42136 -0.10589
# Poissons Ratio (z) = -0.00368 -0.06618
#
# Static dielectric constant tensor:
#      x y z
#    x 4.167430 0.026890 0.012350 
#    y 0.026890 3.964850 0.065980 
#    z 0.012350 0.065980 3.989330 
# 
# 
# High freq. dielectric constant tensor:
#      x y z
#    x 1.925100 0.002740 -0.002080 
#    y 0.002740 1.914160 0.004660 
#    z -0.002080 0.004660 1.913280 
# 
# From -- ./inp_files/392186.got.cif
#   From: 2010.06.25/outbox.cif.g09.slc.cpg/sg2_197_cif.got.tgz:392186.got - 2010.06.27 13:26:56.
