data_PCOD8022284
_publ_section_title
;
Structure prediction by ZEFSAII (Michael W. Deem and Ramdas Pophale) SiO2 
 PCOD8022284
Probable space group: P -1
;
_chemical_formula_sum "Si O2"
_cell_formula_units_Z 14
_cell_length_a 16.249312
_cell_length_b 9.172622
_cell_length_c 16.541611
_cell_angle_alpha 35.883388
_cell_angle_beta 23.805762
_cell_angle_gamma 38.662684
_cell_volume 575.094769
_symmetry_space_group_name_H-M "P -1"
_symmetry_group_IT_number 2
_symmetry_cell_setting 'triclinic'
loop_
_space_group_symop_operation_xyz
x,y,z
-x,-y,-z
loop_
_atom_site_type_symbol
_atom_site_label
_atom_site_fract_x
_atom_site_fract_y
_atom_site_fract_z
Si Si1 0.746007 0.930871 0.296881
Si Si2 0.218260 0.460161 0.778433
Si Si3 0.258891 0.940532 0.588081
Si Si4 0.732611 0.029976 0.792157
Si Si5 0.667728 0.084235 0.125964
Si Si6 0.103515 0.619363 0.634813
Si Si7 0.885758 0.259501 0.710743
O O1 0.852441 0.638421 0.340581
O O2 0.500000 0.000000 0.500000
O O3 0.838027 0.055808 0.235699
O O4 0.797676 0.049944 0.109898
O O5 0.357714 0.647570 0.612563
O O6 0.213162 0.544569 0.653246
O O7 0.311228 0.168143 0.833818
O O8 0.000000 0.500000 0.000000
O O9 0.422697 0.135694 0.344804
O O10 0.066833 0.018357 0.665664
O O11 0.791944 0.167181 0.597326
O O12 0.763185 0.205543 0.764131
O O13 0.862624 0.744880 0.807882
O O14 0.500000 0.000000 0.000000
O O15 0.736259 0.291235 0.911113
O O16 0.000000 0.500000 0.500000
#
# Coordination Sequence:
#
# PCOD8022284 Si02
#       7
#     2   2   2   2   2   2   2
#     4   9  21  44  66 106 140 179 227 290 356 428
#     4  11  20  42  69 103 134 177 227 294 351 427
#     4  11  22  42  69 101 142 175 233 289 358 418
#     4  11  25  46  73 103 138 192 249 290 350 424
#     4  10  23  42  71 101 136 185 226 286 362 419
#     4  10  22  45  70 100 143 184 234 291 352 420
#     4  12  26  46  69 102 142 185 240 295 349 422
#
# _framework density 24.343813999999998
#
# number of rings (size 3 to 8) (size 9 to 14) (size 15 to 20)
#    0.000    1.429    2.857    1.286    2.000    1.143 
#   10.286    7.143    0.000    0.000    0.000    0.000 
#    0.000    0.000    0.000    0.000    0.000    0.000 
#
# Total GULP energy -173459.054175 kJ/mol
# GULP energy per Si atom -12389.932441 kJ/mol
# Density = 2.428841 g / cm^3
# Si number density = 24.343814 Si / 1000 Ang^3
#
#
#
# Elastic Constant Matrix: (Units=GPa)
#
#
# Indices 1 2 3 4 5 6 
#
# 1 118.2208 33.4478 46.1878 -7.9806 -1.6319 17.9410
# 2 33.4478 96.2866 13.4014 4.4648 -9.8060 19.4681
# 3 46.1878 13.4014 127.8194 -5.7892 10.2498 0.2111
# 4 -7.9806 4.4648 -5.7892 30.1897 2.2242 -3.8366
# 5 -1.6319 -9.8060 10.2498 2.2242 34.0102 4.7093
# 6 17.9410 19.4681 0.2111 -3.8366 4.7093 38.2515
#
#
#
# Elastic Compliance Matrix: (Units=1/GPa)
#
#
# Indices 1 2 3 4 5 6 
#
# 1 0.011477 -0.002588 -0.003888 0.002059 0.001397 -0.004010
# 2 -0.002588 0.013530 -0.001085 -0.004140 0.005307 -0.006735
# 3 -0.003888 -0.001085 0.009730 0.001668 -0.003953 0.002976
# 4 0.002059 -0.004140 0.001668 0.035614 -0.004658 0.005278
# 5 0.001397 0.005307 -0.003953 -0.004658 0.033595 -0.007938
# 6 -0.004010 -0.006735 0.002976 0.005278 -0.007938 0.032941
#
#
# Mechanical properties :
#
#
# Convention : Reuss Voigt Hill
#
# Bulk Modulus (GPa) = 50.98449 58.71121 54.84785
# Shear Modulus (GPa) = 31.53623 37.10960 34.32292
#
# Velocity S-wave (km/s) = 3.60314 3.90859 3.75897
# Velocity P-wave (km/s) = 6.18863 6.67377 6.43578
#
# Compressibility (1/GPa) = 0.01961381
#
# Stress axis : x y z
#
# Youngs Moduli (GPa) = 87.13284 73.91004 102.77638
#
# Poissons Ratio (x) = 0.19129 0.39959
# Poissons Ratio (y) = 0.22551 0.11155
# Poissons Ratio (z) = 0.33877 0.08022
#
# Static dielectric constant tensor:
#      x y z
#    x 4.940430 0.215590 0.261680 
#    y 0.215590 4.708600 0.098130 
#    z 0.261680 0.098130 4.607580 
# 
# 
# High freq. dielectric constant tensor:
#      x y z
#    x 1.967940 0.008320 0.011370 
#    y 0.008320 1.963130 0.015260 
#    z 0.011370 0.015260 1.978570 
# 
# From -- ./inp_files/529250.got.cif
#   From: 2010.06.25/outbox.cif.g09.slc.cpg/sg2_265_cif.got.tgz:529250.got - 2010.06.27 13:26:56.
