data_PCOD8022802
_publ_section_title
;
Structure prediction by ZEFSAII (Michael W. Deem and Ramdas Pophale) SiO2 
 PCOD8022802
Probable space group: P -1
;
_chemical_formula_sum "Si O2"
_cell_formula_units_Z 16
_cell_length_a 9.495637
_cell_length_b 16.266907
_cell_length_c 18.862797
_cell_angle_alpha 27.468781
_cell_angle_beta 36.782951
_cell_angle_gamma 36.554361
_cell_volume 758.089008
_symmetry_space_group_name_H-M "P -1"
_symmetry_group_IT_number 2
_symmetry_cell_setting 'triclinic'
loop_
_space_group_symop_operation_xyz
x,y,z
-x,-y,-z
loop_
_atom_site_type_symbol
_atom_site_label
_atom_site_fract_x
_atom_site_fract_y
_atom_site_fract_z
Si Si1 0.047649 0.692815 0.828147
Si Si2 0.736169 0.252237 0.040900
Si Si3 0.221789 0.812425 0.539279
Si Si4 0.467269 0.661601 0.789634
Si Si5 0.250132 0.903068 0.310979
Si Si6 0.948698 0.718192 0.489161
Si Si7 0.251301 0.153055 0.681647
Si Si8 0.189111 0.298270 0.748766
O O1 0.143718 0.663284 0.730873
O O2 0.270804 0.717550 0.763974
O O3 0.813384 0.880726 0.799630
O O4 0.000000 0.500000 0.000000
O O5 0.669971 0.239844 0.159323
O O6 0.711697 0.066838 0.157811
O O7 0.546360 0.436003 0.939253
O O8 0.010147 0.263773 0.908022
O O9 0.226815 0.766376 0.489478
O O10 0.482390 0.824053 0.452121
O O11 0.000000 0.000000 0.500000
O O12 0.691488 0.738743 0.618691
O O13 0.541565 0.822403 0.234982
O O14 0.063243 0.880930 0.342256
O O15 0.914329 0.741996 0.399550
O O16 0.152235 0.518934 0.582367
O O17 0.125980 0.235629 0.744087
#
# Coordination Sequence:
#
# PCOD8022802 Si02
#       8
#     2   2   2   2   2   2   2   2
#     4  11  23  39  61  94 131 160 211 258 320 379
#     4  10  23  39  64  90 131 170 207 263 316 379
#     4   9  21  37  58  92 124 164 207 249 320 376
#     4  10  23  39  62  98 126 166 211 265 320 365
#     4  10  23  41  66  92 124 175 204 261 321 373
#     4  11  22  41  68  95 128 160 221 267 306 378
#     4  11  21  39  66  92 125 166 216 262 312 371
#     4  10  23  43  60  93 129 172 217 247 322 377
#
# _framework density 21.105699999999999
#
# number of rings (size 3 to 8) (size 9 to 14) (size 15 to 20)
#    0.000    1.750    1.250    1.875    8.750    3.000 
#    0.000    2.500    0.000    0.000    0.000    0.000 
#    0.000    0.000    0.000    0.000    0.000    0.000 
#
# Total GULP energy -198240.710262 kJ/mol
# GULP energy per Si atom -12390.044391 kJ/mol
# Density = 2.105766 g / cm^3
# Si number density = 21.105700 Si / 1000 Ang^3
#
#
#
# Elastic Constant Matrix: (Units=GPa)
#
#
# Indices 1 2 3 4 5 6 
#
# 1 88.1600 18.5712 12.3061 4.5145 0.1488 -7.5146
# 2 18.5712 89.2725 23.1953 2.6822 -7.7923 -8.3958
# 3 12.3061 23.1953 79.7500 -3.2445 -1.1783 2.8531
# 4 4.5145 2.6822 -3.2445 33.1356 7.8672 -3.7572
# 5 0.1488 -7.7923 -1.1783 7.8672 24.2742 0.0827
# 6 -7.5146 -8.3958 2.8531 -3.7572 0.0827 31.7522
#
#
#
# Elastic Compliance Matrix: (Units=1/GPa)
#
#
# Indices 1 2 3 4 5 6 
#
# 1 0.012223 -0.001931 -0.001467 -0.001301 -0.000352 0.002361
# 2 -0.001931 0.013334 -0.003702 -0.001944 0.004732 0.003159
# 3 -0.001467 -0.003702 0.013986 0.001862 -0.001096 -0.002360
# 4 -0.001301 -0.001944 0.001862 0.033766 -0.011479 0.003036
# 5 -0.000352 0.004732 -0.001096 -0.011479 0.046385 -0.000213
# 6 0.002361 0.003159 -0.002360 0.003036 -0.000213 0.033460
#
#
# Mechanical properties :
#
#
# Convention : Reuss Voigt Hill
#
# Bulk Modulus (GPa) = 39.45999 40.59198 40.02599
# Shear Modulus (GPa) = 28.44101 31.37306 29.90704
#
# Velocity S-wave (km/s) = 3.67488 3.85966 3.76841
# Velocity P-wave (km/s) = 6.06163 6.25597 6.15956
#
# Compressibility (1/GPa) = 0.02534212
#
# Stress axis : x y z
#
# Youngs Moduli (GPa) = 81.81253 74.99690 71.49825
#
# Poissons Ratio (x) = 0.14483 0.10489
# Poissons Ratio (y) = 0.15800 0.26471
# Poissons Ratio (z) = 0.12002 0.27767
#
# Static dielectric constant tensor:
#      x y z
#    x 3.622560 -0.318280 -0.282470 
#    y -0.318280 3.393790 -0.808190 
#    z -0.282470 -0.808190 2.512350 
# 
# 
# High freq. dielectric constant tensor:
#      x y z
#    x 1.824890 -0.004340 0.011430 
#    y -0.004340 1.833650 0.002920 
#    z 0.011430 0.002920 1.827410 
# 
# From -- ./inp_files/207356.got.cif
#   From: 2010.06.25/outbox.cif.g09.slc.cpg/sg2_104_cif.got.tgz:207356.got - 2010.06.27 13:26:56.
