data_PCOD8022378
_publ_section_title
;
Structure prediction by ZEFSAII (Michael W. Deem and Ramdas Pophale) SiO2 
 PCOD8022378
Probable space group: P -1
;
_chemical_formula_sum "Si O2"
_cell_formula_units_Z 16
_cell_length_a 13.722054
_cell_length_b 5.293508
_cell_length_c 9.677357
_cell_angle_alpha 75.973247
_cell_angle_beta 81.883726
_cell_angle_gamma 104.112068
_cell_volume 646.243221
_symmetry_space_group_name_H-M "P -1"
_symmetry_group_IT_number 2
_symmetry_cell_setting 'triclinic'
loop_
_space_group_symop_operation_xyz
x,y,z
-x,-y,-z
loop_
_atom_site_type_symbol
_atom_site_label
_atom_site_fract_x
_atom_site_fract_y
_atom_site_fract_z
Si Si1 0.108491 0.690057 0.229525
Si Si2 0.611190 0.658704 0.257257
Si Si3 0.412428 0.770452 0.220520
Si Si4 0.202661 0.920073 0.905193
Si Si5 0.733810 0.530340 0.490011
Si Si6 0.113092 0.109476 0.402393
Si Si7 0.873699 0.562040 0.222209
Si Si8 0.434773 0.681195 0.928653
O O1 0.121379 0.391688 0.284471
O O2 0.993383 0.671314 0.212718
O O3 0.136997 0.877146 0.335080
O O4 0.186938 0.849629 0.077464
O O5 0.488408 0.591426 0.274473
O O6 0.639957 0.575584 0.413432
O O7 0.645174 0.479132 0.152310
O O8 0.673934 0.978068 0.168753
O O9 0.311961 0.685967 0.349473
O O10 0.482033 0.072612 0.195518
O O11 0.377115 0.748906 0.068685
O O12 0.142823 0.657098 0.866211
O O13 0.163072 0.177062 0.842007
O O14 0.800576 0.818053 0.504109
O O15 0.810944 0.423360 0.390529
O O16 0.000000 0.000000 0.500000
O O17 0.500000 0.500000 0.000000
#
# Coordination Sequence:
#
# PCOD8022378 Si02
#       8
#     2   2   2   2   2   2   2   2
#     4  12  25  46  76  99 145 193 245 296 364 422
#     4  10  24  43  68 103 141 184 232 300 351 425
#     4  10  22  45  73  98 141 183 235 289 359 426
#     4  11  25  43  74 108 142 185 245 296 364 426
#     4  11  26  44  70 105 141 190 237 292 361 431
#     4  12  27  47  69 104 146 193 241 301 355 427
#     4  11  24  46  70 107 145 184 238 304 357 432
#     4   9  21  43  66  99 134 177 233 294 345 415
#
# _framework density 24.758476999999999
#
# number of rings (size 3 to 8) (size 9 to 14) (size 15 to 20)
#    0.000    1.250    1.250    3.000    7.000    3.500 
#   11.250    0.000    0.000    0.000    0.000    0.000 
#    0.000    0.000    0.000    0.000    0.000    0.000 
#
# Total GULP energy -198344.149256 kJ/mol
# GULP energy per Si atom -12396.509329 kJ/mol
# Density = 2.470213 g / cm^3
# Si number density = 24.758477 Si / 1000 Ang^3
#
#
#
# Elastic Constant Matrix: (Units=GPa)
#
#
# Indices 1 2 3 4 5 6 
#
# 1 61.1705 13.7761 10.0566 1.8338 -5.6994 18.2607
# 2 13.7761 109.8189 38.6218 16.4634 6.0441 5.0255
# 3 10.0566 38.6218 145.7395 -2.5477 -10.1836 13.6470
# 4 1.8338 16.4634 -2.5477 47.3296 14.2796 7.7519
# 5 -5.6994 6.0441 -10.1836 14.2796 32.2488 3.7835
# 6 18.2607 5.0255 13.6470 7.7519 3.7835 31.3413
#
#
#
# Elastic Compliance Matrix: (Units=1/GPa)
#
#
# Indices 1 2 3 4 5 6 
#
# 1 0.021304 -0.002808 0.000933 0.000595 0.005874 -0.013225
# 2 -0.002808 0.011149 -0.003210 -0.003656 -0.002265 0.002424
# 3 0.000933 -0.003210 0.008312 0.001228 0.003359 -0.004358
# 4 0.000595 -0.003656 0.001228 0.026326 -0.009819 -0.005622
# 5 0.005874 -0.002265 0.003359 -0.009819 0.038674 -0.006762
# 6 -0.013225 0.002424 -0.004358 -0.005622 -0.006762 0.043328
#
#
# Mechanical properties :
#
#
# Convention : Reuss Voigt Hill
#
# Bulk Modulus (GPa) = 32.68422 49.07086 40.87754
# Shear Modulus (GPa) = 29.50540 39.13557 34.32048
#
# Velocity S-wave (km/s) = 3.45589 3.98011 3.72723
# Velocity P-wave (km/s) = 5.39945 6.40192 5.92193
#
# Compressibility (1/GPa) = 0.03059580
#
# Stress axis : x y z
#
# Youngs Moduli (GPa) = 46.93921 89.69575 120.30797
#
# Poissons Ratio (x) = 0.25187 -0.11229
# Poissons Ratio (y) = 0.13181 0.38617
# Poissons Ratio (z) = -0.04381 0.28791
#
# Static dielectric constant tensor:
#      x y z
#    x 4.195380 0.681590 0.373940 
#    y 0.681590 4.560810 0.073020 
#    z 0.373940 0.073020 4.655320 
# 
# 
# High freq. dielectric constant tensor:
#      x y z
#    x 1.994490 0.008140 0.010990 
#    y 0.008140 1.991120 0.002730 
#    z 0.010990 0.002730 1.991400 
# 
# From -- ./inp_files/288632.got.cif
#   From: 2010.06.25/outbox.cif.g09.slc.cpg/sg2_145_cif.got.tgz:288632.got - 2010.06.27 13:26:56.
