data_PCOD8022369
_publ_section_title
;
Structure prediction by ZEFSAII (Michael W. Deem and Ramdas Pophale) SiO2 
 PCOD8022369
Probable space group: P -1
;
_chemical_formula_sum "Si O2"
_cell_formula_units_Z 16
_cell_length_a 17.330800
_cell_length_b 8.006749
_cell_length_c 19.727264
_cell_angle_alpha 126.561137
_cell_angle_beta 159.101729
_cell_angle_gamma 63.798691
_cell_volume 718.407984
_symmetry_space_group_name_H-M "P -1"
_symmetry_group_IT_number 2
_symmetry_cell_setting 'triclinic'
loop_
_space_group_symop_operation_xyz
x,y,z
-x,-y,-z
loop_
_atom_site_type_symbol
_atom_site_label
_atom_site_fract_x
_atom_site_fract_y
_atom_site_fract_z
Si Si1 0.956956 0.693435 0.552970
Si Si2 0.446185 0.017681 0.039690
Si Si3 0.520199 0.492802 0.245221
Si Si4 0.919616 0.482616 0.166274
Si Si5 0.823801 0.000341 0.954636
Si Si6 0.684352 0.930895 0.674655
Si Si7 0.101632 0.939051 0.502696
Si Si8 0.409530 0.550811 0.553702
O O1 0.757906 0.601136 0.423172
O O2 0.000000 0.500000 0.500000
O O3 0.891845 0.875844 0.501897
O O4 0.212685 0.815312 0.825862
O O5 0.389341 0.236036 0.052089
O O6 0.638336 0.032450 0.256856
O O7 0.500000 0.000000 0.000000
O O8 0.599453 0.530317 0.396258
O O9 0.317674 0.583700 0.088610
O O10 0.949354 0.674677 0.293787
O O11 0.162805 0.579911 0.344418
O O12 0.881876 0.231103 0.102021
O O13 0.723326 0.032323 0.806637
O O14 0.634806 0.783271 0.784592
O O15 0.067996 0.967941 0.138297
O O16 0.583494 0.656328 0.535274
O O17 0.500000 0.000000 0.500000
O O18 0.000000 0.000000 0.500000
#
# Coordination Sequence:
#
# PCOD8022369 Si02
#       8
#     2   2   2   2   2   2   2   2
#     4  12  27  44  69  99 131 185 237 298 354 407
#     4  12  23  46  64  92 133 169 235 291 343 414
#     4  12  25  43  65  99 139 177 233 287 343 413
#     4  11  25  44  66 102 140 178 234 286 343 415
#     4  10  24  44  72 104 140 181 225 281 337 414
#     4  10  22  45  73 105 143 176 227 273 342 415
#     4  12  24  46  70  94 135 186 233 292 352 405
#     4  11  25  44  69 105 143 184 224 283 342 412
#
# _framework density 22.271469
#
# number of rings (size 3 to 8) (size 9 to 14) (size 15 to 20)
#    0.000    0.750    5.000    1.125    1.750    5.000 
#    0.000    0.000    0.000    0.000    0.000    0.000 
#    0.000    0.000    0.000    0.000    0.000    0.000 
#
# Total GULP energy -198259.198795 kJ/mol
# GULP energy per Si atom -12391.199925 kJ/mol
# Density = 2.222078 g / cm^3
# Si number density = 22.271469 Si / 1000 Ang^3
#
#
#
# Elastic Constant Matrix: (Units=GPa)
#
#
# Indices 1 2 3 4 5 6 
#
# 1 77.9176 38.6404 49.4723 2.4344 9.6863 -1.6124
# 2 38.6404 104.1478 61.1212 9.7121 7.7280 -15.7974
# 3 49.4723 61.1212 170.9750 -1.8536 23.9107 7.2944
# 4 2.4344 9.7121 -1.8536 58.4414 3.9020 -4.8497
# 5 9.6863 7.7280 23.9107 3.9020 40.8395 7.0927
# 6 -1.6124 -15.7974 7.2944 -4.8497 7.0927 27.3396
#
#
#
# Elastic Compliance Matrix: (Units=1/GPa)
#
#
# Indices 1 2 3 4 5 6 
#
# 1 0.017236 -0.004487 -0.003184 -0.000019 -0.001305 -0.000391
# 2 -0.004487 0.015728 -0.004663 -0.001698 -0.000750 0.009960
# 3 -0.003184 -0.004663 0.009054 0.001036 -0.003010 -0.004333
# 4 -0.000019 -0.001698 0.001036 0.017798 -0.002420 0.002526
# 5 -0.001305 -0.000750 -0.003010 -0.002420 0.028226 -0.007459
# 6 -0.000391 0.009960 -0.004333 0.002526 -0.007459 0.045849
#
#
# Mechanical properties :
#
#
# Convention : Reuss Voigt Hill
#
# Bulk Modulus (GPa) = 57.63709 72.38980 65.01345
# Shear Modulus (GPa) = 30.42458 38.91120 34.66789
#
# Velocity S-wave (km/s) = 3.70006 4.18441 3.94966
# Velocity P-wave (km/s) = 6.64751 7.47794 7.07492
#
# Compressibility (1/GPa) = 0.01734994
#
# Stress axis : x y z
#
# Youngs Moduli (GPa) = 58.01947 63.58283 110.44776
#
# Poissons Ratio (x) = 0.28527 0.35170
# Poissons Ratio (y) = 0.26031 0.51498
# Poissons Ratio (z) = 0.18475 0.29646
#
# Static dielectric constant tensor:
#      x y z
#    x 5.991250 -0.774900 2.233950 
#    y -0.774900 4.217660 -0.414700 
#    z 2.233950 -0.414700 6.682390 
# 
# 
# High freq. dielectric constant tensor:
#      x y z
#    x 1.857410 -0.021140 -0.003420 
#    y -0.021140 1.887040 0.002090 
#    z -0.003420 0.002090 1.905070 
# 
# From -- ./inp_files/599582.got.cif
#   From: 2010.06.25/outbox.cif.g09.slc.cpg/sg2_300_cif.got.tgz:599582.got - 2010.06.27 13:26:56.
