data_PCOD8022383
_publ_section_title
;
Structure prediction by ZEFSAII (Michael W. Deem and Ramdas Pophale) SiO2 
 PCOD8022383
Probable space group: P -1
;
_chemical_formula_sum "Si O2"
_cell_formula_units_Z 14
_cell_length_a 9.239686
_cell_length_b 8.779444
_cell_length_c 14.713013
_cell_angle_alpha 107.270367
_cell_angle_beta 139.932095
_cell_angle_gamma 54.707764
_cell_volume 602.620587
_symmetry_space_group_name_H-M "P -1"
_symmetry_group_IT_number 2
_symmetry_cell_setting 'triclinic'
loop_
_space_group_symop_operation_xyz
x,y,z
-x,-y,-z
loop_
_atom_site_type_symbol
_atom_site_label
_atom_site_fract_x
_atom_site_fract_y
_atom_site_fract_z
Si Si1 0.955215 0.979128 0.580109
Si Si2 0.905375 0.518473 0.325356
Si Si3 0.366218 0.190363 0.591885
Si Si4 0.037412 0.517460 0.915976
Si Si5 0.340884 0.698198 0.863571
Si Si6 0.039037 0.096929 0.122144
Si Si7 0.815715 0.366129 0.650080
O O1 0.897949 0.148636 0.650185
O O2 0.694211 0.970052 0.448405
O O3 0.000000 0.000000 0.500000
O O4 0.207977 0.786860 0.716008
O O5 0.748997 0.640651 0.359804
O O6 0.699122 0.476591 0.169863
O O7 0.202835 0.311309 0.444572
O O8 0.971290 0.644015 0.319858
O O9 0.692503 0.069818 0.722975
O O10 0.929936 0.733582 0.868894
O O11 0.859704 0.442942 0.778043
O O12 0.348731 0.372611 0.007302
O O13 0.000000 0.500000 0.000000
O O14 0.203869 0.836089 0.910401
O O15 0.000000 0.000000 0.000000
O O16 0.500000 0.500000 0.500000
#
# Coordination Sequence:
#
# PCOD8022383 Si02
#       7
#     2   2   2   2   2   2   2
#     4  11  25  43  72 106 145 185 237 304 358 436
#     4  10  22  45  74 100 140 188 235 298 351 439
#     4  10  23  42  70 104 138 184 238 292 363 417
#     4  12  30  50  73 104 151 194 240 308 369 431
#     4  11  27  48  73 105 143 193 247 292 371 434
#     4  12  27  45  74 102 144 191 249 298 355 443
#     4  12  27  43  73 104 146 186 244 293 367 423
#
# _framework density 23.231864999999999
#
# number of rings (size 3 to 8) (size 9 to 14) (size 15 to 20)
#    0.000    0.857    2.857    2.143   10.000    1.714 
#    0.000    0.000    0.000    0.000    0.000    0.000 
#    0.000    0.000    0.000    0.000    0.000    0.000 
#
# Total GULP energy -173518.331719 kJ/mol
# GULP energy per Si atom -12394.166551 kJ/mol
# Density = 2.317899 g / cm^3
# Si number density = 23.231865 Si / 1000 Ang^3
#
#
#
# Elastic Constant Matrix: (Units=GPa)
#
#
# Indices 1 2 3 4 5 6 
#
# 1 105.9370 30.8373 39.6942 -1.2543 -0.3634 -15.8093
# 2 30.8373 127.0879 43.4576 20.8041 10.7881 -10.2692
# 3 39.6942 43.4576 119.7434 15.0871 20.8413 -17.3502
# 4 -1.2543 20.8041 15.0871 49.5017 -1.2108 -1.6387
# 5 -0.3634 10.7881 20.8413 -1.2108 42.5616 0.4879
# 6 -15.8093 -10.2692 -17.3502 -1.6387 0.4879 30.2730
#
#
#
# Elastic Compliance Matrix: (Units=1/GPa)
#
#
# Indices 1 2 3 4 5 6 
#
# 1 0.011871 -0.002011 -0.003366 0.002349 0.002284 0.003678
# 2 -0.002011 0.009855 -0.002036 -0.003580 -0.001631 0.000958
# 3 -0.003366 -0.002036 0.012204 -0.002938 -0.005623 0.004477
# 4 0.002349 -0.003580 -0.002938 0.022719 0.003018 -0.000490
# 5 0.002284 -0.001631 -0.005623 0.003018 0.026800 -0.002852
# 6 0.003678 0.000958 0.004477 -0.000490 -0.002852 0.037864
#
#
# Mechanical properties :
#
#
# Convention : Reuss Voigt Hill
#
# Bulk Modulus (GPa) = 52.34615 64.52738 58.43676
# Shear Modulus (GPa) = 35.08642 40.38587 37.73615
#
# Velocity S-wave (km/s) = 3.89044 4.17391 4.03467
# Velocity P-wave (km/s) = 6.53924 7.14594 6.84931
#
# Compressibility (1/GPa) = 0.01910360
#
# Stress axis : x y z
#
# Youngs Moduli (GPa) = 84.24181 101.47498 81.94290
#
# Poissons Ratio (x) = 0.20403 0.27581
# Poissons Ratio (y) = 0.16938 0.16685
# Poissons Ratio (z) = 0.28354 0.20662
#
# Static dielectric constant tensor:
#      x y z
#    x 5.079680 2.258340 0.945620 
#    y 2.258340 9.285850 2.217330 
#    z 0.945620 2.217330 5.588590 
# 
# 
# High freq. dielectric constant tensor:
#      x y z
#    x 1.916290 -0.000610 -0.004370 
#    y -0.000610 1.927260 0.007820 
#    z -0.004370 0.007820 1.931860 
# 
# From -- ./inp_files/495314.got.cif
#   From: 2010.06.25/outbox.cif.g09.slc.cpg/sg2_248_cif.got.tgz:495314.got - 2010.06.27 13:26:56.
