data_PCOD8022575
_publ_section_title
;
Structure prediction by ZEFSAII (Michael W. Deem and Ramdas Pophale) SiO2 
 PCOD8022575
Probable space group: P -1
;
_chemical_formula_sum "Si O2"
_cell_formula_units_Z 14
_cell_length_a 11.250876
_cell_length_b 12.548669
_cell_length_c 8.968753
_cell_angle_alpha 145.995411
_cell_angle_beta 106.439603
_cell_angle_gamma 68.575043
_cell_volume 658.743161
_symmetry_space_group_name_H-M "P -1"
_symmetry_group_IT_number 2
_symmetry_cell_setting 'triclinic'
loop_
_space_group_symop_operation_xyz
x,y,z
-x,-y,-z
loop_
_atom_site_type_symbol
_atom_site_label
_atom_site_fract_x
_atom_site_fract_y
_atom_site_fract_z
Si Si1 0.740092 0.203235 0.988454
Si Si2 0.559198 0.595821 0.412211
Si Si3 0.360836 0.372357 0.195401
Si Si4 0.992676 0.098320 0.769699
Si Si5 0.086214 0.836890 0.739377
Si Si6 0.471824 0.010434 0.327839
Si Si7 0.065137 0.478199 0.159012
O O1 0.648576 0.408904 0.139116
O O2 0.785783 0.254506 0.229608
O O3 0.852618 0.119162 0.814385
O O4 0.666528 0.033491 0.792413
O O5 0.430356 0.534985 0.345239
O O6 0.630915 0.644759 0.642132
O O7 0.528646 0.778293 0.498829
O O8 0.217740 0.438475 0.157349
O O9 0.420358 0.154009 0.904656
O O10 0.000000 0.000000 0.500000
O O11 0.107005 0.952934 0.732425
O O12 0.021800 0.308050 0.031462
O O13 0.015150 0.670178 0.467381
O O14 0.000000 0.000000 0.000000
O O15 0.500000 0.000000 0.500000
O O16 0.000000 0.500000 0.000000
#
# Coordination Sequence:
#
# PCOD8022575 Si02
#       7
#     2   2   2   2   2   2   2
#     4  10  24  43  66  99 132 177 236 279 344 415
#     4  10  22  47  71  96 135 178 230 293 338 406
#     4  10  24  43  70 103 130 177 237 278 345 415
#     4  11  25  42  66  99 141 185 223 287 346 408
#     4  10  23  43  64  97 137 176 233 277 336 418
#     4  11  26  42  68 101 136 181 224 290 356 408
#     4  12  25  42  70 104 139 182 227 286 350 408
#
# _framework density 21.252592
#
# number of rings (size 3 to 8) (size 9 to 14) (size 15 to 20)
#    0.000    1.429    2.857    0.429    4.000   10.286 
#    0.000    0.000    0.000    0.000    0.000    0.000 
#    0.000    0.000    0.000    0.000    0.000    0.000 
#
# Total GULP energy -173533.857590 kJ/mol
# GULP energy per Si atom -12395.275542 kJ/mol
# Density = 2.120422 g / cm^3
# Si number density = 21.252592 Si / 1000 Ang^3
#
#
#
# Elastic Constant Matrix: (Units=GPa)
#
#
# Indices 1 2 3 4 5 6 
#
# 1 102.6089 41.8234 35.5660 -1.4286 -1.6074 -6.7605
# 2 41.8234 161.9758 66.7012 8.6321 7.3802 2.7946
# 3 35.5660 66.7012 136.0065 8.9049 1.4897 3.1073
# 4 -1.4286 8.6321 8.9049 50.9753 0.9904 5.9127
# 5 -1.6074 7.3802 1.4897 0.9904 37.5892 -1.5154
# 6 -6.7605 2.7946 3.1073 5.9127 -1.5154 29.5362
#
#
#
# Elastic Compliance Matrix: (Units=1/GPa)
#
#
# Indices 1 2 3 4 5 6 
#
# 1 0.011615 -0.002302 -0.002036 0.000700 0.001132 0.003008
# 2 -0.002302 0.008286 -0.003375 -0.000744 -0.001608 -0.000889
# 3 -0.002036 -0.003375 0.009629 -0.001062 0.000184 -0.000937
# 4 0.000700 -0.000744 -0.001062 0.020394 -0.000471 -0.003764
# 5 0.001132 -0.001608 0.000184 -0.000471 0.027048 0.001874
# 6 0.003008 -0.000889 -0.000937 -0.003764 0.001874 0.035578
#
#
# Mechanical properties :
#
#
# Convention : Reuss Voigt Hill
#
# Bulk Modulus (GPa) = 70.89400 76.53028 73.71214
# Shear Modulus (GPa) = 37.68529 40.72016 39.20273
#
# Velocity S-wave (km/s) = 4.21552 4.38197 4.29955
# Velocity P-wave (km/s) = 7.55806 7.85432 7.70761
#
# Compressibility (1/GPa) = 0.01410557
#
# Stress axis : x y z
#
# Youngs Moduli (GPa) = 86.09437 120.68196 103.85097
#
# Poissons Ratio (x) = 0.27777 0.21139
# Poissons Ratio (y) = 0.19816 0.35053
# Poissons Ratio (z) = 0.17525 0.40734
#
# Static dielectric constant tensor:
#      x y z
#    x 3.813570 -0.296930 0.077600 
#    y -0.296930 4.155700 0.005780 
#    z 0.077600 0.005780 4.154210 
# 
# 
# High freq. dielectric constant tensor:
#      x y z
#    x 1.821780 -0.009710 -0.003800 
#    y -0.009710 1.841510 0.001870 
#    z -0.003800 0.001870 1.857440 
# 
# From -- ./inp_files/68116.got.cif
#   From: 2010.06.25/outbox.cif.g09.slc.cpg/sg2_35_cif.got.tgz:68116.got - 2010.06.27 13:26:56.
