data_PCOD8022574
_publ_section_title
;
Structure prediction by ZEFSAII (Michael W. Deem and Ramdas Pophale) SiO2 
 PCOD8022574
Probable space group: P -1
;
_chemical_formula_sum "Si O2"
_cell_formula_units_Z 16
_cell_length_a 18.819908
_cell_length_b 9.006260
_cell_length_c 8.690889
_cell_angle_alpha 47.438971
_cell_angle_beta 138.048527
_cell_angle_gamma 123.159003
_cell_volume 722.435137
_symmetry_space_group_name_H-M "P -1"
_symmetry_group_IT_number 2
_symmetry_cell_setting 'triclinic'
loop_
_space_group_symop_operation_xyz
x,y,z
-x,-y,-z
loop_
_atom_site_type_symbol
_atom_site_label
_atom_site_fract_x
_atom_site_fract_y
_atom_site_fract_z
Si Si1 0.703836 0.348697 0.022668
Si Si2 0.482426 0.933975 0.187914
Si Si3 0.226272 0.750841 0.482817
Si Si4 0.099581 0.371796 0.425593
Si Si5 0.801309 0.987495 0.008055
Si Si6 0.459182 0.714332 0.756531
Si Si7 0.146635 0.596256 0.042516
Si Si8 0.612779 0.730053 0.745065
O O1 0.646519 0.507051 0.925900
O O2 0.621117 0.226250 0.862582
O O3 0.752301 0.204802 0.332008
O O4 0.793408 0.462503 0.976232
O O5 0.467643 0.128494 0.131379
O O6 0.595303 0.841727 0.477720
O O7 0.500000 0.000000 0.000000
O O8 0.149375 0.544019 0.500175
O O9 0.334274 0.725488 0.576172
O O10 0.168706 0.931555 0.176299
O O11 0.118005 0.152085 0.679604
O O12 0.973979 0.376870 0.213541
O O13 0.150199 0.420545 0.301828
O O14 0.795838 0.189151 0.958561
O O15 0.690703 0.849379 0.908827
O O16 0.492765 0.747431 0.608823
O O17 0.500000 0.500000 0.000000
#
# Coordination Sequence:
#
# PCOD8022574 Si02
#       8
#     2   2   2   2   2   2   2   2
#     4  12  24  45  61 103 136 174 219 283 327 389
#     4  12  24  42  62  96 139 172 223 275 320 392
#     4  11  23  41  67  94 136 170 223 269 333 395
#     4  10  22  47  71  96 126 176 224 275 338 405
#     4  11  21  45  69  95 130 175 222 272 328 412
#     4  12  22  40  64  90 127 183 218 262 322 393
#     4  10  25  43  73  98 130 166 227 286 333 385
#     4  12  24  41  64  93 134 179 218 257 335 398
#
# _framework density 22.147320000000001
#
# number of rings (size 3 to 8) (size 9 to 14) (size 15 to 20)
#    0.000    0.750    5.000    1.875    3.500    0.500 
#    6.750    0.625    0.000    0.000    0.000    0.000 
#    0.000    0.000    0.000    0.000    0.000    0.000 
#
# Total GULP energy -198215.150442 kJ/mol
# GULP energy per Si atom -12388.446903 kJ/mol
# Density = 2.209691 g / cm^3
# Si number density = 22.147320 Si / 1000 Ang^3
#
#
#
# Elastic Constant Matrix: (Units=GPa)
#
#
# Indices 1 2 3 4 5 6 
#
# 1 106.3176 34.0143 37.5988 7.2871 -5.8234 0.6542
# 2 34.0143 124.5905 38.2374 3.7223 0.4562 -0.3037
# 3 37.5988 38.2374 138.1747 -2.2277 -16.2343 -5.3279
# 4 7.2871 3.7223 -2.2277 42.5256 5.8627 -1.7061
# 5 -5.8234 0.4562 -16.2343 5.8627 16.2611 5.7084
# 6 0.6542 -0.3037 -5.3279 -1.7061 5.7084 19.6771
#
#
#
# Elastic Compliance Matrix: (Units=1/GPa)
#
#
# Indices 1 2 3 4 5 6 
#
# 1 0.011296 -0.002383 -0.002109 -0.002436 0.003679 -0.002262
# 2 -0.002383 0.009419 -0.002369 -0.000002 -0.003714 0.000660
# 3 -0.002109 -0.002369 0.009504 -0.000152 0.008845 0.000028
# 4 -0.002436 -0.000002 -0.000152 0.025873 -0.012418 0.005886
# 5 0.003679 -0.003714 0.008845 -0.012418 0.084424 -0.023353
# 6 -0.002262 0.000660 0.000028 0.005886 -0.023353 0.058198
#
#
# Mechanical properties :
#
#
# Convention : Reuss Voigt Hill
#
# Bulk Modulus (GPa) = 60.61156 65.42040 63.01598
# Shear Modulus (GPa) = 22.94251 32.97491 27.95871
#
# Velocity S-wave (km/s) = 3.22204 3.86280 3.55688
# Velocity P-wave (km/s) = 6.42409 7.03547 6.73672
#
# Compressibility (1/GPa) = 0.01649850
#
# Stress axis : x y z
#
# Youngs Moduli (GPa) = 88.52486 106.16570 105.21422
#
# Poissons Ratio (x) = 0.25300 0.22185
# Poissons Ratio (y) = 0.21096 0.24926
# Poissons Ratio (z) = 0.18666 0.25152
#
# Static dielectric constant tensor:
#      x y z
#    x 3.242170 0.539450 0.132870 
#    y 0.539450 3.423290 -0.420990 
#    z 0.132870 -0.420990 3.968940 
# 
# 
# High freq. dielectric constant tensor:
#      x y z
#    x 1.846050 0.018160 -0.028900 
#    y 0.018160 1.875550 0.010550 
#    z -0.028900 0.010550 1.889110 
# 
# From -- ./inp_files/343352.got.cif
#   From: 2010.06.25/outbox.cif.g09.slc.cpg/sg2_172_cif.got.tgz:343352.got - 2010.06.27 13:26:56.
