data_PCOD8022526
_publ_section_title
;
Structure prediction by ZEFSAII (Michael W. Deem and Ramdas Pophale) SiO2 
 PCOD8022526
Probable space group: P -1
;
_chemical_formula_sum "Si O2"
_cell_formula_units_Z 14
_cell_length_a 16.562712
_cell_length_b 7.635695
_cell_length_c 8.208285
_cell_angle_alpha 69.195914
_cell_angle_beta 43.098935
_cell_angle_gamma 92.423680
_cell_volume 584.445584
_symmetry_space_group_name_H-M "P -1"
_symmetry_group_IT_number 2
_symmetry_cell_setting 'triclinic'
loop_
_space_group_symop_operation_xyz
x,y,z
-x,-y,-z
loop_
_atom_site_type_symbol
_atom_site_label
_atom_site_fract_x
_atom_site_fract_y
_atom_site_fract_z
Si Si1 0.518882 0.039335 0.696606
Si Si2 0.689187 0.159806 0.685917
Si Si3 0.577041 0.368235 0.252872
Si Si4 0.032605 0.786824 0.690111
Si Si5 0.395922 0.473484 0.303471
Si Si6 0.875461 0.716119 0.623499
Si Si7 0.101456 0.242342 0.778600
O O1 0.641921 0.043053 0.619559
O O2 0.576590 0.276485 0.461077
O O3 0.464885 0.839314 0.726378
O O4 0.392018 0.013617 0.999593
O O5 0.847178 0.271498 0.446563
O O6 0.635740 0.331959 0.711761
O O7 0.462995 0.443671 0.380320
O O8 0.719688 0.560204 0.932992
O O9 0.958415 0.688314 0.660432
O O10 0.097579 0.041531 0.504997
O O11 0.933691 0.674837 0.027693
O O12 0.251074 0.267983 0.559257
O O13 0.500000 0.500000 0.000000
O O14 0.913795 0.657641 0.407069
O O15 0.000000 0.000000 0.000000
#
# Coordination Sequence:
#
# PCOD8022526 Si02
#       7
#     2   2   2   2   2   2   2
#     4  10  25  43  68 108 138 186 233 302 366 417
#     4  11  25  46  70 106 148 186 233 309 360 428
#     4  11  24  45  72 103 142 183 249 290 365 433
#     4  10  25  45  70 108 150 185 253 291 375 434
#     4  12  24  45  75 104 143 193 245 293 368 436
#     4  10  22  46  73 105 143 200 236 307 356 444
#     4  10  23  42  71 106 141 197 237 297 366 430
#
# _framework density 23.954325000000001
#
# number of rings (size 3 to 8) (size 9 to 14) (size 15 to 20)
#    0.000    1.429    2.857    0.000   10.000    4.571 
#    2.571    1.429    0.000    0.000    0.000    0.000 
#    0.000    0.000    0.000    0.000    0.000    0.000 
#
# Total GULP energy -173436.971797 kJ/mol
# GULP energy per Si atom -12388.355128 kJ/mol
# Density = 2.389980 g / cm^3
# Si number density = 23.954325 Si / 1000 Ang^3
#
#
#
# Elastic Constant Matrix: (Units=GPa)
#
#
# Indices 1 2 3 4 5 6 
#
# 1 161.9532 38.0078 97.2421 20.3655 -2.7553 -2.5625
# 2 38.0078 48.4169 37.9112 2.5563 -1.1355 -8.7014
# 3 97.2421 37.9112 183.1556 2.7673 -6.3281 -6.7238
# 4 20.3655 2.5563 2.7673 36.1295 2.5289 -8.0405
# 5 -2.7553 -1.1355 -6.3281 2.5289 55.2763 -1.7026
# 6 -2.5625 -8.7014 -6.7238 -8.0405 -1.7026 28.4528
#
#
#
# Elastic Compliance Matrix: (Units=1/GPa)
#
#
# Indices 1 2 3 4 5 6 
#
# 1 0.011005 -0.005173 -0.004803 -0.006250 0.000071 -0.003488
# 2 -0.005173 0.028289 -0.002843 0.002985 0.000119 0.008364
# 3 -0.004803 -0.002843 0.008636 0.002536 0.000621 0.001493
# 4 -0.006250 0.002985 0.002536 0.033158 -0.001161 0.010250
# 5 0.000071 0.000119 0.000621 -0.001161 0.018250 0.000953
# 6 -0.003488 0.008364 0.001493 0.010250 0.000953 0.040696
#
#
# Mechanical properties :
#
#
# Convention : Reuss Voigt Hill
#
# Bulk Modulus (GPa) = 44.85900 82.20533 63.53216
# Shear Modulus (GPa) = 28.88436 38.66269 33.77352
#
# Velocity S-wave (km/s) = 3.47624 4.02184 3.75895
# Velocity P-wave (km/s) = 5.90592 7.48057 6.73939
#
# Compressibility (1/GPa) = 0.02229207
#
# Stress axis : x y z
#
# Youngs Moduli (GPa) = 90.87173 35.34894 115.79077
#
# Poissons Ratio (x) = 0.18286 0.55614
# Poissons Ratio (y) = 0.47009 0.32919
# Poissons Ratio (z) = 0.43646 0.10050
#
# Static dielectric constant tensor:
#      x y z
#    x 2.528130 1.545130 2.336100 
#    y 1.545130 3.434190 -1.136710 
#    z 2.336100 -1.136710 3.556450 
# 
# 
# High freq. dielectric constant tensor:
#      x y z
#    x 1.966970 0.017060 0.008660 
#    y 0.017060 1.933460 -0.019610 
#    z 0.008660 -0.019610 1.962050 
# 
# From -- ./inp_files/297570.got.cif
#   From: 2010.06.25/outbox.cif.g09.slc.cpg/sg2_149_cif.got.tgz:297570.got - 2010.06.27 13:26:56.
