data_PCOD8022277
_publ_section_title
;
Structure prediction by ZEFSAII (Michael W. Deem and Ramdas Pophale) SiO2 
 PCOD8022277
Probable space group: P -1
;
_chemical_formula_sum "Si O2"
_cell_formula_units_Z 16
_cell_length_a 16.424511
_cell_length_b 8.775356
_cell_length_c 10.210594
_cell_angle_alpha 94.992499
_cell_angle_beta 50.959571
_cell_angle_gamma 133.035551
_cell_volume 665.946244
_symmetry_space_group_name_H-M "P -1"
_symmetry_group_IT_number 2
_symmetry_cell_setting 'triclinic'
loop_
_space_group_symop_operation_xyz
x,y,z
-x,-y,-z
loop_
_atom_site_type_symbol
_atom_site_label
_atom_site_fract_x
_atom_site_fract_y
_atom_site_fract_z
Si Si1 0.492953 0.883959 0.188057
Si Si2 0.982749 0.375855 0.261039
Si Si3 0.108565 0.277321 0.948075
Si Si4 0.552158 0.234437 0.489283
Si Si5 0.858910 0.592343 0.654201
Si Si6 0.168014 0.882992 0.170273
Si Si7 0.712892 0.656226 0.984049
Si Si8 0.575934 0.862503 0.657806
O O1 0.532626 0.108742 0.197013
O O2 0.492852 0.782282 0.315245
O O3 0.693717 0.340756 0.715628
O O4 0.655085 0.999917 0.948290
O O5 0.987670 0.276605 0.118890
O O6 0.116995 0.485504 0.249345
O O7 0.047402 0.626381 0.182253
O O8 0.782757 0.134055 0.501229
O O9 0.230637 0.376429 0.952324
O O10 0.233711 0.482251 0.718135
O O11 0.000000 0.000000 0.000000
O O12 0.447286 0.206351 0.480266
O O13 0.500000 0.000000 0.500000
O O14 0.811150 0.708486 0.757949
O O15 0.046397 0.806847 0.403365
O O16 0.239105 0.109915 0.029343
O O17 0.498325 0.362508 0.187855
#
# Coordination Sequence:
#
# PCOD8022277 Si02
#       8
#     2   2   2   2   2   2   2   2
#     4  11  24  42  72  97 139 179 229 283 329 406
#     4  11  24  44  73 102 129 182 234 271 340 409
#     4  10  23  43  69  96 138 175 222 286 336 399
#     4   9  20  42  65  96 131 176 222 273 335 390
#     4  11  25  46  68 101 138 181 229 279 337 405
#     4  12  25  44  68 104 132 183 228 273 344 401
#     4  10  25  44  66  99 142 174 224 285 345 396
#     4  10  22  45  69  99 137 179 225 286 335 404
#
# _framework density 24.025963000000001
#
# number of rings (size 3 to 8) (size 9 to 14) (size 15 to 20)
#    0.000    1.500    1.250    3.750    3.500    3.500 
#    2.250    5.000    0.000    0.000    0.000    0.000 
#    0.000    0.000    0.000    0.000    0.000    0.000 
#
# Total GULP energy -198231.182761 kJ/mol
# GULP energy per Si atom -12389.448923 kJ/mol
# Density = 2.397128 g / cm^3
# Si number density = 24.025963 Si / 1000 Ang^3
#
#
#
# Elastic Constant Matrix: (Units=GPa)
#
#
# Indices 1 2 3 4 5 6 
#
# 1 58.4472 33.3056 40.6310 -2.7536 -6.7878 9.5210
# 2 33.3056 171.5868 81.6804 -23.7135 3.3748 -19.0488
# 3 40.6310 81.6804 139.6730 -25.1382 -17.4591 -4.1861
# 4 -2.7536 -23.7135 -25.1382 42.6158 2.7586 6.8700
# 5 -6.7878 3.3748 -17.4591 2.7586 31.1980 -2.7789
# 6 9.5210 -19.0488 -4.1861 6.8700 -2.7789 35.6866
#
#
#
# Elastic Compliance Matrix: (Units=1/GPa)
#
#
# Indices 1 2 3 4 5 6 
#
# 1 0.024369 -0.003394 -0.005524 -0.002359 0.002043 -0.008348
# 2 -0.003394 0.009566 -0.004642 0.001859 -0.004109 0.004789
# 3 -0.005524 -0.004642 0.013044 0.004322 0.006234 0.000179
# 4 -0.002359 0.001859 0.004322 0.027485 -0.001015 -0.003242
# 5 0.002043 -0.004109 0.006234 -0.001015 0.036613 0.001039
# 6 -0.008348 0.004789 0.000179 -0.003242 0.001039 0.033531
#
#
# Mechanical properties :
#
#
# Convention : Reuss Voigt Hill
#
# Bulk Modulus (GPa) = 50.35411 75.66011 63.00711
# Shear Modulus (GPa) = 28.03506 36.17274 32.10390
#
# Velocity S-wave (km/s) = 3.41965 3.88438 3.65940
# Velocity P-wave (km/s) = 6.04944 7.18868 6.64353
#
# Compressibility (1/GPa) = 0.01985935
#
# Stress axis : x y z
#
# Youngs Moduli (GPa) = 41.03530 104.53657 76.66489
#
# Poissons Ratio (x) = 0.35475 0.42348
# Poissons Ratio (y) = 0.13925 0.35592
# Poissons Ratio (z) = 0.22667 0.48531
#
# Static dielectric constant tensor:
#      x y z
#    x 4.181200 0.109070 0.064270 
#    y 0.109070 4.430660 0.039270 
#    z 0.064270 0.039270 4.686370 
# 
# 
# High freq. dielectric constant tensor:
#      x y z
#    x 1.923260 0.003550 -0.003870 
#    y 0.003550 1.954710 -0.012250 
#    z -0.003870 -0.012250 1.967000 
# 
# From -- ./inp_files/214553.got.cif
#   From: 2010.06.25/outbox.cif.g09.slc.cpg/sg2_108_cif.got.tgz:214553.got - 2010.06.27 13:26:56.
