data_PCOD8022863
_publ_section_title
;
Structure prediction by ZEFSAII (Michael W. Deem and Ramdas Pophale) SiO2 
 PCOD8022863
Probable space group: P -1
;
_chemical_formula_sum "Si O2"
_cell_formula_units_Z 16
_cell_length_a 14.696316
_cell_length_b 10.917326
_cell_length_c 12.222173
_cell_angle_alpha 69.568100
_cell_angle_beta 125.409789
_cell_angle_gamma 152.203566
_cell_volume 672.860401
_symmetry_space_group_name_H-M "P -1"
_symmetry_group_IT_number 2
_symmetry_cell_setting 'triclinic'
loop_
_space_group_symop_operation_xyz
x,y,z
-x,-y,-z
loop_
_atom_site_type_symbol
_atom_site_label
_atom_site_fract_x
_atom_site_fract_y
_atom_site_fract_z
Si Si1 0.079257 0.742069 0.677802
Si Si2 0.708906 0.165027 0.514367
Si Si3 0.396206 0.198430 0.090036
Si Si4 0.895919 0.869416 0.187715
Si Si5 0.718573 0.904053 0.709197
Si Si6 0.703155 0.156535 0.009886
Si Si7 0.567164 0.228364 0.749250
Si Si8 0.763192 0.629220 0.585626
O O1 0.944148 0.508284 0.567729
O O2 0.928472 0.717583 0.590398
O O3 0.361943 0.072927 0.738885
O O4 0.068181 0.654957 0.815349
O O5 0.500000 0.000000 0.500000
O O6 0.792688 0.108264 0.626994
O O7 0.588307 0.033947 0.352257
O O8 0.667992 0.544529 0.169000
O O9 0.331999 0.104015 0.200464
O O10 0.402418 0.072487 0.064590
O O11 0.193492 0.084786 0.933900
O O12 0.052041 0.956999 0.176060
O O13 0.077114 0.079724 0.353747
O O14 0.481336 0.585019 0.585342
O O15 0.771743 0.352410 0.917912
O O16 0.500000 0.000000 0.000000
O O17 0.697875 0.480050 0.696633
#
# Coordination Sequence:
#
# PCOD8022863 Si02
#       8
#     2   2   2   2   2   2   2   2
#     4  11  22  40  63  95 136 172 210 273 331 392
#     4  11  21  41  64  99 135 163 217 274 333 398
#     4  11  25  47  69  96 135 176 222 279 331 385
#     4  11  26  47  68  93 136 179 230 270 320 397
#     4  11  25  42  71  99 133 176 226 268 331 400
#     4  10  23  42  67 101 129 171 221 269 337 399
#     4  10  23  39  66  99 132 169 213 271 339 394
#     4  11  24  45  65 102 135 170 223 274 325 397
#
# _framework density 23.779077999999998
#
# number of rings (size 3 to 8) (size 9 to 14) (size 15 to 20)
#    0.000    1.250    3.750    1.875    3.500    5.000 
#    4.500    0.000    0.000    0.000    0.000    0.000 
#    0.000    0.000    0.000    0.000    0.000    0.000 
#
# Total GULP energy -198398.671356 kJ/mol
# GULP energy per Si atom -12399.916960 kJ/mol
# Density = 2.372496 g / cm^3
# Si number density = 23.779078 Si / 1000 Ang^3
#
#
#
# Elastic Constant Matrix: (Units=GPa)
#
#
# Indices 1 2 3 4 5 6 
#
# 1 124.6456 25.5498 32.5178 4.8031 3.8277 4.8742
# 2 25.5498 31.1096 -0.5445 7.4427 0.5708 0.0018
# 3 32.5178 -0.5445 56.7376 2.4193 -6.7091 5.7068
# 4 4.8031 7.4427 2.4193 35.3873 -0.8520 -6.1486
# 5 3.8277 0.5708 -6.7091 -0.8520 43.0249 6.1885
# 6 4.8742 0.0018 5.7068 -6.1486 6.1885 26.0277
#
#
#
# Elastic Compliance Matrix: (Units=1/GPa)
#
#
# Indices 1 2 3 4 5 6 
#
# 1 0.012041 -0.010212 -0.007291 0.000974 -0.002063 0.000065
# 2 -0.010212 0.042626 0.007000 -0.008363 0.001552 -0.001970
# 3 -0.007291 0.007000 0.023135 -0.002913 0.004906 -0.005562
# 4 0.000974 -0.008363 -0.002913 0.031473 -0.000975 0.008124
# 5 -0.002063 0.001552 0.004906 -0.000975 0.025143 -0.006898
# 6 0.000065 -0.001970 -0.005562 0.008124 -0.006898 0.043187
#
#
# Mechanical properties :
#
#
# Convention : Reuss Voigt Hill
#
# Bulk Modulus (GPa) = 17.60683 36.39323 27.00003
# Shear Modulus (GPa) = 22.98385 31.21927 27.10156
#
# Velocity S-wave (km/s) = 3.11232 3.62731 3.37964
# Velocity P-wave (km/s) = 4.50953 5.73421 5.15834
#
# Compressibility (1/GPa) = 0.05679613
#
# Stress axis : x y z
#
# Youngs Moduli (GPa) = 83.04623 23.45967 43.22511
#
# Poissons Ratio (x) = 0.23957 0.31517
# Poissons Ratio (y) = 0.84808 -0.30258
# Poissons Ratio (z) = 0.60551 -0.16422
#
# Static dielectric constant tensor:
#      x y z
#    x 4.387410 0.077650 -0.011440 
#    y 0.077650 4.101000 0.050930 
#    z -0.011440 0.050930 4.640230 
# 
# 
# High freq. dielectric constant tensor:
#      x y z
#    x 1.956190 0.009660 0.001050 
#    y 0.009660 1.923900 0.003430 
#    z 0.001050 0.003430 1.949630 
# 
# From -- ./inp_files/452292.got.cif
#   From: 2010.06.25/outbox.cif.g09.slc.cpg/sg2_227_cif.got.tgz:452292.got - 2010.06.27 13:26:56.
