data_PCOD8022331
_publ_section_title
;
Structure prediction by ZEFSAII (Michael W. Deem and Ramdas Pophale) SiO2 
 PCOD8022331
Probable space group: P -1
;
_chemical_formula_sum "Si O2"
_cell_formula_units_Z 14
_cell_length_a 7.320742
_cell_length_b 7.626644
_cell_length_c 15.489822
_cell_angle_alpha 88.399837
_cell_angle_beta 123.675631
_cell_angle_gamma 121.406171
_cell_volume 571.285202
_symmetry_space_group_name_H-M "P -1"
_symmetry_group_IT_number 2
_symmetry_cell_setting 'triclinic'
loop_
_space_group_symop_operation_xyz
x,y,z
-x,-y,-z
loop_
_atom_site_type_symbol
_atom_site_label
_atom_site_fract_x
_atom_site_fract_y
_atom_site_fract_z
Si Si1 0.084939 0.478370 0.222957
Si Si2 0.199796 0.896465 0.315021
Si Si3 0.890260 0.826258 0.398367
Si Si4 0.463217 0.347626 0.309070
Si Si5 0.410615 0.768750 0.163255
Si Si6 0.331572 0.251991 0.930095
Si Si7 0.533981 0.819258 0.864242
O O1 0.257075 0.718401 0.314088
O O2 0.211749 0.347942 0.277989
O O3 0.130232 0.543385 0.131284
O O4 0.770623 0.323272 0.171384
O O5 0.141392 0.892166 0.401124
O O6 0.946492 0.833741 0.189352
O O7 0.452291 0.150850 0.353911
O O8 0.752099 0.582456 0.405192
O O9 0.662732 0.820161 0.285224
O O10 0.000000 0.000000 0.500000
O O11 0.452384 0.328173 0.201326
O O12 0.463135 0.759365 0.076671
O O13 0.385507 0.964900 0.167010
O O14 0.500000 0.500000 0.000000
O O15 0.259057 0.111166 0.001399
#
# Coordination Sequence:
#
# PCOD8022331 Si02
#       7
#     2   2   2   2   2   2   2
#     4  11  21  40  65  91 128 175 211 262 321 376
#     4  11  22  43  65  93 135 169 214 271 319 380
#     4  10  22  45  71  96 129 165 215 275 326 389
#     4  11  24  42  68  95 130 172 215 267 326 382
#     4  10  23  40  63  96 129 170 218 266 325 383
#     4  11  21  39  62  96 133 176 218 263 315 379
#     4  12  22  42  65  92 136 174 216 264 316 382
#
# _framework density 24.506150000000002
#
# number of rings (size 3 to 8) (size 9 to 14) (size 15 to 20)
#    0.000    1.143    4.286    3.857    0.000    1.714 
#    2.571    3.571    0.000    0.000    0.000    0.000 
#    0.000    0.000    0.000    0.000    0.000    0.000 
#
# Total GULP energy -173570.376488 kJ/mol
# GULP energy per Si atom -12397.884035 kJ/mol
# Density = 2.445037 g / cm^3
# Si number density = 24.506150 Si / 1000 Ang^3
#
#
#
# Elastic Constant Matrix: (Units=GPa)
#
#
# Indices 1 2 3 4 5 6 
#
# 1 105.2282 1.1628 14.4072 4.4358 -30.1078 -7.8653
# 2 1.1628 103.9051 9.6843 6.8347 -0.9249 -5.3894
# 3 14.4072 9.6843 46.7933 14.1759 -24.2341 0.0745
# 4 4.4358 6.8347 14.1759 28.0359 -7.5932 -4.8862
# 5 -30.1078 -0.9249 -24.2341 -7.5932 27.5228 1.7620
# 6 -7.8653 -5.3894 0.0745 -4.8862 1.7620 42.2112
#
#
#
# Elastic Compliance Matrix: (Units=1/GPa)
#
#
# Indices 1 2 3 4 5 6 
#
# 1 0.015215 -0.000577 0.007116 0.000679 0.022958 0.001869
# 2 -0.000577 0.010073 -0.003433 -0.001451 -0.003790 0.001175
# 3 0.007116 -0.003433 0.047633 -0.012254 0.046393 -0.002551
# 4 0.000679 -0.001451 -0.012254 0.043391 0.001560 0.004921
# 5 0.022958 -0.003790 0.046393 0.001560 0.102625 -0.000391
# 6 0.001869 0.001175 -0.002551 0.004921 -0.000391 0.024779
#
#
# Mechanical properties :
#
#
# Convention : Reuss Voigt Hill
#
# Bulk Modulus (GPa) = 12.63668 34.04836 23.34252
# Shear Modulus (GPa) = 18.94789 34.93214 26.94002
#
# Velocity S-wave (km/s) = 2.78364 3.77960 3.31919
# Velocity P-wave (km/s) = 3.93692 5.74205 4.92293
#
# Compressibility (1/GPa) = 0.07913470
#
# Stress axis : x y z
#
# Youngs Moduli (GPa) = 65.72425 99.27362 20.99383
#
# Poissons Ratio (x) = 0.05727 -0.14939
# Poissons Ratio (y) = 0.03791 0.07206
# Poissons Ratio (z) = -0.46770 0.34076
#
# Static dielectric constant tensor:
#      x y z
#    x 4.293570 -0.052400 -1.376290 
#    y -0.052400 4.904940 -0.334160 
#    z -1.376290 -0.334160 2.581920 
# 
# 
# High freq. dielectric constant tensor:
#      x y z
#    x 1.991480 -0.001180 -0.028750 
#    y -0.001180 1.989650 -0.000270 
#    z -0.028750 -0.000270 1.932890 
# 
# From -- ./inp_files/346700.got.cif
#   From: 2010.06.25/outbox.cif.g09.slc.cpg/sg2_174_cif.got.tgz:346700.got - 2010.06.27 13:26:56.
