data_PCOD8022591
_publ_section_title
;
Structure prediction by ZEFSAII (Michael W. Deem and Ramdas Pophale) SiO2 
 PCOD8022591
Probable space group: P -1
;
_chemical_formula_sum "Si O2"
_cell_formula_units_Z 12
_cell_length_a 21.228076
_cell_length_b 10.797052
_cell_length_c 5.144114
_cell_angle_alpha 128.732722
_cell_angle_beta 130.102210
_cell_angle_gamma 31.411944
_cell_volume 461.420514
_symmetry_space_group_name_H-M "P -1"
_symmetry_group_IT_number 2
_symmetry_cell_setting 'triclinic'
loop_
_space_group_symop_operation_xyz
x,y,z
-x,-y,-z
loop_
_atom_site_type_symbol
_atom_site_label
_atom_site_fract_x
_atom_site_fract_y
_atom_site_fract_z
Si Si1 0.133500 0.236295 0.433627
Si Si2 0.670377 0.816204 0.201802
Si Si3 0.343987 0.368048 0.585930
Si Si4 0.703578 0.170513 0.283075
Si Si5 0.871361 0.094285 0.282657
Si Si6 0.486232 0.695292 0.412796
O O1 0.202140 0.273178 0.494424
O O2 0.000000 0.500000 0.500000
O O3 0.234177 0.067481 0.715139
O O4 0.111704 0.097490 0.067676
O O5 0.619530 0.796009 0.292165
O O6 0.554765 0.110115 0.234907
O O7 0.697916 0.672699 0.832658
O O8 0.230577 0.638383 0.759095
O O9 0.456909 0.315581 0.719554
O O10 0.817787 0.128073 0.471786
O O11 0.591022 0.427595 0.475408
O O12 0.641409 0.207780 0.891254
O O13 0.000000 0.000000 0.500000
#
# Coordination Sequence:
#
# PCOD8022591 Si02
#       6
#     2   2   2   2   2   2
#     4  12  28  47  78 106 148 204 254 317 374 453
#     4  12  25  48  73 117 152 198 250 312 379 450
#     4  11  27  45  76 115 154 198 248 311 382 450
#     4  10  24  47  73 111 148 196 250 312 382 446
#     4  11  26  48  73 103 146 203 254 316 372 451
#     4  10  22  47  76 112 155 196 246 307 378 457
#
# _framework density 26.006643
#
# number of rings (size 3 to 8) (size 9 to 14) (size 15 to 20)
#    0.000    1.000    1.667    3.000    7.000    3.333 
#    3.000    0.000    0.000    0.000    0.000    0.000 
#    0.000    0.000    0.000    0.000    0.000    0.000 
#
# Total GULP energy -148668.747650 kJ/mol
# GULP energy per Si atom -12389.062304 kJ/mol
# Density = 2.594745 g / cm^3
# Si number density = 26.006643 Si / 1000 Ang^3
#
#
#
# Elastic Constant Matrix: (Units=GPa)
#
#
# Indices 1 2 3 4 5 6 
#
# 1 64.9503 30.6537 28.3711 -10.1724 19.2045 -25.7354
# 2 30.6537 177.4476 31.5035 25.5448 4.7550 -2.9794
# 3 28.3711 31.5035 116.6292 17.1558 18.0990 -3.6681
# 4 -10.1724 25.5448 17.1558 49.7599 -3.5201 8.3226
# 5 19.2045 4.7550 18.0990 -3.5201 38.6759 -7.4455
# 6 -25.7354 -2.9794 -3.6681 8.3226 -7.4455 45.7635
#
#
#
# Elastic Compliance Matrix: (Units=1/GPa)
#
#
# Indices 1 2 3 4 5 6 
#
# 1 0.028253 -0.004595 -0.005051 0.007206 -0.008025 0.012568
# 2 -0.004595 0.007045 -0.000363 -0.004155 0.000968 -0.001241
# 3 -0.005051 -0.000363 0.011048 -0.004611 -0.003362 -0.001687
# 4 0.007206 -0.004155 -0.004611 0.025552 0.001216 -0.001036
# 5 -0.008025 0.000968 -0.003362 0.001216 0.031439 0.000175
# 6 0.012568 -0.001241 -0.001687 -0.001036 0.000175 0.028920
#
#
# Mechanical properties :
#
#
# Convention : Reuss Voigt Hill
#
# Bulk Modulus (GPa) = 37.98439 60.00928 48.99683
# Shear Modulus (GPa) = 31.04615 44.73979 37.89297
#
# Velocity S-wave (km/s) = 3.45886 4.15218 3.82127
# Velocity P-wave (km/s) = 5.53073 6.79059 6.19278
#
# Compressibility (1/GPa) = 0.02632660
#
# Stress axis : x y z
#
# Youngs Moduli (GPa) = 35.39493 141.94297 90.51532
#
# Poissons Ratio (x) = 0.65226 0.45718
# Poissons Ratio (y) = 0.16265 0.03289
# Poissons Ratio (z) = 0.17878 0.05158
#
# Static dielectric constant tensor:
#      x y z
#    x 4.991890 0.020670 0.470860 
#    y 0.020670 4.917500 0.432520 
#    z 0.470860 0.432520 4.566790 
# 
# 
# High freq. dielectric constant tensor:
#      x y z
#    x 2.051900 -0.010490 0.029060 
#    y -0.010490 2.049340 0.025230 
#    z 0.029060 0.025230 2.031560 
# 
# From -- ./inp_files/24659.got.cif
#   From: 2010.06.25/outbox.cif.g09.slc.cpg/sg2_13_cif.got.tgz:24659.got - 2010.06.27 13:26:56.
