data_PCOD8022712
_publ_section_title
;
Structure prediction by ZEFSAII (Michael W. Deem and Ramdas Pophale) SiO2 
 PCOD8022712
Probable space group: P -1
;
_chemical_formula_sum "Si O2"
_cell_formula_units_Z 16
_cell_length_a 14.504318
_cell_length_b 8.507732
_cell_length_c 14.525059
_cell_angle_alpha 127.057280
_cell_angle_beta 53.401018
_cell_angle_gamma 147.901743
_cell_volume 744.373999
_symmetry_space_group_name_H-M "P -1"
_symmetry_group_IT_number 2
_symmetry_cell_setting 'triclinic'
loop_
_space_group_symop_operation_xyz
x,y,z
-x,-y,-z
loop_
_atom_site_type_symbol
_atom_site_label
_atom_site_fract_x
_atom_site_fract_y
_atom_site_fract_z
Si Si1 0.085304 0.808459 0.836691
Si Si2 0.690231 0.224278 0.853071
Si Si3 0.525974 0.731090 0.915786
Si Si4 0.965346 0.030088 0.252377
Si Si5 0.875661 0.151331 0.963268
Si Si6 0.714954 0.280684 0.651712
Si Si7 0.364448 0.231593 0.558185
Si Si8 0.554610 0.787475 0.300275
O O1 0.073815 0.982628 0.837212
O O2 0.899185 0.449728 0.818001
O O3 0.243495 0.878849 0.724934
O O4 0.131303 0.930851 0.956396
O O5 0.630451 0.166585 0.763182
O O6 0.586093 0.904540 0.844720
O O7 0.644374 0.369958 0.982755
O O8 0.478071 0.442434 0.827712
O O9 0.679058 0.951521 0.978637
O O10 0.096667 0.364839 0.334226
O O11 0.783476 0.799735 0.337295
O O12 0.050434 0.925668 0.173370
O O13 0.000000 0.500000 0.000000
O O14 0.580538 0.215378 0.640948
O O15 0.739162 0.090270 0.535612
O O16 0.500000 0.500000 0.500000
O O17 0.472193 0.305078 0.610226
#
# Coordination Sequence:
#
# PCOD8022712 Si02
#       8
#     2   2   2   2   2   2   2   2
#     4  10  23  38  62  94 129 172 204 252 314 383
#     4  10  23  39  62  92 132 172 206 256 321 384
#     4  11  23  39  60  95 133 170 206 261 321 382
#     4  10  24  42  67  91 127 171 215 260 314 383
#     4  12  23  39  63  98 135 165 210 258 319 381
#     4  11  22  44  66  93 126 168 219 263 315 370
#     4  11  25  45  68  91 125 169 217 267 321 374
#     4  11  24  40  67  95 127 163 219 263 319 373
#
# _framework density 21.494571000000001
#
# number of rings (size 3 to 8) (size 9 to 14) (size 15 to 20)
#    0.000    1.250    2.500    2.625    7.000    3.000 
#    0.000    0.625    0.000    0.000    0.000    0.000 
#    0.000    0.000    0.000    0.000    0.000    0.000 
#
# Total GULP energy -198440.422963 kJ/mol
# GULP energy per Si atom -12402.526435 kJ/mol
# Density = 2.144565 g / cm^3
# Si number density = 21.494571 Si / 1000 Ang^3
#
#
#
# Elastic Constant Matrix: (Units=GPa)
#
#
# Indices 1 2 3 4 5 6 
#
# 1 97.8740 42.4489 32.6071 -16.9013 10.1197 9.9180
# 2 42.4489 102.2426 46.8656 -11.4516 2.0469 6.3788
# 3 32.6071 46.8656 81.9688 -9.4711 6.4179 -9.9619
# 4 -16.9013 -11.4516 -9.4711 42.1645 -2.4217 -4.2751
# 5 10.1197 2.0469 6.4179 -2.4217 35.3340 5.9332
# 6 9.9180 6.3788 -9.9619 -4.2751 5.9332 24.0031
#
#
#
# Elastic Compliance Matrix: (Units=1/GPa)
#
#
# Indices 1 2 3 4 5 6 
#
# 1 0.014329 -0.003418 -0.003881 0.003265 -0.002048 -0.005535
# 2 -0.003418 0.015525 -0.008527 0.000395 0.002810 -0.006877
# 3 -0.003881 -0.008527 0.020892 0.001986 -0.004401 0.013982
# 4 0.003265 0.000395 0.001986 0.025977 -0.000219 0.004051
# 5 -0.002048 0.002810 -0.004401 -0.000219 0.031097 -0.009453
# 6 -0.005535 -0.006877 0.013982 0.004051 -0.009453 0.054637
#
#
# Mechanical properties :
#
#
# Convention : Reuss Voigt Hill
#
# Bulk Modulus (GPa) = 52.37098 58.43653 55.40376
# Shear Modulus (GPa) = 24.94082 30.97791 27.95936
#
# Velocity S-wave (km/s) = 3.41006 3.80043 3.61052
# Velocity P-wave (km/s) = 6.31841 6.81934 6.57365
#
# Compressibility (1/GPa) = 0.01909454
#
# Stress axis : x y z
#
# Youngs Moduli (GPa) = 69.78805 64.41042 47.86459
#
# Poissons Ratio (x) = 0.22017 0.18576
# Poissons Ratio (y) = 0.23855 0.40814
# Poissons Ratio (z) = 0.27084 0.54923
#
# Static dielectric constant tensor:
#      x y z
#    x 3.956070 0.146210 0.109840 
#    y 0.146210 3.857640 -0.134380 
#    z 0.109840 -0.134380 3.817270 
# 
# 
# High freq. dielectric constant tensor:
#      x y z
#    x 1.847100 0.009800 0.008010 
#    y 0.009800 1.844310 -0.008970 
#    z 0.008010 -0.008970 1.837140 
# 
# From -- ./inp_files/199448.got.cif
#   From: 2010.06.25/outbox.cif.g09.slc.cpg/sg2_100_cif.got.tgz:199448.got - 2010.06.27 13:26:56.
