data_PCOD8022972
_publ_section_title
;
Structure prediction by ZEFSAII (Michael W. Deem and Ramdas Pophale) SiO2 
 PCOD8022972
Probable space group: P -1
;
_chemical_formula_sum "Si O2"
_cell_formula_units_Z 14
_cell_length_a 8.798032
_cell_length_b 11.312892
_cell_length_c 6.361318
_cell_angle_alpha 113.479769
_cell_angle_beta 72.349176
_cell_angle_gamma 119.077502
_cell_volume 502.767555
_symmetry_space_group_name_H-M "P -1"
_symmetry_group_IT_number 2
_symmetry_cell_setting 'triclinic'
loop_
_space_group_symop_operation_xyz
x,y,z
-x,-y,-z
loop_
_atom_site_type_symbol
_atom_site_label
_atom_site_fract_x
_atom_site_fract_y
_atom_site_fract_z
Si Si1 0.788823 0.594622 0.130680
Si Si2 0.353461 0.715638 0.905808
Si Si3 0.738469 0.357485 0.587761
Si Si4 0.101893 0.347718 0.417435
Si Si5 0.618429 0.781653 0.140529
Si Si6 0.113047 0.852116 0.168079
Si Si7 0.043314 0.952336 0.716613
O O1 0.739813 0.425716 0.999990
O O2 0.775469 0.620577 0.405429
O O3 0.660119 0.652333 0.109684
O O4 0.986564 0.690997 0.038058
O O5 0.303312 0.671499 0.660532
O O6 0.563253 0.769024 0.904935
O O7 0.301886 0.847640 0.080499
O O8 0.794258 0.529317 0.712201
O O9 0.570042 0.243356 0.694724
O O10 0.911269 0.336459 0.562807
O O11 0.054773 0.194990 0.213942
O O12 0.756379 0.939882 0.248899
O O13 0.041436 0.890906 0.441276
O O14 0.087207 0.970946 0.115966
#
# Coordination Sequence:
#
# PCOD8022972 Si02
#       7
#     2   2   2   2   2   2   2
#     4   9  19  36  62  92 117 157 207 248 299 355
#     4  11  22  37  60  92 125 158 200 251 303 361
#     4  10  23  40  63  94 119 156 207 251 300 356
#     4   9  19  40  62  86 120 156 206 250 287 356
#     4  11  22  39  64  90 126 161 193 250 311 360
#     4   9  18  35  60  85 115 161 209 244 288 360
#     4   9  19  38  62  87 117 163 204 240 303 363
#
# _framework density 27.845867999999999
#
# number of rings (size 3 to 8) (size 9 to 14) (size 15 to 20)
#    0.000    2.286    0.000    3.429    0.000    6.857 
#    0.000    6.429    0.000    0.000    0.000    3.000 
#    0.000    0.000    0.000    0.000    0.000    0.000 
#
# Total GULP energy -173440.312768 kJ/mol
# GULP energy per Si atom -12388.593769 kJ/mol
# Density = 2.778249 g / cm^3
# Si number density = 27.845868 Si / 1000 Ang^3
#
#
#
# Elastic Constant Matrix: (Units=GPa)
#
#
# Indices 1 2 3 4 5 6 
#
# 1 162.9394 44.4983 30.9881 31.7237 15.0018 -11.7149
# 2 44.4983 135.8369 34.5228 41.2704 5.1446 -9.1695
# 3 30.9881 34.5228 64.2025 29.7782 -5.5967 -6.6560
# 4 31.7237 41.2704 29.7782 51.3306 -3.0537 -8.2893
# 5 15.0018 5.1446 -5.5967 -3.0537 18.9361 4.4767
# 6 -11.7149 -9.1695 -6.6560 -8.2893 4.4767 34.1469
#
#
#
# Elastic Compliance Matrix: (Units=1/GPa)
#
#
# Indices 1 2 3 4 5 6 
#
# 1 0.008399 -0.000591 -0.002706 -0.003241 -0.008409 0.002511
# 2 -0.000591 0.010467 -0.002522 -0.006678 -0.004453 0.001079
# 3 -0.002706 -0.002522 0.023263 -0.009372 0.008295 -0.000434
# 4 -0.003241 -0.006678 -0.009372 0.033066 0.006362 0.002461
# 5 -0.008409 -0.004453 0.008295 0.006362 0.066435 -0.009629
# 6 0.002511 0.001079 -0.000434 0.002461 -0.009629 0.032212
#
#
# Mechanical properties :
#
#
# Convention : Reuss Voigt Hill
#
# Bulk Modulus (GPa) = 32.79651 64.77746 48.78698
# Shear Modulus (GPa) = 25.55686 37.74735 31.65210
#
# Velocity S-wave (km/s) = 3.03280 3.68582 3.37514
# Velocity P-wave (km/s) = 4.90584 6.43638 5.72251
#
# Compressibility (1/GPa) = 0.03049105
#
# Stress axis : x y z
#
# Youngs Moduli (GPa) = 119.06209 95.54169 42.98715
#
# Poissons Ratio (x) = 0.05648 0.11631
# Poissons Ratio (y) = 0.07039 0.10841
# Poissons Ratio (z) = 0.32214 0.24094
#
# Static dielectric constant tensor:
#      x y z
#    x 5.308720 -0.467910 0.458010 
#    y -0.467910 5.843390 0.182240 
#    z 0.458010 0.182240 5.100790 
# 
# 
# High freq. dielectric constant tensor:
#      x y z
#    x 2.127020 -0.021550 0.035970 
#    y -0.021550 2.135500 0.003800 
#    z 0.035970 0.003800 2.150550 
# 
# From -- ./inp_files/189887.got.cif
#   From: 2010.06.25/outbox.cif.g09.slc.cpg/sg2_95_cif.got.tgz:189887.got - 2010.06.27 13:26:56.
