data_PCOD8022596
_publ_section_title
;
Structure prediction by ZEFSAII (Michael W. Deem and Ramdas Pophale) SiO2 
 PCOD8022596
Probable space group: P -1
;
_chemical_formula_sum "Si O2"
_cell_formula_units_Z 14
_cell_length_a 9.520036
_cell_length_b 16.197745
_cell_length_c 16.248354
_cell_angle_alpha 26.287926
_cell_angle_beta 73.347992
_cell_angle_gamma 53.321035
_cell_volume 634.651606
_symmetry_space_group_name_H-M "P -1"
_symmetry_group_IT_number 2
_symmetry_cell_setting 'triclinic'
loop_
_space_group_symop_operation_xyz
x,y,z
-x,-y,-z
loop_
_atom_site_type_symbol
_atom_site_label
_atom_site_fract_x
_atom_site_fract_y
_atom_site_fract_z
Si Si1 0.463839 0.373600 0.353718
Si Si2 0.682059 0.082842 0.053521
Si Si3 0.949830 0.658624 0.950561
Si Si4 0.958828 0.190375 0.632631
Si Si5 0.900634 0.900316 0.002676
Si Si6 0.256648 0.282854 0.910877
Si Si7 0.676088 0.426982 0.975564
O O1 0.195220 0.568163 0.250083
O O2 0.689719 0.032992 0.660262
O O3 0.483412 0.570410 0.201127
O O4 0.484866 0.328438 0.291660
O O5 0.812107 0.002011 0.019162
O O6 0.530470 0.044230 0.111274
O O7 0.886533 0.834445 0.310313
O O8 0.181798 0.555531 0.015794
O O9 0.930992 0.538936 0.139471
O O10 0.000000 0.500000 0.000000
O O11 0.775420 0.504558 0.331916
O O12 0.130629 0.917636 0.781516
O O13 0.825039 0.168870 0.729039
O O14 0.757177 0.886379 0.990360
O O15 0.500000 0.500000 0.000000
#
# Coordination Sequence:
#
# PCOD8022596 Si02
#       7
#     2   2   2   2   2   2   2
#     4  10  23  46  68  93 138 177 217 283 324 404
#     4  10  23  43  72  99 130 181 223 268 338 397
#     4  12  28  43  66  99 135 178 222 276 339 394
#     4  10  23  44  66  94 138 174 221 278 325 400
#     4  10  22  48  67  99 138 177 220 274 337 386
#     4  12  25  42  65 103 138 169 229 278 323 400
#     4  10  23  44  67  93 128 176 228 276 337 388
#
# _framework density 22.059346999999999
#
# number of rings (size 3 to 8) (size 9 to 14) (size 15 to 20)
#    0.000    1.714    2.857    3.000    8.000    2.286 
#    5.143    0.000    0.000    0.000    0.000    0.000 
#    0.000    0.000    0.000    0.000    0.000    0.000 
#
# Total GULP energy -173564.428489 kJ/mol
# GULP energy per Si atom -12397.459178 kJ/mol
# Density = 2.200914 g / cm^3
# Si number density = 22.059347 Si / 1000 Ang^3
#
#
#
# Elastic Constant Matrix: (Units=GPa)
#
#
# Indices 1 2 3 4 5 6 
#
# 1 161.4433 35.0378 10.2299 7.1339 9.2989 1.1394
# 2 35.0378 119.8804 4.6306 19.9256 3.7569 0.9558
# 3 10.2299 4.6306 49.0921 11.6917 -0.7768 2.2322
# 4 7.1339 19.9256 11.6917 20.5811 -1.3569 -0.2609
# 5 9.2989 3.7569 -0.7768 -1.3569 14.6074 6.4809
# 6 1.1394 0.9558 2.2322 -0.2609 6.4809 43.3797
#
#
#
# Elastic Compliance Matrix: (Units=1/GPa)
#
#
# Indices 1 2 3 4 5 6 
#
# 1 0.006922 -0.001815 -0.001325 -0.000164 -0.004275 0.000564
# 2 -0.001815 0.010706 0.001949 -0.011009 -0.002527 0.000023
# 3 -0.001325 0.001949 0.024140 -0.015102 0.000876 -0.001472
# 4 -0.000164 -0.011009 -0.015102 0.068440 0.008410 0.000179
# 5 -0.004275 -0.002527 0.000876 0.008410 0.077734 -0.011440
# 6 0.000564 0.000023 -0.001472 0.000179 -0.011440 0.024823
#
#
# Mechanical properties :
#
#
# Convention : Reuss Voigt Hill
#
# Bulk Modulus (GPa) = 25.39062 47.80138 36.59600
# Shear Modulus (GPa) = 21.90352 34.41479 28.15916
#
# Velocity S-wave (km/s) = 3.15451 3.95410 3.57672
# Velocity P-wave (km/s) = 4.98026 6.52403 5.80371
#
# Compressibility (1/GPa) = 0.03938462
#
# Stress axis : x y z
#
# Youngs Moduli (GPa) = 144.47649 93.40756 41.42559
#
# Poissons Ratio (x) = 0.16954 0.05491
# Poissons Ratio (y) = 0.26224 -0.08075
# Poissons Ratio (z) = 0.19150 -0.18209
#
# Static dielectric constant tensor:
#      x y z
#    x 4.138130 0.154730 0.117920 
#    y 0.154730 3.988550 0.298580 
#    z 0.117920 0.298580 3.832820 
# 
# 
# High freq. dielectric constant tensor:
#      x y z
#    x 1.887570 0.008310 0.008320 
#    y 0.008310 1.876570 0.020610 
#    z 0.008320 0.020610 1.847690 
# 
# From -- ./inp_files/503619.got.cif
#   From: 2010.06.25/outbox.cif.g09.slc.cpg/sg2_252_cif.got.tgz:503619.got - 2010.06.27 13:26:56.
