data_PCOD8022671
_publ_section_title
;
Structure prediction by ZEFSAII (Michael W. Deem and Ramdas Pophale) SiO2 
 PCOD8022671
Probable space group: P -1
;
_chemical_formula_sum "Si O2"
_cell_formula_units_Z 16
_cell_length_a 9.657695
_cell_length_b 8.131984
_cell_length_c 10.180865
_cell_angle_alpha 63.263809
_cell_angle_beta 108.874370
_cell_angle_gamma 90.294827
_cell_volume 666.297612
_symmetry_space_group_name_H-M "P -1"
_symmetry_group_IT_number 2
_symmetry_cell_setting 'triclinic'
loop_
_space_group_symop_operation_xyz
x,y,z
-x,-y,-z
loop_
_atom_site_type_symbol
_atom_site_label
_atom_site_fract_x
_atom_site_fract_y
_atom_site_fract_z
Si Si1 0.030428 0.643329 0.767231
Si Si2 0.666974 0.894226 0.740283
Si Si3 0.677444 0.426035 0.509236
Si Si4 0.335989 0.490459 0.003904
Si Si5 0.821811 0.337458 0.856410
Si Si6 0.583486 0.775309 0.485575
Si Si7 0.968877 0.295458 0.536396
Si Si8 0.976859 0.967607 0.842252
O O1 0.976386 0.758182 0.575464
O O2 0.935306 0.483330 0.828982
O O3 0.017121 0.781742 0.833999
O O4 0.205144 0.554837 0.835070
O O5 0.664663 0.726395 0.897258
O O6 0.688158 0.817965 0.622839
O O7 0.798566 0.003948 0.782062
O O8 0.511250 0.032462 0.662185
O O9 0.727448 0.337673 0.697252
O O10 0.674296 0.653862 0.439004
O O11 0.520558 0.370438 0.440172
O O12 0.789939 0.326135 0.471413
O O13 0.294425 0.614771 0.077583
O O14 0.500000 0.500000 0.000000
O O15 0.921903 0.121943 0.966934
O O16 0.000000 0.500000 0.500000
O O17 0.034468 0.141477 0.722707
#
# Coordination Sequence:
#
# PCOD8022671 Si02
#       8
#     2   2   2   2   2   2   2   2
#     4  11  22  42  69  97 136 171 222 280 328 399
#     4  11  20  41  65  96 125 171 232 261 324 395
#     4  11  22  42  64  93 135 174 212 262 341 392
#     4  11  23  38  66  98 129 168 226 281 327 380
#     4  11  21  44  70  96 134 177 217 277 337 404
#     4  10  23  37  66  90 128 174 213 267 314 405
#     4  12  26  41  61 101 133 171 217 278 333 391
#     4  11  22  43  71  97 127 176 228 274 330 393
#
# _framework density 24.013293000000001
#
# number of rings (size 3 to 8) (size 9 to 14) (size 15 to 20)
#    0.000    1.000    6.250    1.125    1.750    0.500 
#    6.750    0.000    0.000    1.500    0.000    0.000 
#    0.000    0.000    0.000    0.000    0.000    0.000 
#
# Total GULP energy -198253.138776 kJ/mol
# GULP energy per Si atom -12390.821173 kJ/mol
# Density = 2.395864 g / cm^3
# Si number density = 24.013293 Si / 1000 Ang^3
#
#
#
# Elastic Constant Matrix: (Units=GPa)
#
#
# Indices 1 2 3 4 5 6 
#
# 1 91.8153 4.1691 20.4224 0.8377 -2.0446 0.6747
# 2 4.1691 68.4590 9.3342 -25.2580 5.5517 4.1621
# 3 20.4224 9.3342 112.9995 -24.7975 4.7500 16.7901
# 4 0.8377 -25.2580 -24.7975 45.3486 3.9162 7.5013
# 5 -2.0446 5.5517 4.7500 3.9162 30.7958 -2.1144
# 6 0.6747 4.1621 16.7901 7.5013 -2.1144 36.1789
#
#
#
# Elastic Compliance Matrix: (Units=1/GPa)
#
#
# Indices 1 2 3 4 5 6 
#
# 1 0.011762 -0.001954 -0.003216 -0.003654 0.002258 0.002387
# 2 -0.001954 0.020980 0.003426 0.015446 -0.006925 -0.007574
# 3 -0.003216 0.003426 0.013114 0.011048 -0.004876 -0.008996
# 4 -0.003654 0.015446 0.011048 0.040328 -0.010947 -0.015837
# 5 0.002258 -0.006925 -0.004876 -0.010947 0.036524 0.007422
# 6 0.002387 -0.007574 -0.008996 -0.015837 0.007422 0.036359
#
#
# Mechanical properties :
#
#
# Convention : Reuss Voigt Hill
#
# Bulk Modulus (GPa) = 23.60279 37.90278 30.75279
# Shear Modulus (GPa) = 28.30025 38.42120 33.36072
#
# Velocity S-wave (km/s) = 3.43669 4.00434 3.73132
# Velocity P-wave (km/s) = 5.05946 6.09901 5.60340
#
# Compressibility (1/GPa) = 0.04236786
#
# Stress axis : x y z
#
# Youngs Moduli (GPa) = 85.02300 47.66451 76.25554
#
# Poissons Ratio (x) = 0.09315 0.24522
# Poissons Ratio (y) = 0.16615 -0.26127
# Poissons Ratio (z) = 0.27341 -0.16331
#
# Static dielectric constant tensor:
#      x y z
#    x 4.709850 -0.403510 0.068610 
#    y -0.403510 4.857840 0.125890 
#    z 0.068610 0.125890 4.950300 
# 
# 
# High freq. dielectric constant tensor:
#      x y z
#    x 1.942710 -0.014660 0.027920 
#    y -0.014660 1.978770 -0.006640 
#    z 0.027920 -0.006640 1.948680 
# 
# From -- ./inp_files/353411.got.cif
#   From: 2010.06.25/outbox.cif.g09.slc.cpg/sg2_177_cif.got.tgz:353411.got - 2010.06.27 13:26:56.
