data_PCOD8022676
_publ_section_title
;
Structure prediction by ZEFSAII (Michael W. Deem and Ramdas Pophale) SiO2 
 PCOD8022676
Probable space group: P -1
;
_chemical_formula_sum "Si O2"
_cell_formula_units_Z 12
_cell_length_a 9.075596
_cell_length_b 11.242069
_cell_length_c 11.354727
_cell_angle_alpha 64.477067
_cell_angle_beta 139.661825
_cell_angle_gamma 129.064756
_cell_volume 579.416918
_symmetry_space_group_name_H-M "P -1"
_symmetry_group_IT_number 2
_symmetry_cell_setting 'triclinic'
loop_
_space_group_symop_operation_xyz
x,y,z
-x,-y,-z
loop_
_atom_site_type_symbol
_atom_site_label
_atom_site_fract_x
_atom_site_fract_y
_atom_site_fract_z
Si Si1 0.105459 0.278486 0.545289
Si Si2 0.204927 0.273859 0.234425
Si Si3 0.666932 0.965333 0.525186
Si Si4 0.474395 0.523936 0.109554
Si Si5 0.933948 0.381235 0.175945
Si Si6 0.541871 0.315000 0.626335
O O1 0.236348 0.391879 0.688763
O O2 0.968587 0.341576 0.347415
O O3 0.334712 0.261638 0.629995
O O4 0.875860 0.115384 0.520256
O O5 0.173972 0.105888 0.279750
O O6 0.284868 0.355652 0.122402
O O7 0.942175 0.265485 0.133283
O O8 0.438378 0.379957 0.428174
O O9 0.464875 0.837905 0.361722
O O10 0.500000 0.000000 0.500000
O O11 0.500000 0.500000 0.000000
O O12 0.346749 0.630430 0.001929
O O13 0.164664 0.556695 0.209538
#
# Coordination Sequence:
#
# PCOD8022676 Si02
#       6
#     2   2   2   2   2   2
#     4  11  21  43  62  93 126 159 218 244 309 377
#     4   9  20  42  60  92 122 161 211 248 307 369
#     4  10  23  37  67  92 127 170 196 255 319 369
#     4  12  26  37  63  98 125 160 210 263 308 362
#     4  11  21  40  72  89 120 165 208 265 303 360
#     4   9  19  39  69  91 116 166 206 254 301 368
#
# _framework density 20.710477000000001
#
# number of rings (size 3 to 8) (size 9 to 14) (size 15 to 20)
#    1.000    0.667    3.333    2.000    4.667    0.667 
#    0.000    3.333    0.000    0.000    0.000    0.000 
#    0.000    0.000    0.000    0.000    0.000    0.000 
#
# Total GULP energy -148743.273841 kJ/mol
# GULP energy per Si atom -12395.272820 kJ/mol
# Density = 2.066334 g / cm^3
# Si number density = 20.710477 Si / 1000 Ang^3
#
#
#
# Elastic Constant Matrix: (Units=GPa)
#
#
# Indices 1 2 3 4 5 6 
#
# 1 129.5986 49.0873 30.1691 -15.5047 -10.4242 3.5891
# 2 49.0873 99.7540 27.3736 -17.4209 2.1799 11.6143
# 3 30.1691 27.3736 53.4252 -15.4874 -4.1329 13.8161
# 4 -15.5047 -17.4209 -15.4874 23.5128 -3.1941 -4.4249
# 5 -10.4242 2.1799 -4.1329 -3.1941 34.2905 -7.2814
# 6 3.5891 11.6143 13.8161 -4.4249 -7.2814 29.9791
#
#
#
# Elastic Compliance Matrix: (Units=1/GPa)
#
#
# Indices 1 2 3 4 5 6 
#
# 1 0.010757 -0.004310 -0.003664 0.002693 0.004088 0.003461
# 2 -0.004310 0.014230 -0.002719 0.004816 -0.002887 -0.003734
# 3 -0.003664 -0.002719 0.028420 0.012767 0.001697 -0.009309
# 4 0.002693 0.004816 0.012767 0.057813 0.007944 0.002391
# 5 0.004088 -0.002887 0.001697 0.007944 0.033476 0.009150
# 6 0.003461 -0.003734 -0.009309 0.002391 0.009150 0.041254
#
#
# Mechanical properties :
#
#
# Convention : Reuss Voigt Hill
#
# Bulk Modulus (GPa) = 31.22961 55.11530 43.17246
# Shear Modulus (GPa) = 22.93475 29.29967 26.11721
#
# Velocity S-wave (km/s) = 3.33137 3.76537 3.55500
# Velocity P-wave (km/s) = 5.46893 6.75085 6.14342
#
# Compressibility (1/GPa) = 0.03202089
#
# Stress axis : x y z
#
# Youngs Moduli (GPa) = 92.96612 70.27204 35.18663
#
# Poissons Ratio (x) = 0.30285 0.12893
# Poissons Ratio (y) = 0.40065 0.09568
# Poissons Ratio (z) = 0.34064 0.19109
#
# Static dielectric constant tensor:
#      x y z
#    x 3.750590 -0.052040 -0.013420 
#    y -0.052040 3.525720 -0.165600 
#    z -0.013420 -0.165600 3.653670 
# 
# 
# High freq. dielectric constant tensor:
#      x y z
#    x 1.813420 0.001340 -0.007640 
#    y 0.001340 1.791130 -0.017910 
#    z -0.007640 -0.017910 1.794460 
# 
# From -- ./inp_files/179286.got.cif
#   From: 2010.06.25/outbox.cif.g09.slc.cpg/sg2_90_cif.got.tgz:179286.got - 2010.06.27 13:26:56.
