data_PCOD8022713
_publ_section_title
;
Structure prediction by ZEFSAII (Michael W. Deem and Ramdas Pophale) SiO2 
 PCOD8022713
Probable space group: P -1
;
_chemical_formula_sum "Si O2"
_cell_formula_units_Z 16
_cell_length_a 12.066794
_cell_length_b 11.008023
_cell_length_c 12.549394
_cell_angle_alpha 120.284673
_cell_angle_beta 137.853836
_cell_angle_gamma 92.130625
_cell_volume 680.751526
_symmetry_space_group_name_H-M "P -1"
_symmetry_group_IT_number 2
_symmetry_cell_setting 'triclinic'
loop_
_space_group_symop_operation_xyz
x,y,z
-x,-y,-z
loop_
_atom_site_type_symbol
_atom_site_label
_atom_site_fract_x
_atom_site_fract_y
_atom_site_fract_z
Si Si1 0.134171 0.698956 0.401644
Si Si2 0.681960 0.727173 0.849242
Si Si3 0.974416 0.901801 0.327521
Si Si4 0.337949 0.306279 0.663352
Si Si5 0.596093 0.089128 0.990459
Si Si6 0.733846 0.458662 0.151882
Si Si7 0.812578 0.563900 0.728130
Si Si8 0.982940 0.155267 0.185220
O O1 0.104006 0.545045 0.234413
O O2 0.992339 0.746433 0.280124
O O3 0.002534 0.579763 0.367672
O O4 0.406232 0.901721 0.695447
O O5 0.750276 0.609015 0.811134
O O6 0.411307 0.592946 0.577730
O O7 0.730447 0.780118 0.034413
O O8 0.838655 0.923082 0.971863
O O9 0.000000 0.000000 0.500000
O O10 0.176104 0.075854 0.472019
O O11 0.273176 0.399428 0.730414
O O12 0.256554 0.296299 0.480480
O O13 0.598163 0.407054 0.918730
O O14 0.611299 0.264223 0.050410
O O15 0.847491 0.169742 0.183285
O O16 0.500000 0.000000 0.000000
O O17 0.010824 0.765848 0.890190
#
# Coordination Sequence:
#
# PCOD8022713 Si02
#       8
#     2   2   2   2   2   2   2   2
#     4  12  24  40  66  95 135 176 221 279 336 402
#     4  10  25  45  67  99 134 177 228 285 330 399
#     4  11  23  42  67  98 138 174 219 278 341 400
#     4  10  23  38  62  94 131 177 219 269 333 404
#     4  12  26  39  62  99 141 173 219 285 339 400
#     4  11  23  41  59  93 138 178 221 267 337 413
#     4  11  24  44  70  96 133 181 231 275 336 399
#     4  11  23  42  67  94 129 174 227 277 336 399
#
# _framework density 23.503435
#
# number of rings (size 3 to 8) (size 9 to 14) (size 15 to 20)
#    0.000    1.000    5.000    1.125    5.250    1.500 
#    0.000    0.000    0.000    2.250    0.000    0.000 
#    0.000    0.000    0.000    0.000    0.000    0.000 
#
# Total GULP energy -198231.454362 kJ/mol
# GULP energy per Si atom -12389.465898 kJ/mol
# Density = 2.344994 g / cm^3
# Si number density = 23.503435 Si / 1000 Ang^3
#
#
#
# Elastic Constant Matrix: (Units=GPa)
#
#
# Indices 1 2 3 4 5 6 
#
# 1 73.6322 28.6679 9.3310 4.4641 -2.8471 -17.9298
# 2 28.6679 102.9872 21.6846 15.9577 -1.3506 -16.6847
# 3 9.3310 21.6846 85.4964 0.1860 1.2627 1.6667
# 4 4.4641 15.9577 0.1860 28.0791 -1.8166 -7.6159
# 5 -2.8471 -1.3506 1.2627 -1.8166 25.5603 3.3751
# 6 -17.9298 -16.6847 1.6667 -7.6159 3.3751 35.0685
#
#
#
# Elastic Compliance Matrix: (Units=1/GPa)
#
#
# Indices 1 2 3 4 5 6 
#
# 1 0.016773 -0.003465 -0.001108 0.001314 0.000885 0.007180
# 2 -0.003465 0.012691 -0.002884 -0.005806 -0.000406 0.003182
# 3 -0.001108 -0.002884 0.012598 0.001087 -0.000524 -0.002251
# 4 0.001314 -0.005806 0.001087 0.040576 0.001812 0.006496
# 5 0.000885 -0.000406 -0.000524 0.001812 0.039771 -0.003150
# 6 0.007180 0.003182 -0.002251 0.006496 -0.003150 0.035522
#
#
# Mechanical properties :
#
#
# Convention : Reuss Voigt Hill
#
# Bulk Modulus (GPa) = 36.83301 42.38696 39.60998
# Shear Modulus (GPa) = 27.48844 31.23708 29.36276
#
# Velocity S-wave (km/s) = 3.42358 3.64956 3.53837
# Velocity P-wave (km/s) = 5.59761 5.98603 5.79507
#
# Compressibility (1/GPa) = 0.02714956
#
# Stress axis : x y z
#
# Youngs Moduli (GPa) = 59.61855 78.79293 79.37715
#
# Poissons Ratio (x) = 0.27299 0.08793
# Poissons Ratio (y) = 0.20656 0.22894
# Poissons Ratio (z) = 0.06605 0.22726
#
# Static dielectric constant tensor:
#      x y z
#    x 3.867040 -0.172620 0.161350 
#    y -0.172620 4.561330 0.143990 
#    z 0.161350 0.143990 4.529530 
# 
# 
# High freq. dielectric constant tensor:
#      x y z
#    x 1.898590 -0.015410 0.011770 
#    y -0.015410 1.942950 0.025070 
#    z 0.011770 0.025070 1.933370 
# 
# From -- ./inp_files/346428.got.cif
#   From: 2010.06.25/outbox.cif.g09.slc.cpg/sg2_174_cif.got.tgz:346428.got - 2010.06.27 13:26:56.
