data_PCOD8022965
_publ_section_title
;
Structure prediction by ZEFSAII (Michael W. Deem and Ramdas Pophale) SiO2 
 PCOD8022965
Probable space group: P -1
;
_chemical_formula_sum "Si O2"
_cell_formula_units_Z 14
_cell_length_a 23.541940
_cell_length_b 8.105947
_cell_length_c 6.538677
_cell_angle_alpha 118.144240
_cell_angle_beta 129.722845
_cell_angle_gamma 40.925394
_cell_volume 628.534047
_symmetry_space_group_name_H-M "P -1"
_symmetry_group_IT_number 2
_symmetry_cell_setting 'triclinic'
loop_
_space_group_symop_operation_xyz
x,y,z
-x,-y,-z
loop_
_atom_site_type_symbol
_atom_site_label
_atom_site_fract_x
_atom_site_fract_y
_atom_site_fract_z
Si Si1 0.309104 0.472633 0.327676
Si Si2 0.859552 0.698648 0.865242
Si Si3 0.017833 0.599833 0.406765
Si Si4 0.456366 0.249646 0.168468
Si Si5 0.607358 0.370264 0.097186
Si Si6 0.091060 0.728710 0.970260
Si Si7 0.348481 0.008840 0.314575
O O1 0.374671 0.327552 0.191916
O O2 0.333182 0.628461 0.584057
O O3 0.191251 0.678140 0.134681
O O4 0.336830 0.250731 0.405287
O O5 0.888304 0.471334 0.937882
O O6 0.740941 0.923272 0.714253
O O7 0.895600 0.623760 0.672092
O O8 0.914770 0.784560 0.147268
O O9 0.000000 0.500000 0.500000
O O10 0.056215 0.728807 0.662318
O O11 0.547172 0.207029 0.459871
O O12 0.397854 0.485404 0.023561
O O13 0.500000 0.000000 0.000000
O O14 0.500000 0.500000 0.000000
O O15 0.658267 0.089621 0.976158
O O16 0.000000 0.000000 0.000000
#
# Coordination Sequence:
#
# PCOD8022965 Si02
#       7
#     2   2   2   2   2   2   2
#     4  11  25  45  64  98 131 170 218 265 321 382
#     4   9  21  41  64  92 124 163 211 258 319 379
#     4   9  19  41  61  88 123 159 211 255 311 372
#     4  12  24  43  68  95 133 171 212 267 324 382
#     4  12  25  44  64  95 134 169 217 262 314 389
#     4  10  23  40  63  92 127 164 208 261 319 376
#     4  11  23  43  68  95 130 173 210 266 325 378
#
# _framework density 22.274051
#
# number of rings (size 3 to 8) (size 9 to 14) (size 15 to 20)
#    0.000    1.429    2.857    1.714    4.000    0.571 
#   10.286    0.000    0.000    0.000    0.000    0.000 
#    0.000    0.000    0.000    0.000    0.000    0.000 
#
# Total GULP energy -173538.136309 kJ/mol
# GULP energy per Si atom -12395.581165 kJ/mol
# Density = 2.222335 g / cm^3
# Si number density = 22.274051 Si / 1000 Ang^3
#
#
#
# Elastic Constant Matrix: (Units=GPa)
#
#
# Indices 1 2 3 4 5 6 
#
# 1 121.3720 26.1876 62.6635 -2.3587 10.9808 -53.1053
# 2 26.1876 72.9176 43.8308 5.7083 13.4028 -32.1431
# 3 62.6635 43.8308 163.8121 25.4312 21.5792 -29.1026
# 4 -2.3587 5.7083 25.4312 37.3418 -5.3790 3.0469
# 5 10.9808 13.4028 21.5792 -5.3790 43.2103 -2.5616
# 6 -53.1053 -32.1431 -29.1026 3.0469 -2.5616 47.3110
#
#
#
# Elastic Compliance Matrix: (Units=1/GPa)
#
#
# Indices 1 2 3 4 5 6 
#
# 1 0.020133 0.006804 -0.005076 0.001293 -0.003117 0.023847
# 2 0.006804 0.024771 -0.003946 -0.003402 -0.006567 0.021903
# 3 -0.005076 -0.003946 0.010396 -0.007187 -0.003675 -0.001719
# 4 0.001293 -0.003402 -0.007187 0.034021 0.008134 -0.007031
# 5 -0.003117 -0.006567 -0.003675 0.008134 0.028273 -0.009214
# 6 0.023847 0.021903 -0.001719 -0.007031 -0.009214 0.061682
#
#
# Mechanical properties :
#
#
# Convention : Reuss Voigt Hill
#
# Bulk Modulus (GPa) = 19.65972 69.27396 44.46684
# Shear Modulus (GPa) = 24.91690 40.60060 32.75875
#
# Velocity S-wave (km/s) = 3.34825 4.27403 3.83915
# Velocity P-wave (km/s) = 4.87783 7.45149 6.29753
#
# Compressibility (1/GPa) = 0.05086542
#
# Stress axis : x y z
#
# Youngs Moduli (GPa) = 49.67021 40.36945 96.18761
#
# Poissons Ratio (x) = -0.27469 0.48821
# Poissons Ratio (y) = -0.33797 0.37958
# Poissons Ratio (z) = 0.25210 0.15931
#
# Static dielectric constant tensor:
#      x y z
#    x 4.267390 -0.116700 0.125830 
#    y -0.116700 3.847390 -0.027210 
#    z 0.125830 -0.027210 4.791680 
# 
# 
# High freq. dielectric constant tensor:
#      x y z
#    x 1.888180 -0.020920 0.009430 
#    y -0.020920 1.854590 0.010070 
#    z 0.009430 0.010070 1.893100 
# 
# From -- ./inp_files/36387.got.cif
#   From: 2010.06.25/outbox.cif.g09.slc.cpg/sg2_19_cif.got.tgz:36387.got - 2010.06.27 13:26:56.
