data_PCOD8022010
_publ_section_title
;
Structure prediction by ZEFSAII (Michael W. Deem and Ramdas Pophale) SiO2 
 PCOD8022010
Probable space group: P -1
;
_chemical_formula_sum "Si O2"
_cell_formula_units_Z 16
_cell_length_a 8.010415
_cell_length_b 23.453924
_cell_length_c 6.985017
_cell_angle_alpha 135.624459
_cell_angle_beta 60.673929
_cell_angle_gamma 128.377749
_cell_volume 716.939119
_symmetry_space_group_name_H-M "P -1"
_symmetry_group_IT_number 2
_symmetry_cell_setting 'triclinic'
loop_
_space_group_symop_operation_xyz
x,y,z
-x,-y,-z
loop_
_atom_site_type_symbol
_atom_site_label
_atom_site_fract_x
_atom_site_fract_y
_atom_site_fract_z
Si Si1 0.342607 0.299857 0.024928
Si Si2 0.747922 0.272185 0.829720
Si Si3 0.061233 0.881725 0.199597
Si Si4 0.433611 0.896709 0.242691
Si Si5 0.099101 0.040608 0.842278
Si Si6 0.879914 0.623647 0.423177
Si Si7 0.882845 0.401737 0.423286
Si Si8 0.408510 0.552411 0.047403
O O1 0.541281 0.276805 0.871371
O O2 0.138223 0.211654 0.853250
O O3 0.292139 0.336406 0.343877
O O4 0.399702 0.378331 0.023127
O O5 0.695964 0.168547 0.664454
O O6 0.937443 0.308581 0.657095
O O7 0.808993 0.327878 0.123601
O O8 0.281512 0.870562 0.074209
O O9 0.024844 0.907314 0.064447
O O10 0.079247 0.959448 0.522067
O O11 0.654514 0.887629 0.076437
O O12 0.500000 0.000000 0.500000
O O13 0.000000 0.000000 0.000000
O O14 0.779302 0.521634 0.153861
O O15 0.963652 0.620067 0.578438
O O16 0.000000 0.500000 0.500000
O O17 0.681975 0.392555 0.639497
O O18 0.500000 0.500000 0.000000
#
# Coordination Sequence:
#
# PCOD8022010 Si02
#       8
#     2   2   2   2   2   2   2   2
#     4  12  25  45  70 104 144 187 242 297 357 432
#     4  12  25  47  72 103 145 186 245 299 360 436
#     4  10  23  44  67 100 144 177 231 296 349 430
#     4  10  23  45  71 100 141 186 228 296 361 421
#     4  10  22  44  72 103 137 180 231 291 360 429
#     4  12  26  46  69 101 141 190 241 294 363 428
#     4  12  23  43  71  98 140 187 235 299 359 424
#     4  12  25  44  69 102 144 190 237 301 359 425
#
# _framework density 22.317097
#
# number of rings (size 3 to 8) (size 9 to 14) (size 15 to 20)
#    0.000    0.750    3.750    3.750    1.750    3.500 
#    2.250    0.000    0.000    0.000    0.000    0.000 
#    0.000    0.000    0.000    0.000    0.000    0.000 
#
# Total GULP energy -198376.286368 kJ/mol
# GULP energy per Si atom -12398.517898 kJ/mol
# Density = 2.226630 g / cm^3
# Si number density = 22.317097 Si / 1000 Ang^3
#
#
#
# Elastic Constant Matrix: (Units=GPa)
#
#
# Indices 1 2 3 4 5 6 
#
# 1 144.0984 62.9940 27.0427 -16.6103 20.7629 -3.7344
# 2 62.9940 195.7471 44.1973 -13.6963 8.7810 1.4681
# 3 27.0427 44.1973 71.5045 -18.1586 -3.4171 6.0357
# 4 -16.6103 -13.6963 -18.1586 37.9497 4.5811 -2.0565
# 5 20.7629 8.7810 -3.4171 4.5811 35.4633 0.3511
# 6 -3.7344 1.4681 6.0357 -2.0565 0.3511 37.2817
#
#
#
# Elastic Compliance Matrix: (Units=1/GPa)
#
#
# Indices 1 2 3 4 5 6 
#
# 1 0.009448 -0.002165 -0.001809 0.003249 -0.005605 0.001557
# 2 -0.002165 0.006575 -0.003300 -0.000069 -0.000670 0.000061
# 3 -0.001809 -0.003300 0.018725 0.006481 0.002871 -0.002752
# 4 0.003249 -0.000069 0.006481 0.031552 -0.005347 0.001070
# 5 -0.005605 -0.000670 0.002871 -0.005347 0.032629 -0.001602
# 6 0.001557 0.000061 -0.002752 0.001070 -0.001602 0.027496
#
#
# Mechanical properties :
#
#
# Convention : Reuss Voigt Hill
#
# Bulk Modulus (GPa) = 49.50664 75.53534 62.52099
# Shear Modulus (GPa) = 33.85077 40.61333 37.23205
#
# Velocity S-wave (km/s) = 3.89885 4.27057 4.08894
# Velocity P-wave (km/s) = 6.51916 7.63131 7.09706
#
# Compressibility (1/GPa) = 0.02019931
#
# Stress axis : x y z
#
# Youngs Moduli (GPa) = 105.84054 152.08569 53.40570
#
# Poissons Ratio (x) = 0.32926 0.09662
# Poissons Ratio (y) = 0.22914 0.17625
# Poissons Ratio (z) = 0.19148 0.50192
#
# Static dielectric constant tensor:
#      x y z
#    x 4.915550 0.200200 0.103810 
#    y 0.200200 4.237040 -0.054210 
#    z 0.103810 -0.054210 3.784940 
# 
# 
# High freq. dielectric constant tensor:
#      x y z
#    x 1.900100 -0.002540 0.002310 
#    y -0.002540 1.896190 0.005010 
#    z 0.002310 0.005010 1.859200 
# 
# From -- ./inp_files/55691.got.cif
#   From: 2010.06.25/outbox.cif.g09.slc.cpg/sg2_28_cif.got.tgz:55691.got - 2010.06.27 13:26:56.
