data_PCOD8022769
_publ_section_title
;
Structure prediction by ZEFSAII (Michael W. Deem and Ramdas Pophale) SiO2 
 PCOD8022769
Probable space group: P -1
;
_chemical_formula_sum "Si O2"
_cell_formula_units_Z 14
_cell_length_a 9.326188
_cell_length_b 8.138614
_cell_length_c 20.497185
_cell_angle_alpha 123.671252
_cell_angle_beta 139.237526
_cell_angle_gamma 86.207240
_cell_volume 641.656999
_symmetry_space_group_name_H-M "P -1"
_symmetry_group_IT_number 2
_symmetry_cell_setting 'triclinic'
loop_
_space_group_symop_operation_xyz
x,y,z
-x,-y,-z
loop_
_atom_site_type_symbol
_atom_site_label
_atom_site_fract_x
_atom_site_fract_y
_atom_site_fract_z
Si Si1 0.143647 0.416301 0.950062
Si Si2 0.384976 0.617214 0.912868
Si Si3 0.064303 0.301791 0.044612
Si Si4 0.560767 0.727715 0.753049
Si Si5 0.197864 0.904629 0.350146
Si Si6 0.275529 0.387283 0.456992
Si Si7 0.347109 0.839937 0.823097
O O1 0.175278 0.428772 0.040445
O O2 0.851381 0.156894 0.758564
O O3 0.411808 0.455396 0.019022
O O4 0.130412 0.641016 0.976609
O O5 0.439792 0.726435 0.882134
O O6 0.057549 0.355312 0.755266
O O7 0.465773 0.849411 0.038287
O O8 0.871268 0.996860 0.899822
O O9 0.351067 0.424990 0.213896
O O10 0.386907 0.596873 0.598059
O O11 0.384010 0.771137 0.748721
O O12 0.500000 0.000000 0.500000
O O13 0.202017 0.140909 0.414287
O O14 0.500000 0.500000 0.500000
O O15 0.986340 0.308597 0.309740
#
# Coordination Sequence:
#
# PCOD8022769 Si02
#       7
#     2   2   2   2   2   2   2
#     4  11  21  43  65 100 131 177 225 279 332 402
#     4  11  24  43  72  97 135 177 231 276 336 400
#     4  10  23  38  71  93 133 174 227 278 333 399
#     4  11  23  43  64 102 133 178 224 277 338 402
#     4  12  25  42  66 100 135 174 224 281 336 401
#     4  12  26  43  68  97 140 180 223 278 343 405
#     4  11  24  44  70  99 135 179 226 282 335 404
#
# _framework density 21.818511000000001
#
# number of rings (size 3 to 8) (size 9 to 14) (size 15 to 20)
#    0.000    0.857    2.857    4.286    2.000    2.286 
#    0.000    0.714    0.000    0.000    0.000    0.000 
#    0.000    0.000    0.000    0.000    0.000    0.000 
#
# Total GULP energy -173529.537904 kJ/mol
# GULP energy per Si atom -12394.966993 kJ/mol
# Density = 2.176885 g / cm^3
# Si number density = 21.818511 Si / 1000 Ang^3
#
#
#
# Elastic Constant Matrix: (Units=GPa)
#
#
# Indices 1 2 3 4 5 6 
#
# 1 123.7229 35.7992 42.3112 3.3724 -3.4209 -6.3334
# 2 35.7992 80.4755 27.9243 0.6205 7.8015 -28.4013
# 3 42.3112 27.9243 122.4969 -3.9645 4.8971 -8.8553
# 4 3.3724 0.6205 -3.9645 38.2239 -4.2621 5.3805
# 5 -3.4209 7.8015 4.8971 -4.2621 40.1504 -2.9740
# 6 -6.3334 -28.4013 -8.8553 5.3805 -2.9740 31.6539
#
#
#
# Elastic Compliance Matrix: (Units=1/GPa)
#
#
# Indices 1 2 3 4 5 6 
#
# 1 0.010341 -0.004780 -0.002772 -0.000527 0.001890 -0.002728
# 2 -0.004780 0.022169 -0.002024 -0.003146 -0.003426 0.018581
# 3 -0.002772 -0.002024 0.009659 0.001173 -0.000893 0.000048
# 4 -0.000527 -0.003146 0.001173 0.027689 0.002841 -0.007039
# 5 0.001890 -0.003426 -0.000893 0.002841 0.026071 -0.000979
# 6 -0.002728 0.018581 0.000048 -0.007039 -0.000979 0.048836
#
#
# Mechanical properties :
#
#
# Convention : Reuss Voigt Hill
#
# Bulk Modulus (GPa) = 43.44686 59.86273 51.65479
# Shear Modulus (GPa) = 29.13947 36.71634 32.92790
#
# Velocity S-wave (km/s) = 3.65847 4.10665 3.88902
# Velocity P-wave (km/s) = 6.14833 7.06982 6.62511
#
# Compressibility (1/GPa) = 0.02301662
#
# Stress axis : x y z
#
# Youngs Moduli (GPa) = 96.70606 45.10841 103.52536
#
# Poissons Ratio (x) = 0.21562 0.28696
# Poissons Ratio (y) = 0.46227 0.20955
# Poissons Ratio (z) = 0.26806 0.09131
#
# Static dielectric constant tensor:
#      x y z
#    x 3.819900 -0.219370 -0.116300 
#    y -0.219370 4.221880 -0.102570 
#    z -0.116300 -0.102570 3.895620 
# 
# 
# High freq. dielectric constant tensor:
#      x y z
#    x 1.860800 -0.006220 -0.007120 
#    y -0.006220 1.873850 -0.010990 
#    z -0.007120 -0.010990 1.851630 
# 
# From -- ./inp_files/157246.got.cif
#   From: 2010.06.25/outbox.cif.g09.slc.cpg/sg2_79_cif.got.tgz:157246.got - 2010.06.27 13:26:56.
