data_PCOD8022144
_publ_section_title
;
Structure prediction by ZEFSAII (Michael W. Deem and Ramdas Pophale) SiO2 
 PCOD8022144
Probable space group: P -1
;
_chemical_formula_sum "Si O2"
_cell_formula_units_Z 16
_cell_length_a 14.338655
_cell_length_b 14.967879
_cell_length_c 9.170512
_cell_angle_alpha 91.174427
_cell_angle_beta 124.665979
_cell_angle_gamma 135.636479
_cell_volume 757.884344
_symmetry_space_group_name_H-M "P -1"
_symmetry_group_IT_number 2
_symmetry_cell_setting 'triclinic'
loop_
_space_group_symop_operation_xyz
x,y,z
-x,-y,-z
loop_
_atom_site_type_symbol
_atom_site_label
_atom_site_fract_x
_atom_site_fract_y
_atom_site_fract_z
Si Si1 0.112901 0.938458 0.506903
Si Si2 0.281783 0.862119 0.602606
Si Si3 0.890614 0.727314 0.589134
Si Si4 0.787164 0.789056 0.752819
Si Si5 0.639633 0.608852 0.915958
Si Si6 0.166637 0.745779 0.824291
Si Si7 0.521586 0.333807 0.752840
Si Si8 0.035624 0.485529 0.871137
O O1 0.197630 0.905596 0.503677
O O2 0.079323 0.900100 0.647280
O O3 0.312717 0.153431 0.669257
O O4 0.863527 0.803540 0.212327
O O5 0.179132 0.753544 0.660572
O O6 0.181025 0.731763 0.375925
O O7 0.571341 0.057211 0.863607
O O8 0.892084 0.791673 0.731639
O O9 0.620929 0.532827 0.270623
O O10 0.986183 0.696959 0.719297
O O11 0.666150 0.649915 0.770739
O O12 0.586480 0.713227 0.500755
O O13 0.000000 0.000000 0.000000
O O14 0.642315 0.503955 0.941068
O O15 0.048883 0.571892 0.765381
O O16 0.712338 0.389899 0.898358
O O17 0.000000 0.500000 0.000000
#
# Coordination Sequence:
#
# PCOD8022144 Si02
#       8
#     2   2   2   2   2   2   2   2
#     4  11  21  43  68  95 128 165 217 270 317 379
#     4  10  22  45  66  93 131 173 209 269 330 374
#     4  10  24  41  65  98 127 166 218 265 315 386
#     4  11  24  43  65  90 131 177 204 264 324 383
#     4  11  23  43  68  89 134 169 209 265 325 382
#     4  10  23  44  67  94 132 165 217 271 321 382
#     4  11  23  42  66  94 130 167 214 267 325 374
#     4  12  26  39  67  99 129 173 220 262 319 394
#
# _framework density 21.111402999999999
#
# number of rings (size 3 to 8) (size 9 to 14) (size 15 to 20)
#    0.000    1.250    3.750    2.250    3.500    3.500 
#    2.250    0.000    0.000    0.000    0.000    0.000 
#    0.000    0.000    0.000    0.000    0.000    0.000 
#
# Total GULP energy -198458.112683 kJ/mol
# GULP energy per Si atom -12403.632043 kJ/mol
# Density = 2.106335 g / cm^3
# Si number density = 21.111403 Si / 1000 Ang^3
#
#
#
# Elastic Constant Matrix: (Units=GPa)
#
#
# Indices 1 2 3 4 5 6 
#
# 1 93.5629 27.5394 33.8884 1.7063 17.8713 -4.7810
# 2 27.5394 115.4618 6.1518 -0.5699 8.4297 -6.9845
# 3 33.8884 6.1518 77.6939 6.5991 14.6783 -5.5730
# 4 1.7063 -0.5699 6.5991 35.3329 -2.5572 3.8754
# 5 17.8713 8.4297 14.6783 -2.5572 42.5046 -4.6022
# 6 -4.7810 -6.9845 -5.5730 3.8754 -4.6022 25.5097
#
#
#
# Elastic Compliance Matrix: (Units=1/GPa)
#
#
# Indices 1 2 3 4 5 6 
#
# 1 0.014102 -0.002820 -0.005250 -0.000012 -0.003548 0.000086
# 2 -0.002820 0.009474 0.000785 -0.000144 -0.000743 0.002125
# 3 -0.005250 0.000785 0.016224 -0.003306 -0.003463 0.002653
# 4 -0.000012 -0.000144 -0.003306 0.029623 0.002435 -0.004825
# 5 -0.003548 -0.000743 -0.003463 0.002435 0.026816 0.002843
# 6 0.000086 0.002125 0.002653 -0.004825 0.002843 0.041624
#
#
# Mechanical properties :
#
#
# Convention : Reuss Voigt Hill
#
# Bulk Modulus (GPa) = 39.63581 46.87530 43.25556
# Shear Modulus (GPa) = 31.08622 35.27872 33.18247
#
# Velocity S-wave (km/s) = 3.84146 4.09231 3.96887
# Velocity P-wave (km/s) = 6.20412 6.67693 6.44486
#
# Compressibility (1/GPa) = 0.02522971
#
# Stress axis : x y z
#
# Youngs Moduli (GPa) = 70.91241 105.55607 61.63677
#
# Poissons Ratio (x) = 0.29763 0.32360
# Poissons Ratio (y) = 0.19995 -0.04837
# Poissons Ratio (z) = 0.37230 -0.08284
#
# Static dielectric constant tensor:
#      x y z
#    x 3.700270 -0.066330 0.199640 
#    y -0.066330 3.966690 -0.031760 
#    z 0.199640 -0.031760 3.870420 
# 
# 
# High freq. dielectric constant tensor:
#      x y z
#    x 1.817700 -0.005360 0.011400 
#    y -0.005360 1.840080 -0.000310 
#    z 0.011400 -0.000310 1.834690 
# 
# From -- ./inp_files/315156.got.cif
#   From: 2010.06.25/outbox.cif.g09.slc.cpg/sg2_158_cif.got.tgz:315156.got - 2010.06.27 13:26:56.
