data_PCOD8022491
_publ_section_title
;
Structure prediction by ZEFSAII (Michael W. Deem and Ramdas Pophale) SiO2 
 PCOD8022491
Probable space group: P -1
;
_chemical_formula_sum "Si O2"
_cell_formula_units_Z 16
_cell_length_a 13.685385
_cell_length_b 9.018741
_cell_length_c 14.837815
_cell_angle_alpha 107.513014
_cell_angle_beta 148.663088
_cell_angle_gamma 91.248522
_cell_volume 751.174359
_symmetry_space_group_name_H-M "P -1"
_symmetry_group_IT_number 2
_symmetry_cell_setting 'triclinic'
loop_
_space_group_symop_operation_xyz
x,y,z
-x,-y,-z
loop_
_atom_site_type_symbol
_atom_site_label
_atom_site_fract_x
_atom_site_fract_y
_atom_site_fract_z
Si Si1 0.549975 0.788992 0.750622
Si Si2 0.442980 0.311987 0.731728
Si Si3 0.800095 0.226517 0.042682
Si Si4 0.037271 0.964129 0.623234
Si Si5 0.833751 0.304400 0.284610
Si Si6 0.534508 0.691376 0.917863
Si Si7 0.860439 0.434475 0.745149
Si Si8 0.265866 0.457766 0.156288
O O1 0.450671 0.715735 0.759139
O O2 0.335492 0.720863 0.503511
O O3 0.698318 0.707292 0.823685
O O4 0.720582 0.013940 0.923354
O O5 0.583609 0.236216 0.868554
O O6 0.482517 0.485932 0.853411
O O7 0.516241 0.378911 0.698471
O O8 0.181226 0.145545 0.504599
O O9 0.905454 0.302295 0.238293
O O10 0.994794 0.360276 0.149157
O O11 0.160273 0.856058 0.689048
O O12 0.000000 0.000000 0.500000
O O13 0.196162 0.161887 0.835230
O O14 0.584008 0.263183 0.088577
O O15 0.000000 0.500000 0.500000
O O16 0.736790 0.446695 0.736887
O O17 0.033202 0.376468 0.900386
#
# Coordination Sequence:
#
# PCOD8022491 Si02
#       8
#     2   2   2   2   2   2   2   2
#     4  11  23  41  66 101 128 176 214 275 328 390
#     4  10  24  44  62  93 128 171 213 270 329 385
#     4  11  25  41  64  96 132 165 226 269 324 394
#     4  12  26  40  64  93 125 173 220 268 328 384
#     4  12  24  43  63  93 132 175 215 274 324 387
#     4  11  24  43  63  90 134 170 222 267 322 396
#     4  10  22  46  70  97 132 177 211 274 334 388
#     4   9  22  45  71  97 135 170 221 266 330 402
#
# _framework density 21.299980999999999
#
# number of rings (size 3 to 8) (size 9 to 14) (size 15 to 20)
#    0.000    1.250    2.500    2.250    5.250    4.500 
#    0.000    8.125    0.000    0.000    0.000    0.000 
#    0.000    0.000    0.000    0.000    0.000    0.000 
#
# Total GULP energy -198408.927997 kJ/mol
# GULP energy per Si atom -12400.558000 kJ/mol
# Density = 2.125150 g / cm^3
# Si number density = 21.299981 Si / 1000 Ang^3
#
#
#
# Elastic Constant Matrix: (Units=GPa)
#
#
# Indices 1 2 3 4 5 6 
#
# 1 121.5189 25.0625 42.0562 -1.0759 9.0793 4.0687
# 2 25.0625 96.0371 29.1392 -3.7340 6.3438 -0.7366
# 3 42.0562 29.1392 134.7151 6.6600 -2.0202 9.0060
# 4 -1.0759 -3.7340 6.6600 28.3152 5.5827 5.9307
# 5 9.0793 6.3438 -2.0202 5.5827 34.8353 -3.7283
# 6 4.0687 -0.7366 9.0060 5.9307 -3.7283 21.5615
#
#
#
# Elastic Compliance Matrix: (Units=1/GPa)
#
#
# Indices 1 2 3 4 5 6 
#
# 1 0.009774 -0.001470 -0.002748 0.001760 -0.002907 -0.001734
# 2 -0.001470 0.011723 -0.002265 0.002328 -0.002192 0.000605
# 3 -0.002748 -0.002265 0.009075 -0.002390 0.001783 -0.002384
# 4 0.001760 0.002328 -0.002390 0.040478 -0.008783 -0.011907
# 5 -0.002907 -0.002192 0.001783 -0.008783 0.032200 0.007712
# 6 -0.001734 0.000605 -0.002384 -0.011907 0.007712 0.052331
#
#
# Mechanical properties :
#
#
# Convention : Reuss Voigt Hill
#
# Bulk Modulus (GPa) = 56.79768 60.53188 58.66478
# Shear Modulus (GPa) = 28.66681 34.00995 31.33838
#
# Velocity S-wave (km/s) = 3.67258 4.00022 3.83990
# Velocity P-wave (km/s) = 6.68635 7.05806 6.87472
#
# Compressibility (1/GPa) = 0.01760635
#
# Stress axis : x y z
#
# Youngs Moduli (GPa) = 102.30981 85.29878 110.18937
#
# Poissons Ratio (x) = 0.12537 0.30282
# Poissons Ratio (y) = 0.15037 0.24962
# Poissons Ratio (z) = 0.28117 0.19323
#
# Static dielectric constant tensor:
#      x y z
#    x 3.950440 -0.016540 0.064050 
#    y -0.016540 4.000060 -0.094620 
#    z 0.064050 -0.094620 3.843160 
# 
# 
# High freq. dielectric constant tensor:
#      x y z
#    x 1.836790 -0.001060 0.004570 
#    y -0.001060 1.844580 -0.007280 
#    z 0.004570 -0.007280 1.834060 
# 
# From -- ./inp_files/215331.got.cif
#   From: 2010.06.25/outbox.cif.g09.slc.cpg/sg2_108_cif.got.tgz:215331.got - 2010.06.27 13:26:56.
