data_PCOD8022246
_publ_section_title
;
Structure prediction by ZEFSAII (Michael W. Deem and Ramdas Pophale) SiO2 
 PCOD8022246
Probable space group: P -1
;
_chemical_formula_sum "Si O2"
_cell_formula_units_Z 14
_cell_length_a 11.882722
_cell_length_b 11.740171
_cell_length_c 8.287065
_cell_angle_alpha 111.864970
_cell_angle_beta 120.800596
_cell_angle_gamma 37.592061
_cell_volume 604.556234
_symmetry_space_group_name_H-M "P -1"
_symmetry_group_IT_number 2
_symmetry_cell_setting 'triclinic'
loop_
_space_group_symop_operation_xyz
x,y,z
-x,-y,-z
loop_
_atom_site_type_symbol
_atom_site_label
_atom_site_fract_x
_atom_site_fract_y
_atom_site_fract_z
Si Si1 0.604302 0.039155 0.314516
Si Si2 0.583344 0.445577 0.853377
Si Si3 0.122906 0.552311 0.939536
Si Si4 0.053292 0.321878 0.456926
Si Si5 0.227230 0.228572 0.976538
Si Si6 0.822971 0.116165 0.636145
Si Si7 0.839418 0.273664 0.441732
O O1 0.656668 0.143647 0.446911
O O2 0.679089 0.953464 0.142955
O O3 0.366460 0.181338 0.202840
O O4 0.713062 0.874906 0.441966
O O5 0.740013 0.225649 0.804519
O O6 0.395662 0.563427 0.662830
O O7 0.500000 0.500000 0.000000
O O8 0.677666 0.510622 0.920612
O O9 0.016018 0.680588 0.768646
O O10 0.187189 0.363357 0.883846
O O11 0.977713 0.674160 0.048080
O O12 0.923462 0.352719 0.524040
O O13 0.000000 0.500000 0.500000
O O14 0.876444 0.195021 0.605148
O O15 0.032087 0.893893 0.688111
#
# Coordination Sequence:
#
# PCOD8022246 Si02
#       7
#     2   2   2   2   2   2   2
#     4  10  22  45  69 103 133 178 234 286 347 411
#     4  12  25  44  67 101 141 184 228 282 348 409
#     4  11  24  42  65 103 138 184 228 283 348 415
#     4  11  22  41  66  98 138 179 222 288 348 405
#     4  10  23  43  72  99 135 183 232 285 343 417
#     4  10  24  43  72 101 132 187 231 285 337 422
#     4  10  23  44  68 100 135 178 233 285 342 409
#
# _framework density 23.157482000000002
#
# number of rings (size 3 to 8) (size 9 to 14) (size 15 to 20)
#    0.000    1.429    2.857    1.286    6.000    2.286 
#    0.000    1.429    0.000    0.000    0.000    0.000 
#    0.000    0.000    0.000    0.000    0.000    0.000 
#
# Total GULP energy -173508.629281 kJ/mol
# GULP energy per Si atom -12393.473520 kJ/mol
# Density = 2.310477 g / cm^3
# Si number density = 23.157482 Si / 1000 Ang^3
#
#
#
# Elastic Constant Matrix: (Units=GPa)
#
#
# Indices 1 2 3 4 5 6 
#
# 1 146.9725 46.3054 23.9020 10.2052 8.7826 10.7114
# 2 46.3054 89.4039 19.4031 5.2000 -7.3820 -4.2071
# 3 23.9020 19.4031 58.4275 1.9404 -2.5373 6.7003
# 4 10.2052 5.2000 1.9404 55.6656 -1.5974 -3.2165
# 5 8.7826 -7.3820 -2.5373 -1.5974 25.7232 -2.3094
# 6 10.7114 -4.2071 6.7003 -3.2165 -2.3094 41.5173
#
#
#
# Elastic Compliance Matrix: (Units=1/GPa)
#
#
# Indices 1 2 3 4 5 6 
#
# 1 0.009285 -0.004845 -0.002022 -0.001497 -0.005119 -0.002961
# 2 -0.004845 0.015048 -0.003169 -0.000026 0.005983 0.003617
# 3 -0.002022 -0.003169 0.019389 -0.000133 0.001429 -0.002859
# 4 -0.001497 -0.000026 -0.000133 0.018409 0.001807 0.001932
# 5 -0.005119 0.005983 0.001429 0.001807 0.042973 0.004227
# 6 -0.002961 0.003617 -0.002859 0.001932 0.004227 0.026063
#
#
# Mechanical properties :
#
#
# Convention : Reuss Voigt Hill
#
# Bulk Modulus (GPa) = 42.28515 52.66944 47.47729
# Shear Modulus (GPa) = 31.42189 38.26076 34.84133
#
# Velocity S-wave (km/s) = 3.68758 4.06913 3.88305
# Velocity P-wave (km/s) = 6.03576 6.69855 6.37577
#
# Compressibility (1/GPa) = 0.02364897
#
# Stress axis : x y z
#
# Youngs Moduli (GPa) = 107.70051 66.45313 51.57437
#
# Poissons Ratio (x) = 0.32197 0.10431
# Poissons Ratio (y) = 0.52181 0.16346
# Poissons Ratio (z) = 0.21782 0.21062
#
# Static dielectric constant tensor:
#      x y z
#    x 4.139800 0.203270 0.050130 
#    y 0.203270 3.211370 -0.168510 
#    z 0.050130 -0.168510 4.289080 
# 
# 
# High freq. dielectric constant tensor:
#      x y z
#    x 1.913280 -0.000500 0.012890 
#    y -0.000500 1.911750 -0.004970 
#    z 0.012890 -0.004970 1.908590 
# 
# From -- ./inp_files/259596.got.cif
#   From: 2010.06.25/outbox.cif.g09.slc.cpg/sg2_130_cif.got.tgz:259596.got - 2010.06.27 13:26:56.
