data_PCOD8022577
_publ_section_title
;
Structure prediction by ZEFSAII (Michael W. Deem and Ramdas Pophale) SiO2 
 PCOD8022577
Probable space group: P -1
;
_chemical_formula_sum "Si O2"
_cell_formula_units_Z 16
_cell_length_a 11.954879
_cell_length_b 8.738881
_cell_length_c 14.148339
_cell_angle_alpha 31.428911
_cell_angle_beta 99.201693
_cell_angle_gamma 108.810040
_cell_volume 709.427341
_symmetry_space_group_name_H-M "P -1"
_symmetry_group_IT_number 2
_symmetry_cell_setting 'triclinic'
loop_
_space_group_symop_operation_xyz
x,y,z
-x,-y,-z
loop_
_atom_site_type_symbol
_atom_site_label
_atom_site_fract_x
_atom_site_fract_y
_atom_site_fract_z
Si Si1 0.557386 0.731438 0.298034
Si Si2 0.811795 0.875069 0.499893
Si Si3 0.546356 0.861570 0.839867
Si Si4 0.015878 0.819472 0.282552
Si Si5 0.223898 0.819003 0.188360
Si Si6 0.809861 0.034332 0.099488
Si Si7 0.450899 0.133251 0.510232
Si Si8 0.944061 0.760252 0.757432
O O1 0.500000 0.500000 0.500000
O O2 0.504589 0.516471 0.311128
O O3 0.516872 0.036134 0.132482
O O4 0.703415 0.874292 0.245163
O O5 0.773811 0.532581 0.626765
O O6 0.695804 0.985358 0.436342
O O7 0.865642 0.872439 0.612725
O O8 0.914458 0.121135 0.318221
O O9 0.687258 0.978649 0.824534
O O10 0.516547 0.036343 0.656120
O O11 0.500000 0.500000 0.000000
O O12 0.095670 0.835243 0.192355
O O13 0.000000 0.500000 0.500000
O O14 0.071293 0.103505 0.214725
O O15 0.889168 0.814706 0.225763
O O16 0.252113 0.968737 0.009061
O O17 0.894107 0.384458 0.957836
O O18 0.500000 0.000000 0.500000
#
# Coordination Sequence:
#
# PCOD8022577 Si02
#       8
#     2   2   2   2   2   2   2   2
#     4  10  25  48  74  98 141 189 237 299 357 436
#     4  10  22  47  72 102 147 189 239 292 367 425
#     4  11  27  44  69 106 140 185 239 297 359 422
#     4  12  26  42  75 104 143 188 240 292 360 422
#     4  11  25  47  70 105 149 187 237 301 358 435
#     4  11  27  47  71 104 145 189 239 295 366 420
#     4  11  26  44  74 101 139 192 244 293 359 435
#     4  10  24  44  73 107 140 189 237 301 351 428
#
# _framework density 22.553402999999999
#
# number of rings (size 3 to 8) (size 9 to 14) (size 15 to 20)
#    0.000    1.250    2.500    0.750   12.250    2.500 
#    0.000    0.000    0.000    0.000    0.000    0.000 
#    0.000    0.000    0.000    0.000    0.000    0.000 
#
# Total GULP energy -198333.325750 kJ/mol
# GULP energy per Si atom -12395.832859 kJ/mol
# Density = 2.250207 g / cm^3
# Si number density = 22.553403 Si / 1000 Ang^3
#
#
#
# Elastic Constant Matrix: (Units=GPa)
#
#
# Indices 1 2 3 4 5 6 
#
# 1 163.5848 50.1722 63.8205 -14.0146 -2.0349 -8.5194
# 2 50.1722 119.6288 43.9441 -22.0841 3.8614 -8.6231
# 3 63.8205 43.9441 110.7922 -14.3469 -4.7497 0.6706
# 4 -14.0146 -22.0841 -14.3469 32.9205 2.6691 4.7712
# 5 -2.0349 3.8614 -4.7497 2.6691 38.1169 -2.0852
# 6 -8.5194 -8.6231 0.6706 4.7712 -2.0852 46.7922
#
#
#
# Elastic Compliance Matrix: (Units=1/GPa)
#
#
# Indices 1 2 3 4 5 6 
#
# 1 0.008353 -0.001880 -0.004020 0.000354 0.000177 0.001204
# 2 -0.001880 0.011346 -0.002783 0.005590 -0.001926 0.001133
# 3 -0.004020 -0.002783 0.012789 0.002109 0.001427 -0.001579
# 4 0.000354 0.005590 0.002109 0.035829 -0.002942 -0.002720
# 5 0.000177 -0.001926 0.001427 -0.002942 0.026887 0.001155
# 6 0.001204 0.001133 -0.001579 -0.002720 0.001155 0.022150
#
#
# Mechanical properties :
#
#
# Convention : Reuss Voigt Hill
#
# Bulk Modulus (GPa) = 66.12668 78.87550 72.50109
# Shear Modulus (GPa) = 35.77569 39.30384 37.53976
#
# Velocity S-wave (km/s) = 3.98712 4.17910 4.08423
# Velocity P-wave (km/s) = 7.11195 7.63775 7.37953
#
# Compressibility (1/GPa) = 0.01512249
#
# Stress axis : x y z
#
# Youngs Moduli (GPa) = 119.71394 88.13964 78.19244
#
# Poissons Ratio (x) = 0.16573 0.31432
# Poissons Ratio (y) = 0.22509 0.21757
# Poissons Ratio (z) = 0.48123 0.24525
#
# Static dielectric constant tensor:
#      x y z
#    x 8.797130 2.189230 -3.172660 
#    y 2.189230 4.309890 -1.063080 
#    z -3.172660 -1.063080 5.760750 
# 
# 
# High freq. dielectric constant tensor:
#      x y z
#    x 1.899100 -0.000430 0.007560 
#    y -0.000430 1.901740 -0.006240 
#    z 0.007560 -0.006240 1.879350 
# 
# From -- ./inp_files/514835.got.cif
#   From: 2010.06.25/outbox.cif.g09.slc.cpg/sg2_258_cif.got.tgz:514835.got - 2010.06.27 13:26:56.
