data_PCOD8022585
_publ_section_title
;
Structure prediction by ZEFSAII (Michael W. Deem and Ramdas Pophale) SiO2 
 PCOD8022585
Probable space group: P -1
;
_chemical_formula_sum "Si O2"
_cell_formula_units_Z 14
_cell_length_a 8.739315
_cell_length_b 15.971632
_cell_length_c 8.950276
_cell_angle_alpha 90.987465
_cell_angle_beta 53.290944
_cell_angle_gamma 51.165241
_cell_volume 607.225660
_symmetry_space_group_name_H-M "P -1"
_symmetry_group_IT_number 2
_symmetry_cell_setting 'triclinic'
loop_
_space_group_symop_operation_xyz
x,y,z
-x,-y,-z
loop_
_atom_site_type_symbol
_atom_site_label
_atom_site_fract_x
_atom_site_fract_y
_atom_site_fract_z
Si Si1 0.716205 0.351293 0.177472
Si Si2 0.611713 0.852319 0.785280
Si Si3 0.190777 0.506731 0.969392
Si Si4 0.911531 0.444605 0.620058
Si Si5 0.102523 0.053975 0.872174
Si Si6 0.023093 0.005261 0.311890
Si Si7 0.200824 0.737953 0.556032
O O1 0.393334 0.484425 0.283886
O O2 0.662115 0.361105 0.386325
O O3 0.921240 0.363699 0.026775
O O4 0.862475 0.214695 0.025703
O O5 0.798455 0.717497 0.580935
O O6 0.845427 0.834976 0.728473
O O7 0.415573 0.971782 0.776497
O O8 0.386284 0.888631 0.042791
O O9 0.140641 0.523659 0.174508
O O10 0.561724 0.360253 0.721495
O O11 0.000000 0.500000 0.000000
O O12 0.000000 0.500000 0.500000
O O13 0.137687 0.019843 0.674643
O O14 0.000000 0.000000 0.000000
O O15 0.821857 0.156604 0.384944
O O16 0.000000 0.000000 0.500000
#
# Coordination Sequence:
#
# PCOD8022585 Si02
#       7
#     2   2   2   2   2   2   2
#     4  12  25  50  76 106 153 200 247 310 373 449
#     4  11  25  48  73 105 151 198 246 302 376 443
#     4  12  30  48  75 112 149 199 257 312 376 444
#     4  12  27  47  77 106 151 200 250 308 380 447
#     4  10  22  47  74 105 148 195 245 297 375 449
#     4  11  26  45  76 112 152 193 246 306 370 452
#     4  12  26  48  75 110 152 193 252 312 375 441
#
# _framework density 23.055679999999999
#
# number of rings (size 3 to 8) (size 9 to 14) (size 15 to 20)
#    0.000    0.571    4.286    3.857    8.000    0.000 
#    0.000    1.429    0.000    0.000    0.000    0.000 
#    0.000    0.000    0.000    0.000    0.000    0.000 
#
# Total GULP energy -173589.595417 kJ/mol
# GULP energy per Si atom -12399.256815 kJ/mol
# Density = 2.300320 g / cm^3
# Si number density = 23.055680 Si / 1000 Ang^3
#
#
#
# Elastic Constant Matrix: (Units=GPa)
#
#
# Indices 1 2 3 4 5 6 
#
# 1 115.5301 36.2973 52.3846 -14.0764 7.2489 -8.6026
# 2 36.2973 100.1409 61.8034 -10.5300 -2.1896 1.8763
# 3 52.3846 61.8034 156.6986 -9.2631 22.9215 -12.4297
# 4 -14.0764 -10.5300 -9.2631 44.2406 -7.1346 9.1078
# 5 7.2489 -2.1896 22.9215 -7.1346 30.9634 -0.9280
# 6 -8.6026 1.8763 -12.4297 9.1078 -0.9280 53.3307
#
#
#
# Elastic Compliance Matrix: (Units=1/GPa)
#
#
# Indices 1 2 3 4 5 6 
#
# 1 0.010828 -0.002156 -0.002531 0.002180 -0.000286 0.000855
# 2 -0.002156 0.015224 -0.006326 0.003310 0.006943 -0.002802
# 3 -0.002531 -0.006326 0.011042 -0.001879 -0.008385 0.002563
# 4 0.002180 0.003310 -0.001879 0.025727 0.006909 -0.004476
# 5 -0.000286 0.006943 -0.008385 0.006909 0.040571 -0.002718
# 6 0.000855 -0.002802 0.002563 -0.004476 -0.002718 0.020302
#
#
# Mechanical properties :
#
#
# Convention : Reuss Voigt Hill
#
# Bulk Modulus (GPa) = 66.36654 74.81559 70.59106
# Shear Modulus (GPa) = 33.16931 40.49923 36.83427
#
# Velocity S-wave (km/s) = 3.79708 4.19571 4.00136
# Velocity P-wave (km/s) = 6.93337 7.48280 7.21332
#
# Compressibility (1/GPa) = 0.01506783
#
# Stress axis : x y z
#
# Youngs Moduli (GPa) = 92.35390 65.68687 90.56718
#
# Poissons Ratio (x) = 0.14160 0.22923
# Poissons Ratio (y) = 0.19908 0.57292
# Poissons Ratio (z) = 0.23375 0.41553
#
# Static dielectric constant tensor:
#      x y z
#    x 4.598170 0.035790 0.198840 
#    y 0.035790 4.184810 -0.020020 
#    z 0.198840 -0.020020 4.186970 
# 
# 
# High freq. dielectric constant tensor:
#      x y z
#    x 1.929150 0.003960 0.020690 
#    y 0.003960 1.913890 0.008860 
#    z 0.020690 0.008860 1.912050 
# 
# From -- ./inp_files/217821.got.cif
#   From: 2010.06.25/outbox.cif.g09.slc.cpg/sg2_109_cif.got.tgz:217821.got - 2010.06.27 13:26:56.
