data_PCOD8022026
_publ_section_title
;
Structure prediction by ZEFSAII (Michael W. Deem and Ramdas Pophale) SiO2 
 PCOD8022026
Probable space group: P -1
;
_chemical_formula_sum "Si O2"
_cell_formula_units_Z 14
_cell_length_a 7.404197
_cell_length_b 9.324139
_cell_length_c 10.928990
_cell_angle_alpha 68.822775
_cell_angle_beta 62.895997
_cell_angle_gamma 74.322296
_cell_volume 621.202355
_symmetry_space_group_name_H-M "P -1"
_symmetry_group_IT_number 2
_symmetry_cell_setting 'triclinic'
loop_
_space_group_symop_operation_xyz
x,y,z
-x,-y,-z
loop_
_atom_site_type_symbol
_atom_site_label
_atom_site_fract_x
_atom_site_fract_y
_atom_site_fract_z
Si Si1 0.037084 0.673075 0.964488
Si Si2 0.944668 0.590894 0.610985
Si Si3 0.336317 0.595728 0.105148
Si Si4 0.460192 0.123352 0.628804
Si Si5 0.414612 0.163850 0.917306
Si Si6 0.205353 0.740605 0.644554
Si Si7 0.190253 0.073997 0.521562
O O1 0.195114 0.723595 0.799250
O O2 0.147819 0.684250 0.057942
O O3 0.000000 0.500000 0.000000
O O4 0.822167 0.785543 0.990139
O O5 0.742573 0.531998 0.742787
O O6 0.940680 0.773434 0.532878
O O7 0.000000 0.500000 0.500000
O O8 0.119336 0.586768 0.662788
O O9 0.439665 0.715533 0.117583
O O10 0.500000 0.500000 0.000000
O O11 0.432297 0.161225 0.767046
O O12 0.566086 0.257350 0.480930
O O13 0.243374 0.111209 0.635697
O O14 0.601137 0.958188 0.614342
O O15 0.500000 0.000000 0.000000
O O16 0.079844 0.916011 0.600448
#
# Coordination Sequence:
#
# PCOD8022026 Si02
#       7
#     2   2   2   2   2   2   2
#     4  12  26  48  73 109 146 192 238 296 373 427
#     4  12  25  41  68 106 139 183 241 297 355 430
#     4  12  28  47  73 105 152 196 232 296 376 434
#     4   9  23  44  70 100 132 183 244 292 351 414
#     4  12  29  48  75 110 146 190 248 301 356 438
#     4  10  22  44  72  97 136 192 240 292 351 438
#     4   9  23  42  73  94 137 186 238 285 360 415
#
# _framework density 22.536939
#
# number of rings (size 3 to 8) (size 9 to 14) (size 15 to 20)
#    0.857    0.286    2.857    1.286   10.000    1.714 
#    0.000    2.143    0.000    0.000    0.000    0.000 
#    0.000    0.000    0.000    0.000    0.000    0.000 
#
# Total GULP energy -173436.990209 kJ/mol
# GULP energy per Si atom -12388.356443 kJ/mol
# Density = 2.248564 g / cm^3
# Si number density = 22.536939 Si / 1000 Ang^3
#
#
#
# Elastic Constant Matrix: (Units=GPa)
#
#
# Indices 1 2 3 4 5 6 
#
# 1 99.3001 50.2027 33.2420 15.9252 2.8103 19.0098
# 2 50.2027 113.8427 53.4951 1.9529 6.1145 25.4617
# 3 33.2420 53.4951 155.2501 10.7199 4.1994 15.4092
# 4 15.9252 1.9529 10.7199 35.4746 8.9397 6.3993
# 5 2.8103 6.1145 4.1994 8.9397 27.6680 3.0055
# 6 19.0098 25.4617 15.4092 6.3993 3.0055 50.9367
#
#
#
# Elastic Compliance Matrix: (Units=1/GPa)
#
#
# Indices 1 2 3 4 5 6 
#
# 1 0.014410 -0.005709 -0.000578 -0.006196 0.002072 -0.001693
# 2 -0.005709 0.013901 -0.003372 0.004304 -0.002918 -0.004166
# 3 -0.000578 -0.003372 0.007880 -0.001958 0.000268 -0.000252
# 4 -0.006196 0.004304 -0.001958 0.034601 -0.010884 -0.002951
# 5 0.002072 -0.002918 0.000268 -0.010884 0.040096 -0.000394
# 6 -0.001693 -0.004166 -0.000252 -0.002951 -0.000394 0.022817
#
#
# Mechanical properties :
#
#
# Convention : Reuss Voigt Hill
#
# Bulk Modulus (GPa) = 59.27180 71.36362 65.31771
# Shear Modulus (GPa) = 31.51654 38.24608 34.88131
#
# Velocity S-wave (km/s) = 3.74363 4.12398 3.93840
# Velocity P-wave (km/s) = 6.71143 7.37633 7.05172
#
# Compressibility (1/GPa) = 0.01687143
#
# Stress axis : x y z
#
# Youngs Moduli (GPa) = 69.39862 71.93746 126.90348
#
# Poissons Ratio (x) = 0.41069 0.07340
# Poissons Ratio (y) = 0.39619 0.42794
# Poissons Ratio (z) = 0.04014 0.24259
#
# Static dielectric constant tensor:
#      x y z
#    x 4.326710 0.244910 0.225820 
#    y 0.244910 4.219620 0.052090 
#    z 0.225820 0.052090 4.011510 
# 
# 
# High freq. dielectric constant tensor:
#      x y z
#    x 1.889010 0.024080 0.014320 
#    y 0.024080 1.888260 -0.001300 
#    z 0.014320 -0.001300 1.889730 
# 
# From -- ./inp_files/378571.got.cif
#   From: 2010.06.25/outbox.cif.g09.slc.cpg/sg2_190_cif.got.tgz:378571.got - 2010.06.27 13:26:56.
