data_PCOD8022439
_publ_section_title
;
Structure prediction by ZEFSAII (Michael W. Deem and Ramdas Pophale) SiO2 
 PCOD8022439
Probable space group: P -1
;
_chemical_formula_sum "Si O2"
_cell_formula_units_Z 16
_cell_length_a 11.913130
_cell_length_b 7.950152
_cell_length_c 9.825829
_cell_angle_alpha 67.836994
_cell_angle_beta 122.665436
_cell_angle_gamma 114.101422
_cell_volume 700.076914
_symmetry_space_group_name_H-M "P -1"
_symmetry_group_IT_number 2
_symmetry_cell_setting 'triclinic'
loop_
_space_group_symop_operation_xyz
x,y,z
-x,-y,-z
loop_
_atom_site_type_symbol
_atom_site_label
_atom_site_fract_x
_atom_site_fract_y
_atom_site_fract_z
Si Si1 0.159645 0.208924 0.121860
Si Si2 0.073368 0.777053 0.221559
Si Si3 0.381864 0.846728 0.815119
Si Si4 0.673666 0.389319 0.600991
Si Si5 0.136557 0.236839 0.404509
Si Si6 0.522206 0.263494 0.817104
Si Si7 0.097672 0.809584 0.539263
Si Si8 0.517154 0.652547 0.748952
O O1 0.097886 0.237098 0.220260
O O2 0.320759 0.308737 0.185102
O O3 0.142234 0.988915 0.153627
O O4 0.073584 0.295983 0.928847
O O5 0.182021 0.664028 0.284831
O O6 0.043187 0.753856 0.369417
O O7 0.235609 0.745077 0.681585
O O8 0.495351 0.766267 0.834119
O O9 0.411751 0.073500 0.754283
O O10 0.379043 0.794107 0.988031
O O11 0.714082 0.613356 0.523090
O O12 0.610246 0.359115 0.717161
O O13 0.563494 0.278949 0.450935
O O14 0.019346 0.296470 0.399064
O O15 0.142086 0.033738 0.522471
O O16 0.458479 0.424751 0.793744
#
# Coordination Sequence:
#
# PCOD8022439 Si02
#       8
#     2   2   2   2   2   2   2   2
#     4  10  23  43  66  98 136 179 221 282 341 399
#     4  10  23  42  64 100 133 178 230 270 341 405
#     4  11  25  46  69 102 139 184 224 280 346 406
#     4  12  24  42  71 103 131 177 231 287 333 406
#     4  10  23  42  68  97 134 177 223 283 340 399
#     4  11  26  43  67 106 139 175 229 283 342 409
#     4  10  22  46  67  95 135 183 223 275 342 409
#     4  12  24  46  71 103 138 179 227 285 345 401
#
# _framework density 22.854631999999999
#
# number of rings (size 3 to 8) (size 9 to 14) (size 15 to 20)
#    0.000    1.250    2.500    2.250    5.250    3.000 
#   15.750    0.000    0.000    0.000    0.000    0.000 
#    0.000    0.000    0.000    0.000    0.000    0.000 
#
# Total GULP energy -198391.467234 kJ/mol
# GULP energy per Si atom -12399.466702 kJ/mol
# Density = 2.280261 g / cm^3
# Si number density = 22.854632 Si / 1000 Ang^3
#
#
#
# Elastic Constant Matrix: (Units=GPa)
#
#
# Indices 1 2 3 4 5 6 
#
# 1 60.3521 -1.1272 32.8374 12.7679 -0.2700 14.6890
# 2 -1.1272 66.4767 12.0231 9.1256 -5.8778 3.4608
# 3 32.8374 12.0231 120.9020 21.2024 6.8670 25.1503
# 4 12.7679 9.1256 21.2024 27.1685 3.2345 -0.9297
# 5 -0.2700 -5.8778 6.8670 3.2345 36.8321 0.6312
# 6 14.6890 3.4608 25.1503 -0.9297 0.6312 34.3326
#
#
#
# Elastic Compliance Matrix: (Units=1/GPa)
#
#
# Indices 1 2 3 4 5 6 
#
# 1 0.022255 0.002848 -0.003173 -0.009464 0.002174 -0.007780
# 2 0.002848 0.016613 -0.000942 -0.006681 0.003476 -0.002448
# 3 -0.003173 -0.000942 0.012312 -0.007870 -0.001645 -0.007750
# 4 -0.009464 -0.006681 -0.007870 0.050563 -0.004313 0.011937
# 5 0.002174 0.003476 -0.001645 -0.004313 0.028419 -0.000714
# 6 -0.007780 -0.002448 -0.007750 0.011937 -0.000714 0.038716
#
#
# Mechanical properties :
#
#
# Convention : Reuss Voigt Hill
#
# Bulk Modulus (GPa) = 20.55689 37.24415 28.90052
# Shear Modulus (GPa) = 26.64845 33.26648 29.95747
#
# Velocity S-wave (km/s) = 3.41838 3.81933 3.62440
# Velocity P-wave (km/s) = 4.95929 5.98174 5.49435
#
# Compressibility (1/GPa) = 0.04864548
#
# Stress axis : x y z
#
# Youngs Moduli (GPa) = 44.93468 60.19205 81.21878
#
# Poissons Ratio (x) = -0.17140 0.25769
# Poissons Ratio (y) = -0.12796 0.07653
# Poissons Ratio (z) = 0.14257 0.05672
#
# Static dielectric constant tensor:
#      x y z
#    x 3.995250 -0.070850 -0.015690 
#    y -0.070850 4.224410 0.020820 
#    z -0.015690 0.020820 4.128040 
# 
# 
# High freq. dielectric constant tensor:
#      x y z
#    x 1.892700 -0.006380 -0.002510 
#    y -0.006380 1.905740 0.003840 
#    z -0.002510 0.003840 1.909590 
# 
# From -- ./inp_files/243192.got.cif
#   From: 2010.06.25/outbox.cif.g09.slc.cpg/sg2_122_cif.got.tgz:243192.got - 2010.06.27 13:26:56.
