data_PCOD8022563
_publ_section_title
;
Structure prediction by ZEFSAII (Michael W. Deem and Ramdas Pophale) SiO2 
 PCOD8022563
Probable space group: P -1
;
_chemical_formula_sum "Si O2"
_cell_formula_units_Z 16
_cell_length_a 9.323382
_cell_length_b 9.658329
_cell_length_c 24.925441
_cell_angle_alpha 134.537799
_cell_angle_beta 28.734150
_cell_angle_gamma 132.782879
_cell_volume 755.497294
_symmetry_space_group_name_H-M "P -1"
_symmetry_group_IT_number 2
_symmetry_cell_setting 'triclinic'
loop_
_space_group_symop_operation_xyz
x,y,z
-x,-y,-z
loop_
_atom_site_type_symbol
_atom_site_label
_atom_site_fract_x
_atom_site_fract_y
_atom_site_fract_z
Si Si1 0.404602 0.069473 0.235355
Si Si2 0.270755 0.519398 0.727094
Si Si3 0.652994 0.519303 0.116723
Si Si4 0.517559 0.318690 0.681578
Si Si5 0.531866 0.369737 0.504594
Si Si6 0.596929 0.379920 0.886207
Si Si7 0.081290 0.995938 0.534444
Si Si8 0.831890 0.713022 0.717665
O O1 0.684146 0.257662 0.201893
O O2 0.213865 0.101307 0.253079
O O3 0.218282 0.074434 0.352326
O O4 0.502120 0.857617 0.137638
O O5 0.264807 0.352828 0.730312
O O6 0.541682 0.501121 0.591118
O O7 0.954232 0.460091 0.783482
O O8 0.620471 0.697971 0.217090
O O9 0.575863 0.569777 0.095961
O O10 0.414783 0.322054 0.161715
O O11 0.000000 0.500000 0.000000
O O12 0.665173 0.132393 0.570135
O O13 0.778649 0.515916 0.644709
O O14 0.500000 0.500000 0.500000
O O15 0.818582 0.260707 0.371498
O O16 0.222440 0.212197 0.567147
O O17 0.500000 0.500000 0.000000
O O18 0.000000 0.000000 0.500000
#
# Coordination Sequence:
#
# PCOD8022563 Si02
#       8
#     2   2   2   2   2   2   2   2
#     4  11  24  44  69 100 140 177 232 278 348 402
#     4  11  23  43  68  99 137 179 223 285 339 403
#     4  10  22  47  69  93 137 180 226 288 341 403
#     4   9  21  39  67  92 133 179 225 266 348 394
#     4  12  23  37  64 100 149 176 228 278 337 416
#     4  12  26  44  74 100 134 178 238 286 339 413
#     4  12  23  37  64 102 143 187 220 275 348 412
#     4   9  22  41  67  96 132 181 226 276 338 406
#
# _framework density 21.178101999999999
#
# number of rings (size 3 to 8) (size 9 to 14) (size 15 to 20)
#    0.750    0.500    1.250    5.250    1.750    3.500 
#    0.000    0.625    0.000    0.000    0.000    0.000 
#    0.000    0.000    0.000    0.000    0.000    0.000 
#
# Total GULP energy -198280.720411 kJ/mol
# GULP energy per Si atom -12392.545026 kJ/mol
# Density = 2.112990 g / cm^3
# Si number density = 21.178102 Si / 1000 Ang^3
#
#
#
# Elastic Constant Matrix: (Units=GPa)
#
#
# Indices 1 2 3 4 5 6 
#
# 1 153.0506 46.4479 50.9814 7.5077 -4.5289 -29.4517
# 2 46.4479 104.3645 31.9516 17.0637 -1.9941 -10.0201
# 3 50.9814 31.9516 108.0353 9.4894 5.7928 -7.8009
# 4 7.5077 17.0637 9.4894 32.1467 4.8574 0.2907
# 5 -4.5289 -1.9941 5.7928 4.8574 41.4507 -5.7197
# 6 -29.4517 -10.0201 -7.8009 0.2907 -5.7197 37.9305
#
#
#
# Elastic Compliance Matrix: (Units=1/GPa)
#
#
# Indices 1 2 3 4 5 6 
#
# 1 0.009839 -0.002575 -0.003505 -0.000317 0.002389 0.006602
# 2 -0.002575 0.012376 -0.001946 -0.005615 0.001399 0.001124
# 3 -0.003505 -0.001946 0.011626 -0.001250 -0.002114 -0.001154
# 4 -0.000317 -0.005615 -0.001250 0.035264 -0.004671 -0.002962
# 5 0.002389 0.001399 -0.002114 -0.004671 0.026091 0.005760
# 6 0.006602 0.001124 -0.001154 -0.002962 0.005760 0.032441
#
#
# Mechanical properties :
#
#
# Convention : Reuss Voigt Hill
#
# Bulk Modulus (GPa) = 56.21247 69.35689 62.78468
# Shear Modulus (GPa) = 33.41835 38.04354 35.73095
#
# Velocity S-wave (km/s) = 3.97667 4.24295 4.11197
# Velocity P-wave (km/s) = 6.90548 7.53816 7.22875
#
# Compressibility (1/GPa) = 0.01778965
#
# Stress axis : x y z
#
# Youngs Moduli (GPa) = 101.63279 80.80060 86.01603
#
# Poissons Ratio (x) = 0.20802 0.30151
# Poissons Ratio (y) = 0.26166 0.16739
# Poissons Ratio (z) = 0.35625 0.15724
#
# Static dielectric constant tensor:
#      x y z
#    x 3.888700 -0.027690 0.037140 
#    y -0.027690 3.759980 0.078510 
#    z 0.037140 0.078510 3.712560 
# 
# 
# High freq. dielectric constant tensor:
#      x y z
#    x 1.840480 -0.007910 0.000480 
#    y -0.007910 1.821860 -0.002150 
#    z 0.000480 -0.002150 1.818480 
# 
# From -- ./inp_files/606769.got.cif
#   From: 2010.06.25/outbox.cif.g09.slc.cpg/sg2_304_cif.got.tgz:606769.got - 2010.06.27 13:26:56.
