data_PCOD8022559
_publ_section_title
;
Structure prediction by ZEFSAII (Michael W. Deem and Ramdas Pophale) SiO2 
 PCOD8022559
Probable space group: P -1
;
_chemical_formula_sum "Si O2"
_cell_formula_units_Z 16
_cell_length_a 8.294770
_cell_length_b 6.228840
_cell_length_c 17.001181
_cell_angle_alpha 90.413069
_cell_angle_beta 128.582666
_cell_angle_gamma 96.761170
_cell_volume 678.186996
_symmetry_space_group_name_H-M "P -1"
_symmetry_group_IT_number 2
_symmetry_cell_setting 'triclinic'
loop_
_space_group_symop_operation_xyz
x,y,z
-x,-y,-z
loop_
_atom_site_type_symbol
_atom_site_label
_atom_site_fract_x
_atom_site_fract_y
_atom_site_fract_z
Si Si1 0.591637 0.205310 0.755559
Si Si2 0.104732 0.490715 0.411985
Si Si3 0.708534 0.799152 0.084584
Si Si4 0.147661 0.223818 0.563233
Si Si5 0.315355 0.886531 0.390058
Si Si6 0.964102 0.147107 0.257920
Si Si7 0.685228 0.153359 0.954889
Si Si8 0.014119 0.458796 0.134902
O O1 0.347131 0.219179 0.679052
O O2 0.637991 0.086010 0.688846
O O3 0.628027 0.082646 0.847571
O O4 0.752397 0.429483 0.814650
O O5 0.229763 0.347096 0.507384
O O6 0.259530 0.632192 0.397241
O O7 0.923991 0.326764 0.310821
O O8 0.001628 0.647244 0.434879
O O9 0.474352 0.711153 0.044525
O O10 0.871182 0.629190 0.128743
O O11 0.765563 0.976471 0.172541
O O12 0.705012 0.923950 0.001165
O O13 0.000000 0.000000 0.500000
O O14 0.500000 0.000000 0.500000
O O15 0.126138 0.014588 0.348593
O O16 0.052375 0.276970 0.208137
O O17 0.900265 0.326986 0.025233
#
# Coordination Sequence:
#
# PCOD8022559 Si02
#       8
#     2   2   2   2   2   2   2   2
#     4  12  25  44  69 103 142 178 229 292 353 408
#     4  11  24  46  71  97 139 184 233 293 339 426
#     4  10  22  47  69 101 135 185 233 281 353 420
#     4  11  27  47  68 105 140 180 239 290 352 414
#     4  12  26  45  70 101 141 188 233 287 352 423
#     4  11  22  41  74  96 137 182 233 278 352 417
#     4  10  25  43  71 100 139 177 237 293 343 423
#     4  11  23  45  69 101 137 183 231 287 351 428
#
# _framework density 23.592312
#
# number of rings (size 3 to 8) (size 9 to 14) (size 15 to 20)
#    0.000    1.000    2.500    3.000    7.000    1.500 
#    2.250    0.000    0.000    0.000    0.000    0.000 
#    0.000    0.000    0.000    0.000    0.000    0.000 
#
# Total GULP energy -198233.809424 kJ/mol
# GULP energy per Si atom -12389.613089 kJ/mol
# Density = 2.353861 g / cm^3
# Si number density = 23.592312 Si / 1000 Ang^3
#
#
#
# Elastic Constant Matrix: (Units=GPa)
#
#
# Indices 1 2 3 4 5 6 
#
# 1 45.8714 19.8192 31.5570 3.1497 -6.1399 19.2137
# 2 19.8192 93.9404 57.6643 -2.3390 -4.3300 13.0153
# 3 31.5570 57.6643 179.9382 9.8594 -11.8108 14.5522
# 4 3.1497 -2.3390 9.8594 39.1006 0.2438 -2.1945
# 5 -6.1399 -4.3300 -11.8108 0.2438 47.7957 8.9373
# 6 19.2137 13.0153 14.5522 -2.1945 8.9373 22.9309
#
#
#
# Elastic Compliance Matrix: (Units=1/GPa)
#
#
# Indices 1 2 3 4 5 6 
#
# 1 0.042017 -0.001524 -0.002810 -0.004948 0.011613 -0.037558
# 2 -0.001524 0.014068 -0.003915 0.001698 0.000929 -0.004423
# 3 -0.002810 -0.003915 0.007578 -0.001980 0.001344 -0.000946
# 4 -0.004948 0.001698 -0.001980 0.027042 -0.002613 0.008045
# 5 0.011613 0.000929 0.001344 -0.002613 0.026931 -0.021858
# 6 -0.037558 -0.004423 -0.000946 0.008045 -0.021858 0.087478
#
#
# Mechanical properties :
#
#
# Convention : Reuss Voigt Hill
#
# Bulk Modulus (GPa) = 21.20229 59.75897 40.48063
# Shear Modulus (GPa) = 21.06727 36.01272 28.54000
#
# Velocity S-wave (km/s) = 2.99151 3.91123 3.48187
# Velocity P-wave (km/s) = 4.57587 6.76623 5.77583
#
# Compressibility (1/GPa) = 0.04716472
#
# Stress axis : x y z
#
# Youngs Moduli (GPa) = 23.79985 71.08399 131.95819
#
# Poissons Ratio (x) = 0.10836 0.37074
# Poissons Ratio (y) = 0.03628 0.51665
# Poissons Ratio (z) = 0.06687 0.27831
#
# Static dielectric constant tensor:
#      x y z
#    x 4.032020 0.228300 -0.047190 
#    y 0.228300 4.492430 -0.164040 
#    z -0.047190 -0.164040 4.720420 
# 
# 
# High freq. dielectric constant tensor:
#      x y z
#    x 1.912710 0.012420 -0.009390 
#    y 0.012420 1.932740 0.001500 
#    z -0.009390 0.001500 1.962560 
# 
# From -- ./inp_files/39686.got.cif
#   From: 2010.06.25/outbox.cif.g09.slc.cpg/sg2_20_cif.got.tgz:39686.got - 2010.06.27 13:26:56.
