data_PCOD8022866
_publ_section_title
;
Structure prediction by ZEFSAII (Michael W. Deem and Ramdas Pophale) SiO2 
 PCOD8022866
Probable space group: P -1
;
_chemical_formula_sum "Si O2"
_cell_formula_units_Z 16
_cell_length_a 11.132843
_cell_length_b 16.428948
_cell_length_c 10.546242
_cell_angle_alpha 144.587496
_cell_angle_beta 137.741266
_cell_angle_gamma 56.806414
_cell_volume 743.924085
_symmetry_space_group_name_H-M "P -1"
_symmetry_group_IT_number 2
_symmetry_cell_setting 'triclinic'
loop_
_space_group_symop_operation_xyz
x,y,z
-x,-y,-z
loop_
_atom_site_type_symbol
_atom_site_label
_atom_site_fract_x
_atom_site_fract_y
_atom_site_fract_z
Si Si1 0.613191 0.214639 0.384396
Si Si2 0.305330 0.216365 0.738979
Si Si3 0.497988 0.027521 0.821194
Si Si4 0.810127 0.917763 0.788435
Si Si5 0.171110 0.351649 0.406171
Si Si6 0.443125 0.522503 0.191221
Si Si7 0.028175 0.655496 0.279355
Si Si8 0.048024 0.487182 0.719266
O O1 0.541364 0.365925 0.537648
O O2 0.823119 0.240623 0.547273
O O3 0.582126 0.126361 0.379768
O O4 0.512261 0.135763 0.086732
O O5 0.365041 0.081959 0.684858
O O6 0.270571 0.174866 0.512173
O O7 0.139482 0.258054 0.742889
O O8 0.449436 0.360956 0.035276
O O9 0.680740 0.023792 0.878493
O O10 0.831330 0.816444 0.796919
O O11 0.000000 0.000000 0.000000
O O12 0.374884 0.433089 0.690549
O O13 0.047441 0.395858 0.477298
O O14 0.070182 0.384903 0.238341
O O15 0.253015 0.539518 0.994416
O O16 0.068659 0.621887 0.414449
O O17 0.000000 0.500000 0.000000
#
# Coordination Sequence:
#
# PCOD8022866 Si02
#       8
#     2   2   2   2   2   2   2   2
#     4  11  24  45  66  94 143 182 223 286 328 416
#     4  11  25  44  72 103 129 184 230 286 354 398
#     4  11  27  44  66 101 140 183 231 267 349 427
#     4  12  25  47  68  96 143 180 226 289 343 423
#     4  11  23  41  70 103 134 176 231 285 358 394
#     4  11  22  44  71 101 140 173 231 296 335 409
#     4  11  21  43  66  99 137 170 228 287 337 402
#     4  10  23  39  67 107 131 172 224 297 346 400
#
# _framework density 21.507570000000001
#
# number of rings (size 3 to 8) (size 9 to 14) (size 15 to 20)
#    0.000    1.000    6.250    1.500    1.750    4.000 
#    0.000    0.000    0.000    0.000    0.000    0.000 
#    0.000    0.000    0.000    0.000    0.000    0.000 
#
# Total GULP energy -198258.990687 kJ/mol
# GULP energy per Si atom -12391.186918 kJ/mol
# Density = 2.145862 g / cm^3
# Si number density = 21.507570 Si / 1000 Ang^3
#
#
#
# Elastic Constant Matrix: (Units=GPa)
#
#
# Indices 1 2 3 4 5 6 
#
# 1 127.9166 44.8841 31.1968 8.5508 13.7138 2.5331
# 2 44.8841 134.2829 21.4130 -2.6462 10.5497 0.9705
# 3 31.1968 21.4130 71.5357 12.2727 7.5337 4.4042
# 4 8.5508 -2.6462 12.2727 24.4392 -4.0914 0.7137
# 5 13.7138 10.5497 7.5337 -4.0914 44.2634 14.9509
# 6 2.5331 0.9705 4.4042 0.7137 14.9509 24.2354
#
#
#
# Elastic Compliance Matrix: (Units=1/GPa)
#
#
# Indices 1 2 3 4 5 6 
#
# 1 0.009906 -0.002718 -0.002824 -0.002822 -0.002640 0.001298
# 2 -0.002718 0.008770 -0.001841 0.002643 -0.000953 0.000778
# 3 -0.002824 -0.001841 0.017472 -0.008276 -0.001970 -0.001347
# 4 -0.002822 0.002643 -0.008276 0.047737 0.007539 -0.004364
# 5 -0.002640 -0.000953 -0.001970 0.007539 0.030971 -0.018656
# 6 0.001298 0.000778 -0.001347 -0.004364 -0.018656 0.052977
#
#
# Mechanical properties :
#
#
# Convention : Reuss Voigt Hill
#
# Bulk Modulus (GPa) = 46.76841 58.74699 52.75770
# Shear Modulus (GPa) = 26.35366 34.33701 30.34533
#
# Velocity S-wave (km/s) = 3.50425 3.99997 3.76029
# Velocity P-wave (km/s) = 6.17781 6.97903 6.59061
#
# Compressibility (1/GPa) = 0.02138195
#
# Stress axis : x y z
#
# Youngs Moduli (GPa) = 100.94729 114.01915 57.23513
#
# Poissons Ratio (x) = 0.30995 0.16164
# Poissons Ratio (y) = 0.27441 0.10535
# Poissons Ratio (z) = 0.28509 0.20987
#
# Static dielectric constant tensor:
#      x y z
#    x 4.181620 0.182760 -0.223820 
#    y 0.182760 4.101180 0.236280 
#    z -0.223820 0.236280 3.598680 
# 
# 
# High freq. dielectric constant tensor:
#      x y z
#    x 1.865120 -0.003910 -0.002050 
#    y -0.003910 1.838990 0.016910 
#    z -0.002050 0.016910 1.828760 
# 
# From -- ./inp_files/437159.got.cif
#   From: 2010.06.25/outbox.cif.g09.slc.cpg/sg2_219_cif.got.tgz:437159.got - 2010.06.27 13:26:56.
