data_PCOD8022916
_publ_section_title
;
Structure prediction by ZEFSAII (Michael W. Deem and Ramdas Pophale) SiO2 
 PCOD8022916
Probable space group: P -1
;
_chemical_formula_sum "Si O2"
_cell_formula_units_Z 16
_cell_length_a 8.495190
_cell_length_b 16.219323
_cell_length_c 15.773945
_cell_angle_alpha 155.961107
_cell_angle_beta 87.831402
_cell_angle_gamma 77.950288
_cell_volume 709.278457
_symmetry_space_group_name_H-M "P -1"
_symmetry_group_IT_number 2
_symmetry_cell_setting 'triclinic'
loop_
_space_group_symop_operation_xyz
x,y,z
-x,-y,-z
loop_
_atom_site_type_symbol
_atom_site_label
_atom_site_fract_x
_atom_site_fract_y
_atom_site_fract_z
Si Si1 0.252618 0.065521 0.889459
Si Si2 0.222047 0.005974 0.358443
Si Si3 0.384618 0.918957 0.099413
Si Si4 0.681413 0.599193 0.272563
Si Si5 0.903281 0.522506 0.434714
Si Si6 0.931818 0.919219 0.266272
Si Si7 0.377405 0.897286 0.425996
Si Si8 0.430960 0.464149 0.599143
O O1 0.414708 0.114695 0.927268
O O2 0.355523 0.788966 0.672105
O O3 0.199159 0.029522 0.763756
O O4 0.063897 0.299023 0.159590
O O5 0.336946 0.846480 0.121429
O O6 0.236443 0.236311 0.580959
O O7 0.329123 0.825834 0.270402
O O8 0.990730 0.113548 0.458953
O O9 0.195906 0.197453 0.337535
O O10 0.425782 0.710329 0.834143
O O11 0.500536 0.679544 0.289442
O O12 0.623233 0.603892 0.374933
O O13 0.851512 0.331292 0.982597
O O14 0.733426 0.484689 0.416559
O O15 0.000000 0.500000 0.500000
O O16 0.831571 0.900963 0.334348
O O17 0.500000 0.000000 0.500000
#
# Coordination Sequence:
#
# PCOD8022916 Si02
#       8
#     2   2   2   2   2   2   2   2
#     4  11  22  42  69  96 129 178 220 263 334 390
#     4  11  21  39  63  91 131 171 225 273 324 382
#     4  11  23  43  68  99 133 178 219 271 331 394
#     4  11  21  42  60  89 129 172 218 277 320 387
#     4  11  25  46  70  99 136 169 215 275 331 402
#     4  12  22  39  65  91 128 180 222 270 329 381
#     4  10  23  40  59  91 133 173 227 277 318 375
#     4  11  22  43  67  97 134 169 221 269 325 399
#
# _framework density 22.558138
#
# number of rings (size 3 to 8) (size 9 to 14) (size 15 to 20)
#    0.000    1.000    6.250    1.125    0.000    8.000 
#    0.000    2.500    0.000    0.000    0.000    0.000 
#    0.000    0.000    0.000    0.000    0.000    0.000 
#
# Total GULP energy -198253.191043 kJ/mol
# GULP energy per Si atom -12390.824440 kJ/mol
# Density = 2.250679 g / cm^3
# Si number density = 22.558138 Si / 1000 Ang^3
#
#
#
# Elastic Constant Matrix: (Units=GPa)
#
#
# Indices 1 2 3 4 5 6 
#
# 1 115.5820 28.1456 35.1523 10.2670 20.3212 -24.7555
# 2 28.1456 65.8293 9.0186 -0.9278 7.7454 -33.0520
# 3 35.1523 9.0186 113.0741 16.7145 2.5507 -6.2403
# 4 10.2670 -0.9278 16.7145 18.2451 -8.7338 -3.4441
# 5 20.3212 7.7454 2.5507 -8.7338 33.7119 -6.3847
# 6 -24.7555 -33.0520 -6.2403 -3.4441 -6.3847 41.1383
#
#
#
# Elastic Compliance Matrix: (Units=1/GPa)
#
#
# Indices 1 2 3 4 5 6 
#
# 1 0.013005 -0.002796 -0.002092 -0.009179 -0.008825 0.003124
# 2 -0.002796 0.026944 -0.001536 0.009204 0.001936 0.020803
# 3 -0.002092 -0.001536 0.011125 -0.010616 -0.002369 -0.002061
# 4 -0.009179 0.009204 -0.010616 0.086222 0.028823 0.011953
# 5 -0.008825 0.001936 -0.002369 0.028823 0.043130 0.004992
# 6 0.003124 0.020803 -0.002061 0.011953 0.004992 0.044364
#
#
# Mechanical properties :
#
#
# Convention : Reuss Voigt Hill
#
# Bulk Modulus (GPa) = 26.16004 48.79094 37.47549
# Shear Modulus (GPa) = 19.96963 33.43031 26.69997
#
# Velocity S-wave (km/s) = 2.97855 3.85380 3.44409
# Velocity P-wave (km/s) = 4.84261 6.44037 5.69777
#
# Compressibility (1/GPa) = 0.03822625
#
# Stress axis : x y z
#
# Youngs Moduli (GPa) = 76.89381 37.11470 89.88394
#
# Poissons Ratio (x) = 0.10379 0.18800
# Poissons Ratio (y) = 0.21503 0.13805
# Poissons Ratio (z) = 0.16083 0.05700
#
# Static dielectric constant tensor:
#      x y z
#    x 4.551800 -0.322980 -0.021240 
#    y -0.322980 4.286430 -0.035960 
#    z -0.021240 -0.035960 4.226760 
# 
# 
# High freq. dielectric constant tensor:
#      x y z
#    x 1.911740 -0.020090 0.002820 
#    y -0.020090 1.876770 -0.007050 
#    z 0.002820 -0.007050 1.886090 
# 
# From -- ./inp_files/505801.got.cif
#   From: 2010.06.25/outbox.cif.g09.slc.cpg/sg2_253_cif.got.tgz:505801.got - 2010.06.27 13:26:56.
