data_PCOD8022017
_publ_section_title
;
Structure prediction by ZEFSAII (Michael W. Deem and Ramdas Pophale) SiO2 
 PCOD8022017
Probable space group: P -1
;
_chemical_formula_sum "Si O2"
_cell_formula_units_Z 14
_cell_length_a 16.251945
_cell_length_b 21.776993
_cell_length_c 12.688538
_cell_angle_alpha 25.921418
_cell_angle_beta 34.153065
_cell_angle_gamma 18.422484
_cell_volume 609.486389
_symmetry_space_group_name_H-M "P -1"
_symmetry_group_IT_number 2
_symmetry_cell_setting 'triclinic'
loop_
_space_group_symop_operation_xyz
x,y,z
-x,-y,-z
loop_
_atom_site_type_symbol
_atom_site_label
_atom_site_fract_x
_atom_site_fract_y
_atom_site_fract_z
Si Si1 0.684991 0.985554 0.812982
Si Si2 0.288280 0.515211 0.872588
Si Si3 0.090474 0.701992 0.142013
Si Si4 0.552243 0.028542 0.287333
Si Si5 0.820596 0.101086 0.633672
Si Si6 0.252993 0.800204 0.966585
Si Si7 0.441761 0.861781 0.523833
O O1 0.997298 0.700568 0.935789
O O2 0.608450 0.160062 0.716471
O O3 0.645778 0.078923 0.595013
O O4 0.500000 0.000000 0.000000
O O5 0.296693 0.654620 0.580589
O O6 0.402665 0.296803 0.018564
O O7 0.473208 0.394217 0.963629
O O8 0.271362 0.440693 0.297987
O O9 0.273638 0.640205 0.125755
O O10 0.863814 0.805489 0.289177
O O11 0.973798 0.904608 0.869002
O O12 0.500000 0.000000 0.500000
O O13 0.454097 0.010846 0.322484
O O14 0.000000 0.000000 0.500000
O O15 0.220755 0.956470 0.679492
O O16 0.000000 0.000000 0.000000
#
# Coordination Sequence:
#
# PCOD8022017 Si02
#       7
#     2   2   2   2   2   2   2
#     4  11  25  46  72 108 145 189 234 297 363 418
#     4  11  24  47  70  99 153 180 235 295 359 418
#     4  12  25  45  78 107 138 193 245 288 360 432
#     4  12  26  46  71 107 146 188 238 303 359 415
#     4  10  22  44  72 106 144 182 234 301 356 416
#     4  12  23  46  71 107 139 183 237 297 360 420
#     4  12  25  44  73 105 142 189 246 287 350 440
#
# _framework density 22.970158999999999
#
# number of rings (size 3 to 8) (size 9 to 14) (size 15 to 20)
#    0.000    0.571    2.857    6.000    2.000    1.143 
#    5.143    0.000    0.000    0.000    0.000    0.000 
#    0.000    0.000    0.000    0.000    0.000    0.000 
#
# Total GULP energy -173561.347921 kJ/mol
# GULP energy per Si atom -12397.239137 kJ/mol
# Density = 2.291788 g / cm^3
# Si number density = 22.970159 Si / 1000 Ang^3
#
#
#
# Elastic Constant Matrix: (Units=GPa)
#
#
# Indices 1 2 3 4 5 6 
#
# 1 144.9778 50.6061 56.7445 -9.2230 -23.5782 -8.7178
# 2 50.6061 131.5028 61.5528 15.7562 -4.9028 -11.4643
# 3 56.7445 61.5528 128.5616 2.6721 -6.2092 9.4911
# 4 -9.2230 15.7562 2.6721 35.9302 3.3810 -7.3804
# 5 -23.5782 -4.9028 -6.2092 3.3810 58.4539 -1.3607
# 6 -8.7178 -11.4643 9.4911 -7.3804 -1.3607 40.1027
#
#
#
# Elastic Compliance Matrix: (Units=1/GPa)
#
#
# Indices 1 2 3 4 5 6 
#
# 1 0.010092 -0.002347 -0.003497 0.004232 0.003333 0.003243
# 2 -0.002347 0.011468 -0.004585 -0.004664 -0.000132 0.002991
# 3 -0.003497 -0.004585 0.011875 -0.000748 -0.000608 -0.005040
# 4 0.004232 -0.004664 -0.000748 0.032232 -0.000496 0.005679
# 5 0.003333 -0.000132 -0.000608 -0.000496 0.018437 0.001365
# 6 0.003243 0.002991 -0.005040 0.005679 0.001365 0.028780
#
#
# Mechanical properties :
#
#
# Convention : Reuss Voigt Hill
#
# Bulk Modulus (GPa) = 79.50793 82.53881 81.02337
# Shear Modulus (GPa) = 36.24887 42.63993 39.44440
#
# Velocity S-wave (km/s) = 3.97682 4.31318 4.14841
# Velocity P-wave (km/s) = 7.46830 7.79844 7.63516
#
# Compressibility (1/GPa) = 0.01257736
#
# Stress axis : x y z
#
# Youngs Moduli (GPa) = 99.08984 87.19647 84.20710
#
# Poissons Ratio (x) = 0.20464 0.29448
# Poissons Ratio (y) = 0.23255 0.38611
# Poissons Ratio (z) = 0.34652 0.39981
#
# Static dielectric constant tensor:
#      x y z
#    x 4.768420 -0.072480 -0.284470 
#    y -0.072480 4.142530 0.055690 
#    z -0.284470 0.055690 4.621500 
# 
# 
# High freq. dielectric constant tensor:
#      x y z
#    x 1.926930 -0.005880 -0.011580 
#    y -0.005880 1.895610 0.012930 
#    z -0.011580 0.012930 1.911110 
# 
# From -- ./inp_files/263123.got.cif
#   From: 2010.06.25/outbox.cif.g09.slc.cpg/sg2_132_cif.got.tgz:263123.got - 2010.06.27 13:26:56.
