data_PCOD8022532
_publ_section_title
;
Structure prediction by ZEFSAII (Michael W. Deem and Ramdas Pophale) SiO2 
 PCOD8022532
Probable space group: P -1
;
_chemical_formula_sum "Si O2"
_cell_formula_units_Z 14
_cell_length_a 9.049344
_cell_length_b 8.535812
_cell_length_c 9.878098
_cell_angle_alpha 71.520807
_cell_angle_beta 121.523565
_cell_angle_gamma 110.806931
_cell_volume 599.695677
_symmetry_space_group_name_H-M "P -1"
_symmetry_group_IT_number 2
_symmetry_cell_setting 'triclinic'
loop_
_space_group_symop_operation_xyz
x,y,z
-x,-y,-z
loop_
_atom_site_type_symbol
_atom_site_label
_atom_site_fract_x
_atom_site_fract_y
_atom_site_fract_z
Si Si1 0.330628 0.893222 0.868551
Si Si2 0.702153 0.762157 0.757682
Si Si3 0.019715 0.627619 0.353648
Si Si4 0.304928 0.505635 0.959390
Si Si5 0.596849 0.356302 0.544850
Si Si6 0.015896 0.000279 0.346802
Si Si7 0.480621 0.995483 0.328575
O O1 0.295779 0.695091 0.942699
O O2 0.353019 0.911427 0.710220
O O3 0.164813 0.968757 0.813578
O O4 0.500000 0.000000 0.000000
O O5 0.493735 0.700555 0.628351
O O6 0.687373 0.918940 0.808526
O O7 0.753773 0.607638 0.902571
O O8 0.829521 0.837013 0.671764
O O9 0.840558 0.577953 0.196513
O O10 0.055636 0.824516 0.361554
O O11 0.000000 0.500000 0.500000
O O12 0.190116 0.588746 0.369347
O O13 0.500000 0.500000 0.000000
O O14 0.500000 0.500000 0.500000
O O15 0.556139 0.202203 0.676769
O O16 0.000000 0.000000 0.500000
O O17 0.500000 0.000000 0.500000
#
# Coordination Sequence:
#
# PCOD8022532 Si02
#       7
#     2   2   2   2   2   2   2
#     4  12  28  46  74 108 151 192 248 315 379 443
#     4  11  25  47  76 102 149 197 242 306 372 441
#     4  12  28  45  75 108 146 196 247 306 371 448
#     4  12  26  49  75 105 150 192 250 309 379 440
#     4  11  26  44  73 108 142 189 255 303 365 443
#     4  12  27  48  73 110 151 193 252 304 372 446
#     4  10  22  46  74 101 141 201 246 298 372 444
#
# _framework density 23.345175000000001
#
# number of rings (size 3 to 8) (size 9 to 14) (size 15 to 20)
#    0.000    0.571    2.857    4.286   12.000    2.286 
#    0.000    0.000    0.000    0.000    0.000    0.000 
#    0.000    0.000    0.000    0.000    0.000    0.000 
#
# Total GULP energy -173432.656773 kJ/mol
# GULP energy per Si atom -12388.046912 kJ/mol
# Density = 2.329204 g / cm^3
# Si number density = 23.345175 Si / 1000 Ang^3
#
#
#
# Elastic Constant Matrix: (Units=GPa)
#
#
# Indices 1 2 3 4 5 6 
#
# 1 135.6892 54.2024 46.4133 -16.4119 23.2106 7.4210
# 2 54.2024 152.0317 67.5491 -36.1691 1.9256 -1.3115
# 3 46.4133 67.5491 115.7008 -11.3337 11.9509 14.0598
# 4 -16.4119 -36.1691 -11.3337 60.6971 7.6289 6.0969
# 5 23.2106 1.9256 11.9509 7.6289 49.4859 -8.7880
# 6 7.4210 -1.3115 14.0598 6.0969 -8.7880 46.1398
#
#
#
# Elastic Compliance Matrix: (Units=1/GPa)
#
#
# Indices 1 2 3 4 5 6 
#
# 1 0.010091 -0.002361 -0.001689 0.001864 -0.004940 -0.002362
# 2 -0.002361 0.010856 -0.005383 0.004408 0.001672 0.002065
# 3 -0.001689 -0.005383 0.013268 -0.000373 -0.002932 -0.004434
# 4 0.001864 0.004408 -0.000373 0.020506 -0.004770 -0.003679
# 5 -0.004940 0.001672 -0.002932 -0.004770 0.025175 0.007161
# 6 -0.002362 0.002065 -0.004434 -0.003679 0.007161 0.025313
#
#
# Mechanical properties :
#
#
# Convention : Reuss Voigt Hill
#
# Bulk Modulus (GPa) = 65.15264 82.19459 73.67361
# Shear Modulus (GPa) = 38.70214 46.94836 42.82525
#
# Velocity S-wave (km/s) = 4.07605 4.48934 4.28768
# Velocity P-wave (km/s) = 7.07964 7.88397 7.49261
#
# Compressibility (1/GPa) = 0.01534857
#
# Stress axis : x y z
#
# Youngs Moduli (GPa) = 99.10311 92.11153 75.36687
#
# Poissons Ratio (x) = 0.21750 0.12732
# Poissons Ratio (y) = 0.23400 0.40569
# Poissons Ratio (z) = 0.16742 0.49582
#
# Static dielectric constant tensor:
#      x y z
#    x 4.178340 0.588180 0.245540 
#    y 0.588180 9.452090 0.462590 
#    z 0.245540 0.462590 4.372370 
# 
# 
# High freq. dielectric constant tensor:
#      x y z
#    x 1.925260 0.001150 0.015470 
#    y 0.001150 1.939010 -0.029130 
#    z 0.015470 -0.029130 1.926530 
# 
# From -- ./inp_files/381546.got.cif
#   From: 2010.06.25/outbox.cif.g09.slc.cpg/sg2_191_cif.got.tgz:381546.got - 2010.06.27 13:26:56.
