data_PCOD8022059
_publ_section_title
;
Structure prediction by ZEFSAII (Michael W. Deem and Ramdas Pophale) SiO2 
 PCOD8022059
Probable space group: P -1
;
_chemical_formula_sum "Si O2"
_cell_formula_units_Z 16
_cell_length_a 8.133421
_cell_length_b 16.728512
_cell_length_c 5.333082
_cell_angle_alpha 103.431237
_cell_angle_beta 88.936184
_cell_angle_gamma 115.978459
_cell_volume 631.583586
_symmetry_space_group_name_H-M "P -1"
_symmetry_group_IT_number 2
_symmetry_cell_setting 'triclinic'
loop_
_space_group_symop_operation_xyz
x,y,z
-x,-y,-z
loop_
_atom_site_type_symbol
_atom_site_label
_atom_site_fract_x
_atom_site_fract_y
_atom_site_fract_z
Si Si1 0.316227 0.938294 0.102757
Si Si2 0.201099 0.066098 0.460623
Si Si3 0.299284 0.504340 0.726010
Si Si4 0.270166 0.742310 0.021950
Si Si5 0.956296 0.312927 0.520170
Si Si6 0.566209 0.417346 0.718786
Si Si7 0.638957 0.757882 0.122444
Si Si8 0.934998 0.826282 0.783846
O O1 0.325325 0.849110 0.144220
O O2 0.308407 0.005429 0.367922
O O3 0.131393 0.905907 0.919508
O O4 0.500000 0.000000 0.000000
O O5 0.309759 0.138894 0.722365
O O6 0.187141 0.124555 0.268057
O O7 0.000000 0.000000 0.500000
O O8 0.477933 0.487348 0.739477
O O9 0.327951 0.574549 0.542418
O O10 0.117600 0.413820 0.606982
O O11 0.289767 0.551167 0.026120
O O12 0.182208 0.696607 0.257956
O O13 0.449976 0.727489 0.950050
O O14 0.134999 0.700325 0.761639
O O15 0.033197 0.236040 0.477403
O O16 0.405830 0.314095 0.697783
O O17 0.809452 0.757920 0.959268
#
# Coordination Sequence:
#
# PCOD8022059 Si02
#       8
#     2   2   2   2   2   2   2   2
#     4  11  25  45  69 102 142 188 242 292 355 427
#     4  12  25  43  70 100 136 188 245 296 354 416
#     4  10  22  44  73 108 141 180 240 290 354 429
#     4  11  28  47  69 105 144 196 231 292 366 424
#     4  11  25  48  74 102 146 189 237 291 362 428
#     4  10  24  40  72 112 138 185 231 299 354 415
#     4  12  28  45  69 103 148 182 240 299 356 424
#     4  11  26  43  70 103 140 186 242 301 356 413
#
# _framework density 25.33315
#
# number of rings (size 3 to 8) (size 9 to 14) (size 15 to 20)
#    0.000    1.000    1.250    3.375   19.250    0.500 
#    0.000    3.750    0.000    0.000    0.000    0.000 
#    0.000    0.000    0.000    0.000    0.000    0.000 
#
# Total GULP energy -198345.958225 kJ/mol
# GULP energy per Si atom -12396.622389 kJ/mol
# Density = 2.527549 g / cm^3
# Si number density = 25.333150 Si / 1000 Ang^3
#
#
#
# Elastic Constant Matrix: (Units=GPa)
#
#
# Indices 1 2 3 4 5 6 
#
# 1 77.6320 24.5717 34.5316 -2.5991 -8.8090 24.1510
# 2 24.5717 144.1383 61.8965 0.8757 -0.7854 35.5687
# 3 34.5316 61.8965 148.9699 -6.1739 -0.4097 24.6683
# 4 -2.5991 0.8757 -6.1739 44.4045 -3.0561 -4.8929
# 5 -8.8090 -0.7854 -0.4097 -3.0561 34.1881 -3.9494
# 6 24.1510 35.5687 24.6683 -4.8929 -3.9494 36.7553
#
#
#
# Elastic Compliance Matrix: (Units=1/GPa)
#
#
# Indices 1 2 3 4 5 6 
#
# 1 0.017293 0.000647 -0.002639 -0.000233 0.003275 -0.009897
# 2 0.000647 0.010271 -0.003061 -0.001591 -0.000770 -0.008604
# 3 -0.002639 -0.003061 0.008829 0.000956 -0.000695 -0.001177
# 4 -0.000233 -0.001591 0.000956 0.023332 0.002512 0.004427
# 5 0.003275 -0.000770 -0.000695 0.002512 0.030602 0.002683
# 6 -0.009897 -0.008604 -0.001177 0.004427 0.002683 0.043704
#
#
# Mechanical properties :
#
#
# Convention : Reuss Voigt Hill
#
# Bulk Modulus (GPa) = 38.04228 68.08219 53.06223
# Shear Modulus (GPa) = 32.70146 39.71894 36.21020
#
# Velocity S-wave (km/s) = 3.59675 3.96392 3.78479
# Velocity P-wave (km/s) = 5.68315 6.91978 6.33173
#
# Compressibility (1/GPa) = 0.02628654
#
# Stress axis : x y z
#
# Youngs Moduli (GPa) = 57.82643 97.36549 113.26596
#
# Poissons Ratio (x) = -0.06297 0.29892
# Poissons Ratio (y) = -0.03740 0.34665
# Poissons Ratio (z) = 0.15261 0.29799
#
# Static dielectric constant tensor:
#      x y z
#    x -3.540450 1.711410 -2.022220 
#    y 1.711410 4.353920 0.423780 
#    z -2.022220 0.423780 4.126700 
# 
# 
# High freq. dielectric constant tensor:
#      x y z
#    x 2.005630 0.002560 0.000870 
#    y 0.002560 2.027470 0.006390 
#    z 0.000870 0.006390 2.010060 
# 
# From -- ./inp_files/48296.got.cif
#   From: 2010.06.25/outbox.cif.g09.slc.cpg/sg2_25_cif.got.tgz:48296.got - 2010.06.27 13:26:56.
