data_PCOD8022556
_publ_section_title
;
Structure prediction by ZEFSAII (Michael W. Deem and Ramdas Pophale) SiO2 
 PCOD8022556
Probable space group: P -1
;
_chemical_formula_sum "Si O2"
_cell_formula_units_Z 16
_cell_length_a 15.838687
_cell_length_b 15.090347
_cell_length_c 8.942007
_cell_angle_alpha 42.176279
_cell_angle_beta 134.789905
_cell_angle_gamma 151.080496
_cell_volume 683.585293
_symmetry_space_group_name_H-M "P -1"
_symmetry_group_IT_number 2
_symmetry_cell_setting 'triclinic'
loop_
_space_group_symop_operation_xyz
x,y,z
-x,-y,-z
loop_
_atom_site_type_symbol
_atom_site_label
_atom_site_fract_x
_atom_site_fract_y
_atom_site_fract_z
Si Si1 0.382075 0.598185 0.652753
Si Si2 0.421411 0.805489 0.720831
Si Si3 0.865932 0.440233 0.118290
Si Si4 0.313542 0.054908 0.871149
Si Si5 0.275917 0.159706 0.389299
Si Si6 0.013409 0.164342 0.769460
Si Si7 0.764711 0.307723 0.838500
Si Si8 0.973930 0.798775 0.935429
O O1 0.394241 0.658749 0.761606
O O2 0.562073 0.672100 0.732787
O O3 0.209224 0.364218 0.702399
O O4 0.379086 0.728924 0.386598
O O5 0.235160 0.703153 0.685254
O O6 0.500000 0.000000 0.500000
O O7 0.525693 0.826190 0.962500
O O8 0.043096 0.500213 0.235459
O O9 0.746292 0.336106 0.950940
O O10 0.900008 0.620943 0.965760
O O11 0.152941 0.995621 0.831969
O O12 0.357453 0.173622 0.628712
O O13 0.263127 0.868954 0.986838
O O14 0.172838 0.208932 0.232976
O O15 0.140221 0.940573 0.416850
O O16 0.977580 0.211568 0.822163
O O17 0.000000 0.000000 0.000000
#
# Coordination Sequence:
#
# PCOD8022556 Si02
#       8
#     2   2   2   2   2   2   2   2
#     4  12  25  45  71 107 140 186 241 282 364 417
#     4  12  25  43  69 104 144 184 228 294 352 429
#     4  10  23  43  68  97 142 176 235 290 351 414
#     4  11  24  45  69 104 142 183 235 290 353 417
#     4  11  26  45  75 102 144 188 234 294 348 422
#     4  10  24  46  72 100 138 188 231 294 345 417
#     4  10  24  42  69 101 136 185 229 294 348 422
#     4  10  22  47  68  99 136 186 235 287 351 412
#
# _framework density 23.406003999999999
#
# number of rings (size 3 to 8) (size 9 to 14) (size 15 to 20)
#    0.000    1.250    2.500    1.875    7.000    4.500 
#    4.500    1.250    0.000    0.000    0.000    0.000 
#    0.000    0.000    0.000    0.000    0.000    0.000 
#
# Total GULP energy -198353.229738 kJ/mol
# GULP energy per Si atom -12397.076859 kJ/mol
# Density = 2.335273 g / cm^3
# Si number density = 23.406004 Si / 1000 Ang^3
#
#
#
# Elastic Constant Matrix: (Units=GPa)
#
#
# Indices 1 2 3 4 5 6 
#
# 1 128.9001 35.1546 20.5569 -1.1703 -11.9048 7.7131
# 2 35.1546 108.4195 18.7540 0.3213 -10.6370 3.7432
# 3 20.5569 18.7540 81.2760 16.1527 -9.4938 -3.9088
# 4 -1.1703 0.3213 16.1527 38.1248 -1.3599 -16.5775
# 5 -11.9048 -10.6370 -9.4938 -1.3599 34.1913 -2.6620
# 6 7.7131 3.7432 -3.9088 -16.5775 -2.6620 42.3778
#
#
#
# Elastic Compliance Matrix: (Units=1/GPa)
#
#
# Indices 1 2 3 4 5 6 
#
# 1 0.008921 -0.002385 -0.001655 0.000518 0.001828 -0.001248
# 2 -0.002385 0.010493 -0.001702 0.000482 0.001954 -0.000338
# 3 -0.001655 -0.001702 0.014671 -0.006385 0.002673 -0.000525
# 4 0.000518 0.000482 -0.006385 0.034570 0.000933 0.012856
# 5 0.001828 0.001954 0.002673 0.000933 0.031433 0.002081
# 6 -0.001248 -0.000338 -0.000525 0.012856 0.002081 0.028966
#
#
# Mechanical properties :
#
#
# Convention : Reuss Voigt Hill
#
# Bulk Modulus (GPa) = 44.24716 51.94741 48.09728
# Shear Modulus (GPa) = 33.76738 39.21410 36.49074
#
# Velocity S-wave (km/s) = 3.80238 4.09759 3.95274
# Velocity P-wave (km/s) = 6.18245 6.68051 6.43630
#
# Compressibility (1/GPa) = 0.02260032
#
# Stress axis : x y z
#
# Youngs Moduli (GPa) = 112.09928 95.29982 68.16130
#
# Poissons Ratio (x) = 0.22732 0.11283
# Poissons Ratio (y) = 0.26739 0.11599
# Poissons Ratio (z) = 0.18556 0.16217
#
# Static dielectric constant tensor:
#      x y z
#    x 4.639840 0.080640 -0.398920 
#    y 0.080640 4.501820 0.246650 
#    z -0.398920 0.246650 4.069690 
# 
# 
# High freq. dielectric constant tensor:
#      x y z
#    x 1.943770 0.003310 -0.016190 
#    y 0.003310 1.928750 0.008590 
#    z -0.016190 0.008590 1.913310 
# 
# From -- ./inp_files/314751.got.cif
#   From: 2010.06.25/outbox.cif.g09.slc.cpg/sg2_158_cif.got.tgz:314751.got - 2010.06.27 13:26:56.
