data_PCOD8022703
_publ_section_title
;
Structure prediction by ZEFSAII (Michael W. Deem and Ramdas Pophale) SiO2 
 PCOD8022703
Probable space group: P -1
;
_chemical_formula_sum "Si O2"
_cell_formula_units_Z 16
_cell_length_a 20.744140
_cell_length_b 9.140867
_cell_length_c 13.082196
_cell_angle_alpha 37.245029
_cell_angle_beta 31.720243
_cell_angle_gamma 51.790465
_cell_volume 775.862430
_symmetry_space_group_name_H-M "P -1"
_symmetry_group_IT_number 2
_symmetry_cell_setting 'triclinic'
loop_
_space_group_symop_operation_xyz
x,y,z
-x,-y,-z
loop_
_atom_site_type_symbol
_atom_site_label
_atom_site_fract_x
_atom_site_fract_y
_atom_site_fract_z
Si Si1 0.131447 0.104147 0.710620
Si Si2 0.304471 0.770850 0.596462
Si Si3 0.855818 0.500369 0.211032
Si Si4 0.925924 0.703530 0.529606
Si Si5 0.241772 0.617742 0.372309
Si Si6 0.447150 0.977024 0.972115
Si Si7 0.243346 0.312693 0.056858
Si Si8 0.132001 0.033120 0.184794
O O1 0.106585 0.134488 0.608479
O O2 0.211154 0.357047 0.503455
O O3 0.221255 0.907939 0.706703
O O4 0.000000 0.000000 0.000000
O O5 0.233531 0.703230 0.622628
O O6 0.442255 0.924625 0.309540
O O7 0.325960 0.539196 0.761602
O O8 0.840778 0.419196 0.393782
O O9 0.821246 0.769846 0.080234
O O10 0.000000 0.500000 0.000000
O O11 0.802803 0.595999 0.822348
O O12 0.000000 0.500000 0.500000
O O13 0.999268 0.886570 0.411918
O O14 0.215836 0.825790 0.210407
O O15 0.386325 0.700707 0.168632
O O16 0.500000 0.000000 0.000000
O O17 0.332344 0.118036 0.054860
O O18 0.126904 0.195222 0.204508
#
# Coordination Sequence:
#
# PCOD8022703 Si02
#       8
#     2   2   2   2   2   2   2   2
#     4  12  25  42  64  97 136 170 211 262 339 395
#     4  11  23  42  65  94 128 171 214 273 322 384
#     4  11  23  37  64  96 128 166 219 273 323 383
#     4  12  22  38  61  94 134 169 206 261 330 393
#     4  11  24  42  64  94 131 173 217 268 325 388
#     4  11  22  43  69  92 124 169 228 268 317 380
#     4  10  24  39  66  94 126 170 219 271 322 376
#     4  10  23  38  61  94 130 169 218 263 327 383
#
# _framework density 20.622211
#
# number of rings (size 3 to 8) (size 9 to 14) (size 15 to 20)
#    0.000    1.000    2.500    4.500    8.750    0.500 
#    0.000    0.000    0.000    1.500    0.000    0.000 
#    0.000    0.000    0.000    0.000    0.000    0.000 
#
# Total GULP energy -198228.072695 kJ/mol
# GULP energy per Si atom -12389.254543 kJ/mol
# Density = 2.057527 g / cm^3
# Si number density = 20.622211 Si / 1000 Ang^3
#
#
#
# Elastic Constant Matrix: (Units=GPa)
#
#
# Indices 1 2 3 4 5 6 
#
# 1 108.7610 20.7735 48.9111 -8.6946 -3.8745 2.2968
# 2 20.7735 82.0949 32.4283 -6.0216 -1.7983 5.5428
# 3 48.9111 32.4283 119.4605 3.5829 -3.1006 7.6394
# 4 -8.6946 -6.0216 3.5829 39.9560 1.5992 1.6003
# 5 -3.8745 -1.7983 -3.1006 1.5992 34.1052 -7.2707
# 6 2.2968 5.5428 7.6394 1.6003 -7.2707 20.2719
#
#
#
# Elastic Compliance Matrix: (Units=1/GPa)
#
#
# Indices 1 2 3 4 5 6 
#
# 1 0.011699 -0.000960 -0.004639 0.002750 0.000896 0.000790
# 2 -0.000960 0.014094 -0.003333 0.002342 -0.000378 -0.002809
# 3 -0.004639 -0.003333 0.011419 -0.002421 -0.000131 -0.002722
# 4 0.002750 0.002342 -0.002421 0.026368 -0.001595 -0.002693
# 5 0.000896 -0.000378 -0.000131 -0.001595 0.031946 0.011635
# 6 0.000790 -0.002809 -0.002722 -0.002693 0.011635 0.055419
#
#
# Mechanical properties :
#
#
# Convention : Reuss Voigt Hill
#
# Bulk Modulus (GPa) = 51.68795 57.17135 54.42965
# Shear Modulus (GPa) = 28.52943 32.74685 30.63814
#
# Velocity S-wave (km/s) = 3.72349 3.98922 3.85864
# Velocity P-wave (km/s) = 6.60336 7.00013 6.80464
#
# Compressibility (1/GPa) = 0.01934687
#
# Stress axis : x y z
#
# Youngs Moduli (GPa) = 85.47625 70.95370 87.57710
#
# Poissons Ratio (x) = 0.06811 0.40628
# Poissons Ratio (y) = 0.08204 0.29191
# Poissons Ratio (z) = 0.39654 0.23650
#
# Static dielectric constant tensor:
#      x y z
#    x 4.557270 -0.100680 -0.180230 
#    y -0.100680 3.889730 -0.263580 
#    z -0.180230 -0.263580 3.942690 
# 
# 
# High freq. dielectric constant tensor:
#      x y z
#    x 1.817200 0.003600 0.008000 
#    y 0.003600 1.791530 -0.021300 
#    z 0.008000 -0.021300 1.810450 
# 
# From -- ./inp_files/332685.got.cif
#   From: 2010.06.25/outbox.cif.g09.slc.cpg/sg2_167_cif.got.tgz:332685.got - 2010.06.27 13:26:56.
