data_PCOD8022765
_publ_section_title
;
Structure prediction by ZEFSAII (Michael W. Deem and Ramdas Pophale) SiO2 
 PCOD8022765
Probable space group: P -1
;
_chemical_formula_sum "Si O2"
_cell_formula_units_Z 14
_cell_length_a 11.565008
_cell_length_b 13.859450
_cell_length_c 10.637240
_cell_angle_alpha 149.282892
_cell_angle_beta 60.007554
_cell_angle_gamma 131.896362
_cell_volume 635.795345
_symmetry_space_group_name_H-M "P -1"
_symmetry_group_IT_number 2
_symmetry_cell_setting 'triclinic'
loop_
_space_group_symop_operation_xyz
x,y,z
-x,-y,-z
loop_
_atom_site_type_symbol
_atom_site_label
_atom_site_fract_x
_atom_site_fract_y
_atom_site_fract_z
Si Si1 0.303536 0.694228 0.543678
Si Si2 0.826810 0.687233 0.989154
Si Si3 0.823168 0.087867 0.001756
Si Si4 0.718534 0.717710 0.832268
Si Si5 0.186020 0.124196 0.544289
Si Si6 0.401310 0.518769 0.690337
Si Si7 0.646601 0.089931 0.868334
O O1 0.267392 0.577663 0.293837
O O2 0.173223 0.755849 0.712295
O O3 0.286040 0.511385 0.449981
O O4 0.475793 0.915365 0.708911
O O5 0.809549 0.822350 0.032578
O O6 0.012836 0.786055 0.022442
O O7 0.750930 0.717950 0.189879
O O8 0.674442 0.034280 0.933710
O O9 0.802244 0.869488 0.834691
O O10 0.537468 0.654089 0.873779
O O11 0.266435 0.274262 0.542883
O O12 0.231405 0.936483 0.315338
O O13 0.000000 0.000000 0.500000
O O14 0.500000 0.500000 0.500000
O O15 0.320557 0.660895 0.869198
#
# Coordination Sequence:
#
# PCOD8022765 Si02
#       7
#     2   2   2   2   2   2   2
#     4  10  23  40  67 106 138 182 237 289 344 413
#     4  10  25  45  64 102 149 185 224 294 356 413
#     4  12  21  43  68 105 142 183 239 292 342 412
#     4  10  23  38  69  99 134 183 233 280 346 401
#     4  12  26  50  69 102 149 186 229 295 356 419
#     4  12  26  46  74 108 136 184 244 290 345 422
#     4  12  25  42  75 101 138 186 240 285 353 416
#
# _framework density 22.019663999999999
#
# number of rings (size 3 to 8) (size 9 to 14) (size 15 to 20)
#    0.857    0.000    4.286    3.000    0.000    2.857 
#    2.571    1.429    0.000    0.000    0.000    0.000 
#    0.000    0.000    0.000    0.000    0.000    0.000 
#
# Total GULP energy -173439.113984 kJ/mol
# GULP energy per Si atom -12388.508142 kJ/mol
# Density = 2.196955 g / cm^3
# Si number density = 22.019664 Si / 1000 Ang^3
#
#
#
# Elastic Constant Matrix: (Units=GPa)
#
#
# Indices 1 2 3 4 5 6 
#
# 1 71.7393 39.7069 29.0436 4.4880 -13.2699 7.7827
# 2 39.7069 99.8362 41.5515 -7.2767 -2.5707 11.8928
# 3 29.0436 41.5515 111.6479 -15.7491 -20.0192 10.5576
# 4 4.4880 -7.2767 -15.7491 43.0873 0.4097 -1.3440
# 5 -13.2699 -2.5707 -20.0192 0.4097 42.1281 -3.8515
# 6 7.7827 11.8928 10.5576 -1.3440 -3.8515 27.1763
#
#
#
# Elastic Compliance Matrix: (Units=1/GPa)
#
#
# Indices 1 2 3 4 5 6 
#
# 1 0.020026 -0.007080 -0.002185 -0.004166 0.004758 -0.001320
# 2 -0.007080 0.014827 -0.003711 0.001811 -0.003419 -0.003414
# 3 -0.002185 -0.003711 0.012511 0.004074 0.004833 -0.001724
# 4 -0.004166 0.001811 0.004074 0.025437 0.000500 0.000147
# 5 0.004758 -0.003419 0.004833 0.000500 0.027518 0.002181
# 6 -0.001320 -0.003414 -0.001724 0.000147 0.002181 0.039655
#
#
# Mechanical properties :
#
#
# Convention : Reuss Voigt Hill
#
# Bulk Modulus (GPa) = 46.69976 55.98084 51.34030
# Shear Modulus (GPa) = 28.89115 34.00643 31.44879
#
# Velocity S-wave (km/s) = 3.62617 3.93411 3.78327
# Velocity P-wave (km/s) = 6.22787 6.79077 6.51540
#
# Compressibility (1/GPa) = 0.02141339
#
# Stress axis : x y z
#
# Youngs Moduli (GPa) = 49.93474 67.44267 79.93277
#
# Poissons Ratio (x) = 0.47746 0.17462
# Poissons Ratio (y) = 0.35351 0.29665
# Poissons Ratio (z) = 0.10909 0.25030
#
# Static dielectric constant tensor:
#      x y z
#    x 4.157330 0.082960 -0.035700 
#    y 0.082960 3.685150 -0.170930 
#    z -0.035700 -0.170930 4.389970 
# 
# 
# High freq. dielectric constant tensor:
#      x y z
#    x 1.873460 0.009840 0.002370 
#    y 0.009840 1.826060 -0.004130 
#    z 0.002370 -0.004130 1.881350 
# 
# From -- ./inp_files/433470.got.cif
#   From: 2010.06.25/outbox.cif.g09.slc.cpg/sg2_217_cif.got.tgz:433470.got - 2010.06.27 13:26:56.
