data_PCOD8022237
_publ_section_title
;
Structure prediction by ZEFSAII (Michael W. Deem and Ramdas Pophale) SiO2 
 PCOD8022237
Probable space group: P -1
;
_chemical_formula_sum "Si O2"
_cell_formula_units_Z 16
_cell_length_a 9.702794
_cell_length_b 11.025825
_cell_length_c 12.196624
_cell_angle_alpha 62.023569
_cell_angle_beta 89.715396
_cell_angle_gamma 134.644625
_cell_volume 693.933844
_symmetry_space_group_name_H-M "P -1"
_symmetry_group_IT_number 2
_symmetry_cell_setting 'triclinic'
loop_
_space_group_symop_operation_xyz
x,y,z
-x,-y,-z
loop_
_atom_site_type_symbol
_atom_site_label
_atom_site_fract_x
_atom_site_fract_y
_atom_site_fract_z
Si Si1 0.957294 0.853608 0.784136
Si Si2 0.171511 0.445683 0.709530
Si Si3 0.727519 0.142611 0.201035
Si Si4 0.069244 0.245759 0.558784
Si Si5 0.328621 0.527674 0.233999
Si Si6 0.229568 0.249153 0.936598
Si Si7 0.775568 0.259287 0.542145
Si Si8 0.895352 0.396459 0.872876
O O1 0.826463 0.668826 0.770835
O O2 0.184071 0.945081 0.773498
O O3 0.792622 0.740021 0.938552
O O4 0.013650 0.042155 0.647929
O O5 0.128079 0.332925 0.645103
O O6 0.308490 0.452165 0.787062
O O7 0.284426 0.685873 0.582826
O O8 0.941543 0.297806 0.841406
O O9 0.865255 0.335062 0.212453
O O10 0.454831 0.928646 0.307678
O O11 0.760917 0.249494 0.043387
O O12 0.285464 0.436657 0.395780
O O13 0.854021 0.166690 0.547721
O O14 0.585457 0.716693 0.111082
O O15 0.266148 0.638206 0.187349
O O16 0.000000 0.000000 0.000000
O O17 0.000000 0.500000 0.500000
#
# Coordination Sequence:
#
# PCOD8022237 Si02
#       8
#     2   2   2   2   2   2   2   2
#     4  11  24  46  69 102 133 175 231 277 344 397
#     4  11  23  45  65  98 139 173 230 275 335 410
#     4  10  23  42  72  98 138 178 225 286 337 404
#     4  11  24  45  66  99 139 176 224 272 343 407
#     4  11  26  44  70  98 137 178 224 282 335 407
#     4  12  26  45  68 101 135 182 224 280 340 398
#     4  10  24  43  65  99 136 183 223 275 338 405
#     4  10  22  45  69 101 132 178 233 280 342 397
#
# _framework density 23.056954999999999
#
# number of rings (size 3 to 8) (size 9 to 14) (size 15 to 20)
#    0.000    1.250    3.750    0.750    3.500    4.000 
#    0.000    3.125    0.000    0.000    0.000    0.000 
#    0.000    0.000    0.000    0.000    0.000    0.000 
#
# Total GULP energy -198277.974941 kJ/mol
# GULP energy per Si atom -12392.373434 kJ/mol
# Density = 2.300448 g / cm^3
# Si number density = 23.056955 Si / 1000 Ang^3
#
#
#
# Elastic Constant Matrix: (Units=GPa)
#
#
# Indices 1 2 3 4 5 6 
#
# 1 97.1849 29.5386 35.5949 -12.2656 -7.0726 7.7396
# 2 29.5386 35.1020 32.6932 -4.0539 -12.8874 -0.7842
# 3 35.5949 32.6932 117.0485 0.3817 -10.3011 12.2954
# 4 -12.2656 -4.0539 0.3817 36.8161 -4.0224 -9.1723
# 5 -7.0726 -12.8874 -10.3011 -4.0224 61.7389 -2.5533
# 6 7.7396 -0.7842 12.2954 -9.1723 -2.5533 22.3838
#
#
#
# Elastic Compliance Matrix: (Units=1/GPa)
#
#
# Indices 1 2 3 4 5 6 
#
# 1 0.014755 -0.011754 -0.000860 0.002504 -0.000914 -0.004119
# 2 -0.011754 0.054906 -0.012779 0.007537 0.009182 0.017143
# 3 -0.000860 -0.012779 0.013261 -0.004289 -0.001219 -0.009331
# 4 0.002504 0.007537 -0.004289 0.033248 0.003965 0.015831
# 5 -0.000914 0.009182 -0.001219 0.003965 0.018272 0.005016
# 6 -0.004119 0.017143 -0.009331 0.015831 0.005016 0.058885
#
#
# Mechanical properties :
#
#
# Convention : Reuss Voigt Hill
#
# Bulk Modulus (GPa) = 31.11685 49.44320 40.28002
# Shear Modulus (GPa) = 19.62149 34.28833 26.95491
#
# Velocity S-wave (km/s) = 2.92036 3.86050 3.42286
# Velocity P-wave (km/s) = 4.98961 6.43131 5.75578
#
# Compressibility (1/GPa) = 0.03213693
#
# Stress axis : x y z
#
# Youngs Moduli (GPa) = 67.77540 18.21306 75.40806
#
# Poissons Ratio (x) = 0.21407 0.06484
# Poissons Ratio (y) = 0.79660 0.96362
# Poissons Ratio (z) = 0.05828 0.23274
#
# Static dielectric constant tensor:
#      x y z
#    x 5.019320 -0.154760 0.624090 
#    y -0.154760 3.812080 -0.028150 
#    z 0.624090 -0.028150 7.728340 
# 
# 
# High freq. dielectric constant tensor:
#      x y z
#    x 1.931700 -0.015570 0.005110 
#    y -0.015570 1.877040 0.016010 
#    z 0.005110 0.016010 1.930340 
# 
# From -- ./inp_files/392361.got.cif
#   From: 2010.06.25/outbox.cif.g09.slc.cpg/sg2_197_cif.got.tgz:392361.got - 2010.06.27 13:26:56.
