data_PCOD8022146
_publ_section_title
;
Structure prediction by ZEFSAII (Michael W. Deem and Ramdas Pophale) SiO2 
 PCOD8022146
Probable space group: P -1
;
_chemical_formula_sum "Si O2"
_cell_formula_units_Z 16
_cell_length_a 14.575901
_cell_length_b 14.401855
_cell_length_c 5.491091
_cell_angle_alpha 58.149654
_cell_angle_beta 93.208267
_cell_angle_gamma 129.039568
_cell_volume 690.538810
_symmetry_space_group_name_H-M "P -1"
_symmetry_group_IT_number 2
_symmetry_cell_setting 'triclinic'
loop_
_space_group_symop_operation_xyz
x,y,z
-x,-y,-z
loop_
_atom_site_type_symbol
_atom_site_label
_atom_site_fract_x
_atom_site_fract_y
_atom_site_fract_z
Si Si1 0.067759 0.275061 0.282602
Si Si2 0.430937 0.684173 0.429673
Si Si3 0.375831 0.397532 0.792743
Si Si4 0.831547 0.048080 0.264322
Si Si5 0.167793 0.555556 0.621452
Si Si6 0.421639 0.211896 0.208585
Si Si7 0.065334 0.695309 0.403007
Si Si8 0.849874 0.854519 0.242513
O O1 0.162132 0.260654 0.420125
O O2 0.978474 0.145282 0.240740
O O3 0.960004 0.228977 0.517523
O O4 0.151523 0.449759 0.971586
O O5 0.362011 0.509837 0.725534
O O6 0.316736 0.676623 0.385699
O O7 0.509823 0.782288 0.550244
O O8 0.512761 0.755089 0.091125
O O9 0.500000 0.500000 0.500000
O O10 0.238390 0.247831 0.859939
O O11 0.406150 0.330101 0.092523
O O12 0.722447 0.963466 0.576911
O O13 0.789861 0.912904 0.270323
O O14 0.836685 0.171043 0.966558
O O15 0.134809 0.647805 0.598092
O O16 0.074030 0.456109 0.517360
O O17 0.000000 0.000000 0.000000
#
# Coordination Sequence:
#
# PCOD8022146 Si02
#       8
#     2   2   2   2   2   2   2   2
#     4  11  23  38  69  97 134 175 223 286 345 410
#     4  11  25  43  69 100 134 182 234 284 327 406
#     4  10  23  40  65  95 135 187 219 273 341 411
#     4  11  24  41  65  97 136 182 220 274 352 416
#     4  10  24  41  68  98 128 174 233 289 338 401
#     4  11  25  44  67  97 141 185 226 275 342 413
#     4  10  22  45  66  95 133 175 225 284 352 402
#     4  12  23  39  66 103 143 175 225 284 343 421
#
# _framework density 23.170310000000001
#
# number of rings (size 3 to 8) (size 9 to 14) (size 15 to 20)
#    0.000    1.250    1.250    4.125   10.500    0.000 
#    0.000    1.250    0.000    0.000    0.000    0.000 
#    0.000    0.000    0.000    0.000    0.000    0.000 
#
# Total GULP energy -198315.697439 kJ/mol
# GULP energy per Si atom -12394.731090 kJ/mol
# Density = 2.311757 g / cm^3
# Si number density = 23.170310 Si / 1000 Ang^3
#
#
#
# Elastic Constant Matrix: (Units=GPa)
#
#
# Indices 1 2 3 4 5 6 
#
# 1 110.5206 20.9103 40.4705 -4.7637 12.4712 17.2214
# 2 20.9103 51.9245 16.4817 2.7333 -2.5747 4.0590
# 3 40.4705 16.4817 107.9225 0.6908 -2.9484 12.2434
# 4 -4.7637 2.7333 0.6908 31.4689 2.2296 -2.5723
# 5 12.4712 -2.5747 -2.9484 2.2296 36.3470 -6.5583
# 6 17.2214 4.0590 12.2434 -2.5723 -6.5583 23.6526
#
#
#
# Elastic Compliance Matrix: (Units=1/GPa)
#
#
# Indices 1 2 3 4 5 6 
#
# 1 0.013382 -0.004012 -0.003603 0.002218 -0.006903 -0.008863
# 2 -0.004012 0.021675 -0.001784 -0.002611 0.003051 0.000687
# 3 -0.003603 -0.001784 0.011228 -0.000959 0.001622 -0.002537
# 4 0.002218 -0.002611 -0.000959 0.032724 -0.002642 0.002156
# 5 -0.006903 0.003051 0.001622 -0.002642 0.032633 0.012424
# 6 -0.008863 0.000687 -0.002537 0.002156 0.012424 0.053607
#
#
# Mechanical properties :
#
#
# Convention : Reuss Voigt Hill
#
# Bulk Modulus (GPa) = 36.37857 47.34363 41.86110
# Shear Modulus (GPa) = 25.87885 31.12738 28.50311
#
# Velocity S-wave (km/s) = 3.34563 3.66924 3.51116
# Velocity P-wave (km/s) = 5.53705 6.19906 5.87738
#
# Compressibility (1/GPa) = 0.02748871
#
# Stress axis : x y z
#
# Youngs Moduli (GPa) = 74.72754 46.13512 89.06592
#
# Poissons Ratio (x) = 0.18508 0.32089
# Poissons Ratio (y) = 0.29978 0.15887
# Poissons Ratio (z) = 0.26923 0.08229
#
# Static dielectric constant tensor:
#      x y z
#    x 4.211270 -0.054520 0.102660 
#    y -0.054520 4.188550 -0.071330 
#    z 0.102660 -0.071330 4.288560 
# 
# 
# High freq. dielectric constant tensor:
#      x y z
#    x 1.910880 0.011990 -0.004280 
#    y 0.011990 1.896990 -0.004970 
#    z -0.004280 -0.004970 1.921830 
# 
# From -- ./inp_files/77949.got.cif
#   From: 2010.06.25/outbox.cif.g09.slc.cpg/sg2_39_cif.got.tgz:77949.got - 2010.06.27 13:26:56.
