data_PCOD8022714
_publ_section_title
;
Structure prediction by ZEFSAII (Michael W. Deem and Ramdas Pophale) SiO2 
 PCOD8022714
Probable space group: P -1
;
_chemical_formula_sum "Si O2"
_cell_formula_units_Z 16
_cell_length_a 8.818939
_cell_length_b 15.331076
_cell_length_c 9.691909
_cell_angle_alpha 67.367111
_cell_angle_beta 94.797076
_cell_angle_gamma 140.267548
_cell_volume 721.300398
_symmetry_space_group_name_H-M "P -1"
_symmetry_group_IT_number 2
_symmetry_cell_setting 'triclinic'
loop_
_space_group_symop_operation_xyz
x,y,z
-x,-y,-z
loop_
_atom_site_type_symbol
_atom_site_label
_atom_site_fract_x
_atom_site_fract_y
_atom_site_fract_z
Si Si1 0.990731 0.119123 0.695901
Si Si2 0.212796 0.348925 0.113001
Si Si3 0.911172 0.704072 0.164461
Si Si4 0.617446 0.643061 0.621800
Si Si5 0.451510 0.084635 0.418386
Si Si6 0.006275 0.571824 0.828295
Si Si7 0.847559 0.374888 0.686638
Si Si8 0.365528 0.158599 0.618286
O O1 0.973009 0.150083 0.831102
O O2 0.180818 0.285443 0.526244
O O3 0.108121 0.070793 0.725549
O O4 0.714043 0.981964 0.690686
O O5 0.215911 0.267205 0.277605
O O6 0.124967 0.397023 0.158997
O O7 0.500000 0.500000 0.000000
O O8 0.042903 0.248287 0.023709
O O9 0.609794 0.545455 0.269784
O O10 0.048379 0.675502 0.231978
O O11 0.503361 0.689725 0.550683
O O12 0.710748 0.270326 0.302105
O O13 0.306351 0.048899 0.566969
O O14 0.500000 0.000000 0.500000
O O15 0.842406 0.442405 0.774343
O O16 0.000000 0.500000 0.000000
O O17 0.556969 0.214760 0.713908
O O18 0.000000 0.500000 0.500000
#
# Coordination Sequence:
#
# PCOD8022714 Si02
#       8
#     2   2   2   2   2   2   2   2
#     4  10  23  38  65  93 132 170 222 268 328 390
#     4  10  23  38  62  95 134 170 214 273 332 394
#     4  11  20  38  59 100 130 173 223 273 330 387
#     4   9  20  36  64  96 130 171 218 277 324 387
#     4  12  24  43  68  99 136 178 222 274 336 402
#     4  12  26  45  68 101 135 178 222 276 341 391
#     4  12  21  37  67  98 133 167 228 281 323 391
#     4  10  23  38  66 100 129 173 223 280 325 388
#
# _framework density 22.18216
#
# number of rings (size 3 to 8) (size 9 to 14) (size 15 to 20)
#    0.750    0.500    3.750    2.250    7.000    0.000 
#    0.000    0.625    2.750    1.500    0.000    0.000 
#    0.000    0.000    0.000    0.000    0.000    0.000 
#
# Total GULP energy -198289.995355 kJ/mol
# GULP energy per Si atom -12393.124710 kJ/mol
# Density = 2.213167 g / cm^3
# Si number density = 22.182160 Si / 1000 Ang^3
#
#
#
# Elastic Constant Matrix: (Units=GPa)
#
#
# Indices 1 2 3 4 5 6 
#
# 1 114.2591 43.1481 30.3263 30.8407 -10.5240 6.1242
# 2 43.1481 92.4280 23.9260 43.0585 -5.3553 -2.4960
# 3 30.3263 23.9260 84.1524 44.8494 5.3163 -1.9074
# 4 30.8407 43.0585 44.8494 49.1699 -2.2477 -5.6899
# 5 -10.5240 -5.3553 5.3163 -2.2477 38.5536 15.1745
# 6 6.1242 -2.4960 -1.9074 -5.6899 15.1745 36.0615
#
#
#
# Elastic Compliance Matrix: (Units=1/GPa)
#
#
# Indices 1 2 3 4 5 6 
#
# 1 0.012208 -0.003749 -0.002417 -0.002515 0.004941 -0.004937
# 2 -0.003749 0.021672 0.007981 -0.024050 -0.000035 -0.001221
# 3 -0.002417 0.007981 0.026941 -0.030309 -0.004903 -0.000331
# 4 -0.002515 -0.024050 -0.030309 0.071596 0.001196 0.007953
# 5 0.004941 -0.000035 -0.004903 0.001196 0.034021 -0.015228
# 6 -0.004937 -0.001221 -0.000331 0.007953 -0.015228 0.036130
#
#
# Mechanical properties :
#
#
# Convention : Reuss Voigt Hill
#
# Bulk Modulus (GPa) = 15.51565 53.96004 34.73784
# Shear Modulus (GPa) = 22.68384 37.65295 30.16840
#
# Velocity S-wave (km/s) = 3.20131 4.12447 3.69186
# Velocity P-wave (km/s) = 4.54690 6.86006 5.81957
#
# Compressibility (1/GPa) = 0.06445106
#
# Stress axis : x y z
#
# Youngs Moduli (GPa) = 81.91488 46.14213 37.11868
#
# Poissons Ratio (x) = 0.17297 0.08973
# Poissons Ratio (y) = 0.30707 -0.29626
# Poissons Ratio (z) = 0.19802 -0.36828
#
# Static dielectric constant tensor:
#      x y z
#    x 4.030030 0.169750 0.142080 
#    y 0.169750 3.770360 0.406030 
#    z 0.142080 0.406030 4.272510 
# 
# 
# High freq. dielectric constant tensor:
#      x y z
#    x 1.882630 0.010710 0.001680 
#    y 0.010710 1.856760 0.028040 
#    z 0.001680 0.028040 1.867340 
# 
# From -- ./inp_files/206959.got.cif
#   From: 2010.06.25/outbox.cif.g09.slc.cpg/sg2_104_cif.got.tgz:206959.got - 2010.06.27 13:26:56.
