data_PCOD8022982
_publ_section_title
;
Structure prediction by ZEFSAII (Michael W. Deem and Ramdas Pophale) SiO2 
 PCOD8022982
Probable space group: P -1
;
_chemical_formula_sum "Si O2"
_cell_formula_units_Z 14
_cell_length_a 11.953606
_cell_length_b 6.831926
_cell_length_c 11.447695
_cell_angle_alpha 120.244455
_cell_angle_beta 86.017761
_cell_angle_gamma 62.221747
_cell_volume 655.533249
_symmetry_space_group_name_H-M "P -1"
_symmetry_group_IT_number 2
_symmetry_cell_setting 'triclinic'
loop_
_space_group_symop_operation_xyz
x,y,z
-x,-y,-z
loop_
_atom_site_type_symbol
_atom_site_label
_atom_site_fract_x
_atom_site_fract_y
_atom_site_fract_z
Si Si1 0.544915 0.924465 0.803814
Si Si2 0.834628 0.332472 0.350544
Si Si3 0.621050 0.376577 0.545465
Si Si4 0.842914 0.111115 0.049577
Si Si5 0.272554 0.232060 0.042752
Si Si6 0.154069 0.840043 0.193943
Si Si7 0.702924 0.948531 0.598412
O O1 0.580325 0.616655 0.713749
O O2 0.577698 0.990278 0.694634
O O3 0.383205 0.149267 0.907239
O O4 0.641783 0.928078 0.894648
O O5 0.761922 0.272531 0.438328
O O6 0.773622 0.335040 0.227739
O O7 0.812608 0.625262 0.460866
O O8 0.994282 0.086417 0.272663
O O9 0.500000 0.500000 0.500000
O O10 0.639559 0.119699 0.535065
O O11 0.825828 0.864737 0.007371
O O12 0.778230 0.235990 0.963992
O O13 0.000000 0.000000 0.000000
O O14 0.175550 0.565457 0.164259
O O15 0.223733 0.939958 0.302331
#
# Coordination Sequence:
#
# PCOD8022982 Si02
#       7
#     2   2   2   2   2   2   2
#     4  10  23  40  64 101 129 177 222 274 332 390
#     4  10  25  41  65 100 134 177 221 270 338 399
#     4  11  24  43  66  95 136 176 226 271 336 397
#     4  10  23  42  64  96 134 173 221 271 330 393
#     4  11  22  40  68  96 137 169 225 279 327 393
#     4  11  23  42  70 100 132 177 223 277 332 400
#     4  11  23  44  67  98 136 176 221 276 336 396
#
# _framework density 21.356660000000002
#
# number of rings (size 3 to 8) (size 9 to 14) (size 15 to 20)
#    0.000    1.429    2.857    1.286    0.000   12.571 
#    0.000    0.000    0.000    0.000    0.000    0.000 
#    0.000    0.000    0.000    0.000    0.000    0.000 
#
# Total GULP energy -173604.231231 kJ/mol
# GULP energy per Si atom -12400.302231 kJ/mol
# Density = 2.130805 g / cm^3
# Si number density = 21.356660 Si / 1000 Ang^3
#
#
#
# Elastic Constant Matrix: (Units=GPa)
#
#
# Indices 1 2 3 4 5 6 
#
# 1 103.6147 55.4839 41.4127 13.5840 11.5592 8.5183
# 2 55.4839 139.4273 51.0340 0.0719 -6.4489 11.7817
# 3 41.4127 51.0340 117.2979 3.6794 7.8622 5.6890
# 4 13.5840 0.0719 3.6794 29.3702 -0.8000 7.1899
# 5 11.5592 -6.4489 7.8622 -0.8000 33.7884 6.5945
# 6 8.5183 11.7817 5.6890 7.1899 6.5945 28.0965
#
#
#
# Elastic Compliance Matrix: (Units=1/GPa)
#
#
# Indices 1 2 3 4 5 6 
#
# 1 0.015058 -0.005543 -0.002342 -0.007195 -0.006130 0.001513
# 2 -0.005543 0.011234 -0.003222 0.004285 0.005837 -0.004844
# 3 -0.002342 -0.003222 0.010907 -0.000479 -0.002472 0.000555
# 4 -0.007195 0.004285 -0.000479 0.040394 0.006571 -0.011398
# 5 -0.006130 0.005837 -0.002472 0.006571 0.035510 -0.010105
# 6 0.001513 -0.004844 0.000555 -0.011398 -0.010105 0.042340
#
#
# Mechanical properties :
#
#
# Convention : Reuss Voigt Hill
#
# Bulk Modulus (GPa) = 66.72124 72.91122 69.81623
# Shear Modulus (GPa) = 27.37455 32.41165 29.89310
#
# Velocity S-wave (km/s) = 3.58408 3.89991 3.74533
# Velocity P-wave (km/s) = 6.95965 7.38194 7.17390
#
# Compressibility (1/GPa) = 0.01498773
#
# Stress axis : x y z
#
# Youngs Moduli (GPa) = 66.41109 89.01416 91.68098
#
# Poissons Ratio (x) = 0.49338 0.21467
# Poissons Ratio (y) = 0.36810 0.29536
# Poissons Ratio (z) = 0.15550 0.28676
#
# Static dielectric constant tensor:
#      x y z
#    x 3.866410 0.139430 0.253470 
#    y 0.139430 3.835580 -0.249230 
#    z 0.253470 -0.249230 4.448680 
# 
# 
# High freq. dielectric constant tensor:
#      x y z
#    x 1.838400 0.010770 0.009400 
#    y 0.010770 1.829620 -0.007230 
#    z 0.009400 -0.007230 1.853290 
# 
# From -- ./inp_files/64049.got.cif
#   From: 2010.06.25/outbox.cif.g09.slc.cpg/sg2_33_cif.got.tgz:64049.got - 2010.06.27 13:26:56.
