data_PCOD8022632
_publ_section_title
;
Structure prediction by ZEFSAII (Michael W. Deem and Ramdas Pophale) SiO2 
 PCOD8022632
Probable space group: P -1
;
_chemical_formula_sum "Si O2"
_cell_formula_units_Z 14
_cell_length_a 11.273833
_cell_length_b 9.515517
_cell_length_c 13.220115
_cell_angle_alpha 80.165187
_cell_angle_beta 145.961216
_cell_angle_gamma 87.657405
_cell_volume 738.158539
_symmetry_space_group_name_H-M "P -1"
_symmetry_group_IT_number 2
_symmetry_cell_setting 'triclinic'
loop_
_space_group_symop_operation_xyz
x,y,z
-x,-y,-z
loop_
_atom_site_type_symbol
_atom_site_label
_atom_site_fract_x
_atom_site_fract_y
_atom_site_fract_z
Si Si1 0.707836 0.035712 0.227879
Si Si2 0.117264 0.532006 0.480604
Si Si3 0.614282 0.800885 0.322318
Si Si4 0.670562 0.981821 0.532583
Si Si5 0.246556 0.232516 0.934016
Si Si6 0.855243 0.048227 0.109130
Si Si7 0.636490 0.236844 0.331127
O O1 0.852952 0.030583 0.232010
O O2 0.785913 0.129631 0.360241
O O3 0.734816 0.869892 0.312639
O O4 0.439250 0.126271 0.005540
O O5 0.257978 0.374943 0.547821
O O6 0.288293 0.618990 0.618484
O O7 0.000000 0.500000 0.500000
O O8 0.925834 0.623054 0.257121
O O9 0.608609 0.883812 0.414198
O O10 0.359454 0.823062 0.104257
O O11 0.659515 0.145913 0.462856
O O12 0.500000 0.000000 0.500000
O O13 0.924253 0.906758 0.764458
O O14 0.125356 0.116282 0.904657
O O15 0.372916 0.290592 0.105368
#
# Coordination Sequence:
#
# PCOD8022632 Si02
#       7
#     2   2   2   2   2   2   2
#     4   8  18  36  57  85 120 152 190 237 293 357
#     4  12  22  34  59  93 130 161 179 229 308 369
#     4  10  23  36  57  97 118 144 203 242 294 358
#     4  11  24  41  64  87 108 157 219 252 282 338
#     4   9  19  36  57  86 121 162 185 230 300 360
#     4  11  18  37  63  84 118 153 197 251 293 344
#     4   9  22  38  56  86 124 153 196 237 291 358
#
# _framework density 18.966117000000001
#
# number of rings (size 3 to 8) (size 9 to 14) (size 15 to 20)
#    0.857    1.143    2.857    3.429    2.000    3.429 
#    0.000    0.714    0.000    1.714    0.000    0.000 
#    0.000    0.000    0.000    0.000    0.000    0.000 
#
# Total GULP energy -173527.318851 kJ/mol
# GULP energy per Si atom -12394.808489 kJ/mol
# Density = 1.892295 g / cm^3
# Si number density = 18.966117 Si / 1000 Ang^3
#
#
#
# Elastic Constant Matrix: (Units=GPa)
#
#
# Indices 1 2 3 4 5 6 
#
# 1 80.5141 35.0045 23.1863 10.9461 13.3076 1.8689
# 2 35.0045 108.1254 40.7514 -8.2324 0.1791 1.8577
# 3 23.1863 40.7514 111.4776 -0.8302 2.8028 4.2476
# 4 10.9461 -8.2324 -0.8302 39.7300 4.2399 -1.9576
# 5 13.3076 0.1791 2.8028 4.2399 20.6568 2.8982
# 6 1.8689 1.8577 4.2476 -1.9576 2.8982 11.4635
#
#
#
# Elastic Compliance Matrix: (Units=1/GPa)
#
#
# Indices 1 2 3 4 5 6 
#
# 1 0.017558 -0.005507 -0.001432 -0.004917 -0.010098 0.000274
# 2 -0.005507 0.012639 -0.003526 0.003726 0.003152 -0.000005
# 3 -0.001432 -0.003526 0.010677 -0.000272 0.000009 -0.003200
# 4 -0.004917 0.003726 -0.000272 0.027946 -0.003395 0.005929
# 5 -0.010098 0.003152 0.000009 -0.003395 0.057548 -0.013997
# 6 0.000274 -0.000005 -0.003200 0.005929 -0.013997 0.092926
#
#
# Mechanical properties :
#
#
# Convention : Reuss Voigt Hill
#
# Bulk Modulus (GPa) = 50.14117 55.33348 52.73733
# Shear Modulus (GPa) = 20.25346 27.78173 24.01759
#
# Velocity S-wave (km/s) = 3.27138 3.83143 3.56243
# Velocity P-wave (km/s) = 6.38466 6.98652 6.69236
#
# Compressibility (1/GPa) = 0.01994369
#
# Stress axis : x y z
#
# Youngs Moduli (GPa) = 56.95417 79.12134 93.65983
#
# Poissons Ratio (x) = 0.43571 0.13412
# Poissons Ratio (y) = 0.31364 0.33026
# Poissons Ratio (z) = 0.08156 0.27899
#
# Static dielectric constant tensor:
#      x y z
#    x 3.041900 0.076770 -0.002310 
#    y 0.076770 3.431150 0.000710 
#    z -0.002310 0.000710 4.391110 
# 
# 
# High freq. dielectric constant tensor:
#      x y z
#    x 1.686240 0.004100 -0.004340 
#    y 0.004100 1.723720 0.016570 
#    z -0.004340 0.016570 1.761520 
# 
# From -- ./inp_files/515554.got.cif
#   From: 2010.06.25/outbox.cif.g09.slc.cpg/sg2_258_cif.got.tgz:515554.got - 2010.06.27 13:26:56.
