data_PCOD8022736
_publ_section_title
;
Structure prediction by ZEFSAII (Michael W. Deem and Ramdas Pophale) SiO2 
 PCOD8022736
Probable space group: P -1
;
_chemical_formula_sum "Si O2"
_cell_formula_units_Z 16
_cell_length_a 18.806024
_cell_length_b 27.991082
_cell_length_c 30.525477
_cell_angle_alpha 8.686092
_cell_angle_beta 17.984840
_cell_angle_gamma 18.271522
_cell_volume 734.056299
_symmetry_space_group_name_H-M "P -1"
_symmetry_group_IT_number 2
_symmetry_cell_setting 'triclinic'
loop_
_space_group_symop_operation_xyz
x,y,z
-x,-y,-z
loop_
_atom_site_type_symbol
_atom_site_label
_atom_site_fract_x
_atom_site_fract_y
_atom_site_fract_z
Si Si1 0.196805 0.114517 0.424291
Si Si2 0.047532 0.839836 0.678579
Si Si3 0.748116 0.289981 0.663725
Si Si4 0.246247 0.799444 0.112681
Si Si5 0.494803 0.449181 0.199779
Si Si6 0.737019 0.554990 0.334088
Si Si7 0.379916 0.832254 0.414873
Si Si8 0.980524 0.483060 0.626519
O O1 0.964812 0.330243 0.384299
O O2 0.118367 0.847554 0.680526
O O3 0.355866 0.912041 0.552114
O O4 0.336488 0.332944 0.116456
O O5 0.259243 0.918480 0.454312
O O6 0.811115 0.107483 0.566569
O O7 0.000000 0.500000 0.000000
O O8 0.741656 0.493419 0.438690
O O9 0.509267 0.456571 0.678154
O O10 0.968280 0.330131 0.528712
O O11 0.753926 0.922375 0.982433
O O12 0.372084 0.593688 0.185269
O O13 0.125523 0.568924 0.422114
O O14 0.432283 0.936474 0.909674
O O15 0.049333 0.096960 0.941247
O O16 0.297186 0.415465 0.310584
O O17 0.500000 0.500000 0.500000
#
# Coordination Sequence:
#
# PCOD8022736 Si02
#       8
#     2   2   2   2   2   2   2   2
#     4  12  27  44  69  97 140 176 229 276 339 399
#     4  11  24  39  64  99 138 175 211 271 351 408
#     4  11  25  45  70  97 132 172 238 274 326 393
#     4  11  21  40  65 103 141 179 216 273 334 415
#     4  12  24  44  65 102 137 179 223 278 340 402
#     4  12  27  49  71  97 131 182 228 279 330 397
#     4  10  23  38  65  99 133 173 215 277 337 406
#     4  11  24  41  71  98 137 179 226 273 338 395
#
# _framework density 21.796693999999999
#
# number of rings (size 3 to 8) (size 9 to 14) (size 15 to 20)
#    0.000    0.750    1.250    6.375   10.500    0.000 
#    0.000    3.750    0.000    0.000    0.000    0.000 
#    0.000    0.000    0.000    0.000    0.000    0.000 
#
# Total GULP energy -198462.094715 kJ/mol
# GULP energy per Si atom -12403.880920 kJ/mol
# Density = 2.174708 g / cm^3
# Si number density = 21.796694 Si / 1000 Ang^3
#
#
#
# Elastic Constant Matrix: (Units=GPa)
#
#
# Indices 1 2 3 4 5 6 
#
# 1 118.5010 57.5967 25.3529 2.8594 -3.4716 -17.7734
# 2 57.5967 128.3009 30.1591 -7.5260 -15.7463 -26.0239
# 3 25.3529 30.1591 62.5413 -9.8709 1.6898 0.7754
# 4 2.8594 -7.5260 -9.8709 30.7924 0.3294 2.2181
# 5 -3.4716 -15.7463 1.6898 0.3294 36.1821 -0.5520
# 6 -17.7734 -26.0239 0.7754 2.2181 -0.5520 22.4889
#
#
#
# Elastic Compliance Matrix: (Units=1/GPa)
#
#
# Indices 1 2 3 4 5 6 
#
# 1 0.011906 -0.003488 -0.003782 -0.003591 -0.000077 0.005856
# 2 -0.003488 0.014439 -0.005754 0.000915 0.006426 0.014218
# 3 -0.003782 -0.005754 0.021607 0.006719 -0.004108 -0.011156
# 4 -0.003591 0.000915 0.006719 0.035593 -0.000668 -0.005538
# 5 -0.000077 0.006426 -0.004108 -0.000668 0.030752 0.008338
# 6 0.005856 0.014218 -0.011156 -0.005538 0.008338 0.066682
#
#
# Mechanical properties :
#
#
# Convention : Reuss Voigt Hill
#
# Bulk Modulus (GPa) = 45.65448 59.50675 52.58061
# Shear Modulus (GPa) = 23.32869 30.97497 27.15183
#
# Velocity S-wave (km/s) = 3.27507 3.77382 3.53326
# Velocity P-wave (km/s) = 5.94075 6.80801 6.38911
#
# Compressibility (1/GPa) = 0.02190366
#
# Stress axis : x y z
#
# Youngs Moduli (GPa) = 83.99185 69.25695 46.28133
#
# Poissons Ratio (x) = 0.24159 0.17502
# Poissons Ratio (y) = 0.29299 0.26631
# Poissons Ratio (z) = 0.31762 0.39852
#
# Static dielectric constant tensor:
#      x y z
#    x 4.224580 -0.186510 0.096910 
#    y -0.186510 4.122480 0.056060 
#    z 0.096910 0.056060 3.950940 
# 
# 
# High freq. dielectric constant tensor:
#      x y z
#    x 1.862210 -0.015260 0.005950 
#    y -0.015260 1.860550 -0.000240 
#    z 0.005950 -0.000240 1.861550 
# 
# From -- ./inp_files/623953.got.cif
#   From: 2010.06.25/outbox.cif.g09.slc.cpg/sg2_312_cif.got.tgz:623953.got - 2010.06.27 13:26:56.
