data_PCOD8022421
_publ_section_title
;
Structure prediction by ZEFSAII (Michael W. Deem and Ramdas Pophale) SiO2 
 PCOD8022421
Probable space group: P -1
;
_chemical_formula_sum "Si O2"
_cell_formula_units_Z 12
_cell_length_a 9.011557
_cell_length_b 5.108990
_cell_length_c 18.083800
_cell_angle_alpha 98.389655
_cell_angle_beta 40.448715
_cell_angle_gamma 106.173659
_cell_volume 515.846213
_symmetry_space_group_name_H-M "P -1"
_symmetry_group_IT_number 2
_symmetry_cell_setting 'triclinic'
loop_
_space_group_symop_operation_xyz
x,y,z
-x,-y,-z
loop_
_atom_site_type_symbol
_atom_site_label
_atom_site_fract_x
_atom_site_fract_y
_atom_site_fract_z
Si Si1 0.862700 0.864052 0.256251
Si Si2 0.415587 0.915617 0.197559
Si Si3 0.032389 0.462652 0.276137
Si Si4 0.382524 0.759852 0.362730
Si Si5 0.929935 0.766680 0.598945
Si Si6 0.919023 0.203758 0.984394
O O1 0.582415 0.834507 0.352551
O O2 0.877826 0.647881 0.305305
O O3 0.000543 0.176881 0.233754
O O4 0.971556 0.779476 0.137144
O O5 0.311374 0.638964 0.177491
O O6 0.509167 0.859240 0.240725
O O7 0.188143 0.036172 0.301194
O O8 0.632938 0.115054 0.080564
O O9 0.966043 0.408320 0.385791
O O10 0.263017 0.433805 0.388720
O O11 0.168308 0.909157 0.466616
O O12 0.000000 0.500000 0.000000
O O13 0.000000 0.000000 0.000000
#
# Coordination Sequence:
#
# PCOD8022421 Si02
#       6
#     2   2   2   2   2   2
#     4  12  25  46  66 107 131 182 224 277 338 396
#     4  11  23  46  70  98 140 176 230 274 337 400
#     4  11  26  45  67  99 147 174 222 272 345 405
#     4  10  23  40  75  96 137 178 233 280 322 403
#     4  10  22  46  66 105 131 187 222 276 340 394
#     4  12  26  44  74 103 131 173 228 286 330 393
#
# _framework density 23.262747999999998
#
# number of rings (size 3 to 8) (size 9 to 14) (size 15 to 20)
#    0.000    1.000    3.333    2.500    4.667    2.667 
#    0.000    0.000    0.000    0.000    0.000    0.000 
#    0.000    0.000    0.000    0.000    0.000    0.000 
#
# Total GULP energy -148753.537414 kJ/mol
# GULP energy per Si atom -12396.128118 kJ/mol
# Density = 2.320980 g / cm^3
# Si number density = 23.262748 Si / 1000 Ang^3
#
#
#
# Elastic Constant Matrix: (Units=GPa)
#
#
# Indices 1 2 3 4 5 6 
#
# 1 93.6537 36.9005 -4.4370 -0.4962 -9.4769 20.0907
# 2 36.9005 157.0517 23.2197 4.4406 -10.9993 28.1775
# 3 -4.4370 23.2197 82.9287 -3.0099 -23.8014 27.4766
# 4 -0.4962 4.4406 -3.0099 30.8368 1.6878 -2.0873
# 5 -9.4769 -10.9993 -23.8014 1.6878 21.2951 -3.1475
# 6 20.0907 28.1775 27.4766 -2.0873 -3.1475 44.4198
#
#
#
# Elastic Compliance Matrix: (Units=1/GPa)
#
#
# Indices 1 2 3 4 5 6 
#
# 1 0.015572 -0.002148 0.008900 -0.000041 0.014267 -0.010176
# 2 -0.002148 0.007776 -0.000619 -0.001560 0.001973 -0.003511
# 3 0.008900 -0.000619 0.028249 -0.000059 0.032439 -0.018810
# 4 -0.000041 -0.001560 -0.000059 0.032980 -0.003154 0.002371
# 5 0.014267 0.001973 0.032439 -0.003154 0.087625 -0.021709
# 6 -0.010176 -0.003511 -0.018810 0.002371 -0.021709 0.039551
#
#
# Mechanical properties :
#
#
# Convention : Reuss Voigt Hill
#
# Bulk Modulus (GPa) = 15.65903 49.44449 32.55176
# Shear Modulus (GPa) = 22.64736 37.84040 30.24388
#
# Velocity S-wave (km/s) = 3.12356 4.03755 3.60960
# Velocity P-wave (km/s) = 4.44464 6.56024 5.60319
#
# Compressibility (1/GPa) = 0.06386092
#
# Stress axis : x y z
#
# Youngs Moduli (GPa) = 64.21675 128.60114 35.40008
#
# Poissons Ratio (x) = 0.27630 -0.31505
# Poissons Ratio (y) = 0.13797 0.02192
# Poissons Ratio (z) = -0.57151 0.07962
#
# Static dielectric constant tensor:
#      x y z
#    x 4.399480 0.026810 0.102560 
#    y 0.026810 4.278140 -0.127710 
#    z 0.102560 -0.127710 4.079300 
# 
# 
# High freq. dielectric constant tensor:
#      x y z
#    x 1.930990 0.004490 0.003010 
#    y 0.004490 1.927440 -0.009480 
#    z 0.003010 -0.009480 1.904530 
# 
# From -- ./inp_files/20290.got.cif
#   From: 2010.06.25/outbox.cif.g09.slc.cpg/sg2_11_cif.got.tgz:20290.got - 2010.06.27 13:26:56.
