data_PCOD8022711
_publ_section_title
;
Structure prediction by ZEFSAII (Michael W. Deem and Ramdas Pophale) SiO2 
 PCOD8022711
Probable space group: P -1
;
_chemical_formula_sum "Si O2"
_cell_formula_units_Z 16
_cell_length_a 15.013764
_cell_length_b 9.446014
_cell_length_c 11.294081
_cell_angle_alpha 103.548109
_cell_angle_beta 100.271624
_cell_angle_gamma 30.641919
_cell_volume 792.765459
_symmetry_space_group_name_H-M "P -1"
_symmetry_group_IT_number 2
_symmetry_cell_setting 'triclinic'
loop_
_space_group_symop_operation_xyz
x,y,z
-x,-y,-z
loop_
_atom_site_type_symbol
_atom_site_label
_atom_site_fract_x
_atom_site_fract_y
_atom_site_fract_z
Si Si1 0.755744 0.058470 0.503629
Si Si2 0.647802 0.348838 0.095824
Si Si3 0.946848 0.457618 0.682202
Si Si4 0.133550 0.697766 0.932055
Si Si5 0.405343 0.488450 0.618821
Si Si6 0.300999 0.318674 0.520056
Si Si7 0.009768 0.683517 0.687462
Si Si8 0.007247 0.320104 0.934025
O O1 0.599326 0.185106 0.555553
O O2 0.686101 0.286468 0.455810
O O3 0.870061 0.800013 0.394780
O O4 0.882475 0.940335 0.615096
O O5 0.689300 0.457643 0.084265
O O6 0.584890 0.447256 0.237211
O O7 0.500000 0.500000 0.000000
O O8 0.807364 0.013131 0.058324
O O9 0.911387 0.680152 0.722557
O O10 0.787467 0.589411 0.610285
O O11 0.966107 0.358019 0.794398
O O12 0.054032 0.740768 0.804594
O O13 0.147943 0.550033 0.005300
O O14 0.000000 0.000000 0.000000
O O15 0.290484 0.501052 0.594374
O O16 0.187825 0.386743 0.604033
O O17 0.500000 0.000000 0.500000
O O18 0.000000 0.500000 0.000000
#
# Coordination Sequence:
#
# PCOD8022711 Si02
#       8
#     2   2   2   2   2   2   2   2
#     4  10  23  38  62  94 124 168 211 256 328 383
#     4  11  25  45  67  96 131 175 220 270 329 385
#     4  11  22  41  65  93 127 168 212 262 324 390
#     4  10  23  41  64  92 124 170 220 262 320 390
#     4  11  22  40  62  92 131 164 209 273 315 382
#     4  11  23  39  62  95 127 166 213 264 326 381
#     4  11  21  40  66  89 129 166 209 262 324 395
#     4  11  23  44  70  95 129 174 222 271 318 390
#
# _framework density 20.182514999999999
#
# number of rings (size 3 to 8) (size 9 to 14) (size 15 to 20)
#    0.000    1.250    3.750    3.000    3.500    5.000 
#    2.250    0.625    0.000    0.000    0.000    0.000 
#    0.000    0.000    0.000    0.000    0.000    0.000 
#
# Total GULP energy -198280.291214 kJ/mol
# GULP energy per Si atom -12392.518201 kJ/mol
# Density = 2.013658 g / cm^3
# Si number density = 20.182515 Si / 1000 Ang^3
#
#
#
# Elastic Constant Matrix: (Units=GPa)
#
#
# Indices 1 2 3 4 5 6 
#
# 1 121.6052 41.0679 68.4212 -16.8089 -1.8532 6.1609
# 2 41.0679 89.5256 53.4634 -13.4730 -1.1868 -8.6654
# 3 68.4212 53.4634 152.2602 -28.6914 4.2301 -4.2357
# 4 -16.8089 -13.4730 -28.6914 29.7874 -0.1982 0.3622
# 5 -1.8532 -1.1868 4.2301 -0.1982 41.1004 0.6844
# 6 6.1609 -8.6654 -4.2357 0.3622 0.6844 27.8168
#
#
#
# Elastic Compliance Matrix: (Units=1/GPa)
#
#
# Indices 1 2 3 4 5 6 
#
# 1 0.012105 -0.003257 -0.004183 0.001388 0.000962 -0.004374
# 2 -0.003257 0.015528 -0.003544 0.001716 0.000592 0.004982
# 3 -0.004183 -0.003544 0.011019 0.006624 -0.001417 0.001449
# 4 0.001388 0.001716 0.006624 0.041500 -0.000381 0.000705
# 5 0.000962 0.000592 -0.001417 -0.000381 0.024549 -0.000844
# 6 -0.004374 0.004982 0.001449 0.000705 -0.000844 0.038703
#
#
# Mechanical properties :
#
#
# Convention : Reuss Voigt Hill
#
# Bulk Modulus (GPa) = 59.92802 76.58844 68.25823
# Shear Modulus (GPa) = 29.25136 33.10351 31.17743
#
# Velocity S-wave (km/s) = 3.81115 4.05434 3.93463
# Velocity P-wave (km/s) = 7.00885 7.74256 7.38482
#
# Compressibility (1/GPa) = 0.01668668
#
# Stress axis : x y z
#
# Youngs Moduli (GPa) = 82.61212 64.39829 90.74865
#
# Poissons Ratio (x) = 0.20972 0.37958
# Poissons Ratio (y) = 0.26903 0.32157
# Poissons Ratio (z) = 0.34555 0.22820
#
# Static dielectric constant tensor:
#      x y z
#    x 5.925680 -0.376490 -0.652750 
#    y -0.376490 3.716760 0.095120 
#    z -0.652750 0.095120 3.903870 
# 
# 
# High freq. dielectric constant tensor:
#      x y z
#    x 1.797790 0.003210 -0.004340 
#    y 0.003210 1.773900 0.002810 
#    z -0.004340 0.002810 1.801500 
# 
# From -- ./inp_files/216408.got.cif
#   From: 2010.06.25/outbox.cif.g09.slc.cpg/sg2_109_cif.got.tgz:216408.got - 2010.06.27 13:26:56.
