data_PCOD8022783
_publ_section_title
;
Structure prediction by ZEFSAII (Michael W. Deem and Ramdas Pophale) SiO2 
 PCOD8022783
Probable space group: P -1
;
_chemical_formula_sum "Si O2"
_cell_formula_units_Z 16
_cell_length_a 15.026738
_cell_length_b 15.462728
_cell_length_c 14.660316
_cell_angle_alpha 38.679515
_cell_angle_beta 160.048888
_cell_angle_gamma 141.714115
_cell_volume 705.222553
_symmetry_space_group_name_H-M "P -1"
_symmetry_group_IT_number 2
_symmetry_cell_setting 'triclinic'
loop_
_space_group_symop_operation_xyz
x,y,z
-x,-y,-z
loop_
_atom_site_type_symbol
_atom_site_label
_atom_site_fract_x
_atom_site_fract_y
_atom_site_fract_z
Si Si1 0.792034 0.562409 0.689340
Si Si2 0.791234 0.007446 0.089298
Si Si3 0.063830 0.479789 0.342825
Si Si4 0.457426 0.846859 0.543904
Si Si5 0.711293 0.444889 0.309701
Si Si6 0.885444 0.132540 0.257242
Si Si7 0.767771 0.169000 0.306814
Si Si8 0.035264 0.223459 0.001228
O O1 0.500000 0.500000 0.500000
O O2 0.789163 0.528092 0.605894
O O3 0.867790 0.732116 0.636426
O O4 0.000000 0.500000 0.000000
O O5 0.982124 0.898940 0.375667
O O6 0.704256 0.080782 0.036230
O O7 0.513465 0.919054 0.846714
O O8 0.966577 0.145494 0.094756
O O9 0.278537 0.513258 0.606514
O O10 0.904559 0.604937 0.076897
O O11 0.846332 0.333403 0.279315
O O12 0.370997 0.726498 0.637484
O O13 0.225668 0.838079 0.256841
O O14 0.500000 0.000000 0.500000
O O15 0.719273 0.825369 0.764627
O O16 0.000000 0.500000 0.500000
O O17 0.500000 0.500000 0.000000
O O18 0.711441 0.170968 0.141703
O O19 0.000000 0.000000 0.500000
#
# Coordination Sequence:
#
# PCOD8022783 Si02
#       8
#     2   2   2   2   2   2   2   2
#     4  11  25  42  67 100 136 185 230 274 334 397
#     4  11  22  39  62  94 127 170 222 265 321 396
#     4  10  25  45  67  99 140 174 226 284 331 401
#     4  11  25  46  67  94 128 162 208 269 333 401
#     4  11  25  44  69  98 130 177 223 275 343 402
#     4   9  21  39  60  88 132 175 218 269 324 383
#     4  10  23  39  61  92 130 175 217 271 326 381
#     4  11  24  42  67  95 126 168 208 267 335 387
#
# _framework density 22.687874999999998
#
# number of rings (size 3 to 8) (size 9 to 14) (size 15 to 20)
#    0.000    1.500    0.000    3.750    0.000   21.000 
#    0.000    0.000    0.000    0.000    0.000    0.000 
#    0.000    0.000    0.000    0.000    0.000    0.000 
#
# Total GULP energy -198290.610410 kJ/mol
# GULP energy per Si atom -12393.163151 kJ/mol
# Density = 2.263624 g / cm^3
# Si number density = 22.687875 Si / 1000 Ang^3
#
#
#
# Elastic Constant Matrix: (Units=GPa)
#
#
# Indices 1 2 3 4 5 6 
#
# 1 90.7093 46.9217 51.8134 -3.4816 -9.1944 3.2400
# 2 46.9217 194.0323 60.8662 -16.3965 -1.9665 -0.1580
# 3 51.8134 60.8662 139.5999 5.7089 9.2052 -1.4748
# 4 -3.4816 -16.3965 5.7089 36.6883 7.2918 3.9371
# 5 -9.1944 -1.9665 9.2052 7.2918 36.3216 0.7091
# 6 3.2400 -0.1580 -1.4748 3.9371 0.7091 38.6669
#
#
#
# Elastic Compliance Matrix: (Units=1/GPa)
#
#
# Indices 1 2 3 4 5 6 
#
# 1 0.015722 -0.002031 -0.005330 0.000573 0.005139 -0.001682
# 2 -0.002031 0.006617 -0.002249 0.003180 -0.000220 -0.000208
# 3 -0.005330 -0.002249 0.010478 -0.002543 -0.003639 0.001163
# 4 0.000573 0.003180 -0.002543 0.030478 -0.005096 -0.003142
# 5 0.005139 -0.000220 -0.003639 -0.005096 0.030778 -0.000616
# 6 -0.001682 -0.000208 0.001163 -0.003142 -0.000616 0.026378
#
#
# Mechanical properties :
#
#
# Convention : Reuss Voigt Hill
#
# Bulk Modulus (GPa) = 73.54161 82.61601 78.07881
# Shear Modulus (GPa) = 34.67347 39.98470 37.32909
#
# Velocity S-wave (km/s) = 3.91357 4.20263 4.06067
# Velocity P-wave (km/s) = 7.27366 7.74872 7.51495
#
# Compressibility (1/GPa) = 0.01359774
#
# Stress axis : x y z
#
# Youngs Moduli (GPa) = 63.60459 151.13234 95.43545
#
# Poissons Ratio (x) = 0.30694 0.50866
# Poissons Ratio (y) = 0.12918 0.21462
# Poissons Ratio (z) = 0.33901 0.33988
#
# Static dielectric constant tensor:
#      x y z
#    x 4.800660 -0.068050 -0.134200 
#    y -0.068050 4.650890 -0.188940 
#    z -0.134200 -0.188940 4.432600 
# 
# 
# High freq. dielectric constant tensor:
#      x y z
#    x 1.893660 0.010660 -0.009360 
#    y 0.010660 1.921260 -0.000780 
#    z -0.009360 -0.000780 1.887800 
# 
# From -- ./inp_files/124875.got.cif
#   From: 2010.06.25/outbox.cif.g09.slc.cpg/sg2_63_cif.got.tgz:124875.got - 2010.06.27 13:26:56.
