data_PCOD8022754
_publ_section_title
;
Structure prediction by ZEFSAII (Michael W. Deem and Ramdas Pophale) SiO2 
 PCOD8022754
Probable space group: P -1
;
_chemical_formula_sum "Si O2"
_cell_formula_units_Z 14
_cell_length_a 8.411492
_cell_length_b 26.001363
_cell_length_c 6.213680
_cell_angle_alpha 134.692379
_cell_angle_beta 56.488110
_cell_angle_gamma 141.351180
_cell_volume 603.361133
_symmetry_space_group_name_H-M "P -1"
_symmetry_group_IT_number 2
_symmetry_cell_setting 'triclinic'
loop_
_space_group_symop_operation_xyz
x,y,z
-x,-y,-z
loop_
_atom_site_type_symbol
_atom_site_label
_atom_site_fract_x
_atom_site_fract_y
_atom_site_fract_z
Si Si1 0.736889 0.342026 0.762963
Si Si2 0.362265 0.249360 0.389090
Si Si3 0.495733 0.397492 0.381056
Si Si4 0.278820 0.765783 0.167260
Si Si5 0.894379 0.049868 0.296521
Si Si6 0.524539 0.978748 0.682993
Si Si7 0.853895 0.611468 0.702783
O O1 0.488930 0.285314 0.633287
O O2 0.756633 0.273076 0.679866
O O3 0.984456 0.404569 0.610373
O O4 0.715596 0.402623 0.125392
O O5 0.380609 0.329597 0.479745
O O6 0.069807 0.157302 0.386662
O O7 0.484479 0.215589 0.062570
O O8 0.632600 0.506944 0.670599
O O9 0.270554 0.357508 0.261520
O O10 0.346919 0.865525 0.437866
O O11 0.023607 0.691733 0.996120
O O12 0.603656 0.985440 0.240655
O O13 0.826085 0.040540 0.576911
O O14 0.000000 0.000000 0.000000
O O15 0.500000 0.000000 0.000000
#
# Coordination Sequence:
#
# PCOD8022754 Si02
#       7
#     2   2   2   2   2   2   2
#     4  10  23  38  67  95 139 176 217 280 337 401
#     4  10  23  44  69  99 139 177 228 278 340 412
#     4  10  23  42  66 102 129 182 227 277 336 400
#     4  10  23  44  66 101 136 181 224 284 340 401
#     4  11  25  47  70  99 135 179 228 287 344 413
#     4  11  27  44  70 102 135 179 231 285 346 408
#     4  10  23  42  67  96 138 175 232 275 333 411
#
# _framework density 23.20335
#
# number of rings (size 3 to 8) (size 9 to 14) (size 15 to 20)
#    0.000    1.714    1.429    0.429    6.000   10.286 
#    0.000    2.857    0.000    0.000    0.000    0.000 
#    0.000    0.000    0.000    0.000    0.000    0.000 
#
# Total GULP energy -173498.231291 kJ/mol
# GULP energy per Si atom -12392.730807 kJ/mol
# Density = 2.315054 g / cm^3
# Si number density = 23.203350 Si / 1000 Ang^3
#
#
#
# Elastic Constant Matrix: (Units=GPa)
#
#
# Indices 1 2 3 4 5 6 
#
# 1 132.0703 64.3728 37.1284 1.1166 3.2062 -12.7580
# 2 64.3728 169.0896 74.3264 -0.4098 9.8841 -6.8718
# 3 37.1284 74.3264 108.7293 -6.5710 -1.1121 -2.6708
# 4 1.1166 -0.4098 -6.5710 31.9959 1.1290 -4.5623
# 5 3.2062 9.8841 -1.1121 1.1290 36.8257 -10.0079
# 6 -12.7580 -6.8718 -2.6708 -4.5623 -10.0079 35.7270
#
#
#
# Elastic Compliance Matrix: (Units=1/GPa)
#
#
# Indices 1 2 3 4 5 6 
#
# 1 0.009673 -0.003125 -0.001099 -0.000208 0.000775 0.002961
# 2 -0.003125 0.009730 -0.005679 -0.000914 -0.002625 -0.000521
# 3 -0.001099 -0.005679 0.013654 0.002764 0.002075 0.000470
# 4 -0.000208 -0.000914 0.002764 0.032403 0.000505 0.004236
# 5 0.000775 -0.002625 0.002075 0.000505 0.030131 0.008432
# 6 0.002961 -0.000521 0.000470 0.004236 0.008432 0.031885
#
#
# Mechanical properties :
#
#
# Convention : Reuss Voigt Hill
#
# Bulk Modulus (GPa) = 75.46332 84.61603 80.03968
# Shear Modulus (GPa) = 32.95992 36.51383 34.73687
#
# Velocity S-wave (km/s) = 3.77302 3.97122 3.87339
# Velocity P-wave (km/s) = 7.18151 7.58774 7.38742
#
# Compressibility (1/GPa) = 0.01325147
#
# Stress axis : x y z
#
# Youngs Moduli (GPa) = 103.38327 102.77358 73.23620
#
# Poissons Ratio (x) = 0.32115 0.08047
# Poissons Ratio (y) = 0.32306 0.41593
# Poissons Ratio (z) = 0.11360 0.58368
#
# Static dielectric constant tensor:
#      x y z
#    x 4.163560 0.066530 -0.074730 
#    y 0.066530 3.926870 -0.258720 
#    z -0.074730 -0.258720 4.086510 
# 
# 
# High freq. dielectric constant tensor:
#      x y z
#    x 1.920980 -0.004320 -0.015630 
#    y -0.004320 1.924720 -0.016090 
#    z -0.015630 -0.016090 1.914050 
# 
# From -- ./inp_files/48727.got.cif
#   From: 2010.06.25/outbox.cif.g09.slc.cpg/sg2_25_cif.got.tgz:48727.got - 2010.06.27 13:26:56.
