data_PCOD8022913
_publ_section_title
;
Structure prediction by ZEFSAII (Michael W. Deem and Ramdas Pophale) SiO2 
 PCOD8022913
Probable space group: P -1
;
_chemical_formula_sum "Si O2"
_cell_formula_units_Z 12
_cell_length_a 8.993568
_cell_length_b 14.129421
_cell_length_c 11.363919
_cell_angle_alpha 32.554159
_cell_angle_beta 74.556370
_cell_angle_gamma 56.785313
_cell_volume 585.647065
_symmetry_space_group_name_H-M "P -1"
_symmetry_group_IT_number 2
_symmetry_cell_setting 'triclinic'
loop_
_space_group_symop_operation_xyz
x,y,z
-x,-y,-z
loop_
_atom_site_type_symbol
_atom_site_label
_atom_site_fract_x
_atom_site_fract_y
_atom_site_fract_z
Si Si1 0.373977 0.091777 0.688271
Si Si2 0.173263 0.243216 0.094673
Si Si3 0.118409 0.938987 0.295571
Si Si4 0.551005 0.617791 0.510315
Si Si5 0.895290 0.766049 0.612482
Si Si6 0.713936 0.160180 0.874868
O O1 0.329524 0.311065 0.527218
O O2 0.296258 0.148565 0.512127
O O3 0.604360 0.883758 0.860819
O O4 0.253582 0.032332 0.849725
O O5 0.068217 0.168032 0.116767
O O6 0.168988 0.183907 0.292003
O O7 0.065059 0.504315 0.825311
O O8 0.343919 0.728636 0.507141
O O9 0.105436 0.949949 0.142507
O O10 0.967714 0.908052 0.413557
O O11 0.693647 0.347029 0.765723
O O12 0.492333 0.712831 0.288675
#
# Coordination Sequence:
#
# PCOD8022913 Si02
#       6
#     2   2   2   2   2   2
#     4  11  21  36  62  84 112 145 187 231 276 332
#     4  10  23  40  58  78 116 152 185 230 276 323
#     4   9  19  36  59  79 114 149 180 227 283 329
#     4   8  18  34  57  85 113 148 180 220 286 334
#     4  11  23  38  57  86 110 148 193 229 271 327
#     4   9  18  34  60  84 112 148 181 224 287 333
#
# _framework density 20.490155999999999
#
# number of rings (size 3 to 8) (size 9 to 14) (size 15 to 20)
#    1.000    1.333    0.000    2.500    0.000    2.000 
#    0.000    1.667    0.000   11.000    0.000    0.000 
#    0.000    0.000    0.000    0.000    0.000    0.000 
#
# Total GULP energy -148784.585980 kJ/mol
# GULP energy per Si atom -12398.715498 kJ/mol
# Density = 2.044352 g / cm^3
# Si number density = 20.490156 Si / 1000 Ang^3
#
#
#
# Elastic Constant Matrix: (Units=GPa)
#
#
# Indices 1 2 3 4 5 6 
#
# 1 41.8477 16.4793 25.1022 -7.9044 -16.6493 5.2805
# 2 16.4793 76.2560 19.3419 -6.9465 -19.6311 14.6854
# 3 25.1022 19.3419 40.7583 4.3597 -18.6794 2.1847
# 4 -7.9044 -6.9465 4.3597 27.3740 2.7455 -9.0037
# 5 -16.6493 -19.6311 -18.6794 2.7455 25.5979 -0.2739
# 6 5.2805 14.6854 2.1847 -9.0037 -0.2739 27.0503
#
#
#
# Elastic Compliance Matrix: (Units=1/GPa)
#
#
# Indices 1 2 3 4 5 6 
#
# 1 0.046506 0.001085 -0.026036 0.016127 0.010329 -0.002092
# 2 0.001085 0.018956 -0.003618 0.001283 0.012362 -0.009659
# 3 -0.026036 -0.003618 0.055157 -0.020856 0.022733 -0.004120
# 4 0.016127 0.001283 -0.020856 0.050530 -0.009010 0.014568
# 5 0.010329 0.012362 0.022733 -0.009010 0.072683 -0.012827
# 6 -0.002092 -0.009659 -0.004120 0.014568 -0.012827 0.047672
#
#
# Mechanical properties :
#
#
# Convention : Reuss Voigt Hill
#
# Bulk Modulus (GPa) = 15.75260 31.18986 23.47123
# Shear Modulus (GPa) = 13.52072 22.53368 18.02720
#
# Velocity S-wave (km/s) = 2.57157 3.31982 2.96936
# Velocity P-wave (km/s) = 4.06471 5.47265 4.82036
#
# Compressibility (1/GPa) = 0.06348159
#
# Stress axis : x y z
#
# Youngs Moduli (GPa) = 21.50250 52.75270 18.13008
#
# Poissons Ratio (x) = -0.05722 0.47203
# Poissons Ratio (y) = -0.02332 0.06559
# Poissons Ratio (z) = 0.55984 0.19085
#
# Static dielectric constant tensor:
#      x y z
#    x 3.479870 0.226610 -0.093080 
#    y 0.226610 3.666150 -0.050380 
#    z -0.093080 -0.050380 3.402240 
# 
# 
# High freq. dielectric constant tensor:
#      x y z
#    x 1.794320 0.014610 -0.010470 
#    y 0.014610 1.801600 -0.005660 
#    z -0.010470 -0.005660 1.785690 
# 
# From -- ./inp_files/227222.got.cif
#   From: 2010.06.25/outbox.cif.g09.slc.cpg/sg2_114_cif.got.tgz:227222.got - 2010.06.27 13:26:56.
