data_PCOD8022845
_publ_section_title
;
Structure prediction by ZEFSAII (Michael W. Deem and Ramdas Pophale) SiO2 
 PCOD8022845
Probable space group: P -1
;
_chemical_formula_sum "Si O2"
_cell_formula_units_Z 16
_cell_length_a 14.620274
_cell_length_b 9.440440
_cell_length_c 11.753167
_cell_angle_alpha 74.150504
_cell_angle_beta 150.488263
_cell_angle_gamma 94.878177
_cell_volume 727.745329
_symmetry_space_group_name_H-M "P -1"
_symmetry_group_IT_number 2
_symmetry_cell_setting 'triclinic'
loop_
_space_group_symop_operation_xyz
x,y,z
-x,-y,-z
loop_
_atom_site_type_symbol
_atom_site_label
_atom_site_fract_x
_atom_site_fract_y
_atom_site_fract_z
Si Si1 0.946532 0.140527 0.821829
Si Si2 0.742292 0.174309 0.197027
Si Si3 0.503722 0.342510 0.289049
Si Si4 0.788330 0.488980 0.248654
Si Si5 0.995500 0.026515 0.299576
Si Si6 0.804321 0.653899 0.864681
Si Si7 0.080712 0.323841 0.252138
Si Si8 0.355934 0.402402 0.694054
O O1 0.710446 0.203797 0.532371
O O2 0.047241 0.080548 0.822281
O O3 0.032570 0.276485 0.922103
O O4 0.000000 0.000000 0.000000
O O5 0.818057 0.323867 0.256633
O O6 0.819883 0.075425 0.188958
O O7 0.508542 0.233371 0.923543
O O8 0.804819 0.065157 0.398244
O O9 0.398257 0.300546 0.295125
O O10 0.556779 0.502900 0.323432
O O11 0.348823 0.369479 0.009546
O O12 0.686237 0.494286 0.259749
O O13 0.000000 0.500000 0.500000
O O14 0.016508 0.174679 0.227534
O O15 0.765017 0.710143 0.678766
O O16 0.886714 0.467565 0.987407
O O17 0.167408 0.366809 0.452477
#
# Coordination Sequence:
#
# PCOD8022845 Si02
#       8
#     2   2   2   2   2   2   2   2
#     4  12  25  47  70  94 142 185 220 286 337 396
#     4  10  23  39  65  97 136 175 217 276 346 401
#     4  11  24  42  71 101 133 177 233 275 330 410
#     4  11  22  40  72 105 134 176 226 277 337 409
#     4  11  23  43  63  96 140 173 217 277 345 397
#     4  11  25  46  69  99 130 181 235 274 333 398
#     4  11  23  43  68  96 135 175 226 282 331 397
#     4  11  21  41  68 101 133 172 226 281 333 401
#
# _framework density 21.985711999999999
#
# number of rings (size 3 to 8) (size 9 to 14) (size 15 to 20)
#    0.000    1.000    2.500    6.000    1.750    2.500 
#    2.250    0.000    0.000    0.000    0.000    0.000 
#    0.000    0.000    0.000    0.000    0.000    0.000 
#
# Total GULP energy -198344.101492 kJ/mol
# GULP energy per Si atom -12396.506343 kJ/mol
# Density = 2.193567 g / cm^3
# Si number density = 21.985712 Si / 1000 Ang^3
#
#
#
# Elastic Constant Matrix: (Units=GPa)
#
#
# Indices 1 2 3 4 5 6 
#
# 1 106.2856 24.3108 15.3150 -6.1307 -10.2604 -16.2006
# 2 24.3108 71.4605 21.3637 -13.7073 -3.8462 -6.5106
# 3 15.3150 21.3637 91.5775 -14.6859 1.4830 -7.1485
# 4 -6.1307 -13.7073 -14.6859 33.5485 2.5041 -5.7876
# 5 -10.2604 -3.8462 1.4830 2.5041 29.5107 3.3141
# 6 -16.2006 -6.5106 -7.1485 -5.7876 3.3141 37.0762
#
#
#
# Elastic Compliance Matrix: (Units=1/GPa)
#
#
# Indices 1 2 3 4 5 6 
#
# 1 0.011142 -0.002827 -0.000765 0.001033 0.002994 0.004118
# 2 -0.002827 0.016998 -0.002427 0.005683 0.000635 0.002112
# 3 -0.000765 -0.002427 0.012654 0.005007 -0.001939 0.002634
# 4 0.001033 0.005683 0.005007 0.036186 -0.003160 0.008346
# 5 0.002994 0.000635 -0.001939 -0.003160 0.035671 -0.002636
# 6 0.004118 0.002112 0.002634 0.008346 -0.002636 0.031188
#
#
# Mechanical properties :
#
#
# Convention : Reuss Voigt Hill
#
# Bulk Modulus (GPa) = 34.77607 43.47808 39.12707
# Shear Modulus (GPa) = 30.21856 33.91602 32.06729
#
# Velocity S-wave (km/s) = 3.71140 3.93191 3.82324
# Velocity P-wave (km/s) = 5.84961 6.35859 6.10940
#
# Compressibility (1/GPa) = 0.02875541
#
# Stress axis : x y z
#
# Youngs Moduli (GPa) = 89.75192 58.83146 79.02804
#
# Poissons Ratio (x) = 0.16633 0.06047
# Poissons Ratio (y) = 0.25375 0.19177
# Poissons Ratio (z) = 0.06867 0.14276
#
# Static dielectric constant tensor:
#      x y z
#    x 4.181420 -0.175470 -0.200950 
#    y -0.175470 3.834940 -0.166160 
#    z -0.200950 -0.166160 4.054370 
# 
# 
# High freq. dielectric constant tensor:
#      x y z
#    x 1.870680 -0.007310 -0.012130 
#    y -0.007310 1.854390 -0.010710 
#    z -0.012130 -0.010710 1.864610 
# 
# From -- ./inp_files/447273.got.cif
#   From: 2010.06.25/outbox.cif.g09.slc.cpg/sg2_224_cif.got.tgz:447273.got - 2010.06.27 13:26:56.
