data_PCOD8022320
_publ_section_title
;
Structure prediction by ZEFSAII (Michael W. Deem and Ramdas Pophale) SiO2 
 PCOD8022320
Probable space group: P -1
;
_chemical_formula_sum "Si O2"
_cell_formula_units_Z 14
_cell_length_a 23.192559
_cell_length_b 5.119346
_cell_length_c 14.333715
_cell_angle_alpha 82.619789
_cell_angle_beta 19.259199
_cell_angle_gamma 75.202661
_cell_volume 507.734600
_symmetry_space_group_name_H-M "P -1"
_symmetry_group_IT_number 2
_symmetry_cell_setting 'triclinic'
loop_
_space_group_symop_operation_xyz
x,y,z
-x,-y,-z
loop_
_atom_site_type_symbol
_atom_site_label
_atom_site_fract_x
_atom_site_fract_y
_atom_site_fract_z
Si Si1 0.973896 0.831335 0.239987
Si Si2 0.337471 0.441430 0.598959
Si Si3 0.646173 0.353324 0.640080
Si Si4 0.826031 0.414498 0.749930
Si Si5 0.090502 0.103204 0.212475
Si Si6 0.335726 0.313029 0.221914
Si Si7 0.431761 0.218819 0.736796
O O1 0.872475 0.695967 0.476084
O O2 0.072331 0.003485 0.140744
O O3 0.806082 0.024880 0.415562
O O4 0.124707 0.582684 0.957962
O O5 0.331483 0.510213 0.496034
O O6 0.471347 0.560677 0.448784
O O7 0.411497 0.099055 0.507585
O O8 0.693541 0.497288 0.650874
O O9 0.419526 0.413376 0.996998
O O10 0.818563 0.161692 0.840324
O O11 0.000000 0.500000 0.500000
O O12 0.633050 0.702289 0.058530
O O13 0.873266 0.302126 0.574174
O O14 0.237127 0.265649 0.974182
O O15 0.500000 0.000000 0.000000
#
# Coordination Sequence:
#
# PCOD8022320 Si02
#       7
#     2   2   2   2   2   2   2
#     4  11  26  45  72 110 145 197 238 306 363 442
#     4  12  28  46  76 104 154 197 245 290 364 448
#     4  10  24  47  70 106 140 197 242 306 361 435
#     4   9  20  42  69 101 140 188 242 300 358 422
#     4  10  22  45  71 108 146 187 248 303 365 428
#     4   9  22  44  68 103 139 181 247 301 366 410
#     4  11  25  47  70 108 141 202 240 298 361 435
#
# _framework density 27.573463
#
# number of rings (size 3 to 8) (size 9 to 14) (size 15 to 20)
#    0.000    1.714    1.429    0.429    6.000   10.857 
#    0.000    0.000    0.000    0.000    0.000    0.000 
#    0.000    0.000    0.000    0.000    0.000    0.000 
#
# Total GULP energy -173440.613458 kJ/mol
# GULP energy per Si atom -12388.615247 kJ/mol
# Density = 2.751070 g / cm^3
# Si number density = 27.573463 Si / 1000 Ang^3
#
#
#
# Elastic Constant Matrix: (Units=GPa)
#
#
# Indices 1 2 3 4 5 6 
#
# 1 81.6202 -14.1845 16.1552 5.1051 17.9838 6.0622
# 2 -14.1845 74.2924 24.0312 19.3672 5.2877 19.3692
# 3 16.1552 24.0312 196.3426 47.1783 3.2889 13.5002
# 4 5.1051 19.3672 47.1783 53.3955 9.7958 0.2405
# 5 17.9838 5.2877 3.2889 9.7958 31.1224 2.5235
# 6 6.0622 19.3692 13.5002 0.2405 2.5235 36.0090
#
#
#
# Elastic Compliance Matrix: (Units=1/GPa)
#
#
# Indices 1 2 3 4 5 6 
#
# 1 0.015919 0.005450 -0.001390 -0.000515 -0.009456 -0.004424
# 2 0.005450 0.019429 -0.000463 -0.006471 -0.003480 -0.010908
# 3 -0.001390 -0.000463 0.006860 -0.006168 0.002278 -0.002207
# 4 -0.000515 -0.006471 -0.006168 0.027873 -0.007226 0.006201
# 5 -0.009456 -0.003480 0.002278 -0.007226 0.040234 -0.000161
# 6 -0.004424 -0.010908 -0.002207 0.006201 -0.000161 0.035180
#
#
# Mechanical properties :
#
#
# Convention : Reuss Voigt Hill
#
# Bulk Modulus (GPa) = 20.24270 44.91766 32.58018
# Shear Modulus (GPa) = 32.30637 45.85562 39.08099
#
# Velocity S-wave (km/s) = 3.42665 4.08246 3.76884
# Velocity P-wave (km/s) = 4.79721 6.20866 5.54800
#
# Compressibility (1/GPa) = 0.04940051
#
# Stress axis : x y z
#
# Youngs Moduli (GPa) = 62.81953 51.46888 145.77353
#
# Poissons Ratio (x) = -0.28050 0.20268
# Poissons Ratio (y) = -0.34236 0.06751
# Poissons Ratio (z) = 0.08734 0.02384
#
# Static dielectric constant tensor:
#      x y z
#    x 4.493540 0.263350 0.267940 
#    y 0.263350 5.303930 0.038910 
#    z 0.267940 0.038910 5.819400 
# 
# 
# High freq. dielectric constant tensor:
#      x y z
#    x 2.108520 0.005330 -0.002330 
#    y 0.005330 2.117450 0.011400 
#    z -0.002330 0.011400 2.151490 
# 
# From -- ./inp_files/542199.got.cif
#   From: 2010.06.25/outbox.cif.g09.slc.cpg/sg2_272_cif.got.tgz:542199.got - 2010.06.27 13:26:56.
