data_PCOD8022049
_publ_section_title
;
Structure prediction by ZEFSAII (Michael W. Deem and Ramdas Pophale) SiO2 
 PCOD8022049
Probable space group: P -1
;
_chemical_formula_sum "Si O2"
_cell_formula_units_Z 16
_cell_length_a 14.578944
_cell_length_b 8.728103
_cell_length_c 9.085264
_cell_angle_alpha 71.031914
_cell_angle_beta 107.278351
_cell_angle_gamma 55.326485
_cell_volume 705.712094
_symmetry_space_group_name_H-M "P -1"
_symmetry_group_IT_number 2
_symmetry_cell_setting 'triclinic'
loop_
_space_group_symop_operation_xyz
x,y,z
-x,-y,-z
loop_
_atom_site_type_symbol
_atom_site_label
_atom_site_fract_x
_atom_site_fract_y
_atom_site_fract_z
Si Si1 0.039589 0.070094 0.360588
Si Si2 0.895848 0.734971 0.278752
Si Si3 0.066627 0.404279 0.217762
Si Si4 0.789044 0.216591 0.093296
Si Si5 0.354999 0.165748 0.796449
Si Si6 0.608064 0.981101 0.472135
Si Si7 0.688294 0.424505 0.297209
Si Si8 0.473547 0.487976 0.321212
O O1 0.040215 0.262363 0.328161
O O2 0.921729 0.176339 0.144897
O O3 0.201211 0.821398 0.477693
O O4 0.000000 0.000000 0.500000
O O5 0.745415 0.831785 0.164069
O O6 0.000000 0.500000 0.500000
O O7 0.978921 0.647079 0.191883
O O8 0.860644 0.956608 0.252786
O O9 0.231182 0.245367 0.327536
O O10 0.000000 0.500000 0.000000
O O11 0.698180 0.391815 0.135496
O O12 0.691917 0.329595 0.864001
O O13 0.393113 0.053928 0.689263
O O14 0.279623 0.433739 0.678523
O O15 0.500000 0.000000 0.000000
O O16 0.500000 0.000000 0.500000
O O17 0.562120 0.220152 0.406501
O O18 0.530869 0.565645 0.225982
O O19 0.500000 0.500000 0.500000
#
# Coordination Sequence:
#
# PCOD8022049 Si02
#       8
#     2   2   2   2   2   2   2   2
#     4  10  22  44  73 103 137 186 241 296 361 432
#     4  12  23  45  72 109 144 186 249 305 370 433
#     4  12  28  47  75 107 151 196 241 311 373 441
#     4  11  24  41  73 104 137 181 237 302 355 430
#     4  12  25  42  75 106 141 188 252 302 360 436
#     4  12  28  49  70 101 150 195 241 301 377 436
#     4  11  21  44  67 101 138 178 238 297 359 420
#     4  12  26  45  68  96 143 188 240 285 358 441
#
# _framework density 22.672134
#
# number of rings (size 3 to 8) (size 9 to 14) (size 15 to 20)
#    0.000    0.500    2.500    7.125    5.250    0.000 
#    0.000    1.250    0.000    0.000    0.000    0.000 
#    0.000    0.000    0.000    0.000    0.000    0.000 
#
# Total GULP energy -198328.166744 kJ/mol
# GULP energy per Si atom -12395.510421 kJ/mol
# Density = 2.262053 g / cm^3
# Si number density = 22.672134 Si / 1000 Ang^3
#
#
#
# Elastic Constant Matrix: (Units=GPa)
#
#
# Indices 1 2 3 4 5 6 
#
# 1 111.2817 27.6380 14.4918 -3.3866 23.4031 -5.5543
# 2 27.6380 148.5213 38.8324 11.2963 -0.6768 9.6622
# 3 14.4918 38.8324 138.1809 15.5663 32.1217 -19.7553
# 4 -3.3866 11.2963 15.5663 33.0933 -3.6923 5.7793
# 5 23.4031 -0.6768 32.1217 -3.6923 43.6704 -3.3376
# 6 -5.5543 9.6622 -19.7553 5.7793 -3.3376 34.2515
#
#
#
# Elastic Compliance Matrix: (Units=1/GPa)
#
#
# Indices 1 2 3 4 5 6 
#
# 1 0.011041 -0.002689 0.001602 0.000034 -0.006921 0.002793
# 2 -0.002689 0.008512 -0.003627 -0.000255 0.003875 -0.004508
# 3 0.001602 -0.003627 0.012457 -0.007092 -0.010013 0.008688
# 4 0.000034 -0.000255 -0.007092 0.036121 0.007532 -0.009374
# 5 -0.006921 0.003875 -0.010013 0.007532 0.034216 -0.005927
# 6 0.002793 -0.004508 0.008688 -0.009374 -0.005927 0.036936
#
#
# Mechanical properties :
#
#
# Convention : Reuss Voigt Hill
#
# Bulk Modulus (GPa) = 44.28203 62.21204 53.24703
# Shear Modulus (GPa) = 32.00222 43.33783 37.67003
#
# Velocity S-wave (km/s) = 3.76110 4.37682 4.08059
# Velocity P-wave (km/s) = 6.19960 7.28296 6.76301
#
# Compressibility (1/GPa) = 0.02258253
#
# Stress axis : x y z
#
# Youngs Moduli (GPa) = 90.56762 117.48022 80.27817
#
# Poissons Ratio (x) = 0.31595 -0.12861
# Poissons Ratio (y) = 0.24357 0.29113
# Poissons Ratio (z) = -0.14510 0.42604
#
# Static dielectric constant tensor:
#      x y z
#    x 4.150410 -0.148010 0.525120 
#    y -0.148010 4.454130 -0.182530 
#    z 0.525120 -0.182530 4.094590 
# 
# 
# High freq. dielectric constant tensor:
#      x y z
#    x 1.900390 0.009080 0.025650 
#    y 0.009080 1.906050 -0.009840 
#    z 0.025650 -0.009840 1.893660 
# 
# From -- ./inp_files/298290.got.cif
#   From: 2010.06.25/outbox.cif.g09.slc.cpg/sg2_150_cif.got.tgz:298290.got - 2010.06.27 13:26:56.
