data_PCOD8022168
_publ_section_title
;
Structure prediction by ZEFSAII (Michael W. Deem and Ramdas Pophale) SiO2 
 PCOD8022168
Probable space group: P -1
;
_chemical_formula_sum "Si O2"
_cell_formula_units_Z 16
_cell_length_a 16.895521
_cell_length_b 23.474076
_cell_length_c 19.468783
_cell_angle_alpha 17.011836
_cell_angle_beta 29.938381
_cell_angle_gamma 20.537212
_cell_volume 760.431911
_symmetry_space_group_name_H-M "P -1"
_symmetry_group_IT_number 2
_symmetry_cell_setting 'triclinic'
loop_
_space_group_symop_operation_xyz
x,y,z
-x,-y,-z
loop_
_atom_site_type_symbol
_atom_site_label
_atom_site_fract_x
_atom_site_fract_y
_atom_site_fract_z
Si Si1 0.481392 0.364220 0.371476
Si Si2 0.959791 0.715350 0.330557
Si Si3 0.262565 0.694419 0.414173
Si Si4 0.407067 0.711651 0.141799
Si Si5 0.779813 0.240967 0.167009
Si Si6 0.913838 0.719262 0.626413
Si Si7 0.248064 0.302760 0.360613
Si Si8 0.239142 0.277888 0.118777
O O1 0.204066 0.605478 0.285333
O O2 0.608001 0.383224 0.197252
O O3 0.599367 0.046487 0.653314
O O4 0.518752 0.428272 0.343918
O O5 0.000000 0.500000 0.500000
O O6 0.855950 0.728647 0.463850
O O7 0.770268 0.027055 0.079236
O O8 0.500000 0.500000 0.500000
O O9 0.184248 0.537728 0.648150
O O10 0.267060 0.771821 0.244472
O O11 0.056977 0.994241 0.265542
O O12 0.615692 0.657505 0.075788
O O13 0.757646 0.064534 0.339302
O O14 0.733938 0.483607 0.880796
O O15 0.913850 0.587117 0.711254
O O16 0.812026 0.686865 0.802648
O O17 0.500000 0.000000 0.500000
O O18 0.000000 0.500000 0.000000
#
# Coordination Sequence:
#
# PCOD8022168 Si02
#       8
#     2   2   2   2   2   2   2   2
#     4  11  24  43  67  98 132 172 221 264 332 392
#     4  12  25  43  67  98 136 173 215 275 332 387
#     4  10  22  45  67  90 130 170 213 269 324 381
#     4  12  24  43  68  97 132 170 220 273 322 391
#     4   9  23  42  64  90 132 166 215 256 324 379
#     4   9  22  42  62  92 129 164 218 257 321 383
#     4  12  24  42  67  96 130 171 217 264 322 392
#     4  11  23  43  68  97 134 174 219 274 325 385
#
# _framework density 21.040672000000001
#
# number of rings (size 3 to 8) (size 9 to 14) (size 15 to 20)
#    0.750    0.500    1.250    4.875    1.750    2.000 
#    2.250    0.625    0.000    0.000    0.000    0.000 
#    0.000    0.000    0.000    0.000    0.000    0.000 
#
# Total GULP energy -198303.929054 kJ/mol
# GULP energy per Si atom -12393.995566 kJ/mol
# Density = 2.099278 g / cm^3
# Si number density = 21.040672 Si / 1000 Ang^3
#
#
#
# Elastic Constant Matrix: (Units=GPa)
#
#
# Indices 1 2 3 4 5 6 
#
# 1 85.0245 40.1513 16.4348 -7.3090 -1.7229 6.0154
# 2 40.1513 150.3066 22.1584 14.9703 8.4152 -0.0580
# 3 16.4348 22.1584 49.8074 5.5686 -0.6786 6.3967
# 4 -7.3090 14.9703 5.5686 26.0243 -3.6610 8.1059
# 5 -1.7229 8.4152 -0.6786 -3.6610 29.3815 0.7899
# 6 6.0154 -0.0580 6.3967 8.1059 0.7899 41.8016
#
#
#
# Elastic Compliance Matrix: (Units=1/GPa)
#
#
# Indices 1 2 3 4 5 6 
#
# 1 0.015946 -0.004891 -0.003650 0.009726 0.003563 -0.003696
# 2 -0.004891 0.009243 -0.002032 -0.007623 -0.004000 0.002581
# 3 -0.003650 -0.002032 0.022925 -0.004006 0.000458 -0.002217
# 4 0.009726 -0.007623 -0.004006 0.051100 0.009321 -0.010882
# 5 0.003563 -0.004000 0.000458 0.009321 0.036645 -0.003088
# 6 -0.003696 0.002581 -0.002217 -0.010882 -0.003088 0.026966
#
#
# Mechanical properties :
#
#
# Convention : Reuss Voigt Hill
#
# Bulk Modulus (GPa) = 37.08085 49.18085 43.13085
# Shear Modulus (GPa) = 25.91193 33.20107 29.55650
#
# Velocity S-wave (km/s) = 3.51310 3.97665 3.75204
# Velocity P-wave (km/s) = 5.84102 6.67157 6.27007
#
# Compressibility (1/GPa) = 0.02696810
#
# Stress axis : x y z
#
# Youngs Moduli (GPa) = 62.71006 108.18470 43.62121
#
# Poissons Ratio (x) = 0.52916 0.15921
# Poissons Ratio (y) = 0.30673 0.08864
# Poissons Ratio (z) = 0.22888 0.21984
#
# Static dielectric constant tensor:
#      x y z
#    x 4.307750 0.158360 -0.984600 
#    y 0.158360 3.499540 0.316750 
#    z -0.984600 0.316750 4.529320 
# 
# 
# High freq. dielectric constant tensor:
#      x y z
#    x 1.817240 -0.001550 -0.012670 
#    y -0.001550 1.845390 0.013140 
#    z -0.012670 0.013140 1.815740 
# 
# From -- ./inp_files/574298.got.cif
#   From: 2010.06.25/outbox.cif.g09.slc.cpg/sg2_288_cif.got.tgz:574298.got - 2010.06.27 13:26:56.
