data_PCOD8022753
_publ_section_title
;
Structure prediction by ZEFSAII (Michael W. Deem and Ramdas Pophale) SiO2 
 PCOD8022753
Probable space group: P -1
;
_chemical_formula_sum "Si O2"
_cell_formula_units_Z 16
_cell_length_a 15.702362
_cell_length_b 9.216282
_cell_length_c 9.053709
_cell_angle_alpha 107.989404
_cell_angle_beta 78.270280
_cell_angle_gamma 46.300058
_cell_volume 716.703106
_symmetry_space_group_name_H-M "P -1"
_symmetry_group_IT_number 2
_symmetry_cell_setting 'triclinic'
loop_
_space_group_symop_operation_xyz
x,y,z
-x,-y,-z
loop_
_atom_site_type_symbol
_atom_site_label
_atom_site_fract_x
_atom_site_fract_y
_atom_site_fract_z
Si Si1 0.156785 0.753811 0.546487
Si Si2 0.825321 0.598369 0.136599
Si Si3 0.271820 0.871287 0.077435
Si Si4 0.254362 0.611379 0.793252
Si Si5 0.546820 0.540899 0.715108
Si Si6 0.932841 0.597522 0.822662
Si Si7 0.068851 0.129983 0.485723
Si Si8 0.581718 0.184106 0.450058
O O1 0.157537 0.764618 0.726794
O O2 0.324338 0.513925 0.342148
O O3 0.069387 0.724956 0.523765
O O4 0.070321 0.023015 0.597332
O O5 0.790561 0.470280 0.121256
O O6 0.978037 0.412048 0.108999
O O7 0.698732 0.884731 0.342593
O O8 0.838395 0.616990 0.964686
O O9 0.175366 0.157038 0.167930
O O10 0.226001 0.888371 0.265912
O O11 0.229680 0.795616 0.957406
O O12 0.447830 0.663658 0.937789
O O13 0.423971 0.346480 0.607521
O O14 0.628506 0.265874 0.555706
O O15 0.424300 0.755709 0.700373
O O16 0.043937 0.340536 0.602787
#
# Coordination Sequence:
#
# PCOD8022753 Si02
#       8
#     2   2   2   2   2   2   2   2
#     4  10  23  41  63  89 128 161 203 254 309 359
#     4  11  22  37  64  96 120 159 206 253 302 366
#     4  11  23  42  65  94 122 163 204 257 301 367
#     4  10  23  38  67  94 121 155 210 253 305 359
#     4   9  18  37  65  91 121 160 203 248 308 362
#     4  11  25  38  61  90 127 162 203 252 307 361
#     4  11  25  41  61  87 130 166 202 251 309 363
#     4   9  17  36  62  93 125 153 195 261 306 353
#
# _framework density 22.324448
#
# number of rings (size 3 to 8) (size 9 to 14) (size 15 to 20)
#    0.000    1.750    1.250    3.000    7.000    1.500 
#    0.000    0.625    2.750    0.000    0.000    0.000 
#    0.000    0.000    0.000    0.000    0.000    0.000 
#
# Total GULP energy -198435.953584 kJ/mol
# GULP energy per Si atom -12402.247099 kJ/mol
# Density = 2.227364 g / cm^3
# Si number density = 22.324448 Si / 1000 Ang^3
#
#
#
# Elastic Constant Matrix: (Units=GPa)
#
#
# Indices 1 2 3 4 5 6 
#
# 1 71.2270 -7.8827 21.7244 -0.7221 -14.7116 14.8156
# 2 -7.8827 53.3680 11.9328 2.9442 1.8927 19.8762
# 3 21.7244 11.9328 100.5592 2.7486 -9.7410 12.6559
# 4 -0.7221 2.9442 2.7486 32.9445 3.0345 -3.6237
# 5 -14.7116 1.8927 -9.7410 3.0345 27.8896 -2.2263
# 6 14.8156 19.8762 12.6559 -3.6237 -2.2263 30.0293
#
#
#
# Elastic Compliance Matrix: (Units=1/GPa)
#
#
# Indices 1 2 3 4 5 6 
#
# 1 0.020632 0.008951 -0.002799 -0.002494 0.008404 -0.014602
# 2 0.008951 0.029613 -0.002289 -0.004907 0.000563 -0.023603
# 3 -0.002799 -0.002289 0.011341 -0.001247 0.002629 -0.001839
# 4 -0.002494 -0.004907 -0.001247 0.032175 -0.004235 0.008573
# 5 0.008404 0.000563 0.002629 -0.004235 0.041384 -0.003069
# 6 -0.014602 -0.023603 -0.001839 0.008573 -0.003069 0.057710
#
#
# Mechanical properties :
#
#
# Convention : Reuss Voigt Hill
#
# Bulk Modulus (GPa) = 14.42743 30.74479 22.58611
# Shear Modulus (GPa) = 24.01156 31.46464 27.73810
#
# Velocity S-wave (km/s) = 3.28315 3.75830 3.52873
# Velocity P-wave (km/s) = 4.56604 5.71269 5.17125
#
# Compressibility (1/GPa) = 0.06931242
#
# Stress axis : x y z
#
# Youngs Moduli (GPa) = 48.46864 33.76887 88.17588
#
# Poissons Ratio (x) = -0.30228 0.24684
# Poissons Ratio (y) = -0.43386 0.20180
# Poissons Ratio (z) = 0.13569 0.07728
#
# Static dielectric constant tensor:
#      x y z
#    x 3.964600 0.019250 -0.251610 
#    y 0.019250 3.837560 -0.123210 
#    z -0.251610 -0.123210 4.007670 
# 
# 
# High freq. dielectric constant tensor:
#      x y z
#    x 1.871070 0.001680 -0.019410 
#    y 0.001680 1.876180 -0.003790 
#    z -0.019410 -0.003790 1.876890 
# 
# From -- ./inp_files/299172.got.cif
#   From: 2010.06.25/outbox.cif.g09.slc.cpg/sg2_150_cif.got.tgz:299172.got - 2010.06.27 13:26:56.
