data_PCOD8022384
_publ_section_title
;
Structure prediction by ZEFSAII (Michael W. Deem and Ramdas Pophale) SiO2 
 PCOD8022384
Probable space group: P -1
;
_chemical_formula_sum "Si O2"
_cell_formula_units_Z 12
_cell_length_a 24.217740
_cell_length_b 27.000601
_cell_length_c 9.309060
_cell_angle_alpha 150.722415
_cell_angle_beta 152.313073
_cell_angle_gamma 9.976211
_cell_volume 489.976312
_symmetry_space_group_name_H-M "P -1"
_symmetry_group_IT_number 2
_symmetry_cell_setting 'triclinic'
loop_
_space_group_symop_operation_xyz
x,y,z
-x,-y,-z
loop_
_atom_site_type_symbol
_atom_site_label
_atom_site_fract_x
_atom_site_fract_y
_atom_site_fract_z
Si Si1 0.276224 0.490469 0.627370
Si Si2 0.164545 0.961692 0.985116
Si Si3 0.607300 0.927601 0.225577
Si Si4 0.817869 0.864014 0.030030
Si Si5 0.543442 0.769825 0.158597
Si Si6 0.136182 0.960384 0.342981
O O1 0.467571 0.333321 0.515911
O O2 0.013683 0.608998 0.351524
O O3 0.540534 0.275363 0.819214
O O4 0.086208 0.747228 0.830639
O O5 0.335712 0.836542 0.905844
O O6 0.944058 0.034570 0.680260
O O7 0.449289 0.155784 0.506141
O O8 0.500000 0.000000 0.000000
O O9 0.479072 0.933436 0.034741
O O10 0.014496 0.805831 0.399169
O O11 0.079488 0.563638 0.854968
O O12 0.647798 0.026733 0.899064
O O13 0.000000 0.000000 0.000000
#
# Coordination Sequence:
#
# PCOD8022384 Si02
#       6
#     2   2   2   2   2   2
#     4  10  23  43  71 108 142 183 244 303 356 415
#     4  10  22  45  74 100 144 196 232 297 358 429
#     4  11  27  48  81 107 146 192 247 303 359 438
#     4  12  28  47  74 109 149 196 233 302 372 426
#     4  11  26  50  71 109 151 187 242 296 373 435
#     4  10  25  45  75 107 150 186 249 299 357 429
#
# _framework density 24.49098
#
# number of rings (size 3 to 8) (size 9 to 14) (size 15 to 20)
#    0.000    1.333    0.000    3.500   11.667    7.333 
#    0.000    0.000    0.000    0.000    0.000    0.000 
#    0.000    0.000    0.000    0.000    0.000    0.000 
#
# Total GULP energy -148713.863788 kJ/mol
# GULP energy per Si atom -12392.821982 kJ/mol
# Density = 2.443524 g / cm^3
# Si number density = 24.490980 Si / 1000 Ang^3
#
#
#
# Elastic Constant Matrix: (Units=GPa)
#
#
# Indices 1 2 3 4 5 6 
#
# 1 189.6257 55.1350 50.4852 -17.9552 21.9801 -23.9069
# 2 55.1350 124.5562 28.5501 -5.3520 -7.2572 9.8684
# 3 50.4852 28.5501 127.3960 -0.1577 0.4072 1.2116
# 4 -17.9552 -5.3520 -0.1577 15.1442 -5.0268 10.3115
# 5 21.9801 -7.2572 0.4072 -5.0268 43.9937 -9.4049
# 6 -23.9069 9.8684 1.2116 10.3115 -9.4049 53.2675
#
#
#
# Elastic Compliance Matrix: (Units=1/GPa)
#
#
# Indices 1 2 3 4 5 6 
#
# 1 0.008113 -0.003179 -0.002510 0.005574 -0.003359 0.002615
# 2 -0.003179 0.010239 -0.001008 0.003114 0.002918 -0.003389
# 3 -0.002510 -0.001008 0.009070 -0.002688 0.000585 -0.000522
# 4 0.005574 0.003114 -0.002688 0.084444 0.004503 -0.013566
# 5 -0.003359 0.002918 0.000585 0.004503 0.025744 0.001612
# 6 0.002615 -0.003389 -0.000522 -0.013566 0.001612 0.023497
#
#
# Mechanical properties :
#
#
# Convention : Reuss Voigt Hill
#
# Bulk Modulus (GPa) = 71.28720 78.87982 75.08351
# Shear Modulus (GPa) = 27.90533 42.97493 35.44013
#
# Velocity S-wave (km/s) = 3.37918 4.19349 3.80816
# Velocity P-wave (km/s) = 6.66302 7.46490 7.07533
#
# Compressibility (1/GPa) = 0.01402776
#
# Stress axis : x y z
#
# Youngs Moduli (GPa) = 123.25995 97.66363 110.25616
#
# Poissons Ratio (x) = 0.31051 0.27672
# Poissons Ratio (y) = 0.39189 0.11114
# Poissons Ratio (z) = 0.30935 0.09844
#
# Static dielectric constant tensor:
#      x y z
#    x 5.454260 -0.841320 0.597010 
#    y -0.841320 4.584690 -0.128400 
#    z 0.597010 -0.128400 4.528870 
# 
# 
# High freq. dielectric constant tensor:
#      x y z
#    x 2.000040 -0.021050 0.017950 
#    y -0.021050 1.972710 0.004060 
#    z 0.017950 0.004060 1.964410 
# 
# From -- ./inp_files/355665.got.cif
#   From: 2010.06.25/outbox.cif.g09.slc.cpg/sg2_178_cif.got.tgz:355665.got - 2010.06.27 13:26:56.
