data_PCOD8022995
_publ_section_title
;
Structure prediction by ZEFSAII (Michael W. Deem and Ramdas Pophale) SiO2 
 PCOD8022995
Probable space group: P -1
;
_chemical_formula_sum "Si O2"
_cell_formula_units_Z 14
_cell_length_a 20.892142
_cell_length_b 8.977704
_cell_length_c 11.324129
_cell_angle_alpha 39.522463
_cell_angle_beta 29.264019
_cell_angle_gamma 39.982904
_cell_volume 630.320488
_symmetry_space_group_name_H-M "P -1"
_symmetry_group_IT_number 2
_symmetry_cell_setting 'triclinic'
loop_
_space_group_symop_operation_xyz
x,y,z
-x,-y,-z
loop_
_atom_site_type_symbol
_atom_site_label
_atom_site_fract_x
_atom_site_fract_y
_atom_site_fract_z
Si Si1 0.234968 0.172788 0.506393
Si Si2 0.695652 0.486712 0.989048
Si Si3 0.512188 0.766992 0.294565
Si Si4 0.003594 0.120310 0.293962
Si Si5 0.199795 0.344712 0.720866
Si Si6 0.011876 0.764715 0.288870
Si Si7 0.539276 0.760624 0.508964
O O1 0.247469 0.425056 0.275246
O O2 0.239445 0.197101 0.624717
O O3 0.090538 0.131277 0.721107
O O4 0.363797 0.951014 0.388496
O O5 0.824283 0.286799 0.970967
O O6 0.626519 0.731897 0.029474
O O7 0.580706 0.363537 0.214956
O O8 0.500000 0.500000 0.500000
O O9 0.568171 0.842712 0.280456
O O10 0.905262 0.394161 0.293535
O O11 0.000000 0.000000 0.500000
O O12 0.962572 0.954353 0.360934
O O13 0.148974 0.159804 0.000659
O O14 0.323754 0.412528 0.545262
O O15 0.000000 0.500000 0.500000
O O16 0.500000 0.000000 0.500000
#
# Coordination Sequence:
#
# PCOD8022995 Si02
#       7
#     2   2   2   2   2   2   2
#     4  11  23  45  65 100 136 175 233 279 339 404
#     4  10  23  42  66  98 134 180 224 278 344 405
#     4  10  23  40  64  94 135 176 224 277 336 404
#     4  11  25  47  70 103 140 177 232 281 348 412
#     4  11  26  44  70 103 136 183 228 285 343 411
#     4  10  23  42  72  98 134 177 230 287 340 399
#     4  11  22  43  65  94 137 177 226 276 341 399
#
# _framework density 22.210922
#
# number of rings (size 3 to 8) (size 9 to 14) (size 15 to 20)
#    0.000    1.429    1.429    3.000    6.000    5.714 
#    2.571    0.000    0.000    0.000    0.000    0.000 
#    0.000    0.000    0.000    0.000    0.000    0.000 
#
# Total GULP energy -173482.365485 kJ/mol
# GULP energy per Si atom -12391.597535 kJ/mol
# Density = 2.216037 g / cm^3
# Si number density = 22.210922 Si / 1000 Ang^3
#
#
#
# Elastic Constant Matrix: (Units=GPa)
#
#
# Indices 1 2 3 4 5 6 
#
# 1 162.4871 40.5215 71.2362 17.8344 -19.2402 -4.5275
# 2 40.5215 89.6796 25.8726 13.7959 -0.1672 6.5868
# 3 71.2362 25.8726 116.9681 11.2725 -3.1849 -2.6255
# 4 17.8344 13.7959 11.2725 38.8799 -0.7769 -3.9108
# 5 -19.2402 -0.1672 -3.1849 -0.7769 37.6765 5.1359
# 6 -4.5275 6.5868 -2.6255 -3.9108 5.1359 47.3419
#
#
#
# Elastic Compliance Matrix: (Units=1/GPa)
#
#
# Indices 1 2 3 4 5 6 
#
# 1 0.009793 -0.002688 -0.005052 -0.001946 0.004469 0.000385
# 2 -0.002688 0.013377 -0.001072 -0.003461 -0.001157 -0.002338
# 3 -0.005052 -0.001072 0.011899 -0.000741 -0.001654 0.000444
# 4 -0.001946 -0.003461 -0.000741 0.028309 -0.000854 0.002686
# 5 0.004469 -0.001157 -0.001654 -0.000854 0.029033 -0.002724
# 6 0.000385 -0.002338 0.000444 0.002686 -0.002724 0.022027
#
#
# Mechanical properties :
#
#
# Convention : Reuss Voigt Hill
#
# Bulk Modulus (GPa) = 57.32267 71.59949 64.46108
# Shear Modulus (GPa) = 36.26439 40.21329 38.23884
#
# Velocity S-wave (km/s) = 4.04509 4.25964 4.15375
# Velocity P-wave (km/s) = 6.90517 7.51657 7.21734
#
# Compressibility (1/GPa) = 0.01744510
#
# Stress axis : x y z
#
# Youngs Moduli (GPa) = 102.11477 74.75670 84.03793
#
# Poissons Ratio (x) = 0.20095 0.42453
# Poissons Ratio (y) = 0.27450 0.09010
# Poissons Ratio (z) = 0.51585 0.08015
#
# Static dielectric constant tensor:
#      x y z
#    x 3.770480 0.009880 0.087260 
#    y 0.009880 4.541600 0.591020 
#    z 0.087260 0.591020 4.591070 
# 
# 
# High freq. dielectric constant tensor:
#      x y z
#    x 1.878360 -0.000520 -0.002210 
#    y -0.000520 1.893710 0.010120 
#    z -0.002210 0.010120 1.867700 
# 
# From -- ./inp_files/255988.got.cif
#   From: 2010.06.25/outbox.cif.g09.slc.cpg/sg2_128_cif.got.tgz:255988.got - 2010.06.27 13:26:56.
