data_PCOD8022416
_publ_section_title
;
Structure prediction by ZEFSAII (Michael W. Deem and Ramdas Pophale) SiO2 
 PCOD8022416
Probable space group: P -1
;
_chemical_formula_sum "Si O2"
_cell_formula_units_Z 16
_cell_length_a 12.141374
_cell_length_b 8.550868
_cell_length_c 10.284616
_cell_angle_alpha 111.426161
_cell_angle_beta 58.694560
_cell_angle_gamma 75.474983
_cell_volume 707.017395
_symmetry_space_group_name_H-M "P -1"
_symmetry_group_IT_number 2
_symmetry_cell_setting 'triclinic'
loop_
_space_group_symop_operation_xyz
x,y,z
-x,-y,-z
loop_
_atom_site_type_symbol
_atom_site_label
_atom_site_fract_x
_atom_site_fract_y
_atom_site_fract_z
Si Si1 0.279590 0.900829 0.086715
Si Si2 0.153448 0.681307 0.227216
Si Si3 0.582990 0.865445 0.285260
Si Si4 0.597602 0.212723 0.291532
Si Si5 0.530148 0.677391 0.041833
Si Si6 0.742933 0.410822 0.385882
Si Si7 0.873386 0.451590 0.061065
Si Si8 0.013149 0.686911 0.570814
O O1 0.223533 0.815713 0.209222
O O2 0.446279 0.839424 0.024843
O O3 0.322955 0.778014 0.887614
O O4 0.150692 0.136083 0.214611
O O5 0.029650 0.766970 0.445284
O O6 0.282121 0.446173 0.115920
O O7 0.079855 0.700192 0.135576
O O8 0.477429 0.816812 0.246990
O O9 0.712345 0.654440 0.198208
O O10 0.500000 0.000000 0.500000
O O11 0.643815 0.983382 0.203473
O O12 0.676516 0.267565 0.373714
O O13 0.410454 0.361620 0.450106
O O14 0.500000 0.500000 0.000000
O O15 0.858997 0.364715 0.180550
O O16 0.842360 0.365582 0.442038
O O17 0.000000 0.500000 0.000000
O O18 0.000000 0.500000 0.500000
#
# Coordination Sequence:
#
# PCOD8022416 Si02
#       8
#     2   2   2   2   2   2   2   2
#     4  11  24  43  70  97 134 184 232 282 352 421
#     4  10  22  46  65  96 132 181 233 277 349 424
#     4  11  24  41  68 104 135 178 244 287 345 428
#     4  11  25  43  73 100 138 181 242 290 347 415
#     4   9  22  41  72  96 133 177 234 288 351 415
#     4  11  25  47  68 103 146 183 226 297 357 417
#     4  11  23  42  70  97 140 180 224 286 360 419
#     4  12  28  42  66 102 145 180 236 290 354 415
#
# _framework density 22.630277
#
# number of rings (size 3 to 8) (size 9 to 14) (size 15 to 20)
#    0.000    1.250    2.500    1.875    7.000    5.000 
#    0.000    0.000    0.000    0.000    0.000    0.000 
#    0.000    0.000    0.000    0.000    0.000    0.000 
#
# Total GULP energy -198234.413630 kJ/mol
# GULP energy per Si atom -12389.650852 kJ/mol
# Density = 2.257877 g / cm^3
# Si number density = 22.630277 Si / 1000 Ang^3
#
#
#
# Elastic Constant Matrix: (Units=GPa)
#
#
# Indices 1 2 3 4 5 6 
#
# 1 110.9009 27.9904 41.1643 7.2257 26.2137 -0.8433
# 2 27.9904 72.0334 18.7062 -2.7844 11.9159 8.3337
# 3 41.1643 18.7062 114.3917 -13.6328 22.8959 2.2195
# 4 7.2257 -2.7844 -13.6328 39.1141 5.4715 -2.5930
# 5 26.2137 11.9159 22.8959 5.4715 36.9431 1.6979
# 6 -0.8433 8.3337 2.2195 -2.5930 1.6979 32.7011
#
#
#
# Elastic Compliance Matrix: (Units=1/GPa)
#
#
# Indices 1 2 3 4 5 6 
#
# 1 0.012567 -0.003420 -0.003237 -0.002832 -0.005456 0.001474
# 2 -0.003420 0.016315 -0.000667 0.001647 -0.002485 -0.003941
# 3 -0.003237 -0.000667 0.011785 0.005442 -0.005598 0.000009
# 4 -0.002832 0.001647 0.005442 0.029100 -0.006285 0.001772
# 5 -0.005456 -0.002485 -0.005598 -0.006285 0.036211 -0.001506
# 6 0.001474 -0.003941 0.000009 0.001772 -0.001506 0.031841
#
#
# Mechanical properties :
#
#
# Convention : Reuss Voigt Hill
#
# Bulk Modulus (GPa) = 38.43428 52.56086 45.49757
# Shear Modulus (GPa) = 31.02878 35.71600 33.37239
#
# Velocity S-wave (km/s) = 3.70688 3.97702 3.84432
# Velocity P-wave (km/s) = 5.94489 6.66072 6.31296
#
# Compressibility (1/GPa) = 0.02601844
#
# Stress axis : x y z
#
# Youngs Moduli (GPa) = 79.57171 61.29183 84.85604
#
# Poissons Ratio (x) = 0.20963 0.27470
# Poissons Ratio (y) = 0.27215 0.05661
# Poissons Ratio (z) = 0.25759 0.04089
#
# Static dielectric constant tensor:
#      x y z
#    x 7.523400 2.463560 2.252860 
#    y 2.463560 7.582120 2.101240 
#    z 2.252860 2.101240 5.735030 
# 
# 
# High freq. dielectric constant tensor:
#      x y z
#    x 1.893700 -0.003440 0.013180 
#    y -0.003440 1.883560 0.001190 
#    z 0.013180 0.001190 1.898060 
# 
# From -- ./inp_files/244985.got.cif
#   From: 2010.06.25/outbox.cif.g09.slc.cpg/sg2_123_cif.got.tgz:244985.got - 2010.06.27 13:26:56.
