data_PCOD8022573
_publ_section_title
;
Structure prediction by ZEFSAII (Michael W. Deem and Ramdas Pophale) SiO2 
 PCOD8022573
Probable space group: P -1
;
_chemical_formula_sum "Si O2"
_cell_formula_units_Z 16
_cell_length_a 15.163482
_cell_length_b 13.514040
_cell_length_c 14.145150
_cell_angle_alpha 57.231178
_cell_angle_beta 39.049484
_cell_angle_gamma 27.653965
_cell_volume 733.266189
_symmetry_space_group_name_H-M "P -1"
_symmetry_group_IT_number 2
_symmetry_cell_setting 'triclinic'
loop_
_space_group_symop_operation_xyz
x,y,z
-x,-y,-z
loop_
_atom_site_type_symbol
_atom_site_label
_atom_site_fract_x
_atom_site_fract_y
_atom_site_fract_z
Si Si1 0.117323 0.561739 0.096588
Si Si2 0.230781 0.782982 0.551785
Si Si3 0.329776 0.896679 0.245919
Si Si4 0.244496 0.975651 0.578821
Si Si5 0.724552 0.875727 0.678547
Si Si6 0.726540 0.664953 0.482236
Si Si7 0.661328 0.501399 0.870043
Si Si8 0.424172 0.914976 0.792316
O O1 0.300337 0.498512 0.052646
O O2 0.914225 0.612906 0.287069
O O3 0.354492 0.331883 0.947785
O O4 0.915573 0.802422 0.082293
O O5 0.500000 0.500000 0.500000
O O6 0.320658 0.799915 0.381086
O O7 0.155284 0.915583 0.639778
O O8 0.941029 0.921559 0.695355
O O9 0.308163 0.043799 0.232157
O O10 0.459884 0.801192 0.577999
O O11 0.403111 0.934915 0.386821
O O12 0.972975 0.256294 0.688854
O O13 0.545814 0.887165 0.801233
O O14 0.067795 0.594378 0.522490
O O15 0.603951 0.823719 0.595196
O O16 0.466048 0.744566 0.855184
O O17 0.500000 0.500000 0.000000
#
# Coordination Sequence:
#
# PCOD8022573 Si02
#       8
#     2   2   2   2   2   2   2   2
#     4  12  25  42  66 102 141 167 220 284 332 395
#     4  10  22  47  71  93 134 185 225 266 326 401
#     4  10  25  43  65 102 137 174 224 276 328 397
#     4  11  22  41  69  98 128 173 229 271 330 397
#     4  11  22  41  68  96 129 179 221 270 333 397
#     4  12  22  41  70  99 132 174 221 273 336 398
#     4  12  26  44  65  96 133 178 224 277 333 392
#     4  12  24  43  67  96 137 179 222 272 335 396
#
# _framework density 21.820179
#
# number of rings (size 3 to 8) (size 9 to 14) (size 15 to 20)
#    0.000    0.750    5.000    3.000    0.000    3.500 
#    2.250    0.000    0.000    0.000    0.000    0.000 
#    0.000    0.000    0.000    0.000    0.000    0.000 
#
# Total GULP energy -198392.591559 kJ/mol
# GULP energy per Si atom -12399.536972 kJ/mol
# Density = 2.177052 g / cm^3
# Si number density = 21.820179 Si / 1000 Ang^3
#
#
#
# Elastic Constant Matrix: (Units=GPa)
#
#
# Indices 1 2 3 4 5 6 
#
# 1 151.7285 44.8706 40.5816 9.8804 -1.1962 4.0343
# 2 44.8706 111.7692 27.9335 21.7268 -4.2501 -13.5978
# 3 40.5816 27.9335 82.8586 16.5882 -7.3355 5.6301
# 4 9.8804 21.7268 16.5882 37.0355 8.5586 -3.3015
# 5 -1.1962 -4.2501 -7.3355 8.5586 18.6704 10.4091
# 6 4.0343 -13.5978 5.6301 -3.3015 10.4091 40.1382
#
#
#
# Elastic Compliance Matrix: (Units=1/GPa)
#
#
# Indices 1 2 3 4 5 6 
#
# 1 0.008286 -0.002884 -0.003447 0.001337 -0.001653 -0.000788
# 2 -0.002884 0.012171 -0.001431 -0.006117 0.002965 0.003342
# 3 -0.003447 -0.001431 0.018344 -0.010830 0.015938 -0.007735
# 4 0.001337 -0.006117 -0.010830 0.043380 -0.031626 0.011082
# 5 -0.001653 0.002965 0.015938 -0.031626 0.089937 -0.026990
# 6 -0.000788 0.003342 -0.007735 0.011082 -0.026990 0.035121
#
#
# Mechanical properties :
#
#
# Convention : Reuss Voigt Hill
#
# Bulk Modulus (GPa) = 42.95765 63.68085 53.31925
# Shear Modulus (GPa) = 21.69003 34.70018 28.19511
#
# Velocity S-wave (km/s) = 3.15625 3.99216 3.59856
# Velocity P-wave (km/s) = 5.74565 7.10616 6.46181
#
# Compressibility (1/GPa) = 0.02327874
#
# Stress axis : x y z
#
# Youngs Moduli (GPa) = 120.68221 82.16527 54.51410
#
# Poissons Ratio (x) = 0.23694 0.18789
# Poissons Ratio (y) = 0.34801 0.07799
# Poissons Ratio (z) = 0.41595 0.11755
#
# Static dielectric constant tensor:
#      x y z
#    x 4.248100 -0.045000 0.119280 
#    y -0.045000 4.025090 0.126060 
#    z 0.119280 0.126060 3.417470 
# 
# 
# High freq. dielectric constant tensor:
#      x y z
#    x 1.873630 -0.002700 0.004790 
#    y -0.002700 1.870030 0.013140 
#    z 0.004790 0.013140 1.831320 
# 
# From -- ./inp_files/531543.got.cif
#   From: 2010.06.25/outbox.cif.g09.slc.cpg/sg2_266_cif.got.tgz:531543.got - 2010.06.27 13:26:56.
