data_PCOD8022927
_publ_section_title
;
Structure prediction by ZEFSAII (Michael W. Deem and Ramdas Pophale) SiO2 
 PCOD8022927
Probable space group: P -1
;
_chemical_formula_sum "Si O2"
_cell_formula_units_Z 16
_cell_length_a 12.488269
_cell_length_b 11.816020
_cell_length_c 10.720845
_cell_angle_alpha 107.842932
_cell_angle_beta 135.662503
_cell_angle_gamma 105.302427
_cell_volume 723.618876
_symmetry_space_group_name_H-M "P -1"
_symmetry_group_IT_number 2
_symmetry_cell_setting 'triclinic'
loop_
_space_group_symop_operation_xyz
x,y,z
-x,-y,-z
loop_
_atom_site_type_symbol
_atom_site_label
_atom_site_fract_x
_atom_site_fract_y
_atom_site_fract_z
Si Si1 0.226581 0.218772 0.162702
Si Si2 0.740690 0.982883 0.715295
Si Si3 0.333811 0.503746 0.811206
Si Si4 0.478148 0.845843 0.033156
Si Si5 0.661791 0.187584 0.838382
Si Si6 0.930766 0.455560 0.783290
Si Si7 0.639482 0.496260 0.457522
Si Si8 0.855387 0.228317 0.452042
O O1 0.286584 0.119801 0.224429
O O2 0.372107 0.337524 0.203463
O O3 0.268077 0.329486 0.351198
O O4 0.967631 0.081786 0.862670
O O5 0.537105 0.853182 0.407788
O O6 0.745138 0.120318 0.811272
O O7 0.296024 0.467517 0.620400
O O8 0.095189 0.356795 0.629678
O O9 0.500000 0.500000 0.000000
O O10 0.460494 0.698973 0.008625
O O11 0.404009 0.885770 0.101560
O O12 0.733301 0.030279 0.278217
O O13 0.308157 0.771005 0.753325
O O14 0.865350 0.393291 0.084300
O O15 0.731989 0.435876 0.590353
O O16 0.870580 0.288538 0.627508
O O17 0.000000 0.500000 0.000000
#
# Coordination Sequence:
#
# PCOD8022927 Si02
#       8
#     2   2   2   2   2   2   2   2
#     4  10  23  42  64  93 137 179 222 277 347 408
#     4  10  23  40  61 102 134 178 221 287 334 411
#     4  12  27  47  70 101 143 186 225 286 346 416
#     4  11  25  46  74 102 134 186 233 289 341 412
#     4  11  23  40  67  99 136 171 233 282 341 399
#     4  12  24  42  72 100 133 180 230 289 347 400
#     4  11  24  43  67  97 135 181 229 278 347 412
#     4  11  26  47  72 102 139 180 239 289 340 412
#
# _framework density 22.111090000000001
#
# number of rings (size 3 to 8) (size 9 to 14) (size 15 to 20)
#    0.000    1.000    3.750    1.875    7.000    3.500 
#    2.250    0.000    0.000    0.000    0.000    0.000 
#    0.000    0.000    0.000    0.000    0.000    0.000 
#
# Total GULP energy -198393.622867 kJ/mol
# GULP energy per Si atom -12399.601429 kJ/mol
# Density = 2.206076 g / cm^3
# Si number density = 22.111090 Si / 1000 Ang^3
#
#
#
# Elastic Constant Matrix: (Units=GPa)
#
#
# Indices 1 2 3 4 5 6 
#
# 1 100.5519 31.0888 47.6232 -2.3382 1.8259 13.4440
# 2 31.0888 94.9228 50.8431 10.3417 17.9721 -6.8746
# 3 47.6232 50.8431 113.9178 11.9107 17.8626 -8.2590
# 4 -2.3382 10.3417 11.9107 43.8775 7.8079 0.2511
# 5 1.8259 17.9721 17.8626 7.8079 30.2594 0.4352
# 6 13.4440 -6.8746 -8.2590 0.2511 0.4352 30.5821
#
#
#
# Elastic Compliance Matrix: (Units=1/GPa)
#
#
# Indices 1 2 3 4 5 6 
#
# 1 0.015298 -0.003281 -0.006566 0.002650 0.004352 -0.009319
# 2 -0.003281 0.015434 -0.004093 -0.001622 -0.006190 0.003908
# 3 -0.006566 -0.004093 0.014901 -0.002502 -0.005411 0.006088
# 4 0.002650 -0.001622 -0.002502 0.024731 -0.004067 -0.002350
# 5 0.004352 -0.006190 -0.005411 -0.004067 0.040782 -0.005313
# 6 -0.009319 0.003908 0.006088 -0.002350 -0.005313 0.039413
#
#
# Mechanical properties :
#
#
# Convention : Reuss Voigt Hill
#
# Bulk Modulus (GPa) = 56.32923 63.16693 59.74808
# Shear Modulus (GPa) = 27.12141 32.93297 30.02719
#
# Velocity S-wave (km/s) = 3.50608 3.86350 3.68912
# Velocity P-wave (km/s) = 6.47464 6.96651 6.72507
#
# Compressibility (1/GPa) = 0.01775277
#
# Stress axis : x y z
#
# Youngs Moduli (GPa) = 65.36820 64.79399 67.10751
#
# Poissons Ratio (x) = 0.21259 0.44063
# Poissons Ratio (y) = 0.21447 0.27467
# Poissons Ratio (z) = 0.42921 0.26521
#
# Static dielectric constant tensor:
#      x y z
#    x 4.375500 0.901720 -0.030130 
#    y 0.901720 5.840530 -0.073300 
#    z -0.030130 -0.073300 4.214260 
# 
# 
# High freq. dielectric constant tensor:
#      x y z
#    x 1.867790 0.001310 0.005630 
#    y 0.001310 1.868470 0.014240 
#    z 0.005630 0.014240 1.881760 
# 
# From -- ./inp_files/428601.got.cif
#   From: 2010.06.25/outbox.cif.g09.slc.cpg/sg2_215_cif.got.tgz:428601.got - 2010.06.27 13:26:56.
