data_PCOD8022180
_publ_section_title
;
Structure prediction by ZEFSAII (Michael W. Deem and Ramdas Pophale) SiO2 
 PCOD8022180
Probable space group: P -1
;
_chemical_formula_sum "Si O2"
_cell_formula_units_Z 16
_cell_length_a 8.136710
_cell_length_b 14.591144
_cell_length_c 8.875211
_cell_angle_alpha 64.739269
_cell_angle_beta 46.326273
_cell_angle_gamma 81.032193
_cell_volume 673.549240
_symmetry_space_group_name_H-M "P -1"
_symmetry_group_IT_number 2
_symmetry_cell_setting 'triclinic'
loop_
_space_group_symop_operation_xyz
x,y,z
-x,-y,-z
loop_
_atom_site_type_symbol
_atom_site_label
_atom_site_fract_x
_atom_site_fract_y
_atom_site_fract_z
Si Si1 0.242953 0.499173 0.602612
Si Si2 0.519304 0.012787 0.800690
Si Si3 0.081216 0.841304 0.693782
Si Si4 0.781021 0.203462 0.907130
Si Si5 0.126649 0.106703 0.916981
Si Si6 0.968136 0.304972 0.433953
Si Si7 0.613246 0.570601 0.743663
Si Si8 0.205339 0.668121 0.923825
O O1 0.500000 0.500000 0.500000
O O2 0.151610 0.604423 0.619515
O O3 0.258934 0.486920 0.420565
O O4 0.053367 0.405878 0.863898
O O5 0.779352 0.054141 0.548882
O O6 0.407805 0.902680 0.871053
O O7 0.397949 0.104068 0.747462
O O8 0.500000 0.000000 0.000000
O O9 0.913236 0.882780 0.885624
O O10 0.952122 0.761650 0.704474
O O11 0.229110 0.774399 0.742882
O O12 0.039900 0.195019 0.813490
O O13 0.782896 0.229429 0.710689
O O14 0.718985 0.298208 0.975180
O O15 0.000000 0.000000 0.000000
O O16 0.191021 0.341133 0.370390
O O17 0.500000 0.500000 0.000000
O O18 0.401607 0.612267 0.770649
#
# Coordination Sequence:
#
# PCOD8022180 Si02
#       8
#     2   2   2   2   2   2   2   2
#     4  12  27  46  70  99 148 183 226 293 347 416
#     4  11  23  45  67 100 138 179 229 292 346 404
#     4  11  26  43  70 102 138 181 237 281 348 422
#     4  10  22  45  67  96 140 178 231 289 340 413
#     4   9  23  44  68  94 135 178 228 284 346 404
#     4  12  24  44  69 105 141 182 233 287 350 407
#     4  12  25  44  73  99 138 187 232 289 347 413
#     4  11  25  46  67 104 134 183 239 279 352 419
#
# _framework density 23.754757999999999
#
# number of rings (size 3 to 8) (size 9 to 14) (size 15 to 20)
#    0.000    1.000    3.750    1.875    3.500    9.000 
#    2.250    0.000    0.000    0.000    0.000    0.000 
#    0.000    0.000    0.000    0.000    0.000    0.000 
#
# Total GULP energy -198280.722231 kJ/mol
# GULP energy per Si atom -12392.545139 kJ/mol
# Density = 2.370069 g / cm^3
# Si number density = 23.754758 Si / 1000 Ang^3
#
#
#
# Elastic Constant Matrix: (Units=GPa)
#
#
# Indices 1 2 3 4 5 6 
#
# 1 79.7345 16.8364 14.3515 -5.3681 -10.4152 10.5913
# 2 16.8364 96.1657 33.3167 -0.6744 -6.9515 21.2424
# 3 14.3515 33.3167 83.0090 -13.8672 4.5083 8.1499
# 4 -5.3681 -0.6744 -13.8672 37.9396 1.7166 10.7456
# 5 -10.4152 -6.9515 4.5083 1.7166 42.0843 6.3447
# 6 10.5913 21.2424 8.1499 10.7456 6.3447 43.4224
#
#
#
# Elastic Compliance Matrix: (Units=1/GPa)
#
#
# Indices 1 2 3 4 5 6 
#
# 1 0.014204 -0.000746 -0.001593 0.002357 0.004066 -0.003978
# 2 -0.000746 0.013903 -0.005062 -0.000125 0.003588 -0.006163
# 3 -0.001593 -0.005062 0.015593 0.005821 -0.002977 -0.001067
# 4 0.002357 -0.000125 0.005821 0.031477 0.000073 -0.009406
# 5 0.004066 0.003588 -0.002977 0.000073 0.026595 -0.006093
# 6 -0.003978 -0.006163 -0.001067 -0.009406 -0.006093 0.030433
#
#
# Mechanical properties :
#
#
# Convention : Reuss Voigt Hill
#
# Bulk Modulus (GPa) = 34.60380 43.10205 38.85292
# Shear Modulus (GPa) = 31.92044 37.64958 34.78501
#
# Velocity S-wave (km/s) = 3.66970 3.98543 3.83082
# Velocity P-wave (km/s) = 5.70564 6.27393 5.99652
#
# Compressibility (1/GPa) = 0.02889856
#
# Stress axis : x y z
#
# Youngs Moduli (GPa) = 70.40225 71.92810 64.13194
#
# Poissons Ratio (x) = 0.05363 0.10216
# Poissons Ratio (y) = 0.05250 0.32463
# Poissons Ratio (z) = 0.11215 0.36409
#
# Static dielectric constant tensor:
#      x y z
#    x 4.348530 -0.098650 0.175920 
#    y -0.098650 4.673550 0.116740 
#    z 0.175920 0.116740 3.683300 
# 
# 
# High freq. dielectric constant tensor:
#      x y z
#    x 1.940180 0.006310 0.012570 
#    y 0.006310 1.951330 0.003530 
#    z 0.012570 0.003530 1.933520 
# 
# From -- ./inp_files/39531.got.cif
#   From: 2010.06.25/outbox.cif.g09.slc.cpg/sg2_20_cif.got.tgz:39531.got - 2010.06.27 13:26:56.
