data_PCOD8022623
_publ_section_title
;
Structure prediction by ZEFSAII (Michael W. Deem and Ramdas Pophale) SiO2 
 PCOD8022623
Probable space group: P -1
;
_chemical_formula_sum "Si O2"
_cell_formula_units_Z 16
_cell_length_a 11.414330
_cell_length_b 14.006788
_cell_length_c 8.401025
_cell_angle_alpha 140.061252
_cell_angle_beta 109.246251
_cell_angle_gamma 81.755529
_cell_volume 800.706096
_symmetry_space_group_name_H-M "P -1"
_symmetry_group_IT_number 2
_symmetry_cell_setting 'triclinic'
loop_
_space_group_symop_operation_xyz
x,y,z
-x,-y,-z
loop_
_atom_site_type_symbol
_atom_site_label
_atom_site_fract_x
_atom_site_fract_y
_atom_site_fract_z
Si Si1 0.636824 0.971619 0.566595
Si Si2 0.181363 0.581360 0.466887
Si Si3 0.561112 0.417005 0.560611
Si Si4 0.647837 0.792456 0.633539
Si Si5 0.681523 0.655763 0.159302
Si Si6 0.118193 0.282475 0.230896
Si Si7 0.909598 0.551747 0.244417
Si Si8 0.152564 0.748817 0.993242
O O1 0.637333 0.944065 0.723886
O O2 0.671023 0.823263 0.302640
O O3 0.500000 0.000000 0.500000
O O4 0.738830 0.112462 0.735484
O O5 0.309381 0.636234 0.497508
O O6 0.180192 0.407685 0.292096
O O7 0.184433 0.685479 0.755992
O O8 0.058020 0.581955 0.298813
O O9 0.500000 0.500000 0.500000
O O10 0.468389 0.262269 0.370625
O O11 0.582856 0.531810 0.865364
O O12 0.649935 0.653250 0.331327
O O13 0.780644 0.826882 0.833449
O O14 0.823970 0.618399 0.159955
O O15 0.087412 0.364739 0.480611
O O16 0.982305 0.192940 0.995837
O O17 0.853205 0.375467 0.028432
#
# Coordination Sequence:
#
# PCOD8022623 Si02
#       8
#     2   2   2   2   2   2   2   2
#     4  10  23  35  56  82 114 147 189 224 276 331
#     4   9  18  31  56  90 112 138 182 233 283 318
#     4  12  22  33  59  85 115 147 180 233 284 322
#     4   9  20  36  54  84 109 146 189 224 267 332
#     4   9  22  37  57  82 110 143 194 233 265 331
#     4   8  14  33  55  84 110 133 189 232 265 318
#     4   8  16  34  59  83 107 139 194 234 263 320
#     4   9  18  33  60  84 109 146 179 234 276 323
#
# _framework density 19.982361999999998
#
# number of rings (size 3 to 8) (size 9 to 14) (size 15 to 20)
#    0.750    2.000    1.250    1.875    3.500    1.000 
#    0.000    0.625    0.000    3.000    0.000    0.000 
#    0.000    0.000    0.000    0.000    0.000    0.000 
#
# Total GULP energy -198223.693778 kJ/mol
# GULP energy per Si atom -12388.980861 kJ/mol
# Density = 1.993688 g / cm^3
# Si number density = 19.982362 Si / 1000 Ang^3
#
#
#
# Elastic Constant Matrix: (Units=GPa)
#
#
# Indices 1 2 3 4 5 6 
#
# 1 146.2914 53.9101 33.1900 10.6464 36.3496 -18.0587
# 2 53.9101 70.1589 11.3813 5.8569 15.4182 -30.1635
# 3 33.1900 11.3813 50.8321 8.8304 21.4052 -11.7509
# 4 10.6464 5.8569 8.8304 24.4114 1.4234 6.1140
# 5 36.3496 15.4182 21.4052 1.4234 28.7810 -5.6204
# 6 -18.0587 -30.1635 -11.7509 6.1140 -5.6204 40.1083
#
#
#
# Elastic Compliance Matrix: (Units=1/GPa)
#
#
# Indices 1 2 3 4 5 6 
#
# 1 0.012721 -0.007844 -0.002331 -0.001697 -0.010448 -0.002060
# 2 -0.007844 0.032342 0.009745 -0.013436 -0.009237 0.024400
# 3 -0.002331 0.009745 0.036318 -0.016978 -0.025331 0.015958
# 4 -0.001697 -0.013436 -0.016978 0.055779 0.014862 -0.022263
# 5 -0.010448 -0.009237 -0.025331 0.014862 0.068707 -0.011710
# 6 -0.002060 0.024400 0.015958 -0.022263 -0.011710 0.048783
#
#
# Mechanical properties :
#
#
# Convention : Reuss Voigt Hill
#
# Bulk Modulus (GPa) = 12.41951 51.58282 32.00117
# Shear Modulus (GPa) = 17.70851 29.91353 23.81102
#
# Velocity S-wave (km/s) = 2.98015 3.87330 3.45570
# Velocity P-wave (km/s) = 4.25094 6.77300 5.65438
#
# Compressibility (1/GPa) = 0.08051846
#
# Stress axis : x y z
#
# Youngs Moduli (GPa) = 78.61306 30.91971 27.53458
#
# Poissons Ratio (x) = 0.24254 0.06419
# Poissons Ratio (y) = 0.61667 -0.26831
# Poissons Ratio (z) = 0.18326 -0.30130
#
# Static dielectric constant tensor:
#      x y z
#    x 3.756750 -0.254200 0.276240 
#    y -0.254200 3.523040 -0.135320 
#    z 0.276240 -0.135320 3.240660 
# 
# 
# High freq. dielectric constant tensor:
#      x y z
#    x 1.785220 -0.014790 0.026640 
#    y -0.014790 1.761610 -0.010550 
#    z 0.026640 -0.010550 1.740630 
# 
# From -- ./inp_files/274720.got.cif
#   From: 2010.06.25/outbox.cif.g09.slc.cpg/sg2_138_cif.got.tgz:274720.got - 2010.06.27 13:26:56.
