data_PCOD8022975
_publ_section_title
;
Structure prediction by ZEFSAII (Michael W. Deem and Ramdas Pophale) SiO2 
 PCOD8022975
Probable space group: P -1
;
_chemical_formula_sum "Si O2"
_cell_formula_units_Z 16
_cell_length_a 9.105900
_cell_length_b 8.395088
_cell_length_c 16.020983
_cell_angle_alpha 72.335177
_cell_angle_beta 37.232037
_cell_angle_gamma 78.018920
_cell_volume 704.840656
_symmetry_space_group_name_H-M "P -1"
_symmetry_group_IT_number 2
_symmetry_cell_setting 'triclinic'
loop_
_space_group_symop_operation_xyz
x,y,z
-x,-y,-z
loop_
_atom_site_type_symbol
_atom_site_label
_atom_site_fract_x
_atom_site_fract_y
_atom_site_fract_z
Si Si1 0.923284 0.678106 0.731702
Si Si2 0.462066 0.816062 0.508364
Si Si3 0.216164 0.579089 0.301037
Si Si4 0.940757 0.252047 0.036376
Si Si5 0.745883 0.688460 0.543960
Si Si6 0.263294 0.436375 0.992146
Si Si7 0.742129 0.927338 0.655472
Si Si8 0.685101 0.893074 0.223243
O O1 0.940847 0.549311 0.667875
O O2 0.755122 0.824238 0.751819
O O3 0.183024 0.762342 0.625988
O O4 0.785154 0.582319 0.884943
O O5 0.567620 0.685346 0.545993
O O6 0.616746 0.808658 0.355291
O O7 0.500000 0.000000 0.500000
O O8 0.273489 0.495658 0.377395
O O9 0.474058 0.637044 0.133527
O O10 0.031116 0.727002 0.379387
O O11 0.045311 0.333516 0.060703
O O12 0.159086 0.239146 0.873803
O O13 0.741462 0.368389 0.065768
O O14 0.831762 0.070914 0.140256
O O15 0.650736 0.818265 0.633682
O O16 0.555530 0.073634 0.727833
O O17 0.000000 0.000000 0.500000
#
# Coordination Sequence:
#
# PCOD8022975 Si02
#       8
#     2   2   2   2   2   2   2   2
#     4  11  24  40  66  98 124 173 218 264 326 378
#     4  12  23  40  68  95 131 164 216 269 312 387
#     4  10  24  42  64  91 135 166 208 266 325 385
#     4  10  25  42  67  95 127 176 216 268 325 384
#     4  10  23  40  63  95 126 167 211 257 321 379
#     4  11  24  44  68  91 132 170 221 268 323 380
#     4  11  21  41  66  91 133 169 205 263 327 379
#     4  11  23  43  66  96 134 169 218 264 327 385
#
# _framework density 22.700164000000001
#
# number of rings (size 3 to 8) (size 9 to 14) (size 15 to 20)
#    0.000    1.250    2.500    2.625    7.000    1.500 
#    2.250    0.625    0.000    0.000    0.000    0.000 
#    0.000    0.000    0.000    0.000    0.000    0.000 
#
# Total GULP energy -198388.072251 kJ/mol
# GULP energy per Si atom -12399.254516 kJ/mol
# Density = 2.264850 g / cm^3
# Si number density = 22.700164 Si / 1000 Ang^3
#
#
#
# Elastic Constant Matrix: (Units=GPa)
#
#
# Indices 1 2 3 4 5 6 
#
# 1 147.8708 14.3925 43.0151 -1.8547 12.1995 -11.4770
# 2 14.3925 31.2801 4.1606 5.9756 4.2473 -8.5390
# 3 43.0151 4.1606 108.8030 11.4533 5.0652 -4.9536
# 4 -1.8547 5.9756 11.4533 34.4339 -5.0830 -8.9239
# 5 12.1995 4.2473 5.0652 -5.0830 44.8288 -0.5965
# 6 -11.4770 -8.5390 -4.9536 -8.9239 -0.5965 17.7963
#
#
#
# Elastic Compliance Matrix: (Units=1/GPa)
#
#
# Indices 1 2 3 4 5 6 
#
# 1 0.008491 -0.002562 -0.003302 0.003059 -0.001284 0.004818
# 2 -0.002562 0.038271 0.000764 -0.003623 -0.003226 0.014999
# 3 -0.003302 0.000764 0.010922 -0.004315 -0.000909 -0.000917
# 4 0.003059 -0.003623 -0.004315 0.036436 0.004362 0.017451
# 5 -0.001284 -0.003226 -0.000909 0.004362 0.023564 0.000348
# 6 0.004818 0.014999 -0.000917 0.017451 0.000348 0.075002
#
#
# Mechanical properties :
#
#
# Convention : Reuss Voigt Hill
#
# Bulk Modulus (GPa) = 21.06000 45.67673 33.36836
# Shear Modulus (GPa) = 22.86083 34.50420 28.68251
#
# Velocity S-wave (km/s) = 3.17689 3.90294 3.55848
# Velocity P-wave (km/s) = 4.77016 6.36208 5.62275
#
# Compressibility (1/GPa) = 0.04748339
#
# Stress axis : x y z
#
# Youngs Moduli (GPa) = 117.77452 26.12938 91.55936
#
# Poissons Ratio (x) = 0.06695 0.30231
# Poissons Ratio (y) = 0.30178 -0.06995
# Poissons Ratio (z) = 0.38886 -0.01996
#
# Static dielectric constant tensor:
#      x y z
#    x 4.393100 -0.371420 0.026480 
#    y -0.371420 3.162330 0.075910 
#    z 0.026480 0.075910 4.177250 
# 
# 
# High freq. dielectric constant tensor:
#      x y z
#    x 1.906310 -0.002550 -0.004170 
#    y -0.002550 1.875260 0.007580 
#    z -0.004170 0.007580 1.905280 
# 
# From -- ./inp_files/260367.got.cif
#   From: 2010.06.25/outbox.cif.g09.slc.cpg/sg2_131_cif.got.tgz:260367.got - 2010.06.27 13:26:56.
