data_PCOD8022699
_publ_section_title
;
Structure prediction by ZEFSAII (Michael W. Deem and Ramdas Pophale) SiO2 
 PCOD8022699
Probable space group: P -1
;
_chemical_formula_sum "Si O2"
_cell_formula_units_Z 16
_cell_length_a 15.390146
_cell_length_b 7.671344
_cell_length_c 7.585313
_cell_angle_alpha 125.929471
_cell_angle_beta 109.462103
_cell_angle_gamma 80.799819
_cell_volume 682.980235
_symmetry_space_group_name_H-M "P -1"
_symmetry_group_IT_number 2
_symmetry_cell_setting 'triclinic'
loop_
_space_group_symop_operation_xyz
x,y,z
-x,-y,-z
loop_
_atom_site_type_symbol
_atom_site_label
_atom_site_fract_x
_atom_site_fract_y
_atom_site_fract_z
Si Si1 0.351392 0.891652 0.325865
Si Si2 0.555880 0.256437 0.239185
Si Si3 0.712569 0.986108 0.015394
Si Si4 0.112903 0.554859 0.306334
Si Si5 0.310702 0.496146 0.299048
Si Si6 0.474984 0.132074 0.784725
Si Si7 0.910058 0.169606 0.231866
Si Si8 0.962799 0.200311 0.906349
O O1 0.301958 0.679325 0.251912
O O2 0.451190 0.814822 0.285525
O O3 0.293801 0.987988 0.186230
O O4 0.373090 0.084355 0.601991
O O5 0.595042 0.464731 0.497907
O O6 0.498145 0.090560 0.228975
O O7 0.489997 0.313724 0.059799
O O8 0.648898 0.148444 0.169140
O O9 0.684525 0.743769 0.918316
O O10 0.819084 0.039708 0.167194
O O11 0.219757 0.501492 0.361287
O O12 0.077114 0.616689 0.512754
O O13 0.098425 0.748836 0.274004
O O14 0.056009 0.347720 0.073245
O O15 0.899280 0.227806 0.052842
O O16 0.003505 0.040688 0.238325
#
# Coordination Sequence:
#
# PCOD8022699 Si02
#       8
#     2   2   2   2   2   2   2   2
#     4   9  19  36  59  84 116 150 192 244 289 340
#     4   9  18  36  60  82 114 152 190 240 294 344
#     4  11  21  37  59  85 117 155 192 237 296 347
#     4  11  21  39  61  86 119 156 194 244 295 348
#     4  11  21  37  59  85 117 155 192 237 296 347
#     4   8  16  36  58  80 114 152 188 240 292 344
#     4  11  21  39  61  86 119 156 194 244 295 348
#     4  10  23  38  61  88 116 152 200 242 293 352
#
# _framework density 23.426741
#
# number of rings (size 3 to 8) (size 9 to 14) (size 15 to 20)
#    0.000    2.000    2.500    1.500    0.000    0.000 
#    0.000   28.750    0.000    0.000    0.000    0.000 
#    0.000    0.000    0.000    0.000    0.000    0.000 
#
# Total GULP energy -198292.129468 kJ/mol
# GULP energy per Si atom -12393.258092 kJ/mol
# Density = 2.337342 g / cm^3
# Si number density = 23.426741 Si / 1000 Ang^3
#
#
#
# Elastic Constant Matrix: (Units=GPa)
#
#
# Indices 1 2 3 4 5 6 
#
# 1 52.1766 11.3854 -17.4852 -2.0765 1.5071 15.6428
# 2 11.3854 43.4499 -0.7319 -3.4685 -3.0328 4.8763
# 3 -17.4852 -0.7319 46.1678 -11.5490 8.1285 6.4650
# 4 -2.0765 -3.4685 -11.5490 22.8156 5.2933 1.0170
# 5 1.5071 -3.0328 8.1285 5.2933 33.0298 -3.5134
# 6 15.6428 4.8763 6.4650 1.0170 -3.5134 27.0690
#
#
#
# Elastic Compliance Matrix: (Units=1/GPa)
#
#
# Indices 1 2 3 4 5 6 
#
# 1 0.041248 -0.006015 0.028683 0.022662 -0.016594 -0.032609
# 2 -0.006015 0.024911 -0.001919 0.001644 0.002743 -0.000259
# 3 0.028683 -0.001919 0.049497 0.034044 -0.022553 -0.032258
# 4 0.022662 0.001644 0.034044 0.070009 -0.023373 -0.027187
# 5 -0.016594 0.002743 -0.022553 -0.023373 0.042806 0.020916
# 6 -0.032609 -0.000259 -0.032258 -0.027187 0.020916 0.067274
#
#
# Mechanical properties :
#
#
# Convention : Reuss Voigt Hill
#
# Bulk Modulus (GPa) = 6.36312 14.23678 10.29995
# Shear Modulus (GPa) = 16.30630 26.49126 21.39878
#
# Velocity S-wave (km/s) = 2.64115 3.36640 3.02559
# Velocity P-wave (km/s) = 3.46741 4.60441 4.07575
#
# Compressibility (1/GPa) = 0.15715569
#
# Stress axis : x y z
#
# Youngs Moduli (GPa) = 24.24366 40.14365 20.20315
#
# Poissons Ratio (x) = 0.24146 -0.57949
# Poissons Ratio (y) = 0.14582 0.03876
# Poissons Ratio (z) = -0.69539 0.07702
#
# Static dielectric constant tensor:
#      x y z
#    x 4.009840 0.237140 0.041220 
#    y 0.237140 3.917110 -0.212410 
#    z 0.041220 -0.212410 4.411400 
# 
# 
# High freq. dielectric constant tensor:
#      x y z
#    x 1.925210 0.020510 0.006890 
#    y 0.020510 1.894740 -0.009960 
#    z 0.006890 -0.009960 1.933470 
# 
# From -- ./inp_files/299764.got.cif
#   From: 2010.06.25/outbox.cif.g09.slc.cpg/sg2_150_cif.got.tgz:299764.got - 2010.06.27 13:26:56.
