data_PCOD8022569
_publ_section_title
;
Structure prediction by ZEFSAII (Michael W. Deem and Ramdas Pophale) SiO2 
 PCOD8022569
Probable space group: P -1
;
_chemical_formula_sum "Si O2"
_cell_formula_units_Z 16
_cell_length_a 9.169184
_cell_length_b 15.825960
_cell_length_c 13.214159
_cell_angle_alpha 157.407544
_cell_angle_beta 72.548287
_cell_angle_gamma 104.032844
_cell_volume 699.648678
_symmetry_space_group_name_H-M "P -1"
_symmetry_group_IT_number 2
_symmetry_cell_setting 'triclinic'
loop_
_space_group_symop_operation_xyz
x,y,z
-x,-y,-z
loop_
_atom_site_type_symbol
_atom_site_label
_atom_site_fract_x
_atom_site_fract_y
_atom_site_fract_z
Si Si1 0.414300 0.697521 0.174817
Si Si2 0.080739 0.407441 0.163655
Si Si3 0.583856 0.709923 0.683976
Si Si4 0.904829 0.365725 0.798792
Si Si5 0.566685 0.945976 0.759552
Si Si6 0.077221 0.179259 0.251866
Si Si7 0.106765 0.975574 0.240442
Si Si8 0.624234 0.911297 0.227682
O O1 0.250281 0.631950 0.101635
O O2 0.506560 0.741203 0.102366
O O3 0.369727 0.909769 0.488650
O O4 0.500000 0.500000 0.000000
O O5 0.133710 0.515575 0.169027
O O6 0.040202 0.597750 0.466523
O O7 0.211913 0.225962 0.978261
O O8 0.930082 0.279190 0.030552
O O9 0.500000 0.500000 0.500000
O O10 0.756108 0.741005 0.727604
O O11 0.584068 0.716020 0.566062
O O12 0.464264 0.890223 0.959616
O O13 0.985942 0.119904 0.495464
O O14 0.000000 0.500000 0.000000
O O15 0.429814 0.962924 0.725140
O O16 0.721597 0.997644 0.725459
O O17 0.100166 0.063037 0.225301
O O18 0.000000 0.000000 0.000000
#
# Coordination Sequence:
#
# PCOD8022569 Si02
#       8
#     2   2   2   2   2   2   2   2
#     4  11  24  44  63  97 140 174 230 278 330 411
#     4  11  23  44  67  99 137 180 229 283 339 416
#     4  10  22  47  70  98 134 175 234 281 338 423
#     4  11  25  41  66  98 134 182 227 279 341 403
#     4  10  24  42  67  99 130 179 222 284 339 403
#     4  10  24  44  71 101 135 177 229 288 349 406
#     4  10  23  44  64  97 140 171 230 282 332 419
#     4  11  25  43  67  98 135 181 224 281 344 403
#
# _framework density 22.86862
#
# number of rings (size 3 to 8) (size 9 to 14) (size 15 to 20)
#    0.000    1.500    2.500    0.750    5.250    2.000 
#    6.750    0.000    0.000    0.000    0.000    0.000 
#    0.000    0.000    0.000    0.000    0.000    0.000 
#
# Total GULP energy -198268.166455 kJ/mol
# GULP energy per Si atom -12391.760403 kJ/mol
# Density = 2.281657 g / cm^3
# Si number density = 22.868620 Si / 1000 Ang^3
#
#
#
# Elastic Constant Matrix: (Units=GPa)
#
#
# Indices 1 2 3 4 5 6 
#
# 1 138.6410 34.4286 40.6769 5.6188 2.2393 13.0734
# 2 34.4286 69.0735 14.8263 10.5497 8.7028 8.7725
# 3 40.6769 14.8263 111.4778 5.8659 3.7987 6.2044
# 4 5.6188 10.5497 5.8659 26.9722 4.6672 7.2102
# 5 2.2393 8.7028 3.7987 4.6672 40.3534 2.5529
# 6 13.0734 8.7725 6.2044 7.2102 2.5529 44.3428
#
#
#
# Elastic Compliance Matrix: (Units=1/GPa)
#
#
# Indices 1 2 3 4 5 6 
#
# 1 0.009118 -0.003907 -0.002767 0.000563 0.000637 -0.001656
# 2 -0.003907 0.017859 -0.000504 -0.005213 -0.002902 -0.001296
# 3 -0.002767 -0.000504 0.010147 -0.001270 -0.000529 -0.000267
# 4 0.000563 -0.005213 -0.001270 0.041296 -0.003217 -0.005487
# 5 0.000637 -0.002902 -0.000529 -0.003217 0.025825 -0.000503
# 6 -0.001656 -0.001296 -0.000267 -0.005487 -0.000503 0.024255
#
#
# Mechanical properties :
#
#
# Convention : Reuss Voigt Hill
#
# Bulk Modulus (GPa) = 43.92005 55.45066 49.68536
# Shear Modulus (GPa) = 33.23474 37.61772 35.42623
#
# Velocity S-wave (km/s) = 3.81634 4.06020 3.94016
# Velocity P-wave (km/s) = 6.21823 6.80297 6.51716
#
# Compressibility (1/GPa) = 0.02276864
#
# Stress axis : x y z
#
# Youngs Moduli (GPa) = 109.67572 55.99330 98.55434
#
# Poissons Ratio (x) = 0.21874 0.27265
# Poissons Ratio (y) = 0.42846 0.04971
# Poissons Ratio (z) = 0.30342 0.02824
#
# Static dielectric constant tensor:
#      x y z
#    x 5.007470 0.765580 0.129370 
#    y 0.765580 5.483170 0.483150 
#    z 0.129370 0.483150 4.054450 
# 
# 
# High freq. dielectric constant tensor:
#      x y z
#    x 1.911000 0.017150 -0.006940 
#    y 0.017150 1.901100 0.008900 
#    z -0.006940 0.008900 1.901490 
# 
# From -- ./inp_files/90398.got.cif
#   From: 2010.06.25/outbox.cif.g09.slc.cpg/sg2_46_cif.got.tgz:90398.got - 2010.06.27 13:26:56.
