data_PCOD8022608
_publ_section_title
;
Structure prediction by ZEFSAII (Michael W. Deem and Ramdas Pophale) SiO2 
 PCOD8022608
Probable space group: P -1
;
_chemical_formula_sum "Si O2"
_cell_formula_units_Z 14
_cell_length_a 19.372425
_cell_length_b 5.126836
_cell_length_c 8.448887
_cell_angle_alpha 78.399482
_cell_angle_beta 40.472691
_cell_angle_gamma 67.480817
_cell_volume 497.407572
_symmetry_space_group_name_H-M "P -1"
_symmetry_group_IT_number 2
_symmetry_cell_setting 'triclinic'
loop_
_space_group_symop_operation_xyz
x,y,z
-x,-y,-z
loop_
_atom_site_type_symbol
_atom_site_label
_atom_site_fract_x
_atom_site_fract_y
_atom_site_fract_z
Si Si1 0.585943 0.141312 0.658082
Si Si2 0.598393 0.901349 0.209325
Si Si3 0.744157 0.351666 0.177129
Si Si4 0.700732 0.167693 0.771645
Si Si5 0.222313 0.430865 0.594593
Si Si6 0.039323 0.090259 0.257724
Si Si7 0.923438 0.739817 0.334324
O O1 0.453575 0.196073 0.846398
O O2 0.627060 0.312854 0.432609
O O3 0.605832 0.228304 0.789919
O O4 0.657839 0.809170 0.542415
O O5 0.710468 0.642059 0.100440
O O6 0.500000 0.000000 0.500000
O O7 0.637567 0.164218 0.050165
O O8 0.813761 0.363153 0.215427
O O9 0.824473 0.076318 0.972372
O O10 0.800523 0.853482 0.624883
O O11 0.761483 0.399779 0.613025
O O12 0.120292 0.304150 0.761851
O O13 0.009314 0.430029 0.279356
O O14 0.000000 0.000000 0.500000
O O15 0.979993 0.980176 0.228437
#
# Coordination Sequence:
#
# PCOD8022608 Si02
#       7
#     2   2   2   2   2   2   2
#     4  10  23  46  69 105 150 198 252 306 379 451
#     4  12  24  45  73 107 146 199 250 316 385 437
#     4  11  26  46  73 109 155 191 256 322 368 455
#     4  10  23  46  75 106 152 194 254 309 370 465
#     4  10  22  48  73 111 147 198 251 308 377 454
#     4  12  27  46  76 111 153 200 250 310 386 447
#     4  11  24  48  74 110 147 201 251 303 377 454
#
# _framework density 28.145928999999999
#
# number of rings (size 3 to 8) (size 9 to 14) (size 15 to 20)
#    0.000    1.143    2.857    2.143    2.000    2.857 
#   10.286    0.000    0.000    0.000    0.000    0.000 
#    0.000    0.000    0.000    0.000    0.000    0.000 
#
# Total GULP energy -173496.267815 kJ/mol
# GULP energy per Si atom -12392.590558 kJ/mol
# Density = 2.808187 g / cm^3
# Si number density = 28.145929 Si / 1000 Ang^3
#
#
#
# Elastic Constant Matrix: (Units=GPa)
#
#
# Indices 1 2 3 4 5 6 
#
# 1 71.9278 26.0103 13.5347 -0.6676 -22.9033 -2.5896
# 2 26.0103 102.8573 11.4224 -11.3052 4.9262 2.2386
# 3 13.5347 11.4224 78.3414 -10.1812 7.2247 -12.8075
# 4 -0.6676 -11.3052 -10.1812 41.6669 -1.3760 -3.6890
# 5 -22.9033 4.9262 7.2247 -1.3760 23.5037 -4.7705
# 6 -2.5896 2.2386 -12.8075 -3.6890 -4.7705 43.2767
#
#
#
# Elastic Compliance Matrix: (Units=1/GPa)
#
#
# Indices 1 2 3 4 5 6 
#
# 1 0.028374 -0.008300 -0.006302 -0.001962 0.031944 0.003616
# 2 -0.008300 0.012643 0.000685 0.002925 -0.011168 -0.001930
# 3 -0.006302 0.000685 0.015768 0.003908 -0.010200 0.003463
# 4 -0.001962 0.002925 0.003908 0.025922 -0.001616 0.002919
# 5 0.031944 -0.011168 -0.010200 -0.001616 0.080727 0.008232
# 6 0.003616 -0.001930 0.003463 0.002919 0.008232 0.025604
#
#
# Mechanical properties :
#
#
# Convention : Reuss Voigt Hill
#
# Bulk Modulus (GPa) = 34.53898 39.45126 36.99512
# Shear Modulus (GPa) = 22.07298 35.16675 28.61987
#
# Velocity S-wave (km/s) = 2.80346 3.53858 3.19225
# Velocity P-wave (km/s) = 4.77254 5.54459 5.17299
#
# Compressibility (1/GPa) = 0.02895279
#
# Stress axis : x y z
#
# Youngs Moduli (GPa) = 35.24402 79.09337 63.41968
#
# Poissons Ratio (x) = 0.65644 0.39965
# Poissons Ratio (y) = 0.29251 -0.04345
# Poissons Ratio (z) = 0.22209 -0.05419
#
# Static dielectric constant tensor:
#      x y z
#    x 5.373740 0.118240 -0.130440 
#    y 0.118240 5.213870 -0.008610 
#    z -0.130440 -0.008610 4.876460 
# 
# 
# High freq. dielectric constant tensor:
#      x y z
#    x 2.137180 -0.003200 -0.008810 
#    y -0.003200 2.142040 0.002080 
#    z -0.008810 0.002080 2.123230 
# 
# From -- ./inp_files/340227.got.cif
#   From: 2010.06.25/outbox.cif.g09.slc.cpg/sg2_171_cif.got.tgz:340227.got - 2010.06.27 13:26:56.
