data_PCOD8022677
_publ_section_title
;
Structure prediction by ZEFSAII (Michael W. Deem and Ramdas Pophale) SiO2 
 PCOD8022677
Probable space group: P -1
;
_chemical_formula_sum "Si O2"
_cell_formula_units_Z 16
_cell_length_a 8.980743
_cell_length_b 16.553725
_cell_length_c 15.153305
_cell_angle_alpha 42.508551
_cell_angle_beta 110.133301
_cell_angle_gamma 142.967012
_cell_volume 733.253142
_symmetry_space_group_name_H-M "P -1"
_symmetry_group_IT_number 2
_symmetry_cell_setting 'triclinic'
loop_
_space_group_symop_operation_xyz
x,y,z
-x,-y,-z
loop_
_atom_site_type_symbol
_atom_site_label
_atom_site_fract_x
_atom_site_fract_y
_atom_site_fract_z
Si Si1 0.533663 0.630923 0.024569
Si Si2 0.280146 0.504788 0.522776
Si Si3 0.814897 0.824433 0.237908
Si Si4 0.394136 0.921238 0.939935
Si Si5 0.311872 0.746919 0.425084
Si Si6 0.329220 0.789903 0.582066
Si Si7 0.686808 0.473892 0.128409
Si Si8 0.354958 0.628167 0.161708
O O1 0.514322 0.475146 0.135746
O O2 0.316239 0.525354 0.147591
O O3 0.396241 0.597678 0.933821
O O4 0.873823 0.903545 0.895267
O O5 0.598095 0.693138 0.384421
O O6 0.119202 0.272468 0.693729
O O7 0.353928 0.628649 0.527273
O O8 0.044073 0.444168 0.476172
O O9 0.642737 0.767358 0.164764
O O10 0.579870 0.126636 0.746751
O O11 0.441157 0.817810 0.998366
O O12 0.042961 0.733604 0.008418
O O13 0.500000 0.000000 0.000000
O O14 0.473169 0.894616 0.428644
O O15 0.414282 0.713980 0.695309
O O16 0.962320 0.579004 0.681425
O O17 0.500000 0.000000 0.500000
#
# Coordination Sequence:
#
# PCOD8022677 Si02
#       8
#     2   2   2   2   2   2   2   2
#     4  11  24  43  69  92 135 176 219 274 335 385
#     4  10  23  37  67  95 136 163 216 271 331 388
#     4  11  22  42  65 100 131 170 218 276 329 390
#     4  11  24  42  73  98 130 170 228 272 326 389
#     4  11  23  42  66  99 131 175 216 273 334 380
#     4  11  27  44  68  93 138 174 222 270 330 399
#     4  10  26  45  66  96 133 171 224 273 326 400
#     4  11  24  42  67  99 127 171 230 274 320 395
#
# _framework density 21.820567
#
# number of rings (size 3 to 8) (size 9 to 14) (size 15 to 20)
#    0.000    1.250    1.250    3.375   12.250    1.000 
#    0.000    0.625    0.000    0.000    0.000    0.000 
#    0.000    0.000    0.000    0.000    0.000    0.000 
#
# Total GULP energy -198283.628301 kJ/mol
# GULP energy per Si atom -12392.726769 kJ/mol
# Density = 2.177090 g / cm^3
# Si number density = 21.820567 Si / 1000 Ang^3
#
#
#
# Elastic Constant Matrix: (Units=GPa)
#
#
# Indices 1 2 3 4 5 6 
#
# 1 124.6914 46.3195 33.5610 7.9865 18.2852 -18.6509
# 2 46.3195 158.4042 47.3390 16.1933 2.5997 -21.4054
# 3 33.5610 47.3390 93.5364 5.6744 14.3793 -9.7988
# 4 7.9865 16.1933 5.6744 33.4767 -10.0243 -1.4044
# 5 18.2852 2.5997 14.3793 -10.0243 16.7752 -5.8254
# 6 -18.6509 -21.4054 -9.7988 -1.4044 -5.8254 38.8217
#
#
#
# Elastic Compliance Matrix: (Units=1/GPa)
#
#
# Indices 1 2 3 4 5 6 
#
# 1 0.011869 -0.002283 -0.000131 -0.006298 -0.015595 0.001842
# 2 -0.002283 0.008654 -0.003856 -0.001417 0.004775 0.003367
# 3 -0.000131 -0.003856 0.015411 -0.005583 -0.016126 -0.000921
# 4 -0.006298 -0.001417 -0.005583 0.044944 0.039540 0.002343
# 5 -0.015595 0.004775 -0.016126 0.039540 0.116804 0.010028
# 6 0.001842 0.003367 -0.000921 0.002343 0.010028 0.029858
#
#
# Mechanical properties :
#
#
# Convention : Reuss Voigt Hill
#
# Bulk Modulus (GPa) = 42.74567 70.11899 56.43233
# Shear Modulus (GPa) = 20.17127 34.44221 27.30674
#
# Velocity S-wave (km/s) = 3.04372 3.97725 3.54138
# Velocity P-wave (km/s) = 5.65548 7.30038 6.52993
#
# Compressibility (1/GPa) = 0.02339418
#
# Stress axis : x y z
#
# Youngs Moduli (GPa) = 84.25430 115.54764 64.88921
#
# Poissons Ratio (x) = 0.26377 0.00849
# Poissons Ratio (y) = 0.19234 0.25024
# Poissons Ratio (z) = 0.01102 0.44560
#
# Static dielectric constant tensor:
#      x y z
#    x 4.298030 -0.232400 0.118840 
#    y -0.232400 3.902900 0.104410 
#    z 0.118840 0.104410 3.842880 
# 
# 
# High freq. dielectric constant tensor:
#      x y z
#    x 1.878790 -0.014230 0.006340 
#    y -0.014230 1.861390 0.000700 
#    z 0.006340 0.000700 1.846740 
# 
# From -- ./inp_files/206403.got.cif
#   From: 2010.06.25/outbox.cif.g09.slc.cpg/sg2_104_cif.got.tgz:206403.got - 2010.06.27 13:26:56.
