data_PCOD8022634
_publ_section_title
;
Structure prediction by ZEFSAII (Michael W. Deem and Ramdas Pophale) SiO2 
 PCOD8022634
Probable space group: P -1
;
_chemical_formula_sum "Si O2"
_cell_formula_units_Z 12
_cell_length_a 9.051566
_cell_length_b 10.333208
_cell_length_c 11.456480
_cell_angle_alpha 112.043949
_cell_angle_beta 55.887497
_cell_angle_gamma 71.660149
_cell_volume 599.635870
_symmetry_space_group_name_H-M "P -1"
_symmetry_group_IT_number 2
_symmetry_cell_setting 'triclinic'
loop_
_space_group_symop_operation_xyz
x,y,z
-x,-y,-z
loop_
_atom_site_type_symbol
_atom_site_label
_atom_site_fract_x
_atom_site_fract_y
_atom_site_fract_z
Si Si1 0.519998 0.189607 0.864636
Si Si2 0.513899 0.088592 0.287952
Si Si3 0.830740 0.040438 0.333144
Si Si4 0.568364 0.386620 0.734795
Si Si5 0.650220 0.210450 0.061666
Si Si6 0.939633 0.828402 0.440824
O O1 0.418615 0.366522 0.884532
O O2 0.809616 0.020922 0.641860
O O3 0.382855 0.115945 0.875906
O O4 0.499804 0.237521 0.025075
O O5 0.656094 0.048503 0.328103
O O6 0.540803 0.194460 0.217118
O O7 0.224358 0.224746 0.491193
O O8 0.669626 0.249311 0.531853
O O9 0.940536 0.873225 0.321027
O O10 0.061644 0.979586 0.139434
O O11 0.386582 0.603692 0.843597
O O12 0.788784 0.344573 0.692856
#
# Coordination Sequence:
#
# PCOD8022634 Si02
#       6
#     2   2   2   2   2   2
#     4   9  19  38  59  85 109 153 193 227 281 338
#     4  10  23  36  61  87 117 154 182 240 297 326
#     4  11  20  41  61  80 121 153 191 229 286 352
#     4  11  21  37  65  85 110 154 198 233 277 343
#     4  12  22  37  62  88 115 149 193 238 285 338
#     4   9  19  38  62  83 105 159 192 227 281 333
#
# _framework density 20.012146000000001
#
# number of rings (size 3 to 8) (size 9 to 14) (size 15 to 20)
#    1.000    0.667    3.333    3.000    0.000    1.333 
#    0.000    2.500    0.000    0.000    0.000    0.000 
#    0.000    0.000    0.000    0.000    0.000    0.000 
#
# Total GULP energy -148766.455357 kJ/mol
# GULP energy per Si atom -12397.204613 kJ/mol
# Density = 1.996660 g / cm^3
# Si number density = 20.012146 Si / 1000 Ang^3
#
#
#
# Elastic Constant Matrix: (Units=GPa)
#
#
# Indices 1 2 3 4 5 6 
#
# 1 101.7749 21.9899 20.8962 3.8647 13.3871 6.6577
# 2 21.9899 87.4842 12.7906 -9.9889 0.4760 5.8137
# 3 20.8962 12.7906 38.1399 -4.2982 9.8547 -4.3736
# 4 3.8647 -9.9889 -4.2982 28.5392 6.5192 2.9852
# 5 13.3871 0.4760 9.8547 6.5192 18.0596 -2.8429
# 6 6.6577 5.8137 -4.3736 2.9852 -2.8429 16.2029
#
#
#
# Elastic Compliance Matrix: (Units=1/GPa)
#
#
# Indices 1 2 3 4 5 6 
#
# 1 0.012828 -0.002021 -0.005361 -0.000826 -0.007355 -0.007131
# 2 -0.002021 0.013412 -0.003607 0.004934 0.000420 -0.005791
# 3 -0.005361 -0.003607 0.036831 0.008093 -0.017554 0.008868
# 4 -0.000826 0.004934 0.008093 0.044215 -0.021657 -0.011193
# 5 -0.007355 0.000420 -0.017554 -0.021657 0.080775 0.016296
# 6 -0.007131 -0.005791 0.008868 -0.011193 0.016296 0.074040
#
#
# Mechanical properties :
#
#
# Convention : Reuss Voigt Hill
#
# Bulk Modulus (GPa) = 24.33524 37.63918 30.98721
# Shear Modulus (GPa) = 16.79106 24.00848 20.39977
#
# Velocity S-wave (km/s) = 2.89977 3.46742 3.19622
# Velocity P-wave (km/s) = 4.83716 5.90590 5.39805
#
# Compressibility (1/GPa) = 0.04109267
#
# Stress axis : x y z
#
# Youngs Moduli (GPa) = 77.95245 74.56025 27.15122
#
# Poissons Ratio (x) = 0.15069 0.14556
# Poissons Ratio (y) = 0.15755 0.09794
# Poissons Ratio (z) = 0.41791 0.26894
#
# Static dielectric constant tensor:
#      x y z
#    x 3.497740 0.116030 0.088580 
#    y 0.116030 3.414310 -0.130940 
#    z 0.088580 -0.130940 3.412380 
# 
# 
# High freq. dielectric constant tensor:
#      x y z
#    x 1.773510 0.009040 0.011660 
#    y 0.009040 1.767740 -0.016350 
#    z 0.011660 -0.016350 1.766260 
# 
# From -- ./inp_files/278757.got.cif
#   From: 2010.06.25/outbox.cif.g09.slc.cpg/sg2_140_cif.got.tgz:278757.got - 2010.06.27 13:26:56.
