data_PCOD8022827
_publ_section_title
;
Structure prediction by ZEFSAII (Michael W. Deem and Ramdas Pophale) SiO2 
 PCOD8022827
Probable space group: P -1
;
_chemical_formula_sum "Si O2"
_cell_formula_units_Z 16
_cell_length_a 27.646124
_cell_length_b 8.911777
_cell_length_c 15.139415
_cell_angle_alpha 45.684515
_cell_angle_beta 20.396337
_cell_angle_gamma 35.914131
_cell_volume 728.341943
_symmetry_space_group_name_H-M "P -1"
_symmetry_group_IT_number 2
_symmetry_cell_setting 'triclinic'
loop_
_space_group_symop_operation_xyz
x,y,z
-x,-y,-z
loop_
_atom_site_type_symbol
_atom_site_label
_atom_site_fract_x
_atom_site_fract_y
_atom_site_fract_z
Si Si1 0.780788 0.813268 0.865545
Si Si2 0.897641 0.308563 0.563313
Si Si3 0.708191 0.334857 0.715436
Si Si4 0.741093 0.454283 0.963386
Si Si5 0.442053 0.986781 0.474045
Si Si6 0.208832 0.585703 0.650731
Si Si7 0.610376 0.437003 0.489939
Si Si8 0.178287 0.935734 0.869620
O O1 0.955810 0.640494 0.701186
O O2 0.795767 0.024389 0.705327
O O3 0.791532 0.629268 0.847127
O O4 0.601048 0.968448 0.165377
O O5 0.762610 0.449654 0.653006
O O6 0.786728 0.404105 0.803589
O O7 0.000000 0.000000 0.500000
O O8 0.777178 0.368628 0.493493
O O9 0.500000 0.500000 0.000000
O O10 0.530634 0.613825 0.265248
O O11 0.842387 0.177019 0.958096
O O12 0.519120 0.752799 0.510363
O O13 0.337598 0.952587 0.593212
O O14 0.298965 0.276529 0.643602
O O15 0.308315 0.662865 0.510330
O O16 0.004467 0.769974 0.955259
O O17 0.768558 0.273043 0.214511
#
# Coordination Sequence:
#
# PCOD8022827 Si02
#       8
#     2   2   2   2   2   2   2   2
#     4  11  21  42  68  94 130 167 221 262 321 389
#     4  10  23  39  64  96 124 167 217 264 311 386
#     4  11  23  44  64  92 136 172 208 270 326 377
#     4  11  21  43  70  94 129 172 217 264 325 389
#     4  11  22  44  66  95 130 174 215 271 320 390
#     4  12  25  42  65  96 134 174 216 269 327 378
#     4  11  23  43  69  95 130 175 217 262 326 392
#     4  11  22  43  65  98 132 169 215 276 325 374
#
# _framework density 21.967704000000001
#
# number of rings (size 3 to 8) (size 9 to 14) (size 15 to 20)
#    0.000    1.000    3.750    4.500    1.750    0.000 
#    4.500    5.000    0.000    0.000    0.000    0.000 
#    0.000    0.000    0.000    0.000    0.000    0.000 
#
# Total GULP energy -198356.463779 kJ/mol
# GULP energy per Si atom -12397.278986 kJ/mol
# Density = 2.191770 g / cm^3
# Si number density = 21.967704 Si / 1000 Ang^3
#
#
#
# Elastic Constant Matrix: (Units=GPa)
#
#
# Indices 1 2 3 4 5 6 
#
# 1 178.4676 49.4565 67.4879 5.0401 -17.0946 8.1364
# 2 49.4565 71.9922 49.1202 8.4129 -0.1553 11.3306
# 3 67.4879 49.1202 117.6919 10.2322 -10.1287 -4.7219
# 4 5.0401 8.4129 10.2322 36.2262 5.8922 -4.6035
# 5 -17.0946 -0.1553 -10.1287 5.8922 27.7627 -1.8698
# 6 8.1364 11.3306 -4.7219 -4.6035 -1.8698 17.3185
#
#
#
# Elastic Compliance Matrix: (Units=1/GPa)
#
#
# Indices 1 2 3 4 5 6 
#
# 1 0.008098 -0.002981 -0.003132 -0.000470 0.003763 -0.002427
# 2 -0.002981 0.026889 -0.010466 -0.004563 -0.005943 -0.020900
# 3 -0.003132 -0.010466 0.015646 -0.000682 0.004736 0.012915
# 4 -0.000470 -0.004563 -0.000682 0.031332 -0.006496 0.010647
# 5 0.003763 -0.005943 0.004736 -0.006496 0.041828 0.006200
# 6 -0.002427 -0.020900 0.012915 0.010647 0.006200 0.079576
#
#
# Mechanical properties :
#
#
# Convention : Reuss Voigt Hill
#
# Bulk Modulus (GPa) = 57.22703 77.80899 67.51801
# Shear Modulus (GPa) = 20.63103 29.73394 25.18249
#
# Velocity S-wave (km/s) = 3.06788 3.68303 3.38944
# Velocity P-wave (km/s) = 6.21742 7.32003 6.79114
#
# Compressibility (1/GPa) = 0.01747426
#
# Stress axis : x y z
#
# Youngs Moduli (GPa) = 123.48405 37.18952 63.91384
#
# Poissons Ratio (x) = 0.11087 0.20019
# Poissons Ratio (y) = 0.36813 0.66894
# Poissons Ratio (z) = 0.38677 0.38924
#
# Static dielectric constant tensor:
#      x y z
#    x 4.593590 0.031900 -0.290800 
#    y 0.031900 3.813720 0.150820 
#    z -0.290800 0.150820 4.153370 
# 
# 
# High freq. dielectric constant tensor:
#      x y z
#    x 1.875700 0.012450 -0.014290 
#    y 0.012450 1.841690 0.011330 
#    z -0.014290 0.011330 1.872250 
# 
# From -- ./inp_files/328880.got.cif
#   From: 2010.06.25/outbox.cif.g09.slc.cpg/sg2_165_cif.got.tgz:328880.got - 2010.06.27 13:26:56.
