data_PCOD8022828
_publ_section_title
;
Structure prediction by ZEFSAII (Michael W. Deem and Ramdas Pophale) SiO2 
 PCOD8022828
Probable space group: P -1
;
_chemical_formula_sum "Si O2"
_cell_formula_units_Z 16
_cell_length_a 11.794328
_cell_length_b 11.909376
_cell_length_c 14.469266
_cell_angle_alpha 119.893849
_cell_angle_beta 39.360181
_cell_angle_gamma 142.903819
_cell_volume 739.307701
_symmetry_space_group_name_H-M "P -1"
_symmetry_group_IT_number 2
_symmetry_cell_setting 'triclinic'
loop_
_space_group_symop_operation_xyz
x,y,z
-x,-y,-z
loop_
_atom_site_type_symbol
_atom_site_label
_atom_site_fract_x
_atom_site_fract_y
_atom_site_fract_z
Si Si1 0.031742 0.240230 0.173533
Si Si2 0.309261 0.726681 0.671125
Si Si3 0.935573 0.824499 0.265703
Si Si4 0.540610 0.440529 0.828978
Si Si5 0.608321 0.809112 0.338225
Si Si6 0.578758 0.728891 0.816467
Si Si7 0.291842 0.187151 0.430342
Si Si8 0.924576 0.386318 0.907231
O O1 0.199614 0.426497 0.212876
O O2 0.856896 0.229378 0.205762
O O3 0.254811 0.274107 0.994869
O O4 0.821815 0.038433 0.278580
O O5 0.385121 0.736619 0.521773
O O6 0.579875 0.872186 0.624719
O O7 0.128328 0.517578 0.747426
O O8 0.766883 0.768329 0.257652
O O9 0.731132 0.710881 0.436629
O O10 0.092570 0.776525 0.131151
O O11 0.132798 0.052118 0.254936
O O12 0.552465 0.323007 0.706051
O O13 0.549724 0.580556 0.827565
O O14 0.529602 0.674367 0.714665
O O15 0.364506 0.716709 0.984304
O O16 0.000000 0.000000 0.500000
O O17 0.000000 0.500000 0.000000
#
# Coordination Sequence:
#
# PCOD8022828 Si02
#       8
#     2   2   2   2   2   2   2   2
#     4  11  24  47  65  95 133 168 225 269 321 384
#     4  11  24  41  65  95 132 173 214 271 321 387
#     4  10  23  39  64  96 130 169 215 267 329 394
#     4  11  24  42  71  95 128 174 219 271 324 386
#     4  11  24  43  67  94 128 175 220 268 326 383
#     4  11  20  42  64  95 134 168 212 270 331 390
#     4   9  21  39  63  95 127 167 207 261 331 389
#     4  12  23  39  61  97 133 167 216 266 327 390
#
# _framework density 21.641867999999999
#
# number of rings (size 3 to 8) (size 9 to 14) (size 15 to 20)
#    0.000    1.250    3.750    1.875    1.750    1.500 
#    0.000    2.500    0.000    0.000    0.000    0.000 
#    0.000    0.000    0.000    0.000    0.000    0.000 
#
# Total GULP energy -198329.351736 kJ/mol
# GULP energy per Si atom -12395.584483 kJ/mol
# Density = 2.159261 g / cm^3
# Si number density = 21.641868 Si / 1000 Ang^3
#
#
#
# Elastic Constant Matrix: (Units=GPa)
#
#
# Indices 1 2 3 4 5 6 
#
# 1 98.2417 10.0607 22.6331 -2.1258 -10.0393 6.6327
# 2 10.0607 58.3773 28.1122 -6.1305 7.4238 2.6331
# 3 22.6331 28.1122 92.2014 -15.2940 9.8518 4.5550
# 4 -2.1258 -6.1305 -15.2940 26.0915 -2.0590 4.4830
# 5 -10.0393 7.4238 9.8518 -2.0590 45.8188 1.3797
# 6 6.6327 2.6331 4.5550 4.4830 1.3797 29.8968
#
#
#
# Elastic Compliance Matrix: (Units=1/GPa)
#
#
# Indices 1 2 3 4 5 6 
#
# 1 0.011399 -0.000973 -0.002803 -0.000317 0.003307 -0.002121
# 2 -0.000973 0.020405 -0.005452 0.001491 -0.002254 -0.000870
# 3 -0.002803 -0.005452 0.014785 0.007325 -0.002516 -0.002133
# 4 -0.000317 0.001491 0.007325 0.044319 0.000341 -0.007838
# 5 0.003307 -0.002254 -0.002516 0.000341 0.023510 -0.001288
# 6 -0.002121 -0.000870 -0.002133 -0.007838 -0.001288 0.035555
#
#
# Mechanical properties :
#
#
# Convention : Reuss Voigt Hill
#
# Bulk Modulus (GPa) = 35.54296 41.15914 38.35105
# Shear Modulus (GPa) = 28.12046 32.89571 30.50809
#
# Velocity S-wave (km/s) = 3.60857 3.90295 3.75864
# Velocity P-wave (km/s) = 5.81560 6.27457 6.04944
#
# Compressibility (1/GPa) = 0.02813497
#
# Stress axis : x y z
#
# Youngs Moduli (GPa) = 87.72990 49.00663 67.63464
#
# Poissons Ratio (x) = 0.04769 0.18955
# Poissons Ratio (y) = 0.08537 0.36871
# Poissons Ratio (z) = 0.24587 0.26716
#
# Static dielectric constant tensor:
#      x y z
#    x 4.220900 0.125990 0.151940 
#    y 0.125990 3.537810 -0.226810 
#    z 0.151940 -0.226810 4.385350 
# 
# 
# High freq. dielectric constant tensor:
#      x y z
#    x 1.860310 0.006430 0.003480 
#    y 0.006430 1.823400 -0.018530 
#    z 0.003480 -0.018530 1.862850 
# 
# From -- ./inp_files/434265.got.cif
#   From: 2010.06.25/outbox.cif.g09.slc.cpg/sg2_218_cif.got.tgz:434265.got - 2010.06.27 13:26:56.
