data_PCOD8022543
_publ_section_title
;
Structure prediction by ZEFSAII (Michael W. Deem and Ramdas Pophale) SiO2 
 PCOD8022543
Probable space group: P -1
;
_chemical_formula_sum "Si O2"
_cell_formula_units_Z 16
_cell_length_a 15.840696
_cell_length_b 26.623639
_cell_length_c 11.340934
_cell_angle_alpha 32.109506
_cell_angle_beta 22.229259
_cell_angle_gamma 22.992953
_cell_volume 706.375480
_symmetry_space_group_name_H-M "P -1"
_symmetry_group_IT_number 2
_symmetry_cell_setting 'triclinic'
loop_
_space_group_symop_operation_xyz
x,y,z
-x,-y,-z
loop_
_atom_site_type_symbol
_atom_site_label
_atom_site_fract_x
_atom_site_fract_y
_atom_site_fract_z
Si Si1 0.601235 0.866165 0.612244
Si Si2 0.722862 0.328067 0.850872
Si Si3 0.379793 0.288782 0.718082
Si Si4 0.215723 0.643635 0.553374
Si Si5 0.713787 0.189630 0.717059
Si Si6 0.379233 0.933655 0.321388
Si Si7 0.806047 0.502065 0.648404
Si Si8 0.611085 0.769476 0.566180
O O1 0.441848 0.869191 0.695794
O O2 0.952524 0.771643 0.311469
O O3 0.500000 0.000000 0.500000
O O4 0.531143 0.817080 0.909046
O O5 0.775603 0.356036 0.599123
O O6 0.498104 0.452252 0.983429
O O7 0.580181 0.266200 0.150981
O O8 0.583982 0.267197 0.606765
O O9 0.585908 0.153421 0.653128
O O10 0.283701 0.404390 0.530599
O O11 0.080764 0.322935 0.082937
O O12 0.500000 0.500000 0.500000
O O13 0.245750 0.737791 0.386236
O O14 0.026333 0.042361 0.593953
O O15 0.598736 0.842123 0.326921
O O16 0.500000 0.000000 0.000000
O O17 0.000000 0.500000 0.500000
O O18 0.038766 0.353306 0.602964
#
# Coordination Sequence:
#
# PCOD8022543 Si02
#       8
#     2   2   2   2   2   2   2   2
#     4  12  28  43  70 105 145 189 240 292 357 435
#     4  11  23  46  70 103 139 185 238 291 354 423
#     4  12  25  48  75 107 148 187 241 302 362 432
#     4  12  26  45  76 104 147 190 235 295 365 432
#     4  12  28  46  70 109 145 192 241 298 364 434
#     4  12  26  45  74 103 145 194 243 298 365 429
#     4  10  22  46  77 102 137 187 243 297 354 421
#     4  11  25  47  75 102 141 190 243 299 359 422
#
# _framework density 22.650842999999998
#
# number of rings (size 3 to 8) (size 9 to 14) (size 15 to 20)
#    0.000    0.500    6.250    2.625    3.500    4.000 
#    0.000    0.000    0.000    0.000    0.000    0.000 
#    0.000    0.000    0.000    0.000    0.000    0.000 
#
# Total GULP energy -198364.957210 kJ/mol
# GULP energy per Si atom -12397.809826 kJ/mol
# Density = 2.259929 g / cm^3
# Si number density = 22.650843 Si / 1000 Ang^3
#
#
#
# Elastic Constant Matrix: (Units=GPa)
#
#
# Indices 1 2 3 4 5 6 
#
# 1 82.3150 40.3406 27.1780 -1.1527 26.4832 0.3646
# 2 40.3406 128.2334 59.7047 9.3170 7.8231 0.7844
# 3 27.1780 59.7047 134.6256 14.7930 12.6979 -5.8642
# 4 -1.1527 9.3170 14.7930 38.3709 -7.6013 6.9610
# 5 26.4832 7.8231 12.6979 -7.6013 35.5175 3.6955
# 6 0.3646 0.7844 -5.8642 6.9610 3.6955 33.2979
#
#
#
# Elastic Compliance Matrix: (Units=1/GPa)
#
#
# Indices 1 2 3 4 5 6 
#
# 1 0.018922 -0.004996 -0.000155 -0.001093 -0.013352 0.001593
# 2 -0.004996 0.011208 -0.004222 -0.000482 0.002784 -0.001161
# 3 -0.000155 -0.004222 0.010317 -0.004321 -0.003906 0.003255
# 4 -0.001093 -0.000482 -0.004321 0.031325 0.010044 -0.008401
# 5 -0.013352 0.002784 -0.003906 0.010044 0.041808 -0.007347
# 6 0.001593 -0.001161 0.003255 -0.008401 -0.007347 0.033187
#
#
# Mechanical properties :
#
#
# Convention : Reuss Voigt Hill
#
# Bulk Modulus (GPa) = 46.08405 66.62450 56.35427
# Shear Modulus (GPa) = 28.94404 35.96731 32.45568
#
# Velocity S-wave (km/s) = 3.57856 3.98917 3.78943
# Velocity P-wave (km/s) = 6.12081 7.12008 6.63927
#
# Compressibility (1/GPa) = 0.02169948
#
# Stress axis : x y z
#
# Youngs Moduli (GPa) = 52.84962 89.22141 96.92826
#
# Poissons Ratio (x) = 0.44574 0.01506
# Poissons Ratio (y) = 0.26403 0.40926
# Poissons Ratio (z) = 0.00821 0.37672
#
# Static dielectric constant tensor:
#      x y z
#    x 3.484710 0.678040 0.668110 
#    y 0.678040 3.797830 -0.265710 
#    z 0.668110 -0.265710 3.754440 
# 
# 
# High freq. dielectric constant tensor:
#      x y z
#    x 1.911180 0.003040 0.005950 
#    y 0.003040 1.902420 0.011070 
#    z 0.005950 0.011070 1.902360 
# 
# From -- ./inp_files/467682.got.cif
#   From: 2010.06.25/outbox.cif.g09.slc.cpg/sg2_234_cif.got.tgz:467682.got - 2010.06.27 13:26:56.
