data_PCOD8022499
_publ_section_title
;
Structure prediction by ZEFSAII (Michael W. Deem and Ramdas Pophale) SiO2 
 PCOD8022499
Probable space group: P -1
;
_chemical_formula_sum "Si O2"
_cell_formula_units_Z 16
_cell_length_a 24.542637
_cell_length_b 22.986570
_cell_length_c 9.655472
_cell_angle_alpha 153.571524
_cell_angle_beta 27.449019
_cell_angle_gamma 161.653547
_cell_volume 735.346289
_symmetry_space_group_name_H-M "P -1"
_symmetry_group_IT_number 2
_symmetry_cell_setting 'triclinic'
loop_
_space_group_symop_operation_xyz
x,y,z
-x,-y,-z
loop_
_atom_site_type_symbol
_atom_site_label
_atom_site_fract_x
_atom_site_fract_y
_atom_site_fract_z
Si Si1 0.239355 0.737954 0.203564
Si Si2 0.158776 0.546463 0.528275
Si Si3 0.015040 0.164446 0.347798
Si Si4 0.933533 0.807253 0.116079
Si Si5 0.263013 0.024382 0.651626
Si Si6 0.708002 0.159964 0.386536
Si Si7 0.347529 0.614814 0.502996
Si Si8 0.096164 0.935611 0.309312
O O1 0.222736 0.724215 0.377858
O O2 0.042196 0.584297 0.252477
O O3 0.342247 0.953000 0.377198
O O4 0.337693 0.689078 0.826386
O O5 0.204821 0.685218 0.601033
O O6 0.290682 0.666404 0.617345
O O7 0.174398 0.408942 0.150142
O O8 0.209649 0.378059 0.313662
O O9 0.851978 0.095758 0.485245
O O10 0.995911 0.181357 0.588322
O O11 0.000000 0.000000 0.000000
O O12 0.827456 0.851343 0.403318
O O13 0.946326 0.809924 0.258898
O O14 0.133655 0.982470 0.969103
O O15 0.445116 0.261173 0.718490
O O16 0.500000 0.000000 0.500000
O O17 0.751547 0.042450 0.024224
#
# Coordination Sequence:
#
# PCOD8022499 Si02
#       8
#     2   2   2   2   2   2   2   2
#     4  11  23  43  64  99 134 179 226 272 342 409
#     4  11  22  42  67  94 133 179 228 276 335 403
#     4  12  25  45  68  99 133 177 224 277 338 404
#     4  10  22  46  71  94 128 183 227 272 338 406
#     4  11  23  44  65 100 137 169 228 282 330 411
#     4  12  26  40  66 102 140 174 231 287 330 397
#     4  12  25  40  71  98 137 181 217 281 348 395
#     4  11  23  43  72  91 134 183 217 275 346 392
#
# _framework density 21.758455999999999
#
# number of rings (size 3 to 8) (size 9 to 14) (size 15 to 20)
#    0.000    0.750    6.250    2.625    5.250    0.500 
#    0.000    0.625    2.750    0.000    0.000    0.000 
#    0.000    0.000    0.000    0.000    0.000    0.000 
#
# Total GULP energy -198360.152669 kJ/mol
# GULP energy per Si atom -12397.509542 kJ/mol
# Density = 2.170893 g / cm^3
# Si number density = 21.758456 Si / 1000 Ang^3
#
#
#
# Elastic Constant Matrix: (Units=GPa)
#
#
# Indices 1 2 3 4 5 6 
#
# 1 112.9733 43.5009 26.1220 -14.3180 12.0652 -18.0823
# 2 43.5009 107.8287 28.7686 4.3611 -7.3429 10.9489
# 3 26.1220 28.7686 117.9227 4.2709 -7.5823 -8.3410
# 4 -14.3180 4.3611 4.2709 21.1444 -10.3804 -4.9882
# 5 12.0652 -7.3429 -7.5823 -10.3804 39.3832 -0.0265
# 6 -18.0823 10.9489 -8.3410 -4.9882 -0.0265 31.5599
#
#
#
# Elastic Compliance Matrix: (Units=1/GPa)
#
#
# Indices 1 2 3 4 5 6 
#
# 1 0.017518 -0.009134 -0.001345 0.016148 -0.003062 0.015400
# 2 -0.009134 0.015424 -0.002102 -0.010784 0.002418 -0.012842
# 3 -0.001345 -0.002102 0.009596 -0.001091 0.001582 0.002324
# 4 0.016148 -0.010784 -0.001091 0.072195 0.011877 0.024126
# 5 -0.003062 0.002418 0.001582 0.011877 0.030215 -0.000273
# 6 0.015400 -0.012842 0.002324 0.024126 -0.000273 0.049392
#
#
# Mechanical properties :
#
#
# Convention : Reuss Voigt Hill
#
# Bulk Modulus (GPa) = 57.54428 59.50086 58.52257
# Shear Modulus (GPa) = 22.19312 34.43971 28.31642
#
# Velocity S-wave (km/s) = 3.19717 3.98278 3.61140
# Velocity P-wave (km/s) = 6.33510 6.96818 6.65917
#
# Compressibility (1/GPa) = 0.01737792
#
# Stress axis : x y z
#
# Youngs Moduli (GPa) = 57.08400 64.83219 104.20588
#
# Poissons Ratio (x) = 0.59216 0.14013
# Poissons Ratio (y) = 0.52139 0.21904
# Poissons Ratio (z) = 0.07676 0.13627
#
# Static dielectric constant tensor:
#      x y z
#    x 4.246060 -0.073960 0.102840 
#    y -0.073960 3.745040 0.056960 
#    z 0.102840 0.056960 3.985310 
# 
# 
# High freq. dielectric constant tensor:
#      x y z
#    x 1.868510 -0.018190 0.007580 
#    y -0.018190 1.835260 0.004700 
#    z 0.007580 0.004700 1.853220 
# 
# From -- ./inp_files/355302.got.cif
#   From: 2010.06.25/outbox.cif.g09.slc.cpg/sg2_178_cif.got.tgz:355302.got - 2010.06.27 13:26:56.
