data_PCOD8022786
_publ_section_title
;
Structure prediction by ZEFSAII (Michael W. Deem and Ramdas Pophale) SiO2 
 PCOD8022786
Probable space group: P -1
;
_chemical_formula_sum "Si O2"
_cell_formula_units_Z 14
_cell_length_a 18.532197
_cell_length_b 9.387895
_cell_length_c 7.287251
_cell_angle_alpha 129.894574
_cell_angle_beta 126.188992
_cell_angle_gamma 38.142610
_cell_volume 590.781867
_symmetry_space_group_name_H-M "P -1"
_symmetry_group_IT_number 2
_symmetry_cell_setting 'triclinic'
loop_
_space_group_symop_operation_xyz
x,y,z
-x,-y,-z
loop_
_atom_site_type_symbol
_atom_site_label
_atom_site_fract_x
_atom_site_fract_y
_atom_site_fract_z
Si Si1 0.368430 0.028233 0.972164
Si Si2 0.631832 0.745699 0.187486
Si Si3 0.974569 0.357986 0.542600
Si Si4 0.960708 0.795962 0.955269
Si Si5 0.763244 0.542255 0.592098
Si Si6 0.196278 0.940578 0.712797
Si Si7 0.849180 0.276459 0.987728
O O1 0.291246 0.293917 0.172849
O O2 0.500910 0.842399 0.098731
O O3 0.371776 0.063731 0.787345
O O4 0.312038 0.906562 0.829236
O O5 0.686850 0.715180 0.443208
O O6 0.707829 0.488954 0.971735
O O7 0.900016 0.421330 0.671742
O O8 0.903818 0.353533 0.273564
O O9 0.106734 0.088233 0.529664
O O10 0.982990 0.568301 0.703139
O O11 0.882299 0.882107 0.088222
O O12 0.886134 0.018244 0.879303
O O13 0.088676 0.734598 0.120146
O O14 0.754678 0.332166 0.418308
#
# Coordination Sequence:
#
# PCOD8022786 Si02
#       7
#     2   2   2   2   2   2   2
#     4  11  25  45  70  89 133 173 212 275 314 376
#     4  10  23  47  66  95 127 173 222 258 323 383
#     4  11  22  37  61  92 133 162 209 259 322 384
#     4  11  21  37  62  93 128 169 201 262 326 374
#     4  11  24  43  67  97 131 167 216 268 321 379
#     4  12  24  40  62 104 126 168 219 256 327 390
#     4  10  23  39  61  95 132 162 213 267 314 386
#
# _framework density 23.697412
#
# number of rings (size 3 to 8) (size 9 to 14) (size 15 to 20)
#    0.000    1.143    4.286    2.571    2.000    2.857 
#    0.000    2.857    0.000    0.000    0.000    0.000 
#    0.000    0.000    0.000    0.000    0.000    0.000 
#
# Total GULP energy -173542.341160 kJ/mol
# GULP energy per Si atom -12395.881511 kJ/mol
# Density = 2.364348 g / cm^3
# Si number density = 23.697412 Si / 1000 Ang^3
#
#
#
# Elastic Constant Matrix: (Units=GPa)
#
#
# Indices 1 2 3 4 5 6 
#
# 1 138.5844 27.3070 21.0081 -1.2526 20.5511 -12.9776
# 2 27.3070 60.5979 3.2263 15.3573 21.4640 -5.6154
# 3 21.0081 3.2263 61.1284 0.5663 6.2285 16.7955
# 4 -1.2526 15.3573 0.5663 19.8528 0.5334 4.3985
# 5 20.5511 21.4640 6.2285 0.5334 31.4078 4.2185
# 6 -12.9776 -5.6154 16.7955 4.3985 4.2185 50.1048
#
#
#
# Elastic Compliance Matrix: (Units=1/GPa)
#
#
# Indices 1 2 3 4 5 6 
#
# 1 0.009235 -0.002847 -0.003584 0.002238 -0.003881 0.003405
# 2 -0.002847 0.032482 -0.000317 -0.026305 -0.020775 0.007067
# 3 -0.003584 -0.000317 0.019734 0.001161 -0.000344 -0.007652
# 4 0.002238 -0.026305 0.001161 0.072718 0.016462 -0.010527
# 5 -0.003881 -0.020775 -0.000344 0.016462 0.049551 -0.008835
# 6 0.003405 0.007067 -0.007652 -0.010527 -0.008835 0.025865
#
#
# Mechanical properties :
#
#
# Convention : Reuss Voigt Hill
#
# Bulk Modulus (GPa) = 20.85350 40.37705 30.61527
# Shear Modulus (GPa) = 20.91461 34.19102 27.55281
#
# Velocity S-wave (km/s) = 2.97403 3.80256 3.41353
# Velocity P-wave (km/s) = 4.54006 6.02950 5.33700
#
# Compressibility (1/GPa) = 0.04795359
#
# Stress axis : x y z
#
# Youngs Moduli (GPa) = 108.28598 30.78614 50.67342
#
# Poissons Ratio (x) = 0.08766 0.18162
# Poissons Ratio (y) = 0.30834 0.01607
# Poissons Ratio (z) = 0.38811 0.00976
#
# Static dielectric constant tensor:
#      x y z
#    x 4.863490 -0.110400 -0.337860 
#    y -0.110400 4.371460 0.018800 
#    z -0.337860 0.018800 4.054160 
# 
# 
# High freq. dielectric constant tensor:
#      x y z
#    x 1.959920 0.010620 -0.018400 
#    y 0.010620 1.942810 0.002290 
#    z -0.018400 0.002290 1.924580 
# 
# From -- ./inp_files/328087.got.cif
#   From: 2010.06.25/outbox.cif.g09.slc.cpg/sg2_165_cif.got.tgz:328087.got - 2010.06.27 13:26:56.
