data_PCOD8022673
_publ_section_title
;
Structure prediction by ZEFSAII (Michael W. Deem and Ramdas Pophale) SiO2 
 PCOD8022673
Probable space group: P -1
;
_chemical_formula_sum "Si O2"
_cell_formula_units_Z 12
_cell_length_a 9.345498
_cell_length_b 9.136830
_cell_length_c 12.944473
_cell_angle_alpha 131.981737
_cell_angle_beta 62.953084
_cell_angle_gamma 82.757634
_cell_volume 556.210805
_symmetry_space_group_name_H-M "P -1"
_symmetry_group_IT_number 2
_symmetry_cell_setting 'triclinic'
loop_
_space_group_symop_operation_xyz
x,y,z
-x,-y,-z
loop_
_atom_site_type_symbol
_atom_site_label
_atom_site_fract_x
_atom_site_fract_y
_atom_site_fract_z
Si Si1 0.516202 0.288192 0.107051
Si Si2 0.775752 0.823459 0.253320
Si Si3 0.343175 0.096510 0.449385
Si Si4 0.813226 0.348386 0.976698
Si Si5 0.755380 0.733231 0.665884
Si Si6 0.759679 0.243034 0.720534
O O1 0.402179 0.309447 0.259328
O O2 0.323297 0.503317 0.196332
O O3 0.668204 0.356892 0.115150
O O4 0.670698 0.002620 0.870736
O O5 0.817905 0.766276 0.336224
O O6 0.934209 0.872281 0.186432
O O7 0.540516 0.070270 0.413001
O O8 0.802746 0.591171 0.080473
O O9 0.252831 0.262827 0.453728
O O10 0.390904 0.825256 0.287555
O O11 0.736401 0.301225 0.876279
O O12 0.000000 0.500000 0.500000
O O13 0.000000 0.000000 0.500000
#
# Coordination Sequence:
#
# PCOD8022673 Si02
#       6
#     2   2   2   2   2   2
#     4  11  24  41  66 100 132 171 224 280 326 385
#     4  10  23  37  66  97 138 166 212 280 347 379
#     4  11  21  43  64  99 128 174 220 277 327 398
#     4  11  21  39  63 101 130 168 219 278 328 393
#     4  11  25  44  67  97 138 176 225 274 328 391
#     4  12  21  38  73 100 127 171 234 278 323 381
#
# _framework density 21.574553000000002
#
# number of rings (size 3 to 8) (size 9 to 14) (size 15 to 20)
#    0.000    1.000    5.000    2.500    0.000    0.000 
#    3.000    1.667    0.000    0.000    0.000    0.000 
#    0.000    0.000    0.000    0.000    0.000    0.000 
#
# Total GULP energy -148657.850998 kJ/mol
# GULP energy per Si atom -12388.154250 kJ/mol
# Density = 2.152545 g / cm^3
# Si number density = 21.574553 Si / 1000 Ang^3
#
#
#
# Elastic Constant Matrix: (Units=GPa)
#
#
# Indices 1 2 3 4 5 6 
#
# 1 136.5492 53.9736 34.5936 -18.4112 -16.8467 15.3367
# 2 53.9736 116.1919 40.5705 -8.0263 -17.6619 -2.8405
# 3 34.5936 40.5705 98.3724 -3.3594 -10.6179 -7.2790
# 4 -18.4112 -8.0263 -3.3594 33.9401 -0.4772 -4.0233
# 5 -16.8467 -17.6619 -10.6179 -0.4772 40.7784 -7.3789
# 6 15.3367 -2.8405 -7.2790 -4.0233 -7.3789 39.5246
#
#
#
# Elastic Compliance Matrix: (Units=1/GPa)
#
#
# Indices 1 2 3 4 5 6 
#
# 1 0.010547 -0.003727 -0.002169 0.004166 0.001493 -0.004057
# 2 -0.003727 0.012039 -0.003085 0.000858 0.003325 0.002451
# 3 -0.002169 -0.003085 0.012606 -0.000254 0.001630 0.003220
# 4 0.004166 0.000858 -0.000254 0.032201 0.002801 0.002199
# 5 0.001493 0.003325 0.001630 0.002801 0.028028 0.005477
# 6 -0.004057 0.002451 0.003220 0.002199 0.005477 0.028891
#
#
# Mechanical properties :
#
#
# Convention : Reuss Voigt Hill
#
# Bulk Modulus (GPa) = 58.03376 67.70989 62.87182
# Shear Modulus (GPa) = 33.77963 37.64702 35.71332
#
# Velocity S-wave (km/s) = 3.96121 4.18182 4.07301
# Velocity P-wave (km/s) = 6.91947 7.40061 7.16408
#
# Compressibility (1/GPa) = 0.01723135
#
# Stress axis : x y z
#
# Youngs Moduli (GPa) = 94.80961 83.06053 79.32691
#
# Poissons Ratio (x) = 0.30954 0.17206
# Poissons Ratio (y) = 0.35332 0.24474
# Poissons Ratio (z) = 0.20564 0.25626
#
# Static dielectric constant tensor:
#      x y z
#    x 4.485410 0.223800 -0.392180 
#    y 0.223800 3.777220 -0.097200 
#    z -0.392180 -0.097200 4.156830 
# 
# 
# High freq. dielectric constant tensor:
#      x y z
#    x 1.862370 0.012620 -0.021750 
#    y 0.012620 1.813560 -0.006630 
#    z -0.021750 -0.006630 1.858050 
# 
# From -- ./inp_files/178307.got.cif
#   From: 2010.06.25/outbox.cif.g09.slc.cpg/sg2_90_cif.got.tgz:178307.got - 2010.06.27 13:26:56.
