data_PCOD8022332
_publ_section_title
;
Structure prediction by ZEFSAII (Michael W. Deem and Ramdas Pophale) SiO2 
 PCOD8022332
Probable space group: P -1
;
_chemical_formula_sum "Si O2"
_cell_formula_units_Z 16
_cell_length_a 11.882607
_cell_length_b 5.115092
_cell_length_c 11.625168
_cell_angle_alpha 86.026149
_cell_angle_beta 95.327637
_cell_angle_gamma 85.834608
_cell_volume 699.613840
_symmetry_space_group_name_H-M "P -1"
_symmetry_group_IT_number 2
_symmetry_cell_setting 'triclinic'
loop_
_space_group_symop_operation_xyz
x,y,z
-x,-y,-z
loop_
_atom_site_type_symbol
_atom_site_label
_atom_site_fract_x
_atom_site_fract_y
_atom_site_fract_z
Si Si1 0.303726 0.926293 0.939898
Si Si2 0.530677 0.383466 0.179562
Si Si3 0.786989 0.169292 0.555647
Si Si4 0.715414 0.569894 0.918616
Si Si5 0.414003 0.917592 0.586451
Si Si6 0.839795 0.653083 0.698242
Si Si7 0.936947 0.366775 0.395101
Si Si8 0.276239 0.275589 0.725862
O O1 0.430425 0.810992 0.916380
O O2 0.240977 0.038507 0.813594
O O3 0.237943 0.681653 0.992283
O O4 0.307457 0.157604 0.025178
O O5 0.404990 0.516636 0.139577
O O6 0.516517 0.226897 0.300696
O O7 0.629004 0.582252 0.196554
O O8 0.668954 0.273035 0.479964
O O9 0.819420 0.382535 0.643094
O O10 0.880207 0.126103 0.461807
O O11 0.766857 0.898305 0.626738
O O12 0.807903 0.620153 0.828858
O O13 0.500000 0.000000 0.500000
O O14 0.333857 0.165843 0.617630
O O15 0.971953 0.718465 0.693276
O O16 0.836718 0.548818 0.320734
O O17 0.000000 0.500000 0.500000
#
# Coordination Sequence:
#
# PCOD8022332 Si02
#       8
#     2   2   2   2   2   2   2   2
#     4  11  25  45  68  96 132 177 224 281 330 401
#     4  11  24  40  68  97 135 175 225 267 331 415
#     4  11  22  43  64  98 136 180 220 263 338 403
#     4  12  25  43  69  97 134 174 226 281 343 375
#     4  11  24  37  63 101 145 174 211 274 338 399
#     4  11  25  42  68 100 132 177 229 282 324 399
#     4  10  22  45  71  96 134 181 224 270 328 406
#     4  11  24  44  66 102 130 180 227 268 327 408
#
# _framework density 22.869761
#
# number of rings (size 3 to 8) (size 9 to 14) (size 15 to 20)
#    0.000    1.000    2.500    4.125    5.250    1.500 
#    0.000    1.250    0.000    0.000    0.000    0.000 
#    0.000    0.000    0.000    0.000    0.000    0.000 
#
# Total GULP energy -198294.982729 kJ/mol
# GULP energy per Si atom -12393.436421 kJ/mol
# Density = 2.281771 g / cm^3
# Si number density = 22.869761 Si / 1000 Ang^3
#
#
#
# Elastic Constant Matrix: (Units=GPa)
#
#
# Indices 1 2 3 4 5 6 
#
# 1 87.0455 16.8102 55.1446 -0.5352 -24.4063 9.8886
# 2 16.8102 100.6868 47.7790 -11.4876 -16.8152 7.0039
# 3 55.1446 47.7790 141.5258 -15.4649 -49.6134 5.4244
# 4 -0.5352 -11.4876 -15.4649 31.1952 7.3141 -8.8270
# 5 -24.4063 -16.8152 -49.6134 7.3141 40.3723 -7.2120
# 6 9.8886 7.0039 5.4244 -8.8270 -7.2120 22.0500
#
#
#
# Elastic Compliance Matrix: (Units=1/GPa)
#
#
# Indices 1 2 3 4 5 6 
#
# 1 0.016780 0.000427 -0.006126 -0.005273 0.002414 -0.007475
# 2 0.000427 0.012123 -0.004171 0.001843 -0.000594 -0.002472
# 3 -0.006126 -0.004171 0.016423 0.004926 0.015088 0.006939
# 4 -0.005273 0.001843 0.004926 0.039858 -0.000675 0.016303
# 5 0.002414 -0.000594 0.015088 -0.000675 0.046491 0.010330
# 6 -0.007475 -0.002472 0.006939 0.016303 0.010330 0.057687
#
#
# Mechanical properties :
#
#
# Convention : Reuss Voigt Hill
#
# Bulk Modulus (GPa) = 39.08472 63.19175 51.13823
# Shear Modulus (GPa) = 22.97470 32.69178 27.83324
#
# Velocity S-wave (km/s) = 3.17296 3.78494 3.49238
# Velocity P-wave (km/s) = 5.52728 6.84048 6.21864
#
# Compressibility (1/GPa) = 0.02558545
#
# Stress axis : x y z
#
# Youngs Moduli (GPa) = 59.59387 82.48832 60.89143
#
# Poissons Ratio (x) = -0.03521 0.37302
# Poissons Ratio (y) = -0.02544 0.25399
# Poissons Ratio (z) = 0.36507 0.34407
#
# Static dielectric constant tensor:
#      x y z
#    x 4.516350 0.237470 -0.191760 
#    y 0.237470 4.333200 -0.185260 
#    z -0.191760 -0.185260 4.379340 
# 
# 
# High freq. dielectric constant tensor:
#      x y z
#    x 1.883230 0.005630 -0.011650 
#    y 0.005630 1.903610 -0.013810 
#    z -0.011650 -0.013810 1.914840 
# 
# From -- ./inp_files/410542.got.cif
#   From: 2010.06.25/outbox.cif.g09.slc.cpg/sg2_206_cif.got.tgz:410542.got - 2010.06.27 13:26:56.
