data_PCOD8022842
_publ_section_title
;
Structure prediction by ZEFSAII (Michael W. Deem and Ramdas Pophale) SiO2 
 PCOD8022842
Probable space group: P -1
;
_chemical_formula_sum "Si O2"
_cell_formula_units_Z 14
_cell_length_a 9.680867
_cell_length_b 8.689642
_cell_length_c 11.216057
_cell_angle_alpha 66.888480
_cell_angle_beta 73.471263
_cell_angle_gamma 116.535380
_cell_volume 643.834399
_symmetry_space_group_name_H-M "P -1"
_symmetry_group_IT_number 2
_symmetry_cell_setting 'triclinic'
loop_
_space_group_symop_operation_xyz
x,y,z
-x,-y,-z
loop_
_atom_site_type_symbol
_atom_site_label
_atom_site_fract_x
_atom_site_fract_y
_atom_site_fract_z
Si Si1 0.332790 0.086334 0.101585
Si Si2 0.194063 0.157234 0.337919
Si Si3 0.287440 0.801755 0.001621
Si Si4 0.643268 0.037013 0.311865
Si Si5 0.834537 0.765303 0.058686
Si Si6 0.461804 0.689794 0.644504
Si Si7 0.050411 0.332817 0.164354
O O1 0.221725 0.030446 0.270219
O O2 0.550200 0.217320 0.029595
O O3 0.254170 0.867666 0.115989
O O4 0.312343 0.232772 0.978967
O O5 0.363304 0.282132 0.351790
O O6 0.185395 0.327370 0.219459
O O7 0.000000 0.000000 0.500000
O O8 0.330888 0.968872 0.835070
O O9 0.099042 0.564253 0.091517
O O10 0.571623 0.173435 0.305506
O O11 0.833440 0.151703 0.305718
O O12 0.503280 0.791382 0.470314
O O13 0.714549 0.566814 0.243283
O O14 0.930439 0.704638 0.966185
O O15 0.000000 0.000000 0.000000
#
# Coordination Sequence:
#
# PCOD8022842 Si02
#       7
#     2   2   2   2   2   2   2
#     4  10  23  39  65  95 129 171 217 276 321 379
#     4  11  21  43  67  93 131 172 221 267 325 397
#     4  11  21  40  66  97 132 169 223 266 326 397
#     4  11  22  38  66  99 128 172 211 273 323 393
#     4  11  23  41  65  97 131 171 225 270 320 390
#     4  11  23  40  66  97 134 171 215 266 336 380
#     4  11  22  38  69  93 124 178 222 266 323 387
#
# _framework density 21.744723
#
# number of rings (size 3 to 8) (size 9 to 14) (size 15 to 20)
#    0.000    1.143    4.286    2.143    2.000    2.286 
#    0.000    3.571    9.429    0.000    0.000    0.000 
#    0.000    0.000    0.000    0.000    0.000    0.000 
#
# Total GULP energy -173539.869287 kJ/mol
# GULP energy per Si atom -12395.704949 kJ/mol
# Density = 2.169523 g / cm^3
# Si number density = 21.744723 Si / 1000 Ang^3
#
#
#
# Elastic Constant Matrix: (Units=GPa)
#
#
# Indices 1 2 3 4 5 6 
#
# 1 100.6683 8.5470 27.8455 -7.1215 -1.6357 1.4884
# 2 8.5470 85.8387 66.8634 -12.1851 -1.7485 3.9301
# 3 27.8455 66.8634 142.4266 -20.0466 0.1423 0.2159
# 4 -7.1215 -12.1851 -20.0466 39.2308 -1.8403 -6.0031
# 5 -1.6357 -1.7485 0.1423 -1.8403 32.6444 5.2744
# 6 1.4884 3.9301 0.2159 -6.0031 5.2744 26.0547
#
#
#
# Elastic Compliance Matrix: (Units=1/GPa)
#
#
# Indices 1 2 3 4 5 6 
#
# 1 0.010604 0.001002 -0.002411 0.000936 0.000757 -0.000674
# 2 0.001002 0.018763 -0.008843 0.001126 0.001623 -0.002883
# 3 -0.002411 -0.008843 0.012108 0.003316 -0.000833 0.002304
# 4 0.000936 0.001126 0.003316 0.028689 0.000706 0.006216
# 5 0.000757 0.001623 -0.000833 0.000706 0.031863 -0.006569
# 6 -0.000674 -0.002883 0.002304 0.006216 -0.006569 0.041597
#
#
# Mechanical properties :
#
#
# Convention : Reuss Voigt Hill
#
# Bulk Modulus (GPa) = 47.68778 59.49393 53.59086
# Shear Modulus (GPa) = 29.21926 34.63115 31.92521
#
# Velocity S-wave (km/s) = 3.66968 3.99510 3.83584
# Velocity P-wave (km/s) = 6.31932 6.97858 6.65712
#
# Compressibility (1/GPa) = 0.02096973
#
# Stress axis : x y z
#
# Youngs Moduli (GPa) = 94.30336 53.29567 82.58843
#
# Poissons Ratio (x) = -0.05339 0.19915
# Poissons Ratio (y) = -0.09446 0.73035
# Poissons Ratio (z) = 0.22740 0.47130
#
# Static dielectric constant tensor:
#      x y z
#    x 4.225200 -0.056350 -0.024130 
#    y -0.056350 3.632060 0.128840 
#    z -0.024130 0.128840 3.912360 
# 
# 
# High freq. dielectric constant tensor:
#      x y z
#    x 1.882220 -0.006060 -0.001180 
#    y -0.006060 1.824830 0.002960 
#    z -0.001180 0.002960 1.846610 
# 
# From -- ./inp_files/157609.got.cif
#   From: 2010.06.25/outbox.cif.g09.slc.cpg/sg2_79_cif.got.tgz:157609.got - 2010.06.27 13:26:56.
