data_PCOD8022405
_publ_section_title
;
Structure prediction by ZEFSAII (Michael W. Deem and Ramdas Pophale) SiO2 
 PCOD8022405
Probable space group: P -1
;
_chemical_formula_sum "Si O2"
_cell_formula_units_Z 16
_cell_length_a 15.090317
_cell_length_b 15.223399
_cell_length_c 11.987282
_cell_angle_alpha 30.333048
_cell_angle_beta 122.993679
_cell_angle_gamma 142.856723
_cell_volume 741.009313
_symmetry_space_group_name_H-M "P -1"
_symmetry_group_IT_number 2
_symmetry_cell_setting 'triclinic'
loop_
_space_group_symop_operation_xyz
x,y,z
-x,-y,-z
loop_
_atom_site_type_symbol
_atom_site_label
_atom_site_fract_x
_atom_site_fract_y
_atom_site_fract_z
Si Si1 0.988881 0.110444 0.764556
Si Si2 0.555493 0.180179 0.006943
Si Si3 0.481664 0.327103 0.361403
Si Si4 0.359300 0.610464 0.399901
Si Si5 0.829868 0.294858 0.174806
Si Si6 0.837220 0.283508 0.445663
Si Si7 0.248984 0.469385 0.837585
Si Si8 0.497106 0.736098 0.890997
O O1 0.931133 0.235181 0.615497
O O2 0.162383 0.344983 0.564383
O O3 0.857816 0.843823 0.888509
O O4 0.000000 0.000000 0.000000
O O5 0.597740 0.355467 0.738281
O O6 0.724397 0.316375 0.024589
O O7 0.475822 0.191803 0.038713
O O8 0.422399 0.871216 0.211361
O O9 0.549319 0.423939 0.429178
O O10 0.602811 0.349401 0.351554
O O11 0.288720 0.025657 0.561105
O O12 0.497843 0.532809 0.090586
O O13 0.890451 0.391175 0.237765
O O14 0.000000 0.500000 0.000000
O O15 0.863838 0.499752 0.295994
O O16 0.641270 0.999174 0.626258
O O17 0.326163 0.593364 0.878630
#
# Coordination Sequence:
#
# PCOD8022405 Si02
#       8
#     2   2   2   2   2   2   2   2
#     4  12  25  43  64 100 136 171 222 272 325 392
#     4  10  23  42  69  90 131 176 224 267 325 402
#     4  11  22  42  67  94 135 177 215 275 331 385
#     4  10  22  46  63  91 135 180 217 266 326 396
#     4  11  22  41  64  96 129 170 219 272 334 387
#     4  12  23  40  70  96 131 175 217 276 332 384
#     4  12  23  42  67 102 133 170 221 276 327 389
#     4  12  22  41  68 102 126 170 226 278 328 389
#
# _framework density 21.592172000000001
#
# number of rings (size 3 to 8) (size 9 to 14) (size 15 to 20)
#    0.000    0.750    5.000    3.750    0.000    1.000 
#    4.500    1.250    0.000    0.000    0.000    0.000 
#    0.000    0.000    0.000    0.000    0.000    0.000 
#
# Total GULP energy -198300.862972 kJ/mol
# GULP energy per Si atom -12393.803936 kJ/mol
# Density = 2.154303 g / cm^3
# Si number density = 21.592172 Si / 1000 Ang^3
#
#
#
# Elastic Constant Matrix: (Units=GPa)
#
#
# Indices 1 2 3 4 5 6 
#
# 1 97.8259 21.1492 60.9885 1.9069 -7.5282 -2.8075
# 2 21.1492 75.1949 28.8419 10.0769 -16.7569 -7.4369
# 3 60.9885 28.8419 98.7876 1.3747 -13.9860 1.2344
# 4 1.9069 10.0769 1.3747 43.7054 8.2970 -10.0534
# 5 -7.5282 -16.7569 -13.9860 8.2970 48.0838 6.6059
# 6 -2.8075 -7.4369 1.2344 -10.0534 6.6059 27.2966
#
#
#
# Elastic Compliance Matrix: (Units=1/GPa)
#
#
# Indices 1 2 3 4 5 6 
#
# 1 0.016821 -0.000846 -0.010331 0.000555 -0.001097 0.002436
# 2 -0.000846 0.016835 -0.003624 -0.004290 0.005169 0.001833
# 3 -0.010331 -0.003624 0.018047 -0.000748 0.003030 -0.003875
# 4 0.000555 -0.004290 -0.000748 0.027948 -0.007980 0.011146
# 5 -0.001097 0.005169 0.003030 -0.007980 0.025787 -0.008021
# 6 0.002436 0.001833 -0.003875 0.011146 -0.008021 0.043606
#
#
# Mechanical properties :
#
#
# Convention : Reuss Voigt Hill
#
# Bulk Modulus (GPa) = 45.24947 54.86308 50.05627
# Shear Modulus (GPa) = 26.88006 34.53909 30.70958
#
# Velocity S-wave (km/s) = 3.53214 4.00385 3.77537
# Velocity P-wave (km/s) = 6.13487 6.84386 6.49904
#
# Compressibility (1/GPa) = 0.02209971
#
# Stress axis : x y z
#
# Youngs Moduli (GPa) = 59.45104 59.40051 55.41206
#
# Poissons Ratio (x) = 0.05026 0.57246
# Poissons Ratio (y) = 0.05031 0.20082
# Poissons Ratio (z) = 0.61418 0.21527
#
# Static dielectric constant tensor:
#      x y z
#    x 3.768880 -0.066710 0.076410 
#    y -0.066710 4.117610 0.021450 
#    z 0.076410 0.021450 4.199860 
# 
# 
# High freq. dielectric constant tensor:
#      x y z
#    x 1.829160 -0.000400 -0.000920 
#    y -0.000400 1.850210 0.010010 
#    z -0.000920 0.010010 1.857940 
# 
# From -- ./inp_files/399749.got.cif
#   From: 2010.06.25/outbox.cif.g09.slc.cpg/sg2_200_cif.got.tgz:399749.got - 2010.06.27 13:26:56.
