data_PCOD8022231
_publ_section_title
;
Structure prediction by ZEFSAII (Michael W. Deem and Ramdas Pophale) SiO2 
 PCOD8022231
Probable space group: P -1
;
_chemical_formula_sum "Si O2"
_cell_formula_units_Z 16
_cell_length_a 19.592375
_cell_length_b 11.498663
_cell_length_c 7.971684
_cell_angle_alpha 95.690803
_cell_angle_beta 124.634041
_cell_angle_gamma 39.948750
_cell_volume 731.416937
_symmetry_space_group_name_H-M "P -1"
_symmetry_group_IT_number 2
_symmetry_cell_setting 'triclinic'
loop_
_space_group_symop_operation_xyz
x,y,z
-x,-y,-z
loop_
_atom_site_type_symbol
_atom_site_label
_atom_site_fract_x
_atom_site_fract_y
_atom_site_fract_z
Si Si1 0.402678 0.320716 0.723421
Si Si2 0.888419 0.602541 0.706092
Si Si3 0.244080 0.510957 0.890052
Si Si4 0.478220 0.990809 0.658050
Si Si5 0.065529 0.218894 0.355048
Si Si6 0.363091 0.758798 0.904254
Si Si7 0.124342 0.897631 0.800226
Si Si8 0.067317 0.700051 0.179125
O O1 0.298634 0.465116 0.769107
O O2 0.263807 0.494277 0.404950
O O3 0.498638 0.079225 0.819380
O O4 0.541505 0.249032 0.880745
O O5 0.924751 0.650528 0.613795
O O6 0.931463 0.413206 0.704446
O O7 0.698265 0.853424 0.532508
O O8 0.000000 0.500000 0.000000
O O9 0.223922 0.662410 0.971851
O O10 0.069242 0.653822 0.674938
O O11 0.382236 0.273407 0.148774
O O12 0.500000 0.000000 0.500000
O O13 0.246400 0.944368 0.614007
O O14 0.010088 0.236821 0.099298
O O15 0.250366 0.840235 0.900834
O O16 0.500000 0.500000 0.000000
O O17 0.000000 0.000000 0.500000
O O18 0.028576 0.072451 0.846290
#
# Coordination Sequence:
#
# PCOD8022231 Si02
#       8
#     2   2   2   2   2   2   2   2
#     4  11  23  43  71  95 135 176 220 271 338 393
#     4   9  20  40  67  96 132 166 217 278 326 384
#     4  12  23  42  66  96 135 177 219 264 342 392
#     4  11  24  44  67 100 137 173 222 281 331 389
#     4  11  24  42  71  99 132 177 225 282 324 394
#     4  12  24  44  66  96 134 176 222 274 328 400
#     4  12  23  45  66  95 136 178 218 272 329 409
#     4  10  22  45  68  99 131 178 220 273 336 391
#
# _framework density 21.875347999999999
#
# number of rings (size 3 to 8) (size 9 to 14) (size 15 to 20)
#    0.000    1.000    3.750    3.375    0.000    4.500 
#    2.250    5.625    0.000    0.000    0.000    0.000 
#    0.000    0.000    0.000    0.000    0.000    0.000 
#
# Total GULP energy -198341.228296 kJ/mol
# GULP energy per Si atom -12396.326768 kJ/mol
# Density = 2.182556 g / cm^3
# Si number density = 21.875348 Si / 1000 Ang^3
#
#
#
# Elastic Constant Matrix: (Units=GPa)
#
#
# Indices 1 2 3 4 5 6 
#
# 1 122.3402 30.4198 39.8734 -7.6101 32.0946 18.4877
# 2 30.4198 127.9037 43.3341 -20.6593 3.1114 26.6549
# 3 39.8734 43.3341 130.0796 -16.6831 18.8613 27.4186
# 4 -7.6101 -20.6593 -16.6831 33.0265 9.3769 -7.1681
# 5 32.0946 3.1114 18.8613 9.3769 38.2207 -4.0514
# 6 18.4877 26.6549 27.4186 -7.1681 -4.0514 36.1263
#
#
#
# Elastic Compliance Matrix: (Units=1/GPa)
#
#
# Indices 1 2 3 4 5 6 
#
# 1 0.012966 -0.000631 0.000134 0.004831 -0.012804 -0.006749
# 2 -0.000631 0.010388 -0.001235 0.004944 -0.001512 -0.005593
# 3 0.000134 -0.001235 0.011555 0.005676 -0.007922 -0.007690
# 4 0.004831 0.004944 0.005676 0.041521 -0.017892 -0.004196
# 5 -0.012804 -0.001512 -0.007922 -0.017892 0.046970 0.015398
# 6 -0.006749 -0.005593 -0.007690 -0.004196 0.015398 0.041992
#
#
# Mechanical properties :
#
#
# Convention : Reuss Voigt Hill
#
# Bulk Modulus (GPa) = 31.79987 67.50869 49.65428
# Shear Modulus (GPa) = 27.88040 39.25445 33.56742
#
# Velocity S-wave (km/s) = 3.57390 4.24070 3.92150
# Velocity P-wave (km/s) = 5.62128 7.40984 6.57664
#
# Compressibility (1/GPa) = 0.03144667
#
# Stress axis : x y z
#
# Youngs Moduli (GPa) = 77.12230 96.26722 86.53962
#
# Poissons Ratio (x) = 0.06074 -0.01163
# Poissons Ratio (y) = 0.04866 0.10686
# Poissons Ratio (z) = -0.01037 0.11888
#
# Static dielectric constant tensor:
#      x y z
#    x 4.458890 0.548930 0.261570 
#    y 0.548930 4.343460 -0.291370 
#    z 0.261570 -0.291370 4.173300 
# 
# 
# High freq. dielectric constant tensor:
#      x y z
#    x 1.863650 0.018150 0.011630 
#    y 0.018150 1.862950 -0.016340 
#    z 0.011630 -0.016340 1.862910 
# 
# From -- ./inp_files/345405.got.cif
#   From: 2010.06.25/outbox.cif.g09.slc.cpg/sg2_173_cif.got.tgz:345405.got - 2010.06.27 13:26:56.
