data_PCOD8022483
_publ_section_title
;
Structure prediction by ZEFSAII (Michael W. Deem and Ramdas Pophale) SiO2 
 PCOD8022483
Probable space group: P -1
;
_chemical_formula_sum "Si O2"
_cell_formula_units_Z 14
_cell_length_a 11.216877
_cell_length_b 11.361033
_cell_length_c 9.442045
_cell_angle_alpha 38.307703
_cell_angle_beta 126.760438
_cell_angle_gamma 118.483172
_cell_volume 597.490399
_symmetry_space_group_name_H-M "P -1"
_symmetry_group_IT_number 2
_symmetry_cell_setting 'triclinic'
loop_
_space_group_symop_operation_xyz
x,y,z
-x,-y,-z
loop_
_atom_site_type_symbol
_atom_site_label
_atom_site_fract_x
_atom_site_fract_y
_atom_site_fract_z
Si Si1 0.145887 0.124509 0.323630
Si Si2 0.470227 0.993551 0.651971
Si Si3 0.956056 0.274777 0.288541
Si Si4 0.383307 0.657884 0.086322
Si Si5 0.431839 0.683572 0.408427
Si Si6 0.054441 0.208314 0.877297
Si Si7 0.139910 0.474096 0.462721
O O1 0.316912 0.082237 0.516347
O O2 0.072671 0.269039 0.246455
O O3 0.050013 0.928578 0.445731
O O4 0.142776 0.212716 0.082417
O O5 0.592696 0.130135 0.687247
O O6 0.500000 0.000000 0.500000
O O7 0.468202 0.776274 0.909936
O O8 0.794554 0.334090 0.062427
O O9 0.980207 0.571126 0.702083
O O10 0.442023 0.748794 0.190585
O O11 0.426988 0.435859 0.321273
O O12 0.297046 0.531382 0.456170
O O13 0.162613 0.291289 0.753255
O O14 0.913320 0.345998 0.653443
O O15 0.000000 0.000000 0.000000
#
# Coordination Sequence:
#
# PCOD8022483 Si02
#       7
#     2   2   2   2   2   2   2
#     4  10  23  43  72  96 135 183 230 286 341 409
#     4  11  27  46  69 100 141 186 227 285 350 419
#     4  10  22  46  70 105 129 179 237 286 340 400
#     4  10  25  47  72  98 139 179 233 286 341 415
#     4  11  26  45  68 105 134 187 226 283 348 408
#     4  11  24  43  66 101 139 184 227 282 350 408
#     4  11  26  41  72 102 140 177 234 289 339 417
#
# _framework density 23.431339000000001
#
# number of rings (size 3 to 8) (size 9 to 14) (size 15 to 20)
#    0.000    1.429    1.429    1.286   10.000    2.857 
#    2.571    0.000    0.000    0.000    0.000    0.000 
#    0.000    0.000    0.000    0.000    0.000    0.000 
#
# Total GULP energy -173594.487702 kJ/mol
# GULP energy per Si atom -12399.606264 kJ/mol
# Density = 2.337801 g / cm^3
# Si number density = 23.431339 Si / 1000 Ang^3
#
#
#
# Elastic Constant Matrix: (Units=GPa)
#
#
# Indices 1 2 3 4 5 6 
#
# 1 91.5100 33.4140 37.3793 3.2822 -9.7274 0.9056
# 2 33.4140 121.8059 30.0918 -2.0139 -15.7170 -9.5145
# 3 37.3793 30.0918 123.7845 10.7950 -22.9759 1.6715
# 4 3.2822 -2.0139 10.7950 31.5203 -2.3695 -3.2450
# 5 -9.7274 -15.7170 -22.9759 -2.3695 43.8929 2.9410
# 6 0.9056 -9.5145 1.6715 -3.2450 2.9410 26.8300
#
#
#
# Elastic Compliance Matrix: (Units=1/GPa)
#
#
# Indices 1 2 3 4 5 6 
#
# 1 0.013382 -0.002964 -0.003193 -0.000612 0.000294 -0.001410
# 2 -0.002964 0.009947 -0.001363 0.001948 0.002047 0.003724
# 3 -0.003193 -0.001363 0.010466 -0.003214 0.004235 -0.001881
# 4 -0.000612 0.001948 -0.003214 0.033549 0.000360 0.004930
# 5 0.000294 0.002047 0.004235 0.000360 0.025975 -0.002352
# 6 -0.001410 0.003724 -0.001881 0.004930 -0.002352 0.039611
#
#
# Mechanical properties :
#
#
# Convention : Reuss Voigt Hill
#
# Bulk Modulus (GPa) = 53.32451 59.87449 56.59950
# Shear Modulus (GPa) = 32.42077 36.19634 34.30855
#
# Velocity S-wave (km/s) = 3.72378 3.93464 3.83066
# Velocity P-wave (km/s) = 6.42619 6.80077 6.61613
#
# Compressibility (1/GPa) = 0.01875310
#
# Stress axis : x y z
#
# Youngs Moduli (GPa) = 74.72896 100.53351 95.54743
#
# Poissons Ratio (x) = 0.29802 0.30511
# Poissons Ratio (y) = 0.22152 0.13025
# Poissons Ratio (z) = 0.23863 0.13705
#
# Static dielectric constant tensor:
#      x y z
#    x 4.178420 -0.039190 -0.251290 
#    y -0.039190 4.028970 -0.072780 
#    z -0.251290 -0.072780 4.474760 
# 
# 
# High freq. dielectric constant tensor:
#      x y z
#    x 1.921690 0.000790 -0.013090 
#    y 0.000790 1.924890 -0.007250 
#    z -0.013090 -0.007250 1.941380 
# 
# From -- ./inp_files/71457.got.cif
#   From: 2010.06.25/outbox.cif.g09.slc.cpg/sg2_36_cif.got.tgz:71457.got - 2010.06.27 13:26:56.
