data_PCOD8022371
_publ_section_title
;
Structure prediction by ZEFSAII (Michael W. Deem and Ramdas Pophale) SiO2 
 PCOD8022371
Probable space group: P -1
;
_chemical_formula_sum "Si O2"
_cell_formula_units_Z 16
_cell_length_a 11.827498
_cell_length_b 12.165171
_cell_length_c 11.706890
_cell_angle_alpha 63.452525
_cell_angle_beta 132.194518
_cell_angle_gamma 76.721406
_cell_volume 670.561134
_symmetry_space_group_name_H-M "P -1"
_symmetry_group_IT_number 2
_symmetry_cell_setting 'triclinic'
loop_
_space_group_symop_operation_xyz
x,y,z
-x,-y,-z
loop_
_atom_site_type_symbol
_atom_site_label
_atom_site_fract_x
_atom_site_fract_y
_atom_site_fract_z
Si Si1 0.512208 0.351014 0.543810
Si Si2 0.365243 0.717484 0.599185
Si Si3 0.990712 0.586725 0.069828
Si Si4 0.699540 0.072872 0.189166
Si Si5 0.175935 0.030337 0.927719
Si Si6 0.371070 0.150809 0.105294
Si Si7 0.168553 0.108668 0.329798
Si Si8 0.201570 0.708832 0.821345
O O1 0.500000 0.500000 0.500000
O O2 0.509258 0.345254 0.408789
O O3 0.268842 0.428945 0.384489
O O4 0.754599 0.129921 0.869275
O O5 0.118347 0.791117 0.387114
O O6 0.299963 0.892507 0.519480
O O7 0.547251 0.538481 0.902929
O O8 0.000000 0.500000 0.000000
O O9 0.804842 0.657263 0.012076
O O10 0.878342 0.794893 0.866799
O O11 0.452992 0.178353 0.038226
O O12 0.713153 0.206195 0.168559
O O13 0.654533 0.082213 0.019857
O O14 0.968576 0.834148 0.517422
O O15 0.211568 0.135582 0.966701
O O16 0.632293 0.936336 0.442049
O O17 0.897583 0.263899 0.132716
#
# Coordination Sequence:
#
# PCOD8022371 Si02
#       8
#     2   2   2   2   2   2   2   2
#     4  12  24  41  69 104 144 181 235 294 359 424
#     4  12  23  43  76 103 136 185 239 297 362 409
#     4  12  24  44  71 106 142 187 234 293 363 422
#     4  10  23  47  71 100 148 184 242 292 338 425
#     4  12  24  44  66 105 145 190 230 287 360 427
#     4  11  25  43  67 102 145 188 228 285 362 425
#     4  11  22  45  72 104 139 175 242 298 349 416
#     4  10  22  45  73 107 132 183 248 303 336 407
#
# _framework density 23.860610999999999
#
# number of rings (size 3 to 8) (size 9 to 14) (size 15 to 20)
#    0.000    0.750    2.500    5.625    0.000    0.500 
#    0.000    2.500    0.000    0.000    0.000    0.000 
#    0.000    0.000    0.000    0.000    0.000    0.000 
#
# Total GULP energy -198357.780690 kJ/mol
# GULP energy per Si atom -12397.361293 kJ/mol
# Density = 2.380630 g / cm^3
# Si number density = 23.860611 Si / 1000 Ang^3
#
#
#
# Elastic Constant Matrix: (Units=GPa)
#
#
# Indices 1 2 3 4 5 6 
#
# 1 110.5367 23.6924 33.2035 4.7173 10.5329 3.0477
# 2 23.6924 93.4903 30.7544 -0.1507 3.9637 8.6864
# 3 33.2035 30.7544 109.8884 -15.1567 -4.9646 11.3717
# 4 4.7173 -0.1507 -15.1567 24.3931 -1.0617 -1.3524
# 5 10.5329 3.9637 -4.9646 -1.0617 39.6362 9.6391
# 6 3.0477 8.6864 11.3717 -1.3524 9.6391 30.6038
#
#
#
# Elastic Compliance Matrix: (Units=1/GPa)
#
#
# Indices 1 2 3 4 5 6 
#
# 1 0.011065 -0.001527 -0.003916 -0.004650 -0.003838 0.001790
# 2 -0.001527 0.012300 -0.003032 -0.001659 -0.000750 -0.002050
# 3 -0.003916 -0.003032 0.013006 0.008755 0.004315 -0.004554
# 4 -0.004650 -0.001659 0.008755 0.047420 0.004140 -0.001528
# 5 -0.003838 -0.000750 0.004315 0.004140 0.029431 -0.010095
# 6 0.001790 -0.002050 -0.004554 -0.001528 -0.010095 0.037884
#
#
# Mechanical properties :
#
#
# Convention : Reuss Voigt Hill
#
# Bulk Modulus (GPa) = 51.48903 54.35733 52.92318
# Shear Modulus (GPa) = 28.64863 34.01094 31.32979
#
# Velocity S-wave (km/s) = 3.46882 3.77954 3.62751
# Velocity P-wave (km/s) = 6.13755 6.47126 6.30662
#
# Compressibility (1/GPa) = 0.01942161
#
# Stress axis : x y z
#
# Youngs Moduli (GPa) = 90.37294 81.30012 76.88948
#
# Poissons Ratio (x) = 0.12415 0.30111
# Poissons Ratio (y) = 0.13800 0.23310
# Poissons Ratio (z) = 0.35391 0.24647
#
# Static dielectric constant tensor:
#      x y z
#    x 4.483530 -0.038920 0.010460 
#    y -0.038920 4.002750 0.156800 
#    z 0.010460 0.156800 4.301230 
# 
# 
# High freq. dielectric constant tensor:
#      x y z
#    x 1.960790 -0.001170 0.006820 
#    y -0.001170 1.933400 0.004050 
#    z 0.006820 0.004050 1.947230 
# 
# From -- ./inp_files/427880.got.cif
#   From: 2010.06.25/outbox.cif.g09.slc.cpg/sg2_214_cif.got.tgz:427880.got - 2010.06.27 13:26:56.
