data_PCOD8022341
_publ_section_title
;
Structure prediction by ZEFSAII (Michael W. Deem and Ramdas Pophale) SiO2 
 PCOD8022341
Probable space group: P -1
;
_chemical_formula_sum "Si O2"
_cell_formula_units_Z 16
_cell_length_a 9.426253
_cell_length_b 22.286245
_cell_length_c 18.377807
_cell_angle_alpha 161.819292
_cell_angle_beta 35.767728
_cell_angle_gamma 143.373974
_cell_volume 693.402291
_symmetry_space_group_name_H-M "P -1"
_symmetry_group_IT_number 2
_symmetry_cell_setting 'triclinic'
loop_
_space_group_symop_operation_xyz
x,y,z
-x,-y,-z
loop_
_atom_site_type_symbol
_atom_site_label
_atom_site_fract_x
_atom_site_fract_y
_atom_site_fract_z
Si Si1 0.031248 0.378634 0.275948
Si Si2 0.733719 0.072012 0.533381
Si Si3 0.215563 0.429708 0.532115
Si Si4 0.443554 0.664742 0.972494
Si Si5 0.823696 0.996077 0.999856
Si Si6 0.945481 0.578106 0.248380
Si Si7 0.160834 0.228865 0.748236
Si Si8 0.397655 0.984517 0.265513
O O1 0.323490 0.407841 0.171505
O O2 0.000000 0.500000 0.500000
O O3 0.904058 0.451808 0.342828
O O4 0.909111 0.157104 0.088537
O O5 0.966138 0.186208 0.522471
O O6 0.500000 0.000000 0.500000
O O7 0.775700 0.868666 0.315674
O O8 0.716141 0.242974 0.795443
O O9 0.500000 0.500000 0.500000
O O10 0.119407 0.474909 0.702869
O O11 0.167348 0.202974 0.274000
O O12 0.278019 0.489992 0.793962
O O13 0.562594 0.851030 0.087074
O O14 0.544688 0.024347 0.174198
O O15 0.000000 0.000000 0.000000
O O16 0.178621 0.462620 0.006204
O O17 0.348587 0.183147 0.553787
O O18 0.869449 0.151296 0.773572
#
# Coordination Sequence:
#
# PCOD8022341 Si02
#       8
#     2   2   2   2   2   2   2   2
#     4  12  25  44  73 106 137 189 241 298 356 423
#     4  11  26  43  69 105 143 176 235 298 352 421
#     4  12  28  47  69 106 148 186 241 297 349 435
#     4  10  22  45  71  98 142 182 238 289 348 432
#     4  12  24  44  73 105 144 187 240 295 366 415
#     4  11  25  46  72 100 141 190 231 286 364 422
#     4   9  21  40  67  98 138 180 229 282 355 410
#     4   9  18  40  69 100 134 181 233 291 338 425
#
# _framework density 23.074628000000001
#
# number of rings (size 3 to 8) (size 9 to 14) (size 15 to 20)
#    0.000    1.250    2.500    3.375    3.500    4.000 
#    0.000    0.000    0.000    0.000    0.000    0.000 
#    0.000    0.000    0.000    0.000    0.000    0.000 
#
# Total GULP energy -198220.427221 kJ/mol
# GULP energy per Si atom -12388.776701 kJ/mol
# Density = 2.302211 g / cm^3
# Si number density = 23.074628 Si / 1000 Ang^3
#
#
#
# Elastic Constant Matrix: (Units=GPa)
#
#
# Indices 1 2 3 4 5 6 
#
# 1 149.5403 38.5572 41.5452 8.9145 -7.5433 -0.3009
# 2 38.5572 80.5559 18.3620 12.4051 -8.3440 3.2919
# 3 41.5452 18.3620 87.3149 12.9109 -5.9947 9.7883
# 4 8.9145 12.4051 12.9109 39.5863 2.9097 -2.2943
# 5 -7.5433 -8.3440 -5.9947 2.9097 42.0320 -0.7116
# 6 -0.3009 3.2919 9.7883 -2.2943 -0.7116 29.3732
#
#
#
# Elastic Compliance Matrix: (Units=1/GPa)
#
#
# Indices 1 2 3 4 5 6 
#
# 1 0.008549 -0.003365 -0.003580 0.000369 0.000359 0.001695
# 2 -0.003365 0.015128 -0.000601 -0.004079 0.002566 -0.001786
# 3 -0.003580 -0.000601 0.014577 -0.004168 0.001519 -0.005116
# 4 0.000369 -0.004079 -0.004168 0.028284 -0.003229 0.003981
# 5 0.000359 0.002566 0.001519 -0.003229 0.024798 -0.000442
# 6 0.001695 -0.001786 -0.005116 0.003981 -0.000442 0.036267
#
#
# Mechanical properties :
#
#
# Convention : Reuss Voigt Hill
#
# Bulk Modulus (GPa) = 43.17329 57.14886 50.16107
# Shear Modulus (GPa) = 33.24159 36.79475 35.01817
#
# Velocity S-wave (km/s) = 3.79966 3.99757 3.89987
# Velocity P-wave (km/s) = 6.16448 6.79177 6.48571
#
# Compressibility (1/GPa) = 0.02316247
#
# Stress axis : x y z
#
# Youngs Moduli (GPa) = 116.97541 66.10230 68.60320
#
# Poissons Ratio (x) = 0.22241 0.24559
# Poissons Ratio (y) = 0.39358 0.04122
# Poissons Ratio (z) = 0.41876 0.03972
#
# Static dielectric constant tensor:
#      x y z
#    x 2.264990 0.418090 0.399820 
#    y 0.418090 4.091260 -0.205840 
#    z 0.399820 -0.205840 4.323040 
# 
# 
# High freq. dielectric constant tensor:
#      x y z
#    x 1.905420 -0.004970 -0.012350 
#    y -0.004970 1.917910 0.001920 
#    z -0.012350 0.001920 1.919480 
# 
# From -- ./inp_files/562974.got.cif
#   From: 2010.06.25/outbox.cif.g09.slc.cpg/sg2_282_cif.got.tgz:562974.got - 2010.06.27 13:26:56.
