data_PCOD8022504
_publ_section_title
;
Structure prediction by ZEFSAII (Michael W. Deem and Ramdas Pophale) SiO2 
 PCOD8022504
Probable space group: P -1
;
_chemical_formula_sum "Si O2"
_cell_formula_units_Z 16
_cell_length_a 12.323911
_cell_length_b 15.932275
_cell_length_c 19.097649
_cell_angle_alpha 26.469604
_cell_angle_beta 43.249398
_cell_angle_gamma 27.101418
_cell_volume 716.779375
_symmetry_space_group_name_H-M "P -1"
_symmetry_group_IT_number 2
_symmetry_cell_setting 'triclinic'
loop_
_space_group_symop_operation_xyz
x,y,z
-x,-y,-z
loop_
_atom_site_type_symbol
_atom_site_label
_atom_site_fract_x
_atom_site_fract_y
_atom_site_fract_z
Si Si1 0.130756 0.826524 0.268915
Si Si2 0.726758 0.898665 0.002702
Si Si3 0.652083 0.368339 0.172343
Si Si4 0.838703 0.188185 0.002950
Si Si5 0.163803 0.410596 0.056343
Si Si6 0.041168 0.398818 0.749357
Si Si7 0.393738 0.194407 0.625183
Si Si8 0.578074 0.043722 0.499829
O O1 0.319445 0.481053 0.453135
O O2 0.313149 0.839651 0.172480
O O3 0.922525 0.038696 0.268671
O O4 0.966522 0.953068 0.180981
O O5 0.730286 0.820766 0.138805
O O6 0.987438 0.612579 0.054806
O O7 0.500000 0.000000 0.000000
O O8 0.456755 0.594820 0.030887
O O9 0.523350 0.319907 0.314820
O O10 0.689031 0.530319 0.076043
O O11 0.853927 0.397785 0.852447
O O12 0.000000 0.000000 0.000000
O O13 0.359492 0.069411 0.245288
O O14 0.000000 0.500000 0.000000
O O15 0.159082 0.291404 0.695483
O O16 0.879513 0.734540 0.593104
O O17 0.436483 0.099176 0.594879
O O18 0.500000 0.000000 0.500000
#
# Coordination Sequence:
#
# PCOD8022504 Si02
#       8
#     2   2   2   2   2   2   2   2
#     4  10  24  41  67 100 133 180 229 280 344 403
#     4  10  22  46  71  96 136 179 228 289 346 404
#     4  11  23  45  67  94 141 181 225 281 340 408
#     4  11  22  39  64  97 134 183 225 267 341 413
#     4  11  25  47  72 101 133 183 233 283 345 411
#     4  11  23  43  65  99 142 177 224 282 337 401
#     4  12  25  45  70 102 137 180 234 278 339 407
#     4  12  25  43  67 103 142 180 225 281 336 402
#
# _framework density 22.322073
#
# number of rings (size 3 to 8) (size 9 to 14) (size 15 to 20)
#    0.000    1.000    3.750    2.625    0.000    5.500 
#    2.250    3.125    0.000    0.000    0.000    0.000 
#    0.000    0.000    0.000    0.000    0.000    0.000 
#
# Total GULP energy -198332.591661 kJ/mol
# GULP energy per Si atom -12395.786979 kJ/mol
# Density = 2.227127 g / cm^3
# Si number density = 22.322073 Si / 1000 Ang^3
#
#
#
# Elastic Constant Matrix: (Units=GPa)
#
#
# Indices 1 2 3 4 5 6 
#
# 1 147.7431 27.1931 66.6252 4.8275 3.6613 -12.8108
# 2 27.1931 91.9984 40.8953 5.7304 4.7910 8.9157
# 3 66.6252 40.8953 158.6493 -10.8561 0.9707 -3.8015
# 4 4.8275 5.7304 -10.8561 40.6260 3.8552 3.2290
# 5 3.6613 4.7910 0.9707 3.8552 20.8094 2.8629
# 6 -12.8108 8.9157 -3.8015 3.2290 2.8629 38.1796
#
#
#
# Elastic Compliance Matrix: (Units=1/GPa)
#
#
# Indices 1 2 3 4 5 6 
#
# 1 0.008937 -0.001214 -0.003490 -0.001963 -0.001205 0.003191
# 2 -0.001214 0.013168 -0.003100 -0.002094 -0.001807 -0.003479
# 3 -0.003490 -0.003100 0.008786 0.003159 0.000314 0.000137
# 4 -0.001963 -0.002094 0.003159 0.026508 -0.003984 -0.001798
# 5 -0.001205 -0.001807 0.000314 -0.003984 0.049868 -0.003354
# 6 0.003191 -0.003479 0.000137 -0.001798 -0.003354 0.028492
#
#
# Mechanical properties :
#
#
# Convention : Reuss Voigt Hill
#
# Bulk Modulus (GPa) = 65.43960 74.20200 69.82080
# Shear Modulus (GPa) = 31.95649 37.50147 34.72898
#
# Velocity S-wave (km/s) = 3.78777 4.10325 3.94866
# Velocity P-wave (km/s) = 6.96486 7.46743 7.22052
#
# Compressibility (1/GPa) = 0.01528127
#
# Stress axis : x y z
#
# Youngs Moduli (GPa) = 111.89788 75.93979 113.82136
#
# Poissons Ratio (x) = 0.09220 0.39729
# Poissons Ratio (y) = 0.13586 0.35286
# Poissons Ratio (z) = 0.39058 0.23542
#
# Static dielectric constant tensor:
#      x y z
#    x 4.154750 -0.195410 -0.100160 
#    y -0.195410 4.370510 0.132800 
#    z -0.100160 0.132800 4.410500 
# 
# 
# High freq. dielectric constant tensor:
#      x y z
#    x 1.854030 0.005520 -0.001390 
#    y 0.005520 1.889630 -0.005340 
#    z -0.001390 -0.005340 1.892480 
# 
# From -- ./inp_files/188930.got.cif
#   From: 2010.06.25/outbox.cif.g09.slc.cpg/sg2_95_cif.got.tgz:188930.got - 2010.06.27 13:26:56.
