data_PCOD8022776
_publ_section_title
;
Structure prediction by ZEFSAII (Michael W. Deem and Ramdas Pophale) SiO2 
 PCOD8022776
Probable space group: P -1
;
_chemical_formula_sum "Si O2"
_cell_formula_units_Z 14
_cell_length_a 14.784953
_cell_length_b 9.801267
_cell_length_c 14.936937
_cell_angle_alpha 37.207513
_cell_angle_beta 28.916991
_cell_angle_gamma 41.930685
_cell_volume 624.747094
_symmetry_space_group_name_H-M "P -1"
_symmetry_group_IT_number 2
_symmetry_cell_setting 'triclinic'
loop_
_space_group_symop_operation_xyz
x,y,z
-x,-y,-z
loop_
_atom_site_type_symbol
_atom_site_label
_atom_site_fract_x
_atom_site_fract_y
_atom_site_fract_z
Si Si1 0.870590 0.080183 0.245112
Si Si2 0.861488 0.844594 0.740589
Si Si3 0.470679 0.818506 0.205493
Si Si4 0.693495 0.450008 0.076962
Si Si5 0.529322 0.877109 0.633860
Si Si6 0.819930 0.353590 0.318026
Si Si7 0.282634 0.108977 0.887128
O O1 0.827019 0.221625 0.116291
O O2 0.779287 0.255328 0.309032
O O3 0.755397 0.863979 0.463329
O O4 0.093954 0.987733 0.111808
O O5 0.957097 0.739326 0.804796
O O6 0.651090 0.996569 0.856023
O O7 0.825660 0.622482 0.827351
O O8 0.000000 0.000000 0.500000
O O9 0.585080 0.598668 0.173400
O O10 0.313173 0.730695 0.448660
O O11 0.604374 0.941790 0.091026
O O12 0.539197 0.371532 0.183250
O O13 0.500000 0.000000 0.500000
O O14 0.413251 0.022301 0.735933
O O15 0.789211 0.623601 0.201598
#
# Coordination Sequence:
#
# PCOD8022776 Si02
#       7
#     2   2   2   2   2   2   2
#     4  11  21  37  64  96 128 157 207 259 309 365
#     4  10  23  39  60  92 125 164 208 260 302 367
#     4  11  22  37  67  90 122 166 208 253 314 361
#     4  11  21  41  59  92 130 162 203 259 312 364
#     4  10  24  39  58  96 134 158 199 259 315 372
#     4  11  19  38  64  96 127 152 214 266 301 357
#     4  12  21  38  67  93 120 166 205 258 310 360
#
# _framework density 22.409068000000001
#
# number of rings (size 3 to 8) (size 9 to 14) (size 15 to 20)
#    0.000    1.143    4.286    3.857    0.000    2.286 
#    5.143    0.714    0.000    1.714    0.000    0.000 
#    0.000    0.000    0.000    0.000    0.000    0.000 
#
# Total GULP energy -173440.946712 kJ/mol
# GULP energy per Si atom -12388.639051 kJ/mol
# Density = 2.235806 g / cm^3
# Si number density = 22.409068 Si / 1000 Ang^3
#
#
#
# Elastic Constant Matrix: (Units=GPa)
#
#
# Indices 1 2 3 4 5 6 
#
# 1 123.4832 45.5428 59.6812 -0.1347 -30.2793 -2.0355
# 2 45.5428 42.2899 35.7769 -3.6869 -6.3219 -1.9170
# 3 59.6812 35.7769 142.9868 -12.9592 -49.9628 5.3090
# 4 -0.1347 -3.6869 -12.9592 42.9370 10.9766 -6.1875
# 5 -30.2793 -6.3219 -49.9628 10.9766 46.7727 -0.8605
# 6 -2.0355 -1.9170 5.3090 -6.1875 -0.8605 37.0842
#
#
#
# Elastic Compliance Matrix: (Units=1/GPa)
#
#
# Indices 1 2 3 4 5 6 
#
# 1 0.016597 -0.017154 0.000462 -0.003857 0.009816 -0.000458
# 2 -0.017154 0.049405 -0.010871 0.005883 -0.017351 0.003748
# 3 0.000462 -0.010871 0.014647 -0.000580 0.014569 -0.002392
# 4 -0.003857 0.005883 -0.000580 0.026396 -0.008435 0.004384
# 5 0.009816 -0.017351 0.014569 -0.008435 0.042879 -0.002856
# 6 -0.000458 0.003748 -0.002392 0.004384 -0.002856 0.028142
#
#
# Mechanical properties :
#
#
# Convention : Reuss Voigt Hill
#
# Bulk Modulus (GPa) = 39.17776 65.64020 52.40898
# Shear Modulus (GPa) = 20.68684 36.54273 28.61478
#
# Velocity S-wave (km/s) = 3.04163 4.04259 3.57729
# Velocity P-wave (km/s) = 5.46409 7.15160 6.36403
#
# Compressibility (1/GPa) = 0.02552468
#
# Stress axis : x y z
#
# Youngs Moduli (GPa) = 60.25225 20.24077 68.27107
#
# Poissons Ratio (x) = 0.34721 -0.03156
# Poissons Ratio (y) = 1.03357 0.74215
# Poissons Ratio (z) = -0.02785 0.22003
#
# Static dielectric constant tensor:
#      x y z
#    x 5.105390 -0.092940 -0.794780 
#    y -0.092940 3.992590 -0.172530 
#    z -0.794780 -0.172530 4.902250 
# 
# 
# High freq. dielectric constant tensor:
#      x y z
#    x 1.884050 -0.002870 -0.027850 
#    y -0.002870 1.846320 0.004110 
#    z -0.027850 0.004110 1.915130 
# 
# From -- ./inp_files/174896.got.cif
#   From: 2010.06.25/outbox.cif.g09.slc.cpg/sg2_88_cif.got.tgz:174896.got - 2010.06.27 13:26:56.
