data_PCOD8022012
_publ_section_title
;
Structure prediction by ZEFSAII (Michael W. Deem and Ramdas Pophale) SiO2 
 PCOD8022012
Probable space group: P -1
;
_chemical_formula_sum "Si O2"
_cell_formula_units_Z 14
_cell_length_a 9.127178
_cell_length_b 9.327308
_cell_length_c 25.604746
_cell_angle_alpha 34.162765
_cell_angle_beta 144.017648
_cell_angle_gamma 120.770280
_cell_volume 631.378124
_symmetry_space_group_name_H-M "P -1"
_symmetry_group_IT_number 2
_symmetry_cell_setting 'triclinic'
loop_
_space_group_symop_operation_xyz
x,y,z
-x,-y,-z
loop_
_atom_site_type_symbol
_atom_site_label
_atom_site_fract_x
_atom_site_fract_y
_atom_site_fract_z
Si Si1 0.405889 0.246648 0.545221
Si Si2 0.788804 0.431198 0.705441
Si Si3 0.191763 0.427202 0.128248
Si Si4 0.129796 0.423504 0.905896
Si Si5 0.262165 0.884706 0.845679
Si Si6 0.180825 0.507513 0.501426
Si Si7 0.284887 0.871066 0.974420
O O1 0.500000 0.500000 0.500000
O O2 0.222650 0.335090 0.412095
O O3 0.241068 0.264125 0.546891
O O4 0.648648 0.914137 0.709611
O O5 0.475644 0.482108 0.614313
O O6 0.918743 0.481336 0.780053
O O7 0.976080 0.106829 0.835067
O O8 0.007709 0.600508 0.072874
O O9 0.392784 0.576432 0.129248
O O10 0.000000 0.500000 0.000000
O O11 0.207420 0.684391 0.849529
O O12 0.432568 0.129721 0.073700
O O13 0.256908 0.782118 0.934158
O O14 0.002876 0.200352 0.670944
O O15 0.000000 0.500000 0.500000
O O16 0.500000 0.000000 0.000000
#
# Coordination Sequence:
#
# PCOD8022012 Si02
#       7
#     2   2   2   2   2   2   2
#     4  10  22  44  72 103 141 192 235 295 367 428
#     4  11  24  46  73 101 146 193 235 297 368 428
#     4  12  25  42  74 105 141 192 248 289 364 441
#     4  11  25  43  73 106 140 186 246 305 357 429
#     4  11  24  45  71 103 146 190 239 302 368 428
#     4  11  25  41  71 105 143 188 242 292 364 432
#     4  12  25  47  72 105 147 193 241 301 363 433
#
# _framework density 22.173717
#
# number of rings (size 3 to 8) (size 9 to 14) (size 15 to 20)
#    0.000    0.857    4.286    3.429    4.000    4.000 
#    0.000    0.714    0.000    0.000    0.000    0.000 
#    0.000    0.000    0.000    0.000    0.000    0.000 
#
# Total GULP energy -173499.716104 kJ/mol
# GULP energy per Si atom -12392.836865 kJ/mol
# Density = 2.212325 g / cm^3
# Si number density = 22.173717 Si / 1000 Ang^3
#
#
#
# Elastic Constant Matrix: (Units=GPa)
#
#
# Indices 1 2 3 4 5 6 
#
# 1 169.5924 60.6763 49.8224 7.9573 6.8455 -14.1225
# 2 60.6763 103.3557 56.0531 23.1801 -5.4936 -15.8488
# 3 49.8224 56.0531 122.6551 1.5710 8.5187 3.3343
# 4 7.9573 23.1801 1.5710 42.2061 2.0234 -7.4021
# 5 6.8455 -5.4936 8.5187 2.0234 39.4856 -3.3513
# 6 -14.1225 -15.8488 3.3343 -7.4021 -3.3513 43.2236
#
#
#
# Elastic Compliance Matrix: (Units=1/GPa)
#
#
# Indices 1 2 3 4 5 6 
#
# 1 0.007835 -0.004052 -0.001267 0.001089 -0.001600 0.001234
# 2 -0.004052 0.019313 -0.007622 -0.008918 0.005939 0.005279
# 3 -0.001267 -0.007622 0.012493 0.003471 -0.004044 -0.003891
# 4 0.001089 -0.008918 0.003471 0.028681 -0.003525 0.001456
# 5 -0.001600 0.005939 -0.004044 -0.003525 0.027781 0.003517
# 6 0.001234 0.005279 -0.003891 0.001456 0.003517 0.026297
#
#
# Mechanical properties :
#
#
# Convention : Reuss Voigt Hill
#
# Bulk Modulus (GPa) = 72.68135 80.96742 76.82439
# Shear Modulus (GPa) = 32.70802 40.25314 36.48058
#
# Velocity S-wave (km/s) = 3.84484 4.26532 4.06053
# Velocity P-wave (km/s) = 7.24981 7.80074 7.53032
#
# Compressibility (1/GPa) = 0.01375869
#
# Stress axis : x y z
#
# Youngs Moduli (GPa) = 127.63562 51.77841 80.04566
#
# Poissons Ratio (x) = 0.20983 0.10141
# Poissons Ratio (y) = 0.51723 0.61008
# Poissons Ratio (z) = 0.16171 0.39464
#
# Static dielectric constant tensor:
#      x y z
#    x 4.455040 -0.214690 -0.041900 
#    y -0.214690 3.997220 -0.032400 
#    z -0.041900 -0.032400 4.220180 
# 
# 
# High freq. dielectric constant tensor:
#      x y z
#    x 1.887070 -0.023190 0.006050 
#    y -0.023190 1.859150 0.001200 
#    z 0.006050 0.001200 1.875620 
# 
# From -- ./inp_files/244751.got.cif
#   From: 2010.06.25/outbox.cif.g09.slc.cpg/sg2_123_cif.got.tgz:244751.got - 2010.06.27 13:26:56.
