data_PCOD8022071
_publ_section_title
;
Structure prediction by ZEFSAII (Michael W. Deem and Ramdas Pophale) SiO2 
 PCOD8022071
Probable space group: P -1
;
_chemical_formula_sum "Si O2"
_cell_formula_units_Z 16
_cell_length_a 5.447865
_cell_length_b 20.312901
_cell_length_c 18.301062
_cell_angle_alpha 160.485568
_cell_angle_beta 70.399607
_cell_angle_gamma 110.461256
_cell_volume 633.719482
_symmetry_space_group_name_H-M "P -1"
_symmetry_group_IT_number 2
_symmetry_cell_setting 'triclinic'
loop_
_space_group_symop_operation_xyz
x,y,z
-x,-y,-z
loop_
_atom_site_type_symbol
_atom_site_label
_atom_site_fract_x
_atom_site_fract_y
_atom_site_fract_z
Si Si1 0.638370 0.835305 0.857021
Si Si2 0.370499 0.454253 0.561625
Si Si3 0.313666 0.233865 0.925182
Si Si4 0.730464 0.026913 0.751741
Si Si5 0.916742 0.388953 0.637874
Si Si6 0.937542 0.704032 0.313680
Si Si7 0.333673 0.845858 0.706839
Si Si8 0.367959 0.636161 0.098454
O O1 0.440331 0.668070 0.742162
O O2 0.790150 0.702461 0.645466
O O3 0.500000 0.000000 0.000000
O O4 0.796060 0.975316 0.049431
O O5 0.627553 0.347600 0.449043
O O6 0.192442 0.494266 0.690390
O O7 0.512108 0.164123 0.891775
O O8 0.419518 0.218387 0.814918
O O9 0.019199 0.130212 0.846966
O O10 0.304071 0.461812 0.187368
O O11 0.745375 0.874128 0.521839
O O12 0.628553 0.923309 0.729440
O O13 0.834976 0.201808 0.398576
O O14 0.930026 0.315627 0.641698
O O15 0.168312 0.765122 0.295761
O O16 0.786416 0.497119 0.087795
O O17 0.500000 0.500000 0.000000
#
# Coordination Sequence:
#
# PCOD8022071 Si02
#       8
#     2   2   2   2   2   2   2   2
#     4   9  21  44  69 107 149 189 246 307 372 447
#     4  10  22  44  74 101 145 199 242 310 372 449
#     4  12  28  44  72 109 147 196 254 315 383 449
#     4  12  27  46  71 111 151 190 253 323 371 447
#     4  12  24  44  73 105 140 199 254 304 377 449
#     4  11  25  47  72 102 146 192 251 311 380 447
#     4  11  24  42  73 104 147 195 247 312 370 450
#     4  11  25  46  75  98 143 200 248 309 380 457
#
# _framework density 25.247762000000002
#
# number of rings (size 3 to 8) (size 9 to 14) (size 15 to 20)
#    0.000    1.000    2.500    3.000    7.000    1.500 
#    0.000    5.625    0.000    0.000    0.000    0.000 
#    0.000    0.000    0.000    0.000    0.000    0.000 
#
# Total GULP energy -198276.565597 kJ/mol
# GULP energy per Si atom -12392.285350 kJ/mol
# Density = 2.519030 g / cm^3
# Si number density = 25.247762 Si / 1000 Ang^3
#
#
#
# Elastic Constant Matrix: (Units=GPa)
#
#
# Indices 1 2 3 4 5 6 
#
# 1 96.3198 27.6377 24.3739 1.5799 1.8828 -21.4714
# 2 27.6377 111.2291 27.1139 2.7277 -1.9596 -8.5898
# 3 24.3739 27.1139 116.5158 -17.5135 4.2561 -21.4108
# 4 1.5799 2.7277 -17.5135 46.7070 -2.0912 -3.8743
# 5 1.8828 -1.9596 4.2561 -2.0912 43.9034 -12.1325
# 6 -21.4714 -8.5898 -21.4108 -3.8743 -12.1325 32.2451
#
#
#
# Elastic Compliance Matrix: (Units=1/GPa)
#
#
# Indices 1 2 3 4 5 6 
#
# 1 0.013051 -0.002414 -0.000683 0.000204 0.001689 0.008254
# 2 -0.002414 0.010130 -0.002112 -0.001292 0.000636 -0.000227
# 3 -0.000683 -0.002112 0.011324 0.005071 0.001165 0.007549
# 4 0.000204 -0.001292 0.005071 0.024074 0.002523 0.007000
# 5 0.001689 0.000636 0.001165 0.002523 0.026111 0.012196
# 6 0.008254 -0.000227 0.007549 0.007000 0.012196 0.046891
#
#
# Mechanical properties :
#
#
# Convention : Reuss Voigt Hill
#
# Bulk Modulus (GPa) = 41.51371 53.59064 47.55218
# Shear Modulus (GPa) = 33.32732 40.90038 37.11385
#
# Velocity S-wave (km/s) = 3.63714 4.02924 3.83820
# Velocity P-wave (km/s) = 5.84094 6.55121 6.20624
#
# Compressibility (1/GPa) = 0.02408843
#
# Stress axis : x y z
#
# Youngs Moduli (GPa) = 76.62096 98.71252 88.31128
#
# Poissons Ratio (x) = 0.23832 0.06028
# Poissons Ratio (y) = 0.18499 0.18647
# Poissons Ratio (z) = 0.05230 0.20843
#
# Static dielectric constant tensor:
#      x y z
#    x 4.200610 0.204900 -0.150120 
#    y 0.204900 4.873900 -0.293260 
#    z -0.150120 -0.293260 5.458400 
# 
# 
# High freq. dielectric constant tensor:
#      x y z
#    x 1.986920 0.003910 -0.001890 
#    y 0.003910 2.022100 -0.016540 
#    z -0.001890 -0.016540 2.020520 
# 
# From -- ./inp_files/551016.got.cif
#   From: 2010.06.25/outbox.cif.g09.slc.cpg/sg2_276_cif.got.tgz:551016.got - 2010.06.27 13:26:56.
