data_PCOD8022691
_publ_section_title
;
Structure prediction by ZEFSAII (Michael W. Deem and Ramdas Pophale) SiO2 
 PCOD8022691
Probable space group: P -1
;
_chemical_formula_sum "Si O2"
_cell_formula_units_Z 12
_cell_length_a 15.168700
_cell_length_b 15.682796
_cell_length_c 6.975094
_cell_angle_alpha 131.846768
_cell_angle_beta 62.623650
_cell_angle_gamma 150.791986
_cell_volume 567.902628
_symmetry_space_group_name_H-M "P -1"
_symmetry_group_IT_number 2
_symmetry_cell_setting 'triclinic'
loop_
_space_group_symop_operation_xyz
x,y,z
-x,-y,-z
loop_
_atom_site_type_symbol
_atom_site_label
_atom_site_fract_x
_atom_site_fract_y
_atom_site_fract_z
Si Si1 0.328028 0.468920 0.767882
Si Si2 0.388685 0.776424 0.043043
Si Si3 0.828028 0.468919 0.482821
Si Si4 0.888686 0.776426 0.008861
Si Si5 0.767654 0.224459 0.489443
Si Si6 0.732346 0.775541 0.851372
O O1 0.543856 0.662809 0.920083
O O2 0.309783 0.381024 0.458955
O O3 0.291521 0.565932 0.907314
O O4 0.168838 0.268934 0.778811
O O5 0.314847 0.817375 0.285996
O O6 0.618594 0.998879 0.179267
O O7 0.331162 0.731066 0.809684
O O8 0.791522 0.565933 0.707441
O O9 0.809779 0.381021 0.564551
O O10 0.043855 0.662808 0.480634
O O11 0.814853 0.817381 0.036435
O O12 0.118596 0.998879 0.080184
#
# Coordination Sequence:
#
# PCOD8022691 Si02
#       6
#     2   2   2   2   2   2
#     4  11  21  39  61  86 118 154 195 243 297 350
#     4  11  21  39  61  86 118 154 195 243 297 350
#     4  11  21  39  61  86 118 154 195 243 297 350
#     4  11  21  39  61  86 118 154 195 243 297 350
#     4  10  23  38  60  86 118 154 195 244 292 352
#     4  10  23  38  60  86 118 154 195 244 292 352
#
# _framework density 21.130382000000001
#
# number of rings (size 3 to 8) (size 9 to 14) (size 15 to 20)
#    0.000    1.333    3.333    3.000    0.000    0.000 
#    0.000    0.000    0.000    0.000    0.000    0.000 
#    0.000    0.000    0.000    0.000    0.000    0.000 
#
# Total GULP energy -148830.376493 kJ/mol
# GULP energy per Si atom -12402.531374 kJ/mol
# Density = 2.108229 g / cm^3
# Si number density = 21.130382 Si / 1000 Ang^3
#
#
#
# Elastic Constant Matrix: (Units=GPa)
#
#
# Indices 1 2 3 4 5 6 
#
# 1 51.3046 2.4754 5.1962 -4.8828 1.3592 -1.3196
# 2 2.4754 73.7392 -9.9091 3.6306 -1.2153 -0.4413
# 3 5.1962 -9.9091 57.6248 8.4440 -1.1738 8.6142
# 4 -4.8828 3.6306 8.4440 32.3173 2.4562 2.7036
# 5 1.3592 -1.2153 -1.1738 2.4562 21.9716 3.4097
# 6 -1.3196 -0.4413 8.6142 2.7036 3.4097 25.7112
#
#
#
# Elastic Compliance Matrix: (Units=1/GPa)
#
#
# Indices 1 2 3 4 5 6 
#
# 1 0.020345 -0.001306 -0.002975 0.004009 -0.002232 0.001893
# 2 -0.001306 0.014169 0.003086 -0.002641 0.001444 -0.000772
# 3 -0.002975 0.003086 0.020043 -0.005714 0.003092 -0.006624
# 4 0.004009 -0.002641 -0.005714 0.033743 -0.004332 -0.000899
# 5 -0.002232 0.001444 0.003092 -0.004332 0.047462 -0.006964
# 6 0.001893 -0.000772 -0.006624 -0.000899 -0.006964 0.042215
#
#
# Mechanical properties :
#
#
# Convention : Reuss Voigt Hill
#
# Bulk Modulus (GPa) = 19.16892 19.79929 19.48410
# Shear Modulus (GPa) = 25.28379 28.32709 26.80544
#
# Velocity S-wave (km/s) = 3.46289 3.66537 3.56557
# Velocity P-wave (km/s) = 5.00801 5.22529 5.11781
#
# Compressibility (1/GPa) = 0.05216779
#
# Stress axis : x y z
#
# Youngs Moduli (GPa) = 49.15187 70.57657 49.89260
#
# Poissons Ratio (x) = 0.09214 0.14843
# Poissons Ratio (y) = 0.06417 -0.15396
# Poissons Ratio (z) = 0.14623 -0.21779
#
# Static dielectric constant tensor:
#      x y z
#    x 3.628960 0.119390 0.055540 
#    y 0.119390 3.865370 0.097050 
#    z 0.055540 0.097050 3.630530 
# 
# 
# High freq. dielectric constant tensor:
#      x y z
#    x 1.820330 -0.000110 -0.000600 
#    y -0.000110 1.829680 0.006110 
#    z -0.000600 0.006110 1.822970 
# 
# From -- ./inp_files/18811.got.cif
#   From: 2010.06.25/outbox.cif.g09.slc.cpg/sg2_10_cif.got.tgz:18811.got - 2010.06.27 13:26:56.
