data_PCOD8022065
_publ_section_title
;
Structure prediction by ZEFSAII (Michael W. Deem and Ramdas Pophale) SiO2 
 PCOD8022065
Probable space group: P -1
;
_chemical_formula_sum "Si O2"
_cell_formula_units_Z 14
_cell_length_a 7.698200
_cell_length_b 8.633176
_cell_length_c 12.198340
_cell_angle_alpha 70.387129
_cell_angle_beta 79.646311
_cell_angle_gamma 49.621939
_cell_volume 580.945384
_symmetry_space_group_name_H-M "P -1"
_symmetry_group_IT_number 2
_symmetry_cell_setting 'triclinic'
loop_
_space_group_symop_operation_xyz
x,y,z
-x,-y,-z
loop_
_atom_site_type_symbol
_atom_site_label
_atom_site_fract_x
_atom_site_fract_y
_atom_site_fract_z
Si Si1 0.692348 0.493438 0.423173
Si Si2 0.767396 0.700100 0.828289
Si Si3 0.676544 0.191241 0.071332
Si Si4 0.444168 0.056649 0.618103
Si Si5 0.119778 0.718994 0.148699
Si Si6 0.135255 0.730952 0.765569
Si Si7 0.012872 0.843357 0.361448
O O1 0.500000 0.500000 0.500000
O O2 0.629322 0.717473 0.396680
O O3 0.716414 0.449448 0.300924
O O4 0.924030 0.302373 0.505101
O O5 0.565581 0.762682 0.918541
O O6 0.898006 0.464694 0.823450
O O7 0.963066 0.705540 0.854610
O O8 0.666984 0.866930 0.701454
O O9 0.703165 0.279973 0.159674
O O10 0.681611 0.317143 0.939906
O O11 0.877286 0.941263 0.091385
O O12 0.237855 0.060077 0.675330
O O13 0.500000 0.000000 0.500000
O O14 0.183785 0.711426 0.270848
O O15 0.992104 0.957951 0.663225
#
# Coordination Sequence:
#
# PCOD8022065 Si02
#       7
#     2   2   2   2   2   2   2
#     4  12  25  40  65 102 138 177 222 279 336 399
#     4  12  23  43  68  99 133 176 225 274 336 396
#     4  10  24  47  69  98 135 177 224 280 335 392
#     4  12  23  40  66  97 134 181 225 271 334 403
#     4  10  22  44  73  96 132 178 228 274 333 403
#     4  11  24  42  66  99 138 172 224 279 329 404
#     4  11  22  44  65  96 137 176 223 277 331 402
#
# _framework density 24.098652999999999
#
# number of rings (size 3 to 8) (size 9 to 14) (size 15 to 20)
#    0.000    0.857    2.857    5.571    2.000    0.571 
#    0.000    6.429    0.000    0.000    0.000    0.000 
#    0.000    0.000    0.000    0.000    0.000    0.000 
#
# Total GULP energy -173591.073377 kJ/mol
# GULP energy per Si atom -12399.362384 kJ/mol
# Density = 2.404380 g / cm^3
# Si number density = 24.098653 Si / 1000 Ang^3
#
#
#
# Elastic Constant Matrix: (Units=GPa)
#
#
# Indices 1 2 3 4 5 6 
#
# 1 129.5219 34.0813 23.2524 8.2386 -36.3749 13.0812
# 2 34.0813 149.9970 30.2988 4.5834 -7.5442 36.5156
# 3 23.2524 30.2988 101.6961 22.5030 -22.4817 6.0548
# 4 8.2386 4.5834 22.5030 37.9153 -2.7733 -4.0862
# 5 -36.3749 -7.5442 -22.4817 -2.7733 32.1255 -7.1041
# 6 13.0812 36.5156 6.0548 -4.0862 -7.1041 36.1277
#
#
#
# Elastic Compliance Matrix: (Units=1/GPa)
#
#
# Indices 1 2 3 4 5 6 
#
# 1 0.012150 -0.002351 0.001518 -0.002196 0.014134 0.000253
# 2 -0.002351 0.009875 -0.002711 -0.000429 -0.004397 -0.009588
# 3 0.001518 -0.002711 0.014260 -0.007576 0.010636 0.001035
# 4 -0.002196 -0.000429 -0.007576 0.031680 -0.003982 0.005298
# 5 0.014134 -0.004397 0.010636 -0.003982 0.054945 0.007898
# 6 0.000253 -0.009588 0.001035 0.005298 0.007898 0.039258
#
#
# Mechanical properties :
#
#
# Convention : Reuss Voigt Hill
#
# Bulk Modulus (GPa) = 34.25075 61.83110 48.04092
# Shear Modulus (GPa) = 27.93491 40.80586 34.37039
#
# Velocity S-wave (km/s) = 3.40838 4.11942 3.78065
# Velocity P-wave (km/s) = 5.45280 6.95265 6.24789
#
# Compressibility (1/GPa) = 0.02919644
#
# Stress axis : x y z
#
# Youngs Moduli (GPa) = 82.30247 101.26889 70.12715
#
# Poissons Ratio (x) = 0.23808 -0.10642
# Poissons Ratio (y) = 0.19349 0.19010
# Poissons Ratio (z) = -0.12490 0.27452
#
# Static dielectric constant tensor:
#      x y z
#    x 4.322720 0.039820 -0.364130 
#    y 0.039820 4.484110 -0.141690 
#    z -0.364130 -0.141690 4.682140 
# 
# 
# High freq. dielectric constant tensor:
#      x y z
#    x 1.949390 0.003300 -0.023280 
#    y 0.003300 1.974800 -0.007550 
#    z -0.023280 -0.007550 1.955350 
# 
# From -- ./inp_files/378671.got.cif
#   From: 2010.06.25/outbox.cif.g09.slc.cpg/sg2_190_cif.got.tgz:378671.got - 2010.06.27 13:26:56.
