data_PCOD8022730
_publ_section_title
;
Structure prediction by ZEFSAII (Michael W. Deem and Ramdas Pophale) SiO2 
 PCOD8022730
Probable space group: P -1
;
_chemical_formula_sum "Si O2"
_cell_formula_units_Z 16
_cell_length_a 16.891467
_cell_length_b 5.435127
_cell_length_c 8.797576
_cell_angle_alpha 85.446087
_cell_angle_beta 59.465992
_cell_angle_gamma 96.864838
_cell_volume 681.355678
_symmetry_space_group_name_H-M "P -1"
_symmetry_group_IT_number 2
_symmetry_cell_setting 'triclinic'
loop_
_space_group_symop_operation_xyz
x,y,z
-x,-y,-z
loop_
_atom_site_type_symbol
_atom_site_label
_atom_site_fract_x
_atom_site_fract_y
_atom_site_fract_z
Si Si1 0.052257 0.750745 0.127435
Si Si2 0.391742 0.141653 0.382942
Si Si3 0.608257 0.249909 0.166429
Si Si4 0.236180 0.694960 0.490427
Si Si5 0.706743 0.603373 0.293257
Si Si6 0.695582 0.597789 0.804419
Si Si7 0.236181 0.041222 0.037209
Si Si8 0.947745 0.198492 0.231947
O O1 0.005837 0.463759 0.225422
O O2 0.152239 0.803771 0.113129
O O3 0.069262 0.784626 0.930738
O O4 0.994165 0.957925 0.237090
O O5 0.499999 0.127484 0.282934
O O6 0.359497 0.223728 0.574775
O O7 0.371444 0.335642 0.265330
O O8 0.336850 0.867389 0.408194
O O9 0.640500 0.364237 0.293774
O O10 0.628554 0.464185 0.008216
O O11 0.663149 0.030529 0.081906
O O12 0.224293 0.479740 0.643446
O O13 0.236840 0.576825 0.326770
O O14 0.152237 0.848465 0.582394
O O15 0.775708 0.755444 0.092034
O O16 0.763156 0.839982 0.800458
#
# Coordination Sequence:
#
# PCOD8022730 Si02
#       8
#     2   2   2   2   2   2   2   2
#     4  10  23  40  69 102 134 173 223 279 341 402
#     4  11  23  41  65  94 129 172 219 271 333 398
#     4  11  23  41  65  94 129 172 219 271 333 398
#     4  11  24  42  65  94 133 173 217 274 331 397
#     4  10  23  38  64  96 134 164 216 274 337 388
#     4  10  25  42  64  88 134 172 224 266 331 394
#     4  11  24  42  65  94 133 173 217 274 331 397
#     4  10  23  40  69 102 134 173 223 279 341 402
#
# _framework density 23.482593999999999
#
# number of rings (size 3 to 8) (size 9 to 14) (size 15 to 20)
#    0.000    1.500    0.000    3.750   12.250    8.000 
#    0.000    1.250    0.000    0.000    0.000    0.000 
#    0.000    0.000    0.000    0.000    0.000    0.000 
#
# Total GULP energy -198475.718499 kJ/mol
# GULP energy per Si atom -12404.732406 kJ/mol
# Density = 2.342915 g / cm^3
# Si number density = 23.482594 Si / 1000 Ang^3
#
#
#
# Elastic Constant Matrix: (Units=GPa)
#
#
# Indices 1 2 3 4 5 6 
#
# 1 76.9381 35.3435 45.6759 19.6377 -22.9822 19.5829
# 2 35.3435 136.4370 35.7268 33.1379 -13.4159 23.1100
# 3 45.6759 35.7268 78.4382 32.2255 -7.6730 17.6486
# 4 19.6377 33.1379 32.2255 42.1665 0.1165 -0.5249
# 5 -22.9822 -13.4159 -7.6730 0.1165 37.8547 1.8103
# 6 19.5829 23.1100 17.6486 -0.5249 1.8103 40.6305
#
#
#
# Elastic Compliance Matrix: (Units=1/GPa)
#
#
# Indices 1 2 3 4 5 6 
#
# 1 0.027170 -0.000140 -0.010193 -0.004910 0.014840 -0.009313
# 2 -0.000140 0.011001 0.000893 -0.009361 0.004353 -0.006893
# 3 -0.010193 0.000893 0.026695 -0.016448 -0.000056 -0.007401
# 4 -0.004910 -0.009361 -0.016448 0.046156 -0.010535 0.015901
# 5 0.014840 0.004353 -0.000056 -0.010535 0.037536 -0.011413
# 6 -0.009313 -0.006893 -0.007401 0.015901 -0.011413 0.036949
#
#
# Mechanical properties :
#
#
# Convention : Reuss Voigt Hill
#
# Bulk Modulus (GPa) = 21.74595 58.36731 40.05663
# Shear Modulus (GPa) = 22.75673 35.80148 29.27911
#
# Velocity S-wave (km/s) = 3.11640 3.90884 3.53490
# Velocity P-wave (km/s) = 4.71485 6.72916 5.80997
#
# Compressibility (1/GPa) = 0.04598557
#
# Stress axis : x y z
#
# Youngs Moduli (GPa) = 36.80586 90.90261 37.46019
#
# Poissons Ratio (x) = 0.01271 0.38184
# Poissons Ratio (y) = 0.00515 -0.03346
# Poissons Ratio (z) = 0.37517 -0.08120
#
# Static dielectric constant tensor:
#      x y z
#    x 3.995590 0.050810 0.137600 
#    y 0.050810 4.365100 0.180280 
#    z 0.137600 0.180280 4.137770 
# 
# 
# High freq. dielectric constant tensor:
#      x y z
#    x 1.915560 0.002560 0.006200 
#    y 0.002560 1.942590 0.010970 
#    z 0.006200 0.010970 1.922700 
# 
# From -- ./inp_files/99919.got.cif
#   From: 2010.06.25/outbox.cif.g09.slc.cpg/sg2_50_cif.got.tgz:99919.got - 2010.06.27 13:26:56.
