data_PCOD8022125
_publ_section_title
;
Structure prediction by ZEFSAII (Michael W. Deem and Ramdas Pophale) SiO2 
 PCOD8022125
Probable space group: P -1
;
_chemical_formula_sum "Si O2"
_cell_formula_units_Z 16
_cell_length_a 17.343825
_cell_length_b 8.642353
_cell_length_c 8.834958
_cell_angle_alpha 45.163257
_cell_angle_beta 65.651738
_cell_angle_gamma 91.431552
_cell_volume 746.459884
_symmetry_space_group_name_H-M "P -1"
_symmetry_group_IT_number 2
_symmetry_cell_setting 'triclinic'
loop_
_space_group_symop_operation_xyz
x,y,z
-x,-y,-z
loop_
_atom_site_type_symbol
_atom_site_label
_atom_site_fract_x
_atom_site_fract_y
_atom_site_fract_z
Si Si1 0.791489 0.789487 0.222555
Si Si2 0.881717 0.464079 0.286663
Si Si3 0.771975 0.906132 0.826021
Si Si4 0.191650 0.528582 0.987165
Si Si5 0.061219 0.652663 0.199633
Si Si6 0.585320 0.686165 0.978758
Si Si7 0.381635 0.483962 0.227340
Si Si8 0.395170 0.761767 0.748963
O O1 0.822758 0.577042 0.343669
O O2 0.704739 0.701412 0.470795
O O3 0.750094 0.807858 0.081732
O O4 0.880090 0.054290 0.014297
O O5 0.994071 0.630969 0.125463
O O6 0.855791 0.190768 0.556286
O O7 0.864412 0.462925 0.122655
O O8 0.804344 0.731494 0.824623
O O9 0.677848 0.914700 0.826203
O O10 0.133094 0.546826 0.166089
O O11 0.303419 0.764475 0.739238
O O12 0.000000 0.500000 0.500000
O O13 0.480881 0.660721 0.120274
O O14 0.588506 0.444623 0.210471
O O15 0.596904 0.695824 0.778518
O O16 0.359134 0.669198 0.015547
O O17 0.500000 0.000000 0.500000
#
# Coordination Sequence:
#
# PCOD8022125 Si02
#       8
#     2   2   2   2   2   2   2   2
#     4  11  25  44  65  95 135 170 220 273 333 388
#     4  11  25  46  65  94 129 179 216 272 331 385
#     4  10  22  45  65  93 138 169 217 269 326 399
#     4  10  25  42  70  96 127 176 217 268 330 389
#     4  12  26  45  68  98 129 174 220 279 329 381
#     4   8  19  37  61  94 129 167 214 265 316 394
#     4   9  20  37  64  95 126 173 216 266 326 380
#     4   9  19  35  63 100 128 160 216 268 312 389
#
# _framework density 21.434507
#
# number of rings (size 3 to 8) (size 9 to 14) (size 15 to 20)
#    0.750    1.250    1.250    0.750    7.000    1.000 
#    2.250    0.625    0.000    0.000    0.000    0.000 
#    0.000    0.000    0.000    0.000    0.000    0.000 
#
# Total GULP energy -198228.147099 kJ/mol
# GULP energy per Si atom -12389.259194 kJ/mol
# Density = 2.138572 g / cm^3
# Si number density = 21.434507 Si / 1000 Ang^3
#
#
#
# Elastic Constant Matrix: (Units=GPa)
#
#
# Indices 1 2 3 4 5 6 
#
# 1 127.7901 38.6677 28.2869 6.7761 -15.6821 19.5659
# 2 38.6677 86.2679 55.4928 -6.7611 -13.0245 5.5199
# 3 28.2869 55.4928 107.1914 9.4933 -13.2354 -7.7647
# 4 6.7761 -6.7611 9.4933 19.7964 -2.7053 2.6036
# 5 -15.6821 -13.0245 -13.2354 -2.7053 32.1695 -5.2793
# 6 19.5659 5.5199 -7.7647 2.6036 -5.2793 27.3996
#
#
#
# Elastic Compliance Matrix: (Units=1/GPa)
#
#
# Indices 1 2 3 4 5 6 
#
# 1 0.010523 -0.003865 -0.000671 -0.003513 0.001974 -0.006212
# 2 -0.003865 0.023861 -0.012991 0.016972 0.002741 -0.006813
# 3 -0.000671 -0.012991 0.018527 -0.014085 0.002520 0.010171
# 4 -0.003513 0.016972 -0.014085 0.066093 0.003188 -0.010568
# 5 0.001974 0.002741 0.002520 0.003188 0.035325 0.005256
# 6 -0.006212 -0.006813 0.010171 -0.010568 0.005256 0.047204
#
#
# Mechanical properties :
#
#
# Convention : Reuss Voigt Hill
#
# Bulk Modulus (GPa) = 56.00158 62.90491 59.45325
# Shear Modulus (GPa) = 20.61521 29.12657 24.87089
#
# Velocity S-wave (km/s) = 3.10462 3.69028 3.41004
# Velocity P-wave (km/s) = 6.24781 6.89701 6.58042
#
# Compressibility (1/GPa) = 0.01785664
#
# Stress axis : x y z
#
# Youngs Moduli (GPa) = 95.03028 41.91006 53.97529
#
# Poissons Ratio (x) = 0.16197 0.03623
# Poissons Ratio (y) = 0.36727 0.70119
# Poissons Ratio (z) = 0.06379 0.54445
#
# Static dielectric constant tensor:
#      x y z
#    x 4.128820 0.218290 -0.118020 
#    y 0.218290 3.831710 -0.158220 
#    z -0.118020 -0.158220 3.563270 
# 
# 
# High freq. dielectric constant tensor:
#      x y z
#    x 1.859540 0.015550 -0.009480 
#    y 0.015550 1.821570 -0.011900 
#    z -0.009480 -0.011900 1.823760 
# 
# From -- ./inp_files/328388.got.cif
#   From: 2010.06.25/outbox.cif.g09.slc.cpg/sg2_165_cif.got.tgz:328388.got - 2010.06.27 13:26:56.
