data_PCOD8022614
_publ_section_title
;
Structure prediction by ZEFSAII (Michael W. Deem and Ramdas Pophale) SiO2 
 PCOD8022614
Probable space group: P -1
;
_chemical_formula_sum "Si O2"
_cell_formula_units_Z 16
_cell_length_a 15.698316
_cell_length_b 11.704647
_cell_length_c 9.417774
_cell_angle_alpha 39.951668
_cell_angle_beta 48.791579
_cell_angle_gamma 43.050841
_cell_volume 739.108220
_symmetry_space_group_name_H-M "P -1"
_symmetry_group_IT_number 2
_symmetry_cell_setting 'triclinic'
loop_
_space_group_symop_operation_xyz
x,y,z
-x,-y,-z
loop_
_atom_site_type_symbol
_atom_site_label
_atom_site_fract_x
_atom_site_fract_y
_atom_site_fract_z
Si Si1 0.786499 0.786078 0.573064
Si Si2 0.392701 0.660938 0.873934
Si Si3 0.919192 0.991745 0.399834
Si Si4 0.616563 0.533596 0.393052
Si Si5 0.716284 0.958923 0.191585
Si Si6 0.787095 0.423374 0.040921
Si Si7 0.808595 0.130025 0.688498
Si Si8 0.506086 0.101852 0.637844
O O1 0.874868 0.880961 0.439308
O O2 0.786983 0.785145 0.399423
O O3 0.643411 0.904206 0.687578
O O4 0.847633 0.559556 0.781368
O O5 0.300137 0.842650 0.900448
O O6 0.314710 0.566489 0.971719
O O7 0.467762 0.726060 0.619995
O O8 0.500000 0.500000 0.000000
O O9 0.901476 0.198936 0.150923
O O10 0.831574 0.038930 0.591430
O O11 0.067462 0.854793 0.405259
O O12 0.500000 0.500000 0.500000
O O13 0.717308 0.506283 0.186936
O O14 0.691414 0.359090 0.597179
O O15 0.567852 0.769712 0.264003
O O16 0.583741 0.959669 0.297799
O O17 0.787204 0.966113 0.962353
#
# Coordination Sequence:
#
# PCOD8022614 Si02
#       8
#     2   2   2   2   2   2   2   2
#     4  11  23  41  65  97 131 172 209 259 323 382
#     4  11  19  36  58  88 135 170 203 258 324 381
#     4  10  22  49  64  89 130 172 220 263 313 376
#     4  11  22  40  63  97 125 167 216 259 327 381
#     4  11  23  38  62  98 129 168 210 262 322 379
#     4  11  22  40  66  92 127 174 215 261 318 376
#     4  10  24  43  68  89 126 176 213 266 319 371
#     4  11  21  36  58  97 134 158 211 258 318 386
#
# _framework density 21.647708000000002
#
# number of rings (size 3 to 8) (size 9 to 14) (size 15 to 20)
#    0.000    1.250    3.750    4.500    3.500    1.000 
#    2.250    2.500    0.000    0.000    0.000    0.000 
#    0.000    0.000    0.000    0.000    0.000    0.000 
#
# Total GULP energy -198273.538740 kJ/mol
# GULP energy per Si atom -12392.096171 kJ/mol
# Density = 2.159844 g / cm^3
# Si number density = 21.647708 Si / 1000 Ang^3
#
#
#
# Elastic Constant Matrix: (Units=GPa)
#
#
# Indices 1 2 3 4 5 6 
#
# 1 113.4741 24.1033 23.0417 -6.4810 4.8319 -3.2980
# 2 24.1033 46.5131 34.1233 -8.9130 2.1915 -0.4177
# 3 23.0417 34.1233 96.5411 -27.9720 14.3358 -3.0460
# 4 -6.4810 -8.9130 -27.9720 21.1338 -1.5121 -1.1226
# 5 4.8319 2.1915 14.3358 -1.5121 30.4026 -4.0385
# 6 -3.2980 -0.4177 -3.0460 -1.1226 -4.0385 31.3876
#
#
#
# Elastic Compliance Matrix: (Units=1/GPa)
#
#
# Indices 1 2 3 4 5 6 
#
# 1 0.009993 -0.004737 -0.000396 0.000522 -0.000921 0.000849
# 2 -0.004737 0.031630 -0.011532 -0.003161 0.003642 -0.000840
# 3 -0.000396 -0.011532 0.023130 0.025118 -0.008517 0.001852
# 4 0.000522 -0.003161 0.025118 0.079106 -0.007186 0.004355
# 5 -0.000921 0.003642 -0.008517 -0.007186 0.036915 0.003618
# 6 0.000849 -0.000840 0.001852 0.004355 0.003618 0.032739
#
#
# Mechanical properties :
#
#
# Convention : Reuss Voigt Hill
#
# Bulk Modulus (GPa) = 31.82498 46.56275 39.19387
# Shear Modulus (GPa) = 19.43132 28.26881 23.85006
#
# Velocity S-wave (km/s) = 2.99927 3.61758 3.32284
# Velocity P-wave (km/s) = 5.16986 6.24542 5.73292
#
# Compressibility (1/GPa) = 0.03142185
#
# Stress axis : x y z
#
# Youngs Moduli (GPa) = 100.07160 31.61597 43.23427
#
# Poissons Ratio (x) = 0.14976 0.01712
# Poissons Ratio (y) = 0.47402 0.49859
# Poissons Ratio (z) = 0.03963 0.36461
#
# Static dielectric constant tensor:
#      x y z
#    x 3.955340 0.103830 0.253480 
#    y 0.103830 3.880120 0.006860 
#    z 0.253480 0.006860 3.900840 
# 
# 
# High freq. dielectric constant tensor:
#      x y z
#    x 1.856090 0.004850 0.011120 
#    y 0.004850 1.832650 -0.004710 
#    z 0.011120 -0.004710 1.851910 
# 
# From -- ./inp_files/271718.got.cif
#   From: 2010.06.25/outbox.cif.g09.slc.cpg/sg2_136_cif.got.tgz:271718.got - 2010.06.27 13:26:56.
