data_PCOD8022616
_publ_section_title
;
Structure prediction by ZEFSAII (Michael W. Deem and Ramdas Pophale) SiO2 
 PCOD8022616
Probable space group: P -1
;
_chemical_formula_sum "Si O2"
_cell_formula_units_Z 14
_cell_length_a 11.683193
_cell_length_b 5.846172
_cell_length_c 11.238192
_cell_angle_alpha 82.516617
_cell_angle_beta 74.500234
_cell_angle_gamma 54.793078
_cell_volume 604.092782
_symmetry_space_group_name_H-M "P -1"
_symmetry_group_IT_number 2
_symmetry_cell_setting 'triclinic'
loop_
_space_group_symop_operation_xyz
x,y,z
-x,-y,-z
loop_
_atom_site_type_symbol
_atom_site_label
_atom_site_fract_x
_atom_site_fract_y
_atom_site_fract_z
Si Si1 0.416367 0.913976 0.949277
Si Si2 0.196426 0.958008 0.408494
Si Si3 0.307219 0.652013 0.156715
Si Si4 0.421043 0.836565 0.523281
Si Si5 0.016815 0.873806 0.132140
Si Si6 0.759039 0.838629 0.243454
Si Si7 0.911934 0.277272 0.352721
O O1 0.534669 0.628635 0.870009
O O2 0.321517 0.140080 0.857861
O O3 0.309475 0.885836 0.064272
O O4 0.500000 0.000000 0.000000
O O5 0.271176 0.731625 0.298517
O O6 0.311552 0.006093 0.431145
O O7 0.155696 0.834840 0.535227
O O8 0.051061 0.243324 0.381639
O O9 0.184356 0.625450 0.130914
O O10 0.500000 0.500000 0.500000
O O11 0.500000 0.000000 0.500000
O O12 0.337300 0.882914 0.668350
O O13 0.917440 0.759017 0.174898
O O14 0.968034 0.114060 0.225097
O O15 0.000000 0.000000 0.000000
O O16 0.782768 0.591886 0.337307
#
# Coordination Sequence:
#
# PCOD8022616 Si02
#       7
#     2   2   2   2   2   2   2
#     4  11  26  44  69 102 143 193 241 303 375 454
#     4  10  22  49  71 103 148 192 246 307 388 442
#     4  10  24  46  69 100 142 193 238 303 376 451
#     4  12  27  47  76 111 154 202 247 313 380 462
#     4  11  23  45  72 101 143 189 244 311 371 444
#     4  12  26  45  75 109 141 193 256 309 369 457
#     4  10  24  45  74 105 145 188 249 318 374 449
#
# _framework density 23.175246999999999
#
# number of rings (size 3 to 8) (size 9 to 14) (size 15 to 20)
#    0.000    1.143    2.857    1.714    4.000    3.429 
#    5.143    0.000    0.000    0.000    0.000    0.000 
#    0.000    0.000    0.000    0.000    0.000    0.000 
#
# Total GULP energy -173505.151960 kJ/mol
# GULP energy per Si atom -12393.225140 kJ/mol
# Density = 2.312250 g / cm^3
# Si number density = 23.175247 Si / 1000 Ang^3
#
#
#
# Elastic Constant Matrix: (Units=GPa)
#
#
# Indices 1 2 3 4 5 6 
#
# 1 178.5774 41.2792 51.6688 -14.0437 24.4784 -17.6150
# 2 41.2792 90.7138 33.7867 -18.5522 8.9555 -6.2897
# 3 51.6688 33.7867 143.5421 -8.1399 14.2446 -10.8677
# 4 -14.0437 -18.5522 -8.1399 28.5990 -9.6250 5.6898
# 5 24.4784 8.9555 14.2446 -9.6250 47.0392 -4.7033
# 6 -17.6150 -6.2897 -10.8677 5.6898 -4.7033 29.2997
#
#
#
# Elastic Compliance Matrix: (Units=1/GPa)
#
#
# Indices 1 2 3 4 5 6 
#
# 1 0.007213 -0.002188 -0.001603 0.000258 -0.002517 0.002818
# 2 -0.002188 0.014381 -0.002250 0.007934 0.000656 -0.000499
# 3 -0.001603 -0.002250 0.008276 -0.000607 -0.001213 0.001546
# 4 0.000258 0.007934 -0.000607 0.043516 0.006872 -0.005714
# 5 -0.002517 0.000656 -0.001213 0.006872 0.024291 0.000743
# 6 0.002818 -0.000499 0.001546 -0.005714 0.000743 0.037519
#
#
# Mechanical properties :
#
#
# Convention : Reuss Voigt Hill
#
# Bulk Modulus (GPa) = 56.22361 74.03363 65.12862
# Shear Modulus (GPa) = 32.63499 40.06083 36.34791
#
# Velocity S-wave (km/s) = 3.75665 4.16216 3.96459
# Velocity P-wave (km/s) = 6.56730 7.42378 7.00864
#
# Compressibility (1/GPa) = 0.01778612
#
# Stress axis : x y z
#
# Youngs Moduli (GPa) = 138.64193 69.53729 120.82516
#
# Poissons Ratio (x) = 0.15217 0.19374
# Poissons Ratio (y) = 0.30339 0.27188
# Poissons Ratio (z) = 0.22231 0.15647
#
# Static dielectric constant tensor:
#      x y z
#    x 5.158950 0.606290 0.028350 
#    y 0.606290 6.475500 0.078730 
#    z 0.028350 0.078730 4.389890 
# 
# 
# High freq. dielectric constant tensor:
#      x y z
#    x 1.933030 -0.025970 0.004080 
#    y -0.025970 1.891080 0.005310 
#    z 0.004080 0.005310 1.939640 
# 
# From -- ./inp_files/28274.got.cif
#   From: 2010.06.25/outbox.cif.g09.slc.cpg/sg2_15_cif.got.tgz:28274.got - 2010.06.27 13:26:56.
