data_PCOD8022223
_publ_section_title
;
Structure prediction by ZEFSAII (Michael W. Deem and Ramdas Pophale) SiO2 
 PCOD8022223
Probable space group: P -1
;
_chemical_formula_sum "Si O2"
_cell_formula_units_Z 14
_cell_length_a 14.659325
_cell_length_b 9.014007
_cell_length_c 11.200607
_cell_angle_alpha 62.384125
_cell_angle_beta 148.926745
_cell_angle_gamma 126.850263
_cell_volume 606.756512
_symmetry_space_group_name_H-M "P -1"
_symmetry_group_IT_number 2
_symmetry_cell_setting 'triclinic'
loop_
_space_group_symop_operation_xyz
x,y,z
-x,-y,-z
loop_
_atom_site_type_symbol
_atom_site_label
_atom_site_fract_x
_atom_site_fract_y
_atom_site_fract_z
Si Si1 0.332194 0.100376 0.161957
Si Si2 0.690288 0.687181 0.170084
Si Si3 0.804201 0.869507 0.762868
Si Si4 0.588486 0.209670 0.057028
Si Si5 0.007692 0.600188 0.682384
Si Si6 0.739602 0.193969 0.486468
Si Si7 0.003972 0.696892 0.903854
O O1 0.343632 0.206701 0.261585
O O2 0.555125 0.139723 0.385417
O O3 0.254744 0.180483 0.934518
O O4 0.198355 0.876160 0.101096
O O5 0.883980 0.657805 0.425806
O O6 0.500000 0.500000 0.000000
O O7 0.609138 0.758608 0.166777
O O8 0.817647 0.706567 0.758871
O O9 0.770930 0.008560 0.581639
O O10 0.000000 0.000000 0.000000
O O11 0.698189 0.252415 0.289891
O O12 0.760940 0.333241 0.112152
O O13 0.500000 0.000000 0.000000
O O14 0.919745 0.375340 0.678845
O O15 0.989171 0.703180 0.742345
O O16 0.000000 0.500000 0.000000
#
# Coordination Sequence:
#
# PCOD8022223 Si02
#       7
#     2   2   2   2   2   2   2
#     4  10  22  45  68  96 141 174 226 287 332 411
#     4  11  24  43  70 108 136 179 229 274 351 407
#     4  10  23  41  69  94 130 182 226 275 338 406
#     4  11  26  42  66 103 141 180 225 283 340 411
#     4  12  24  44  73  99 145 178 225 288 338 412
#     4  11  23  44  67 103 130 181 227 276 351 401
#     4  11  26  46  65 101 135 180 231 283 338 403
#
# _framework density 23.073508
#
# number of rings (size 3 to 8) (size 9 to 14) (size 15 to 20)
#    0.000    1.143    2.857    4.286    6.000    2.286 
#    0.000    1.429    0.000    0.000    0.000    0.000 
#    0.000    0.000    0.000    0.000    0.000    0.000 
#
# Total GULP energy -173451.962243 kJ/mol
# GULP energy per Si atom -12389.425875 kJ/mol
# Density = 2.302099 g / cm^3
# Si number density = 23.073508 Si / 1000 Ang^3
#
#
#
# Elastic Constant Matrix: (Units=GPa)
#
#
# Indices 1 2 3 4 5 6 
#
# 1 155.2403 64.0226 11.4902 2.4872 9.7755 -15.9965
# 2 64.0226 136.7063 16.3557 -2.8798 17.9553 -6.0967
# 3 11.4902 16.3557 31.9890 -6.8117 12.4288 8.3496
# 4 2.4872 -2.8798 -6.8117 45.3650 -2.4624 3.2704
# 5 9.7755 17.9553 12.4288 -2.4624 28.6237 1.9998
# 6 -15.9965 -6.0967 8.3496 3.2704 1.9998 41.3822
#
#
#
# Elastic Compliance Matrix: (Units=1/GPa)
#
#
# Indices 1 2 3 4 5 6 
#
# 1 0.008443 -0.003554 -0.002366 -0.001281 0.000032 0.003317
# 2 -0.003554 0.009817 -0.002352 0.000198 -0.003956 0.000722
# 3 -0.002366 -0.002352 0.043109 0.006329 -0.015211 -0.009724
# 4 -0.001281 0.000198 0.006329 0.023325 -0.000178 -0.003578
# 5 0.000032 -0.003956 -0.015211 -0.000178 0.043970 0.000388
# 6 0.003317 0.000722 -0.009724 -0.003578 0.000388 0.027780
#
#
# Mechanical properties :
#
#
# Convention : Reuss Voigt Hill
#
# Bulk Modulus (GPa) = 22.30939 56.40810 39.35875
# Shear Modulus (GPa) = 26.60577 38.54531 32.57554
#
# Velocity S-wave (km/s) = 3.39940 4.09166 3.76149
# Velocity P-wave (km/s) = 5.00976 6.84270 5.99667
#
# Compressibility (1/GPa) = 0.04482418
#
# Stress axis : x y z
#
# Youngs Moduli (GPa) = 118.44319 101.86601 23.19692
#
# Poissons Ratio (x) = 0.36204 0.05489
# Poissons Ratio (y) = 0.42095 0.05456
# Poissons Ratio (z) = 0.28028 0.23958
#
# Static dielectric constant tensor:
#      x y z
#    x 4.676690 -0.465380 0.480920 
#    y -0.465380 4.028070 -0.144020 
#    z 0.480920 -0.144020 4.128950 
# 
# 
# High freq. dielectric constant tensor:
#      x y z
#    x 1.933820 -0.005310 0.008480 
#    y -0.005310 1.911010 -0.005790 
#    z 0.008480 -0.005790 1.893810 
# 
# From -- ./inp_files/241372.got.cif
#   From: 2010.06.25/outbox.cif.g09.slc.cpg/sg2_121_cif.got.tgz:241372.got - 2010.06.27 13:26:56.
