data_PCOD8022301
_publ_section_title
;
Structure prediction by ZEFSAII (Michael W. Deem and Ramdas Pophale) SiO2 
 PCOD8022301
Probable space group: P -1
;
_chemical_formula_sum "Si O2"
_cell_formula_units_Z 14
_cell_length_a 26.085585
_cell_length_b 9.005549
_cell_length_c 11.018448
_cell_angle_alpha 38.363873
_cell_angle_beta 150.251577
_cell_angle_gamma 152.887696
_cell_volume 584.593904
_symmetry_space_group_name_H-M "P -1"
_symmetry_group_IT_number 2
_symmetry_cell_setting 'triclinic'
loop_
_space_group_symop_operation_xyz
x,y,z
-x,-y,-z
loop_
_atom_site_type_symbol
_atom_site_label
_atom_site_fract_x
_atom_site_fract_y
_atom_site_fract_z
Si Si1 0.254873 0.350988 0.629557
Si Si2 0.054934 0.334379 0.076937
Si Si3 0.296682 0.742460 0.129250
Si Si4 0.532053 0.382396 0.313276
Si Si5 0.587747 0.359437 0.993010
Si Si6 0.994310 0.252164 0.386688
Si Si7 0.808939 0.601895 0.108996
O O1 0.158005 0.424172 0.341184
O O2 0.354170 0.404722 0.694869
O O3 0.338516 0.591739 0.759862
O O4 0.154767 0.969152 0.705870
O O5 0.145751 0.447196 0.068240
O O6 0.002254 0.529447 0.846137
O O7 0.919449 0.948669 0.045486
O O8 0.419807 0.748277 0.413227
O O9 0.375243 0.106840 0.105775
O O10 0.274781 0.692670 0.971473
O O11 0.520014 0.593483 0.239066
O O12 0.703348 0.600905 0.971868
O O13 0.500000 0.000000 0.000000
O O14 0.117455 0.469182 0.600750
O O15 0.000000 0.000000 0.500000
#
# Coordination Sequence:
#
# PCOD8022301 Si02
#       7
#     2   2   2   2   2   2   2
#     4  10  22  45  70  98 133 184 232 272 345 407
#     4  10  24  44  74  93 139 181 226 282 341 408
#     4  10  22  46  70 101 132 184 236 276 338 407
#     4  10  23  45  70  96 138 186 229 278 339 408
#     4  12  25  43  67 106 143 176 229 284 341 407
#     4  11  23  45  67 105 136 177 225 278 350 405
#     4  11  25  43  68 107 138 172 233 282 345 398
#
# _framework density 23.948250000000002
#
# number of rings (size 3 to 8) (size 9 to 14) (size 15 to 20)
#    0.000    1.429    1.429    2.571    0.000    5.714 
#    7.714    1.429    0.000    0.000    0.000    0.000 
#    0.000    0.000    0.000    0.000    0.000    0.000 
#
# Total GULP energy -173568.536631 kJ/mol
# GULP energy per Si atom -12397.752616 kJ/mol
# Density = 2.389374 g / cm^3
# Si number density = 23.948250 Si / 1000 Ang^3
#
#
#
# Elastic Constant Matrix: (Units=GPa)
#
#
# Indices 1 2 3 4 5 6 
#
# 1 89.9333 27.1546 6.6646 18.2683 18.3944 2.4432
# 2 27.1546 96.7367 30.9302 8.9546 10.5287 -2.3115
# 3 6.6646 30.9302 77.1708 6.6837 -5.5787 -4.6457
# 4 18.2683 8.9546 6.6837 38.6956 -0.6210 -4.9353
# 5 18.3944 10.5287 -5.5787 -0.6210 42.1983 7.2043
# 6 2.4432 -2.3115 -4.6457 -4.9353 7.2043 46.9951
#
#
#
# Elastic Compliance Matrix: (Units=1/GPa)
#
#
# Indices 1 2 3 4 5 6 
#
# 1 0.014426 -0.002882 0.000014 -0.006325 -0.005540 -0.000705
# 2 -0.002882 0.013183 -0.005134 -0.000766 -0.002833 0.000645
# 3 0.000014 -0.005134 0.015400 -0.001346 0.003182 0.000640
# 4 -0.006325 -0.000766 -0.001346 0.029646 0.002719 0.002855
# 5 -0.005540 -0.002833 0.003182 0.002719 0.027882 -0.003526
# 6 -0.000705 0.000645 0.000640 0.002855 -0.003526 0.022251
#
#
# Mechanical properties :
#
#
# Convention : Reuss Voigt Hill
#
# Bulk Modulus (GPa) = 37.03238 43.70442 40.36840
# Shear Modulus (GPa) = 33.83112 38.85056 36.34084
#
# Velocity S-wave (km/s) = 3.76264 4.03211 3.89970
# Velocity P-wave (km/s) = 5.86290 6.32190 6.09672
#
# Compressibility (1/GPa) = 0.02700339
#
# Stress axis : x y z
#
# Youngs Moduli (GPa) = 69.32137 75.85678 64.93503
#
# Poissons Ratio (x) = 0.21865 -0.00093
# Poissons Ratio (y) = 0.19981 0.33340
# Poissons Ratio (z) = -0.00099 0.38948
#
# Static dielectric constant tensor:
#      x y z
#    x 4.577090 0.404140 0.029240 
#    y 0.404140 4.184640 0.196620 
#    z 0.029240 0.196620 4.616600 
# 
# 
# High freq. dielectric constant tensor:
#      x y z
#    x 1.958130 0.016550 0.006560 
#    y 0.016550 1.935840 0.011640 
#    z 0.006560 0.011640 1.966290 
# 
# From -- ./inp_files/476374.got.cif
#   From: 2010.06.25/outbox.cif.g09.slc.cpg/sg2_239_cif.got.tgz:476374.got - 2010.06.27 13:26:56.
