data_PCOD8022636
_publ_section_title
;
Structure prediction by ZEFSAII (Michael W. Deem and Ramdas Pophale) SiO2 
 PCOD8022636
Probable space group: P -1
;
_chemical_formula_sum "Si O2"
_cell_formula_units_Z 16
_cell_length_a 17.971506
_cell_length_b 10.690867
_cell_length_c 8.577265
_cell_angle_alpha 120.691232
_cell_angle_beta 129.852124
_cell_angle_gamma 34.722892
_cell_volume 720.133712
_symmetry_space_group_name_H-M "P -1"
_symmetry_group_IT_number 2
_symmetry_cell_setting 'triclinic'
loop_
_space_group_symop_operation_xyz
x,y,z
-x,-y,-z
loop_
_atom_site_type_symbol
_atom_site_label
_atom_site_fract_x
_atom_site_fract_y
_atom_site_fract_z
Si Si1 0.497940 0.234914 0.115569
Si Si2 0.544623 0.919429 0.754958
Si Si3 0.663222 0.259420 0.534447
Si Si4 0.740481 0.756247 0.626741
Si Si5 0.938410 0.112107 0.732339
Si Si6 0.352570 0.604018 0.932764
Si Si7 0.169692 0.029238 0.126783
Si Si8 0.119352 0.689461 0.534834
O O1 0.431330 0.229644 0.174917
O O2 0.645159 0.158510 0.310352
O O3 0.375810 0.485646 0.048226
O O4 0.540401 0.080533 0.934370
O O5 0.678970 0.765197 0.715128
O O6 0.393123 0.059427 0.551517
O O7 0.500000 0.500000 0.500000
O O8 0.767194 0.275964 0.635736
O O9 0.738767 0.093497 0.672682
O O10 0.852704 0.514663 0.546647
O O11 0.837361 0.791802 0.806186
O O12 0.959353 0.185638 0.653119
O O13 0.021522 0.862457 0.657700
O O14 0.009913 0.128391 0.979595
O O15 0.279429 0.584956 0.691215
O O16 0.500000 0.500000 0.000000
O O17 0.251032 0.856915 0.985380
#
# Coordination Sequence:
#
# PCOD8022636 Si02
#       8
#     2   2   2   2   2   2   2   2
#     4  11  21  39  61 101 139 175 219 281 346 384
#     4  10  23  36  62 101 144 169 221 293 327 396
#     4  12  24  40  72  99 129 170 225 280 334 399
#     4  11  22  40  67  95 134 181 229 271 339 393
#     4  10  25  46  64  95 137 171 227 277 338 399
#     4  11  21  35  64  98 135 175 227 276 336 390
#     4  11  24  41  62 101 135 174 220 277 334 401
#     4  10  23  42  67  88 130 184 221 275 331 403
#
# _framework density 22.218097
#
# number of rings (size 3 to 8) (size 9 to 14) (size 15 to 20)
#    0.000    1.250    3.750    1.875    3.500    2.500 
#    0.000    0.625    0.000    0.000    0.000    0.000 
#    0.000    0.000    0.000    0.000    0.000    0.000 
#
# Total GULP energy -198363.293536 kJ/mol
# GULP energy per Si atom -12397.705846 kJ/mol
# Density = 2.216753 g / cm^3
# Si number density = 22.218097 Si / 1000 Ang^3
#
#
#
# Elastic Constant Matrix: (Units=GPa)
#
#
# Indices 1 2 3 4 5 6 
#
# 1 85.5160 39.4059 39.6061 -0.5060 15.9806 4.4886
# 2 39.4059 93.0524 43.1492 7.7563 17.9669 12.1440
# 3 39.6061 43.1492 142.1419 4.8348 27.2884 0.5494
# 4 -0.5060 7.7563 4.8348 38.2455 6.3496 6.5375
# 5 15.9806 17.9669 27.2884 6.3496 43.5133 -3.5698
# 6 4.4886 12.1440 0.5494 6.5375 -3.5698 31.4219
#
#
#
# Elastic Compliance Matrix: (Units=1/GPa)
#
#
# Indices 1 2 3 4 5 6 
#
# 1 0.015693 -0.005090 -0.002408 0.002131 -0.002541 -0.000965
# 2 -0.005090 0.015534 -0.002629 -0.001466 -0.003115 -0.005279
# 3 -0.002408 -0.002629 0.009221 -0.000186 -0.003719 0.000815
# 4 0.002131 -0.001466 -0.000186 0.028330 -0.004700 -0.006163
# 5 -0.002541 -0.003115 -0.003719 -0.004700 0.028701 0.005871
# 6 -0.000965 -0.005279 0.000815 -0.006163 0.005871 0.035938
#
#
# Mechanical properties :
#
#
# Convention : Reuss Voigt Hill
#
# Bulk Modulus (GPa) = 49.52025 62.78140 56.15083
# Shear Modulus (GPa) = 31.17166 35.87276 33.52221
#
# Velocity S-wave (km/s) = 3.74971 4.02254 3.88852
# Velocity P-wave (km/s) = 6.40966 7.06347 6.74449
#
# Compressibility (1/GPa) = 0.02019376
#
# Stress axis : x y z
#
# Youngs Moduli (GPa) = 63.72396 64.37560 108.44229
#
# Poissons Ratio (x) = 0.32766 0.26117
# Poissons Ratio (y) = 0.32434 0.28509
# Poissons Ratio (z) = 0.15347 0.16924
#
# Static dielectric constant tensor:
#      x y z
#    x 3.794570 0.130320 0.119260 
#    y 0.130320 4.026450 -0.105220 
#    z 0.119260 -0.105220 4.603210 
# 
# 
# High freq. dielectric constant tensor:
#      x y z
#    x 1.852500 0.014990 0.002080 
#    y 0.014990 1.861290 0.001100 
#    z 0.002080 0.001100 1.900260 
# 
# From -- ./inp_files/346403.got.cif
#   From: 2010.06.25/outbox.cif.g09.slc.cpg/sg2_174_cif.got.tgz:346403.got - 2010.06.27 13:26:56.
