data_PCOD8022164
_publ_section_title
;
Structure prediction by ZEFSAII (Michael W. Deem and Ramdas Pophale) SiO2 
 PCOD8022164
Probable space group: P -1
;
_chemical_formula_sum "Si O2"
_cell_formula_units_Z 16
_cell_length_a 15.579618
_cell_length_b 8.189003
_cell_length_c 12.006785
_cell_angle_alpha 52.392919
_cell_angle_beta 40.610348
_cell_angle_gamma 74.691163
_cell_volume 728.564325
_symmetry_space_group_name_H-M "P -1"
_symmetry_group_IT_number 2
_symmetry_cell_setting 'triclinic'
loop_
_space_group_symop_operation_xyz
x,y,z
-x,-y,-z
loop_
_atom_site_type_symbol
_atom_site_label
_atom_site_fract_x
_atom_site_fract_y
_atom_site_fract_z
Si Si1 0.648463 0.128008 0.247239
Si Si2 0.860607 0.921757 0.099913
Si Si3 0.295222 0.234187 0.254769
Si Si4 0.410390 0.752992 0.974420
Si Si5 0.146821 0.516245 0.966653
Si Si6 0.750608 0.100944 0.738411
Si Si7 0.157981 0.543901 0.693489
Si Si8 0.038560 0.991087 0.276499
O O1 0.721249 0.377012 0.122934
O O2 0.500000 0.000000 0.500000
O O3 0.747892 0.999705 0.237630
O O4 0.627574 0.115620 0.141231
O O5 0.783171 0.652618 0.291257
O O6 0.904958 0.039467 0.887026
O O7 0.000000 0.000000 0.000000
O O8 0.324337 0.492549 0.137843
O O9 0.133626 0.097322 0.513911
O O10 0.307261 0.153110 0.148924
O O11 0.419526 0.186455 0.218609
O O12 0.360258 0.841188 0.098964
O O13 0.188460 0.627524 0.756566
O O14 0.011526 0.569322 0.117153
O O15 0.102284 0.253039 0.127928
O O16 0.770463 0.257894 0.545932
O O17 0.898640 0.137669 0.642897
#
# Coordination Sequence:
#
# PCOD8022164 Si02
#       8
#     2   2   2   2   2   2   2   2
#     4  12  27  45  71  96 144 186 229 287 355 418
#     4  11  24  42  67 103 137 177 235 288 335 416
#     4  11  26  45  72 101 144 189 222 290 364 411
#     4  11  28  46  66 108 146 184 236 285 350 437
#     4  10  22  45  67 103 133 181 234 283 344 418
#     4  12  24  45  74 106 140 184 234 298 350 406
#     4  10  23  39  72 100 135 179 233 286 345 406
#     4  11  24  44  76 101 134 178 241 291 345 411
#
# _framework density 21.960999000000001
#
# number of rings (size 3 to 8) (size 9 to 14) (size 15 to 20)
#    0.000    1.000    3.750    1.500    7.000    1.500 
#    0.000    3.750    0.000    0.000    0.000    0.000 
#    0.000    0.000    0.000    0.000    0.000    0.000 
#
# Total GULP energy -198281.684837 kJ/mol
# GULP energy per Si atom -12392.605302 kJ/mol
# Density = 2.191101 g / cm^3
# Si number density = 21.960999 Si / 1000 Ang^3
#
#
#
# Elastic Constant Matrix: (Units=GPa)
#
#
# Indices 1 2 3 4 5 6 
#
# 1 103.9674 30.4891 43.5497 6.3592 -4.3643 -3.4035
# 2 30.4891 114.5713 54.1604 13.9861 -8.4499 4.6041
# 3 43.5497 54.1604 100.0532 11.6684 -4.1584 -1.5589
# 4 6.3592 13.9861 11.6684 25.7568 -3.9388 -3.7454
# 5 -4.3643 -8.4499 -4.1584 -3.9388 43.8073 -0.8725
# 6 -3.4035 4.6041 -1.5589 -3.7454 -0.8725 40.6616
#
#
#
# Elastic Compliance Matrix: (Units=1/GPa)
#
#
# Indices 1 2 3 4 5 6 
#
# 1 0.011891 -0.000973 -0.004599 -0.000101 0.000570 0.000932
# 2 -0.000973 0.012393 -0.005800 -0.003953 0.001347 -0.002042
# 3 -0.004599 -0.005800 0.015443 -0.002675 -0.000339 0.000610
# 4 -0.000101 -0.003953 -0.002675 0.043298 0.002954 0.004388
# 5 0.000570 0.001347 -0.000339 0.002954 0.023390 0.000656
# 6 0.000932 -0.002042 0.000610 0.004388 0.000656 0.025344
#
#
# Mechanical properties :
#
#
# Convention : Reuss Voigt Hill
#
# Bulk Modulus (GPa) = 58.88189 63.88781 61.38485
# Shear Modulus (GPa) = 31.21821 34.73799 32.97810
#
# Velocity S-wave (km/s) = 3.77441 3.98150 3.87934
# Velocity P-wave (km/s) = 6.77238 7.09162 6.93384
#
# Compressibility (1/GPa) = 0.01698315
#
# Stress axis : x y z
#
# Youngs Moduli (GPa) = 84.09870 80.69249 64.75419
#
# Poissons Ratio (x) = 0.07855 0.29778
# Poissons Ratio (y) = 0.08187 0.37554
# Poissons Ratio (z) = 0.38674 0.46798
#
# Static dielectric constant tensor:
#      x y z
#    x 3.986110 0.351000 -0.052720 
#    y 0.351000 4.083380 0.265860 
#    z -0.052720 0.265860 3.672550 
# 
# 
# High freq. dielectric constant tensor:
#      x y z
#    x 1.877040 0.001000 0.001180 
#    y 0.001000 1.878220 0.005150 
#    z 0.001180 0.005150 1.842000 
# 
# From -- ./inp_files/446755.got.cif
#   From: 2010.06.25/outbox.cif.g09.slc.cpg/sg2_224_cif.got.tgz:446755.got - 2010.06.27 13:26:56.
