data_PCOD8022158
_publ_section_title
;
Structure prediction by ZEFSAII (Michael W. Deem and Ramdas Pophale) SiO2 
 PCOD8022158
Probable space group: P -1
;
_chemical_formula_sum "Si O2"
_cell_formula_units_Z 16
_cell_length_a 11.357256
_cell_length_b 9.810904
_cell_length_c 18.699244
_cell_angle_alpha 144.595144
_cell_angle_beta 133.283868
_cell_angle_gamma 71.197380
_cell_volume 727.545295
_symmetry_space_group_name_H-M "P -1"
_symmetry_group_IT_number 2
_symmetry_cell_setting 'triclinic'
loop_
_space_group_symop_operation_xyz
x,y,z
-x,-y,-z
loop_
_atom_site_type_symbol
_atom_site_label
_atom_site_fract_x
_atom_site_fract_y
_atom_site_fract_z
Si Si1 0.155096 0.314898 0.446301
Si Si2 0.799616 0.736929 0.898734
Si Si3 0.180450 0.782434 0.078466
Si Si4 0.623701 0.767341 0.113707
Si Si5 0.831343 0.672952 0.037517
Si Si6 0.267998 0.775178 0.952020
Si Si7 0.523874 0.639630 0.493894
Si Si8 0.009884 0.351954 0.546980
O O1 0.365050 0.432340 0.549297
O O2 0.061323 0.454198 0.425479
O O3 0.157989 0.367088 0.555123
O O4 0.023549 0.980852 0.234206
O O5 0.689728 0.501702 0.689886
O O6 0.726144 0.571279 0.873020
O O7 0.030385 0.875089 0.044044
O O8 0.759783 0.981998 0.981797
O O9 0.374883 0.030147 0.305963
O O10 0.093345 0.513121 0.979158
O O11 0.225792 0.705870 0.988377
O O12 0.676066 0.661794 0.020744
O O13 0.823565 0.028996 0.344593
O O14 0.500000 0.500000 0.000000
O O15 0.493229 0.880686 0.080515
O O16 0.127566 0.481286 0.724883
O O17 0.500000 0.500000 0.500000
#
# Coordination Sequence:
#
# PCOD8022158 Si02
#       8
#     2   2   2   2   2   2   2   2
#     4  10  22  45  66  99 140 176 225 286 341 400
#     4  12  26  43  72 102 135 189 234 276 345 415
#     4  12  26  47  68 101 148 180 227 292 344 402
#     4  11  25  46  68 103 144 175 224 290 346 401
#     4  11  24  48  69  99 146 181 224 294 343 403
#     4  12  24  43  74 103 135 183 232 280 344 415
#     4  12  26  42  69 101 138 181 233 285 339 409
#     4  10  23  42  72  98 134 181 227 280 341 410
#
# _framework density 21.991757
#
# number of rings (size 3 to 8) (size 9 to 14) (size 15 to 20)
#    0.000    0.750    5.000    1.500    3.500    1.500 
#    0.000    0.000    0.000    0.000    0.000    0.000 
#    0.000    0.000    0.000    0.000    0.000    0.000 
#
# Total GULP energy -198394.737179 kJ/mol
# GULP energy per Si atom -12399.671074 kJ/mol
# Density = 2.194170 g / cm^3
# Si number density = 21.991757 Si / 1000 Ang^3
#
#
#
# Elastic Constant Matrix: (Units=GPa)
#
#
# Indices 1 2 3 4 5 6 
#
# 1 75.5535 24.2643 39.3018 -7.6780 0.0937 13.0523
# 2 24.2643 104.4535 42.1302 -0.6375 -5.2215 6.5781
# 3 39.3018 42.1302 132.5069 -14.6517 -17.4845 18.4572
# 4 -7.6780 -0.6375 -14.6517 40.9614 10.2059 -5.6062
# 5 0.0937 -5.2215 -17.4845 10.2059 32.2983 -3.7604
# 6 13.0523 6.5781 18.4572 -5.6062 -3.7604 38.1105
#
#
#
# Elastic Compliance Matrix: (Units=1/GPa)
#
#
# Indices 1 2 3 4 5 6 
#
# 1 0.016890 -0.002236 -0.004066 0.002119 -0.003686 -0.003482
# 2 -0.002236 0.011333 -0.003032 -0.001479 0.000680 0.000127
# 3 -0.004066 -0.003032 0.010868 0.001568 0.004600 -0.002663
# 4 0.002119 -0.001479 0.001568 0.027591 -0.007876 0.002052
# 5 -0.003686 0.000680 0.004600 -0.007876 0.036216 0.001332
# 6 -0.003482 0.000127 -0.002663 0.002052 0.001332 0.029133
#
#
# Mechanical properties :
#
#
# Convention : Reuss Voigt Hill
#
# Bulk Modulus (GPa) = 48.96212 58.21183 53.58697
# Shear Modulus (GPa) = 31.74493 36.06190 33.90341
#
# Velocity S-wave (km/s) = 3.80345 4.05383 3.93063
# Velocity P-wave (km/s) = 6.44985 6.95979 6.70966
#
# Compressibility (1/GPa) = 0.02042395
#
# Stress axis : x y z
#
# Youngs Moduli (GPa) = 59.20647 88.24019 92.01419
#
# Poissons Ratio (x) = 0.19727 0.37413
# Poissons Ratio (y) = 0.13236 0.27896
# Poissons Ratio (z) = 0.24073 0.26752
#
# Static dielectric constant tensor:
#      x y z
#    x 4.241610 0.131470 -0.130130 
#    y 0.131470 3.953560 -0.004650 
#    z -0.130130 -0.004650 4.353400 
# 
# 
# High freq. dielectric constant tensor:
#      x y z
#    x 1.880900 0.010350 -0.008740 
#    y 0.010350 1.858800 0.000710 
#    z -0.008740 0.000710 1.864250 
# 
# From -- ./inp_files/308020.got.cif
#   From: 2010.06.25/outbox.cif.g09.slc.cpg/sg2_155_cif.got.tgz:308020.got - 2010.06.27 13:26:56.
