data_PCOD8022249
_publ_section_title
;
Structure prediction by ZEFSAII (Michael W. Deem and Ramdas Pophale) SiO2 
 PCOD8022249
Probable space group: P -1
;
_chemical_formula_sum "Si O2"
_cell_formula_units_Z 16
_cell_length_a 5.341161
_cell_length_b 21.255658
_cell_length_c 8.895149
_cell_angle_alpha 124.824586
_cell_angle_beta 92.383873
_cell_angle_gamma 117.609653
_cell_volume 666.324026
_symmetry_space_group_name_H-M "P -1"
_symmetry_group_IT_number 2
_symmetry_cell_setting 'triclinic'
loop_
_space_group_symop_operation_xyz
x,y,z
-x,-y,-z
loop_
_atom_site_type_symbol
_atom_site_label
_atom_site_fract_x
_atom_site_fract_y
_atom_site_fract_z
Si Si1 0.427117 0.469617 0.786803
Si Si2 0.150624 0.948985 0.078988
Si Si3 0.342862 0.049726 0.513851
Si Si4 0.202522 0.706345 0.468760
Si Si5 0.278404 0.574091 0.497251
Si Si6 0.424325 0.358031 0.107294
Si Si7 0.469784 0.110221 0.086937
Si Si8 0.264650 0.729495 0.154421
O O1 0.704648 0.490112 0.714745
O O2 0.170938 0.355955 0.619250
O O3 0.500000 0.500000 0.000000
O O4 0.325056 0.533330 0.801688
O O5 0.306561 0.036180 0.316377
O O6 0.251936 0.000533 0.989928
O O7 0.278321 0.884363 0.010507
O O8 0.772399 0.877842 0.989796
O O9 0.563550 0.159151 0.712422
O O10 0.500000 0.000000 0.500000
O O11 0.000000 0.000000 0.500000
O O12 0.281102 0.653465 0.514354
O O13 0.350800 0.812436 0.671798
O O14 0.292195 0.706534 0.297451
O O15 0.000000 0.500000 0.500000
O O16 0.577941 0.635848 0.702338
O O17 0.547928 0.297541 0.977788
O O18 0.089273 0.320522 0.977272
#
# Coordination Sequence:
#
# PCOD8022249 Si02
#       8
#     2   2   2   2   2   2   2   2
#     4  12  26  48  77 110 152 206 255 316 382 454
#     4  10  22  45  69 104 139 184 235 302 377 428
#     4  12  26  48  75 107 150 196 245 308 385 454
#     4  12  27  45  78 111 149 199 265 310 371 462
#     4  12  28  48  74 111 155 204 256 320 388 446
#     4  12  27  48  77 109 160 198 257 310 388 447
#     4  10  23  42  73 101 139 183 240 307 359 438
#     4  12  28  50  77 115 150 207 258 315 371 473
#
# _framework density 24.012342
#
# number of rings (size 3 to 8) (size 9 to 14) (size 15 to 20)
#    0.000    0.500    3.750    3.375    3.500    4.000 
#    0.000    0.000    0.000    0.000    0.000    0.000 
#    0.000    0.000    0.000    0.000    0.000    0.000 
#
# Total GULP energy -198245.675678 kJ/mol
# GULP energy per Si atom -12390.354730 kJ/mol
# Density = 2.395769 g / cm^3
# Si number density = 24.012342 Si / 1000 Ang^3
#
#
#
# Elastic Constant Matrix: (Units=GPa)
#
#
# Indices 1 2 3 4 5 6 
#
# 1 179.6780 41.1014 66.5688 -3.7222 -13.1386 1.1849
# 2 41.1014 108.8811 42.6402 -8.5821 -0.6570 -7.6684
# 3 66.5688 42.6402 156.3653 -11.8568 -15.0284 7.3655
# 4 -3.7222 -8.5821 -11.8568 48.5888 3.3213 2.3692
# 5 -13.1386 -0.6570 -15.0284 3.3213 44.1098 -0.6135
# 6 1.1849 -7.6684 7.3655 2.3692 -0.6135 25.2557
#
#
#
# Elastic Compliance Matrix: (Units=1/GPa)
#
#
# Indices 1 2 3 4 5 6 
#
# 1 0.006926 -0.001710 -0.002391 -0.000437 0.001255 -0.000075
# 2 -0.001710 0.011198 -0.002553 0.001109 -0.001239 0.004091
# 3 -0.002391 -0.002553 0.008568 0.001478 0.002012 -0.003252
# 4 -0.000437 0.001109 0.001478 0.021291 -0.001243 -0.002101
# 5 0.001255 -0.001239 0.002012 -0.001243 0.023801 -0.000327
# 6 -0.000075 0.004091 -0.003252 -0.002101 -0.000327 0.041978
#
#
# Mechanical properties :
#
#
# Convention : Reuss Voigt Hill
#
# Bulk Modulus (GPa) = 74.72345 82.83837 78.78091
# Shear Modulus (GPa) = 38.01369 43.23180 40.62274
#
# Velocity S-wave (km/s) = 3.98312 4.24771 4.11754
# Velocity P-wave (km/s) = 7.23464 7.65706 7.44884
#
# Compressibility (1/GPa) = 0.01338268
#
# Stress axis : x y z
#
# Youngs Moduli (GPa) = 144.38777 89.30290 116.71150
#
# Poissons Ratio (x) = 0.15272 0.27907
# Poissons Ratio (y) = 0.24693 0.29799
# Poissons Ratio (z) = 0.34525 0.22801
#
# Static dielectric constant tensor:
#      x y z
#    x 4.688510 -0.113090 0.088430 
#    y -0.113090 4.456830 0.061510 
#    z 0.088430 0.061510 4.801850 
# 
# 
# High freq. dielectric constant tensor:
#      x y z
#    x 1.956060 -0.004090 0.003490 
#    y -0.004090 1.950830 -0.002970 
#    z 0.003490 -0.002970 1.972210 
# 
# From -- ./inp_files/142681.got.cif
#   From: 2010.06.25/outbox.cif.g09.slc.cpg/sg2_72_cif.got.tgz:142681.got - 2010.06.27 13:26:56.
