data_PCOD8022885
_publ_section_title
;
Structure prediction by ZEFSAII (Michael W. Deem and Ramdas Pophale) SiO2 
 PCOD8022885
Probable space group: P -1
;
_chemical_formula_sum "Si O2"
_cell_formula_units_Z 12
_cell_length_a 11.926857
_cell_length_b 8.319939
_cell_length_c 8.987564
_cell_angle_alpha 108.315055
_cell_angle_beta 92.185112
_cell_angle_gamma 37.426328
_cell_volume 478.759924
_symmetry_space_group_name_H-M "P -1"
_symmetry_group_IT_number 2
_symmetry_cell_setting 'triclinic'
loop_
_space_group_symop_operation_xyz
x,y,z
-x,-y,-z
loop_
_atom_site_type_symbol
_atom_site_label
_atom_site_fract_x
_atom_site_fract_y
_atom_site_fract_z
Si Si1 0.102907 0.520489 0.210993
Si Si2 0.538588 0.764964 0.726955
Si Si3 0.833676 0.577234 0.130756
Si Si4 0.727354 0.473473 0.342746
Si Si5 0.077688 0.208275 0.431974
Si Si6 0.526848 0.447187 0.810757
O O1 0.322976 0.252443 0.214688
O O2 0.030363 0.413466 0.167834
O O3 0.954137 0.804055 0.398744
O O4 0.100560 0.605042 0.069045
O O5 0.574385 0.689888 0.531975
O O6 0.599423 0.529062 0.761823
O O7 0.308824 0.092870 0.837131
O O8 0.697276 0.643000 0.255331
O O9 0.676907 0.357249 0.226562
O O10 0.953248 0.224159 0.334486
O O11 0.000000 0.500000 0.500000
O O12 0.306740 0.904750 0.312348
O O13 0.500000 0.500000 0.000000
#
# Coordination Sequence:
#
# PCOD8022885 Si02
#       6
#     2   2   2   2   2   2
#     4  10  23  39  68  99 135 173 229 274 336 396
#     4  11  25  42  66 100 139 179 221 283 339 404
#     4  11  22  39  70 102 133 177 229 278 333 402
#     4  11  25  43  73 100 139 184 227 278 342 408
#     4  11  25  45  71  99 134 181 230 277 337 405
#     4  12  29  46  69 102 142 180 226 283 348 401
#
# _framework density 25.064753
#
# number of rings (size 3 to 8) (size 9 to 14) (size 15 to 20)
#    0.000    1.000    1.667    3.500    7.000    4.667 
#    0.000    0.000    0.000    0.000    0.000    0.000 
#    0.000    0.000    0.000    0.000    0.000    0.000 
#
# Total GULP energy -148696.841640 kJ/mol
# GULP energy per Si atom -12391.403470 kJ/mol
# Density = 2.500770 g / cm^3
# Si number density = 25.064753 Si / 1000 Ang^3
#
#
#
# Elastic Constant Matrix: (Units=GPa)
#
#
# Indices 1 2 3 4 5 6 
#
# 1 127.2224 38.1668 64.7857 -15.6778 2.7671 -23.0285
# 2 38.1668 64.7099 52.6964 -3.9099 -0.8878 -0.1806
# 3 64.7857 52.6964 202.4043 -40.0837 -11.3144 -5.2864
# 4 -15.6778 -3.9099 -40.0837 36.7194 -8.1766 7.0818
# 5 2.7671 -0.8878 -11.3144 -8.1766 46.9321 -19.6591
# 6 -23.0285 -0.1806 -5.2864 7.0818 -19.6591 39.1023
#
#
#
# Elastic Compliance Matrix: (Units=1/GPa)
#
#
# Indices 1 2 3 4 5 6 
#
# 1 0.011910 -0.005452 -0.001746 0.001634 0.002233 0.007580
# 2 -0.005452 0.022921 -0.005749 -0.006082 -0.003617 -0.004599
# 3 -0.001746 -0.005749 0.009089 0.009364 0.004027 0.000503
# 4 0.001634 -0.006082 0.009364 0.039555 0.008688 -0.000596
# 5 0.002233 -0.003617 0.004027 0.008688 0.030029 0.015367
# 6 0.007580 -0.004599 0.000503 -0.000596 0.015367 0.037918
#
#
# Mechanical properties :
#
#
# Convention : Reuss Voigt Hill
#
# Bulk Modulus (GPa) = 55.47833 78.40383 66.94108
# Shear Modulus (GPa) = 27.27387 40.46327 33.86857
#
# Velocity S-wave (km/s) = 3.30227 4.02226 3.67991
# Velocity P-wave (km/s) = 6.05987 7.27460 6.69484
#
# Compressibility (1/GPa) = 0.01802506
#
# Stress axis : x y z
#
# Youngs Moduli (GPa) = 83.96377 43.62774 110.02225
#
# Poissons Ratio (x) = 0.23786 0.19214
# Poissons Ratio (y) = 0.45777 0.63254
# Poissons Ratio (z) = 0.14663 0.25083
#
# Static dielectric constant tensor:
#      x y z
#    x 4.487510 -0.239960 -0.090230 
#    y -0.239960 3.972630 -0.479550 
#    z -0.090230 -0.479550 4.906140 
# 
# 
# High freq. dielectric constant tensor:
#      x y z
#    x 2.006040 -0.031310 -0.012110 
#    y -0.031310 1.958860 -0.033240 
#    z -0.012110 -0.033240 2.023960 
# 
# From -- ./inp_files/157790.got.cif
#   From: 2010.06.25/outbox.cif.g09.slc.cpg/sg2_79_cif.got.tgz:157790.got - 2010.06.27 13:26:56.
