data_PCOD8022074
_publ_section_title
;
Structure prediction by ZEFSAII (Michael W. Deem and Ramdas Pophale) SiO2 
 PCOD8022074
Probable space group: P -1
;
_chemical_formula_sum "Si O2"
_cell_formula_units_Z 14
_cell_length_a 12.443786
_cell_length_b 10.350670
_cell_length_c 11.373782
_cell_angle_alpha 136.742101
_cell_angle_beta 139.010861
_cell_angle_gamma 43.647367
_cell_volume 607.221572
_symmetry_space_group_name_H-M "P -1"
_symmetry_group_IT_number 2
_symmetry_cell_setting 'triclinic'
loop_
_space_group_symop_operation_xyz
x,y,z
-x,-y,-z
loop_
_atom_site_type_symbol
_atom_site_label
_atom_site_fract_x
_atom_site_fract_y
_atom_site_fract_z
Si Si1 0.834233 0.973139 0.291035
Si Si2 0.993174 0.284602 0.381414
Si Si3 0.869802 0.697316 0.953071
Si Si4 0.691721 0.383002 0.029948
Si Si5 0.519985 0.269698 0.373092
Si Si6 0.639880 0.075735 0.601704
Si Si7 0.917111 0.587883 0.237548
O O1 0.822474 0.756092 0.172328
O O2 0.655424 0.153797 0.303351
O O3 0.872581 0.918157 0.145649
O O4 0.000000 0.000000 0.500000
O O5 0.978347 0.299837 0.521734
O O6 0.000000 0.500000 0.500000
O O7 0.826383 0.256873 0.161862
O O8 0.175083 0.111655 0.377092
O O9 0.666469 0.732722 0.815334
O O10 0.944450 0.635805 0.841005
O O11 0.000000 0.500000 0.000000
O O12 0.758623 0.554460 0.151718
O O13 0.500000 0.500000 0.000000
O O14 0.676694 0.242216 0.819748
O O15 0.500000 0.500000 0.500000
O O16 0.580024 0.168625 0.483763
O O17 0.500000 0.000000 0.500000
#
# Coordination Sequence:
#
# PCOD8022074 Si02
#       7
#     2   2   2   2   2   2   2
#     4  11  24  47  70 105 146 189 244 304 370 437
#     4  10  22  46  73 101 146 187 241 300 367 429
#     4  10  24  44  73 103 143 190 244 300 368 433
#     4  11  26  44  74 107 148 194 246 299 374 439
#     4  12  27  47  77 109 148 196 246 307 369 442
#     4  12  27  48  75 111 148 193 251 302 372 440
#     4  10  22  44  74 102 144 188 243 307 361 440
#
# _framework density 23.055834999999998
#
# number of rings (size 3 to 8) (size 9 to 14) (size 15 to 20)
#    0.000    1.143    1.429    4.286   12.000    0.000 
#    2.571    0.000    0.000    0.000    0.000    0.000 
#    0.000    0.000    0.000    0.000    0.000    0.000 
#
# Total GULP energy -173438.047439 kJ/mol
# GULP energy per Si atom -12388.431960 kJ/mol
# Density = 2.300336 g / cm^3
# Si number density = 23.055835 Si / 1000 Ang^3
#
#
#
# Elastic Constant Matrix: (Units=GPa)
#
#
# Indices 1 2 3 4 5 6 
#
# 1 81.6822 51.1545 19.6324 -3.4087 -3.7620 -34.6697
# 2 51.1545 158.9108 53.3023 -3.4624 -7.7060 -42.3353
# 3 19.6324 53.3023 148.4276 -6.0327 -11.0160 -37.0339
# 4 -3.4087 -3.4624 -6.0327 49.2436 -13.5890 -2.5497
# 5 -3.7620 -7.7060 -11.0160 -13.5890 39.4239 5.9415
# 6 -34.6697 -42.3353 -37.0339 -2.5497 5.9415 58.0199
#
#
#
# Elastic Compliance Matrix: (Units=1/GPa)
#
#
# Indices 1 2 3 4 5 6 
#
# 1 0.018244 -0.003866 0.001325 0.001789 0.000625 0.008941
# 2 -0.003866 0.009019 -0.001917 0.000441 0.000557 0.003009
# 3 0.001325 -0.001917 0.008678 0.001845 0.002089 0.004799
# 4 0.001789 0.000441 0.001845 0.023129 0.008333 0.002731
# 5 0.000625 0.000557 0.002089 0.008333 0.029065 -0.000497
# 6 0.008941 0.003009 0.004799 0.002731 -0.000497 0.028008
#
#
# Mechanical properties :
#
#
# Convention : Reuss Voigt Hill
#
# Bulk Modulus (GPa) = 37.00423 70.79990 53.90207
# Shear Modulus (GPa) = 37.29494 46.99959 42.14726
#
# Velocity S-wave (km/s) = 4.02629 4.51989 4.28021
# Velocity P-wave (km/s) = 6.13998 7.61668 6.91785
#
# Compressibility (1/GPa) = 0.02702394
#
# Stress axis : x y z
#
# Youngs Moduli (GPa) = 54.81385 110.88066 115.23368
#
# Poissons Ratio (x) = 0.42866 -0.15270
# Poissons Ratio (y) = 0.21191 0.22094
# Poissons Ratio (z) = -0.07264 0.21260
#
# Static dielectric constant tensor:
#      x y z
#    x 4.883130 0.034100 -0.636250 
#    y 0.034100 4.288010 -0.044030 
#    z -0.636250 -0.044030 4.902430 
# 
# 
# High freq. dielectric constant tensor:
#      x y z
#    x 1.913440 -0.013310 -0.016740 
#    y -0.013310 1.918050 0.007660 
#    z -0.016740 0.007660 1.937880 
# 
# From -- ./inp_files/429158.got.cif
#   From: 2010.06.25/outbox.cif.g09.slc.cpg/sg2_215_cif.got.tgz:429158.got - 2010.06.27 13:26:56.
