data_PCOD8022250
_publ_section_title
;
Structure prediction by ZEFSAII (Michael W. Deem and Ramdas Pophale) SiO2 
 PCOD8022250
Probable space group: P -1
;
_chemical_formula_sum "Si O2"
_cell_formula_units_Z 14
_cell_length_a 13.782942
_cell_length_b 7.356489
_cell_length_c 7.855434
_cell_angle_alpha 55.980391
_cell_angle_beta 82.816083
_cell_angle_gamma 115.605594
_cell_volume 518.699972
_symmetry_space_group_name_H-M "P -1"
_symmetry_group_IT_number 2
_symmetry_cell_setting 'triclinic'
loop_
_space_group_symop_operation_xyz
x,y,z
-x,-y,-z
loop_
_atom_site_type_symbol
_atom_site_label
_atom_site_fract_x
_atom_site_fract_y
_atom_site_fract_z
Si Si1 0.417161 0.912484 0.317199
Si Si2 0.079510 0.910681 0.970259
Si Si3 0.882001 0.978202 0.728600
Si Si4 0.376711 0.300813 0.238262
Si Si5 0.662768 0.116969 0.019348
Si Si6 0.940444 0.589587 0.816588
Si Si7 0.662443 0.652593 0.406801
O O1 0.563548 0.139782 0.124074
O O2 0.383771 0.623268 0.543929
O O3 0.369179 0.023764 0.407725
O O4 0.338363 0.848709 0.198618
O O5 0.190166 0.147797 0.703692
O O6 0.017769 0.613183 0.041529
O O7 0.133790 0.914243 0.144658
O O8 0.000000 0.000000 0.000000
O O9 0.746992 0.772951 0.782516
O O10 0.942531 0.809163 0.827125
O O11 0.975958 0.241573 0.452578
O O12 0.394726 0.437258 0.344987
O O13 0.500000 0.500000 0.000000
O O14 0.619702 0.809642 0.233364
O O15 0.797817 0.357065 0.929097
#
# Coordination Sequence:
#
# PCOD8022250 Si02
#       7
#     2   2   2   2   2   2   2
#     4  11  23  42  74  95 143 188 227 282 358 405
#     4  11  27  44  69 105 142 181 233 291 346 416
#     4  11  25  44  73  99 138 190 229 285 355 413
#     4  12  26  44  73 105 136 182 235 282 350 417
#     4  10  22  45  69 105 139 183 232 291 341 421
#     4  10  23  44  72  98 141 179 236 285 345 414
#     4  11  26  44  68 104 140 177 240 288 343 416
#
# _framework density 26.990555000000001
#
# number of rings (size 3 to 8) (size 9 to 14) (size 15 to 20)
#    0.000    1.143    0.000    6.000    8.000    4.571 
#    0.000    1.429    0.000    0.000    0.000    0.000 
#    0.000    0.000    0.000    0.000    0.000    0.000 
#
# Total GULP energy -173529.424385 kJ/mol
# GULP energy per Si atom -12394.958885 kJ/mol
# Density = 2.692912 g / cm^3
# Si number density = 26.990555 Si / 1000 Ang^3
#
#
#
# Elastic Constant Matrix: (Units=GPa)
#
#
# Indices 1 2 3 4 5 6 
#
# 1 141.2399 34.3756 26.5596 -19.7102 -4.7915 -26.9492
# 2 34.3756 142.8311 32.0632 -6.4816 -10.6590 -21.9394
# 3 26.5596 32.0632 108.0349 -15.3207 -16.1951 -14.6477
# 4 -19.7102 -6.4816 -15.3207 33.5987 -10.6306 -2.5763
# 5 -4.7915 -10.6590 -16.1951 -10.6306 15.0024 -4.5673
# 6 -26.9492 -21.9394 -14.6477 -2.5763 -4.5673 32.2601
#
#
#
# Elastic Compliance Matrix: (Units=1/GPa)
#
#
# Indices 1 2 3 4 5 6 
#
# 1 0.020481 0.006131 0.018444 0.050463 0.080280 0.045049
# 2 0.006131 0.012661 0.010372 0.029167 0.051355 0.028041
# 3 0.018444 0.010372 0.043218 0.081573 0.138481 0.068205
# 4 0.050463 0.029167 0.081573 0.219057 0.329812 0.163217
# 5 0.080280 0.051355 0.138481 0.329812 0.595871 0.275567
# 6 0.045049 0.028041 0.068205 0.163217 0.275567 0.170718
#
#
# Mechanical properties :
#
#
# Convention : Reuss Voigt Hill
#
# Bulk Modulus (GPa) = 6.83744 64.23362 35.53553
# Shear Modulus (GPa) = 4.80370 36.11273 20.45822
#
# Velocity S-wave (km/s) = 1.33553 3.66180 2.75612
# Velocity P-wave (km/s) = 2.21742 6.45977 4.82937
#
# Compressibility (1/GPa) = 0.14625361
#
# Stress axis : x y z
#
# Youngs Moduli (GPa) = 48.82635 78.98492 23.13828
#
# Poissons Ratio (x) = -0.48427 -0.42676
# Poissons Ratio (y) = -0.29936 -0.23999
# Poissons Ratio (z) = -0.90055 -0.81922
#
# Static dielectric constant tensor:
#      x y z
#    x 5.636920 -0.473540 0.255030 
#    y -0.473540 5.387380 -0.331060 
#    z 0.255030 -0.331060 4.768440 
# 
# 
# High freq. dielectric constant tensor:
#      x y z
#    x 2.126740 -0.011430 0.004000 
#    y -0.011430 2.108550 -0.008970 
#    z 0.004000 -0.008970 2.076500 
# 
# From -- ./inp_files/297431.got.cif
#   From: 2010.06.25/outbox.cif.g09.slc.cpg/sg2_149_cif.got.tgz:297431.got - 2010.06.27 13:26:56.
