data_PCOD8022581
_publ_section_title
;
Structure prediction by ZEFSAII (Michael W. Deem and Ramdas Pophale) SiO2 
 PCOD8022581
Probable space group: P -1
;
_chemical_formula_sum "Si O2"
_cell_formula_units_Z 16
_cell_length_a 5.257861
_cell_length_b 18.619740
_cell_length_c 14.696332
_cell_angle_alpha 31.136273
_cell_angle_beta 70.784054
_cell_angle_gamma 80.837114
_cell_volume 680.044697
_symmetry_space_group_name_H-M "P -1"
_symmetry_group_IT_number 2
_symmetry_cell_setting 'triclinic'
loop_
_space_group_symop_operation_xyz
x,y,z
-x,-y,-z
loop_
_atom_site_type_symbol
_atom_site_label
_atom_site_fract_x
_atom_site_fract_y
_atom_site_fract_z
Si Si1 0.329121 0.185556 0.286261
Si Si2 0.952331 0.421195 0.350425
Si Si3 0.687837 0.123426 0.661829
Si Si4 0.636516 0.806456 0.051033
Si Si5 0.205290 0.153836 0.813031
Si Si6 0.418313 0.405359 0.879260
Si Si7 0.683141 0.109841 0.476959
Si Si8 0.878192 0.357716 0.615305
O O1 0.547269 0.208147 0.320122
O O2 0.016984 0.157170 0.390699
O O3 0.398999 0.056583 0.360862
O O4 0.377177 0.325702 0.066790
O O5 0.952337 0.262219 0.485045
O O6 0.798741 0.495165 0.211892
O O7 0.757450 0.404332 0.483836
O O8 0.260235 0.507838 0.250871
O O9 0.490339 0.138819 0.752077
O O10 0.554653 0.121815 0.578869
O O11 0.762599 0.971428 0.828840
O O12 0.785345 0.785179 0.150684
O O13 0.674585 0.705767 0.072759
O O14 0.313889 0.760246 0.168343
O O15 0.104181 0.276444 0.637578
O O16 0.000000 0.000000 0.000000
O O17 0.000000 0.500000 0.500000
#
# Coordination Sequence:
#
# PCOD8022581 Si02
#       8
#     2   2   2   2   2   2   2   2
#     4  10  22  47  73 105 139 174 246 299 353 415
#     4  12  27  43  70 103 152 184 235 294 357 422
#     4  12  25  47  67 109 140 191 237 291 368 426
#     4  12  25  43  70 100 139 195 241 285 344 426
#     4  12  25  42  67 100 148 190 234 294 348 423
#     4  12  26  48  73 108 139 194 237 298 352 423
#     4  10  23  44  76 106 135 185 233 304 350 425
#     4  12  24  43  64  99 143 191 242 286 341 416
#
# _framework density 23.527863
#
# number of rings (size 3 to 8) (size 9 to 14) (size 15 to 20)
#    0.000    0.500    5.000    3.375    0.000    4.000 
#    2.250    3.750    0.000    0.000    0.000    0.000 
#    0.000    0.000    0.000    0.000    0.000    0.000 
#
# Total GULP energy -198219.324626 kJ/mol
# GULP energy per Si atom -12388.707789 kJ/mol
# Density = 2.347431 g / cm^3
# Si number density = 23.527863 Si / 1000 Ang^3
#
#
#
# Elastic Constant Matrix: (Units=GPa)
#
#
# Indices 1 2 3 4 5 6 
#
# 1 102.4625 18.0225 31.2973 -10.1152 9.2991 14.3803
# 2 18.0225 60.8565 42.7601 -1.2713 0.5630 25.5693
# 3 31.2973 42.7601 139.8697 -13.4653 12.8597 11.5042
# 4 -10.1152 -1.2713 -13.4653 43.4548 11.5249 8.9691
# 5 9.2991 0.5630 12.8597 11.5249 30.8223 5.7591
# 6 14.3803 25.5693 11.5042 8.9691 5.7591 25.7832
#
#
#
# Elastic Compliance Matrix: (Units=1/GPa)
#
#
# Indices 1 2 3 4 5 6 
#
# 1 0.011947 0.001023 -0.001566 0.004836 -0.003297 -0.007925
# 2 0.001023 0.038677 -0.009301 0.004110 0.008446 -0.038094
# 3 -0.001566 -0.009301 0.010747 0.003153 -0.006059 0.005558
# 4 0.004836 0.004110 0.003153 0.031748 -0.011613 -0.016631
# 5 -0.003297 0.008446 -0.006059 -0.011613 0.041864 -0.009145
# 6 -0.007925 -0.038094 0.005558 -0.016631 -0.009145 0.086331
#
#
# Mechanical properties :
#
#
# Convention : Reuss Voigt Hill
#
# Bulk Modulus (GPa) = 23.98944 54.14984 39.06964
# Shear Modulus (GPa) = 19.61599 34.08597 26.85098
#
# Velocity S-wave (km/s) = 2.89058 3.81037 3.38189
# Velocity P-wave (km/s) = 4.62157 6.51335 5.64724
#
# Compressibility (1/GPa) = 0.04168501
#
# Stress axis : x y z
#
# Youngs Moduli (GPa) = 83.70419 25.85499 93.05186
#
# Poissons Ratio (x) = -0.02646 0.14567
# Poissons Ratio (y) = -0.08567 0.86546
# Poissons Ratio (z) = 0.13104 0.24047
#
# Static dielectric constant tensor:
#      x y z
#    x 2.866020 0.595170 0.174360 
#    y 0.595170 4.196140 -0.118200 
#    z 0.174360 -0.118200 4.521660 
# 
# 
# High freq. dielectric constant tensor:
#      x y z
#    x 1.922050 0.025400 0.006170 
#    y 0.025400 1.928540 -0.004230 
#    z 0.006170 -0.004230 1.947310 
# 
# From -- ./inp_files/142470.got.cif
#   From: 2010.06.25/outbox.cif.g09.slc.cpg/sg2_72_cif.got.tgz:142470.got - 2010.06.27 13:26:56.
