data_PCOD8022018
_publ_section_title
;
Structure prediction by ZEFSAII (Michael W. Deem and Ramdas Pophale) SiO2 
 PCOD8022018
Probable space group: P -1
;
_chemical_formula_sum "Si O2"
_cell_formula_units_Z 14
_cell_length_a 12.906302
_cell_length_b 9.775018
_cell_length_c 8.547139
_cell_angle_alpha 42.787702
_cell_angle_beta 49.197869
_cell_angle_gamma 59.616080
_cell_volume 553.737868
_symmetry_space_group_name_H-M "P -1"
_symmetry_group_IT_number 2
_symmetry_cell_setting 'triclinic'
loop_
_space_group_symop_operation_xyz
x,y,z
-x,-y,-z
loop_
_atom_site_type_symbol
_atom_site_label
_atom_site_fract_x
_atom_site_fract_y
_atom_site_fract_z
Si Si1 0.795896 0.231523 0.260750
Si Si2 0.744988 0.827387 0.159434
Si Si3 0.725811 0.813531 0.543864
Si Si4 0.184244 0.792064 0.374258
Si Si5 0.627146 0.594082 0.220739
Si Si6 0.952195 0.536808 0.689211
Si Si7 0.466924 0.838148 0.945337
O O1 0.808374 0.166084 0.483542
O O2 0.688704 0.423039 0.186779
O O3 0.748536 0.049376 0.354251
O O4 0.933448 0.322083 0.974537
O O5 0.775851 0.758485 0.364313
O O6 0.743284 0.637742 0.201443
O O7 0.588821 0.930363 0.213898
O O8 0.852225 0.990574 0.856268
O O9 0.562178 0.775367 0.753389
O O10 0.814086 0.681909 0.693854
O O11 0.067528 0.641339 0.585096
O O12 0.332200 0.707736 0.223829
O O13 0.500000 0.500000 0.500000
O O14 0.576911 0.802703 0.008078
O O15 0.000000 0.500000 0.500000
#
# Coordination Sequence:
#
# PCOD8022018 Si02
#       7
#     2   2   2   2   2   2   2
#     4  12  26  46  79 103 144 190 251 288 360 424
#     4  10  24  43  75 106 151 186 236 293 372 413
#     4  12  26  49  74 107 148 191 234 301 361 431
#     4  10  25  47  72 107 144 186 244 295 356 423
#     4  12  21  42  73 112 143 185 240 301 351 428
#     4  12  29  50  72 106 147 192 243 296 363 427
#     4  10  22  44  72 106 144 183 241 291 354 424
#
# _framework density 25.282720999999999
#
# number of rings (size 3 to 8) (size 9 to 14) (size 15 to 20)
#    0.857    0.000    2.857    3.857    2.000    2.857 
#    0.000    2.143    0.000    0.000    0.000    0.000 
#    0.000    0.000    0.000    0.000    0.000    0.000 
#
# Total GULP energy -173454.612241 kJ/mol
# GULP energy per Si atom -12389.615160 kJ/mol
# Density = 2.522518 g / cm^3
# Si number density = 25.282721 Si / 1000 Ang^3
#
#
#
# Elastic Constant Matrix: (Units=GPa)
#
#
# Indices 1 2 3 4 5 6 
#
# 1 78.4957 2.7151 17.6622 -12.2381 15.7701 2.9938
# 2 2.7151 56.9038 7.3217 -11.0978 -3.2053 5.3085
# 3 17.6622 7.3217 144.1755 12.3121 1.3732 8.0483
# 4 -12.2381 -11.0978 12.3121 30.9544 0.1413 -1.7296
# 5 15.7701 -3.2053 1.3732 0.1413 41.4581 1.4932
# 6 2.9938 5.3085 8.0483 -1.7296 1.4932 29.3065
#
#
#
# Elastic Compliance Matrix: (Units=1/GPa)
#
#
# Indices 1 2 3 4 5 6 
#
# 1 0.015621 0.000731 -0.002515 0.007448 -0.005817 -0.000302
# 2 0.000731 0.019603 -0.001608 0.007794 0.001365 -0.002794
# 3 -0.002515 -0.001608 0.007836 -0.004798 0.000658 -0.001921
# 4 0.007448 0.007794 -0.004798 0.040054 -0.002267 0.001624
# 5 -0.005817 0.001365 0.000658 -0.002267 0.026472 -0.001316
# 6 -0.000302 -0.002794 -0.001921 0.001624 -0.001316 0.035349
#
#
# Mechanical properties :
#
#
# Convention : Reuss Voigt Hill
#
# Bulk Modulus (GPa) = 27.56445 37.21922 32.39184
# Shear Modulus (GPa) = 30.52284 37.13554 33.82919
#
# Velocity S-wave (km/s) = 3.47834 3.83666 3.66189
# Velocity P-wave (km/s) = 5.20172 5.86343 5.54246
#
# Compressibility (1/GPa) = 0.03627862
#
# Stress axis : x y z
#
# Youngs Moduli (GPa) = 64.01465 51.01232 127.61031
#
# Poissons Ratio (x) = -0.03730 0.32089
# Poissons Ratio (y) = -0.04681 0.20517
# Poissons Ratio (z) = 0.16097 0.08202
#
# Static dielectric constant tensor:
#      x y z
#    x 4.473970 0.065870 0.416910 
#    y 0.065870 4.951800 0.144200 
#    z 0.416910 0.144200 4.784760 
# 
# 
# High freq. dielectric constant tensor:
#      x y z
#    x 1.995830 -0.016300 0.011080 
#    y -0.016300 1.990990 0.009400 
#    z 0.011080 0.009400 2.032420 
# 
# From -- ./inp_files/293883.got.cif
#   From: 2010.06.25/outbox.cif.g09.slc.cpg/sg2_147_cif.got.tgz:293883.got - 2010.06.27 13:26:56.
