data_PCOD8022013
_publ_section_title
;
Structure prediction by ZEFSAII (Michael W. Deem and Ramdas Pophale) SiO2 
 PCOD8022013
Probable space group: P -1
;
_chemical_formula_sum "Si O2"
_cell_formula_units_Z 16
_cell_length_a 8.744539
_cell_length_b 8.656406
_cell_length_c 11.808263
_cell_angle_alpha 104.033683
_cell_angle_beta 126.226975
_cell_angle_gamma 78.647903
_cell_volume 697.887057
_symmetry_space_group_name_H-M "P -1"
_symmetry_group_IT_number 2
_symmetry_cell_setting 'triclinic'
loop_
_space_group_symop_operation_xyz
x,y,z
-x,-y,-z
loop_
_atom_site_type_symbol
_atom_site_label
_atom_site_fract_x
_atom_site_fract_y
_atom_site_fract_z
Si Si1 0.363158 0.172710 0.306284
Si Si2 0.186336 0.821122 0.746348
Si Si3 0.470655 0.334280 0.015455
Si Si4 0.792516 0.460664 0.928931
Si Si5 0.481113 0.525003 0.627780
Si Si6 0.951591 0.161855 0.071197
Si Si7 0.385239 0.081662 0.746345
Si Si8 0.221715 0.270175 0.500508
O O1 0.514974 0.282918 0.331394
O O2 0.347172 0.178023 0.438260
O O3 0.153552 0.240083 0.186791
O O4 0.430577 0.999230 0.254500
O O5 0.133138 0.896602 0.858492
O O6 0.005101 0.728670 0.610433
O O7 0.238999 0.959579 0.708984
O O8 0.367075 0.695475 0.822662
O O9 0.459376 0.184906 0.900780
O O10 0.500000 0.500000 0.000000
O O11 0.276706 0.377677 0.005484
O O12 0.656357 0.434868 0.757322
O O13 0.799516 0.293449 0.972987
O O14 0.000000 0.500000 0.000000
O O15 0.500000 0.500000 0.500000
O O16 0.283529 0.453389 0.567010
O O17 0.000000 0.000000 0.000000
O O18 0.266814 0.190023 0.625756
#
# Coordination Sequence:
#
# PCOD8022013 Si02
#       8
#     2   2   2   2   2   2   2   2
#     4  10  22  44  72 104 145 184 235 290 350 415
#     4  11  25  46  68 102 150 181 235 283 359 416
#     4  12  26  46  71 102 140 187 235 292 354 416
#     4  12  25  45  73 103 138 178 242 291 352 422
#     4  10  22  44  72 104 138 182 234 290 348 406
#     4  11  24  42  71 104 139 182 231 292 355 418
#     4  12  25  45  72 105 146 186 236 292 354 416
#     4  10  24  46  73 104 142 193 237 285 347 425
#
# _framework density 22.926347
#
# number of rings (size 3 to 8) (size 9 to 14) (size 15 to 20)
#    0.000    1.000    2.500    3.375    3.500    0.000 
#    2.250   10.625    0.000    0.000    0.000    0.000 
#    0.000    0.000    0.000    0.000    0.000    0.000 
#
# Total GULP energy -198240.875149 kJ/mol
# GULP energy per Si atom -12390.054697 kJ/mol
# Density = 2.287417 g / cm^3
# Si number density = 22.926347 Si / 1000 Ang^3
#
#
#
# Elastic Constant Matrix: (Units=GPa)
#
#
# Indices 1 2 3 4 5 6 
#
# 1 120.3185 44.0333 40.4935 2.3564 13.0952 8.6144
# 2 44.0333 100.9176 38.4084 -2.0289 7.1525 8.9301
# 3 40.4935 38.4084 128.8744 -12.3020 6.9747 8.1406
# 4 2.3564 -2.0289 -12.3020 35.8095 5.7578 -3.5018
# 5 13.0952 7.1525 6.9747 5.7578 38.1576 1.2373
# 6 8.6144 8.9301 8.1406 -3.5018 1.2373 53.5595
#
#
#
# Elastic Compliance Matrix: (Units=1/GPa)
#
#
# Indices 1 2 3 4 5 6 
#
# 1 0.010734 -0.003616 -0.002248 -0.001384 -0.002360 -0.000818
# 2 -0.003616 0.012585 -0.002501 0.000085 -0.000637 -0.001116
# 3 -0.002248 -0.002501 0.009622 0.003433 -0.001022 -0.000436
# 4 -0.001384 0.000085 0.003433 0.030141 -0.004774 0.001768
# 5 -0.002360 -0.000637 -0.001022 -0.004774 0.028054 -0.000319
# 6 -0.000818 -0.001116 -0.000436 0.001768 -0.000319 0.019178
#
#
# Mechanical properties :
#
#
# Convention : Reuss Voigt Hill
#
# Bulk Modulus (GPa) = 61.69080 66.22012 63.95546
# Shear Modulus (GPa) = 37.75116 40.65033 39.20074
#
# Velocity S-wave (km/s) = 4.06227 4.21537 4.13953
# Velocity P-wave (km/s) = 6.99781 7.25527 7.12771
#
# Compressibility (1/GPa) = 0.01620987
#
# Stress axis : x y z
#
# Youngs Moduli (GPa) = 93.16524 79.46272 103.93111
#
# Poissons Ratio (x) = 0.28735 0.23360
# Poissons Ratio (y) = 0.33690 0.25995
# Poissons Ratio (z) = 0.20940 0.19875
#
# Static dielectric constant tensor:
#      x y z
#    x 4.198260 0.635130 0.188550 
#    y 0.635130 4.046310 -0.042570 
#    z 0.188550 -0.042570 4.486690 
# 
# 
# High freq. dielectric constant tensor:
#      x y z
#    x 1.923460 0.012160 -0.006940 
#    y 0.012160 1.897930 -0.000860 
#    z -0.006940 -0.000860 1.914240 
# 
# From -- ./inp_files/382778.got.cif
#   From: 2010.06.25/outbox.cif.g09.slc.cpg/sg2_192_cif.got.tgz:382778.got - 2010.06.27 13:26:56.
