data_PCOD8022976
_publ_section_title
;
Structure prediction by ZEFSAII (Michael W. Deem and Ramdas Pophale) SiO2 
 PCOD8022976
Probable space group: P -1
;
_chemical_formula_sum "Si O2"
_cell_formula_units_Z 14
_cell_length_a 10.713259
_cell_length_b 25.114853
_cell_length_c 6.859495
_cell_angle_alpha 67.398250
_cell_angle_beta 66.294990
_cell_angle_gamma 23.175235
_cell_volume 664.497927
_symmetry_space_group_name_H-M "P -1"
_symmetry_group_IT_number 2
_symmetry_cell_setting 'triclinic'
loop_
_space_group_symop_operation_xyz
x,y,z
-x,-y,-z
loop_
_atom_site_type_symbol
_atom_site_label
_atom_site_fract_x
_atom_site_fract_y
_atom_site_fract_z
Si Si1 0.172849 0.595615 0.505096
Si Si2 0.818007 0.126975 0.998289
Si Si3 0.201128 0.976092 0.330401
Si Si4 0.083587 0.401135 0.082098
Si Si5 0.873810 0.914129 0.424190
Si Si6 0.798878 0.818042 0.689146
Si Si7 0.892643 0.693929 0.136061
O O1 0.500000 0.500000 0.500000
O O2 0.131795 0.547518 0.690226
O O3 0.883087 0.745375 0.555990
O O4 0.153367 0.599747 0.277161
O O5 0.457176 0.249646 0.109523
O O6 0.002797 0.082008 0.131554
O O7 0.829815 0.168291 0.754772
O O8 0.000000 0.000000 0.000000
O O9 0.246386 0.006776 0.421620
O O10 0.540059 0.821152 0.266202
O O11 0.000000 0.000000 0.500000
O O12 0.015641 0.397562 0.920010
O O13 0.000000 0.500000 0.000000
O O14 0.984636 0.807745 0.566403
O O15 0.580809 0.024672 0.297943
O O16 0.904486 0.747287 0.923019
#
# Coordination Sequence:
#
# PCOD8022976 Si02
#       7
#     2   2   2   2   2   2   2
#     4  11  25  46  69  87 131 182 223 269 331 396
#     4  12  21  40  67  96 133 168 214 271 331 391
#     4  12  21  35  66  97 124 170 210 266 333 389
#     4  11  26  45  67 102 135 171 224 277 327 399
#     4  11  22  38  63 101 132 162 215 272 331 389
#     4  10  23  40  63  95 132 168 217 273 321 396
#     4  11  22  44  69  90 132 176 219 272 334 388
#
# _framework density 21.068536999999999
#
# number of rings (size 3 to 8) (size 9 to 14) (size 15 to 20)
#    0.000    0.857    5.714    1.714    2.000    4.571 
#    2.571    0.000    0.000    0.000    0.000    0.000 
#    0.000    0.000    0.000    0.000    0.000    0.000 
#
# Total GULP energy -173632.475361 kJ/mol
# GULP energy per Si atom -12402.319669 kJ/mol
# Density = 2.102058 g / cm^3
# Si number density = 21.068537 Si / 1000 Ang^3
#
#
#
# Elastic Constant Matrix: (Units=GPa)
#
#
# Indices 1 2 3 4 5 6 
#
# 1 128.4168 40.0835 81.7779 -18.6489 -15.8611 9.3479
# 2 40.0835 69.1686 37.3206 -10.9120 -6.3422 -2.8763
# 3 81.7779 37.3206 153.7738 -9.0455 0.5719 6.4286
# 4 -18.6489 -10.9120 -9.0455 22.7815 -5.5574 -2.2162
# 5 -15.8611 -6.3422 0.5719 -5.5574 50.4881 -9.2853
# 6 9.3479 -2.8763 6.4286 -2.2162 -9.2853 45.5989
#
#
#
# Elastic Compliance Matrix: (Units=1/GPa)
#
#
# Indices 1 2 3 4 5 6 
#
# 1 0.015144 -0.003222 -0.006704 0.009408 0.005313 -0.000824
# 2 -0.003222 0.019176 -0.002702 0.006439 0.002709 0.003116
# 3 -0.006704 -0.002702 0.010578 -0.003456 -0.003147 -0.001096
# 4 0.009408 0.006439 -0.003456 0.056300 0.010715 0.003883
# 5 0.005313 0.002709 -0.003147 0.010715 0.023936 0.004920
# 6 -0.000824 0.003116 -0.001096 0.003883 0.004920 0.023641
#
#
# Mechanical properties :
#
#
# Convention : Reuss Voigt Hill
#
# Bulk Modulus (GPa) = 50.90895 74.41368 62.66131
# Shear Modulus (GPa) = 27.68871 36.58553 32.13712
#
# Velocity S-wave (km/s) = 3.62915 4.17166 3.90982
# Velocity P-wave (km/s) = 6.46351 7.65507 7.08439
#
# Compressibility (1/GPa) = 0.01964291
#
# Stress axis : x y z
#
# Youngs Moduli (GPa) = 66.03118 52.14784 94.53385
#
# Poissons Ratio (x) = 0.16802 0.63374
# Poissons Ratio (y) = 0.21275 0.25544
# Poissons Ratio (z) = 0.44266 0.14091
#
# Static dielectric constant tensor:
#      x y z
#    x 3.884670 0.183570 0.010100 
#    y 0.183570 2.741070 0.283280 
#    z 0.010100 0.283280 4.175880 
# 
# 
# High freq. dielectric constant tensor:
#      x y z
#    x 1.830880 -0.004750 -0.004510 
#    y -0.004750 1.803810 0.007050 
#    z -0.004510 0.007050 1.835710 
# 
# From -- ./inp_files/85047.got.cif
#   From: 2010.06.25/outbox.cif.g09.slc.cpg/sg2_43_cif.got.tgz:85047.got - 2010.06.27 13:26:56.
