data_PCOD8022847
_publ_section_title
;
Structure prediction by ZEFSAII (Michael W. Deem and Ramdas Pophale) SiO2 
 PCOD8022847
Probable space group: P -1
;
_chemical_formula_sum "Si O2"
_cell_formula_units_Z 14
_cell_length_a 12.171482
_cell_length_b 5.309795
_cell_length_c 11.617470
_cell_angle_alpha 102.256821
_cell_angle_beta 111.567478
_cell_angle_gamma 51.598732
_cell_volume 547.069113
_symmetry_space_group_name_H-M "P -1"
_symmetry_group_IT_number 2
_symmetry_cell_setting 'triclinic'
loop_
_space_group_symop_operation_xyz
x,y,z
-x,-y,-z
loop_
_atom_site_type_symbol
_atom_site_label
_atom_site_fract_x
_atom_site_fract_y
_atom_site_fract_z
Si Si1 0.796442 0.456152 0.864673
Si Si2 0.578166 0.557079 0.437971
Si Si3 0.993111 0.582231 0.637915
Si Si4 0.518137 0.535125 0.823147
Si Si5 0.341066 0.968390 0.982714
Si Si6 0.076280 0.017217 0.794976
Si Si7 0.286836 0.202811 0.361140
O O1 0.672117 0.396555 0.803511
O O2 0.774957 0.689543 0.778999
O O3 0.962851 0.142624 0.873979
O O4 0.764809 0.649201 0.991984
O O5 0.500000 0.500000 0.500000
O O6 0.607587 0.357332 0.312544
O O7 0.720891 0.519747 0.538551
O O8 0.456684 0.919179 0.383123
O O9 0.038765 0.283860 0.710254
O O10 0.000000 0.500000 0.500000
O O11 0.818384 0.866328 0.621722
O O12 0.084226 0.724009 0.711091
O O13 0.450923 0.862551 0.903999
O O14 0.553253 0.248290 0.891714
O O15 0.234073 0.868772 0.898446
#
# Coordination Sequence:
#
# PCOD8022847 Si02
#       7
#     2   2   2   2   2   2   2
#     4  11  22  45  69  98 144 184 241 294 347 429
#     4  11  21  39  66  99 128 185 229 294 343 431
#     4  11  26  48  72 104 146 183 234 302 355 424
#     4  11  24  42  70  97 149 177 243 290 367 403
#     4  11  26  44  66 105 143 191 233 297 354 427
#     4  11  27  46  76 106 139 193 242 286 359 427
#     4  10  23  39  65  99 134 178 238 286 361 406
#
# _framework density 25.590919
#
# number of rings (size 3 to 8) (size 9 to 14) (size 15 to 20)
#    0.000    1.143    2.857    2.143    8.000    1.714 
#    0.000    0.000    0.000    0.000    0.000    0.000 
#    0.000    0.000    0.000    0.000    0.000    0.000 
#
# Total GULP energy -173436.183064 kJ/mol
# GULP energy per Si atom -12388.298790 kJ/mol
# Density = 2.553267 g / cm^3
# Si number density = 25.590919 Si / 1000 Ang^3
#
#
#
# Elastic Constant Matrix: (Units=GPa)
#
#
# Indices 1 2 3 4 5 6 
#
# 1 56.7062 -5.4054 0.7455 -11.6850 -11.9072 1.8110
# 2 -5.4054 41.5793 10.2571 13.3892 -12.1199 2.9286
# 3 0.7455 10.2571 124.3366 14.8950 -10.5628 4.0151
# 4 -11.6850 13.3892 14.8950 23.8459 -6.8025 2.1097
# 5 -11.9072 -12.1199 -10.5628 -6.8025 43.9069 10.0327
# 6 1.8110 2.9286 4.0151 2.1097 10.0327 41.4811
#
#
#
# Elastic Compliance Matrix: (Units=1/GPa)
#
#
# Indices 1 2 3 4 5 6 
#
# 1 0.022800 0.001805 -0.001008 0.013857 0.009507 -0.004029
# 2 0.001805 0.031358 -0.000139 -0.014135 0.007705 -0.003424
# 3 -0.001008 -0.000139 0.008847 -0.005547 0.001139 -0.000796
# 4 0.013857 -0.014135 -0.005547 0.063197 0.009352 -0.004546
# 5 0.009507 0.007705 0.001139 0.009352 0.031285 -0.009112
# 6 -0.004029 -0.003424 -0.000796 -0.004546 -0.009112 0.027037
#
#
# Mechanical properties :
#
#
# Convention : Reuss Voigt Hill
#
# Bulk Modulus (GPa) = 15.54673 25.97962 20.76318
# Shear Modulus (GPa) = 24.43200 36.31511 30.37355
#
# Velocity S-wave (km/s) = 3.09320 3.77113 3.44886
# Velocity P-wave (km/s) = 4.34113 5.39776 4.89802
#
# Compressibility (1/GPa) = 0.06432219
#
# Stress axis : x y z
#
# Youngs Moduli (GPa) = 43.85877 31.88969 113.03082
#
# Poissons Ratio (x) = -0.05758 0.11392
# Poissons Ratio (y) = -0.07919 0.01575
# Poissons Ratio (z) = 0.04421 0.00444
#
# Static dielectric constant tensor:
#      x y z
#    x 3.553500 1.047000 -0.242410 
#    y 1.047000 3.065670 0.708820 
#    z -0.242410 0.708820 5.096520 
# 
# 
# High freq. dielectric constant tensor:
#      x y z
#    x 2.022320 -0.004880 0.000400 
#    y -0.004880 1.997960 0.012910 
#    z 0.000400 0.012910 2.040360 
# 
# From -- ./inp_files/68129.got.cif
#   From: 2010.06.25/outbox.cif.g09.slc.cpg/sg2_35_cif.got.tgz:68129.got - 2010.06.27 13:26:56.
