data_PCOD8022114
_publ_section_title
;
Structure prediction by ZEFSAII (Michael W. Deem and Ramdas Pophale) SiO2 
 PCOD8022114
Probable space group: P -1
;
_chemical_formula_sum "Si O2"
_cell_formula_units_Z 16
_cell_length_a 8.169941
_cell_length_b 8.451133
_cell_length_c 14.969788
_cell_angle_alpha 64.202699
_cell_angle_beta 117.592502
_cell_angle_gamma 80.662011
_cell_volume 734.021523
_symmetry_space_group_name_H-M "P -1"
_symmetry_group_IT_number 2
_symmetry_cell_setting 'triclinic'
loop_
_space_group_symop_operation_xyz
x,y,z
-x,-y,-z
loop_
_atom_site_type_symbol
_atom_site_label
_atom_site_fract_x
_atom_site_fract_y
_atom_site_fract_z
Si Si1 0.499091 0.888014 0.682627
Si Si2 0.901685 0.893950 0.563743
Si Si3 0.119017 0.490365 0.622980
Si Si4 0.378531 0.693398 0.978179
Si Si5 0.518389 0.482538 0.768332
Si Si6 0.590416 0.943343 0.193401
Si Si7 0.078342 0.107123 0.228369
Si Si8 0.804941 0.114986 0.860428
O O1 0.510102 0.678401 0.756799
O O2 0.737976 0.830825 0.739763
O O3 0.349356 0.996548 0.534398
O O4 0.383690 0.027654 0.702161
O O5 0.961436 0.930027 0.670018
O O6 0.981323 0.660421 0.618303
O O7 0.000000 0.000000 0.500000
O O8 0.317493 0.529348 0.644883
O O9 0.215478 0.263248 0.738895
O O10 0.000000 0.500000 0.500000
O O11 0.139092 0.730702 0.906565
O O12 0.405062 0.880967 0.905325
O O13 0.500000 0.500000 0.000000
O O14 0.470540 0.653167 0.110573
O O15 0.720937 0.351415 0.791668
O O16 0.368172 0.944513 0.130536
O O17 0.150457 0.921173 0.225202
O O18 0.000000 0.000000 0.000000
#
# Coordination Sequence:
#
# PCOD8022114 Si02
#       8
#     2   2   2   2   2   2   2   2
#     4  11  22  44  68  98 136 181 225 279 336 401
#     4  12  23  45  73  96 135 178 230 281 338 405
#     4  11  23  41  67 101 130 173 222 278 343 396
#     4  12  23  41  68 104 131 175 234 273 336 403
#     4  11  23  41  68  97 136 180 228 277 335 405
#     4  10  23  41  71  97 138 178 222 281 335 400
#     4  11  26  43  67 100 136 178 230 279 340 405
#     4  10  22  45  64  94 140 178 223 275 339 402
#
# _framework density 21.797726999999998
#
# number of rings (size 3 to 8) (size 9 to 14) (size 15 to 20)
#    0.000    1.000    5.000    1.875    0.000    3.500 
#    2.250    0.625    0.000    0.000    0.000    0.000 
#    0.000    0.000    0.000    0.000    0.000    0.000 
#
# Total GULP energy -198241.527007 kJ/mol
# GULP energy per Si atom -12390.095438 kJ/mol
# Density = 2.174811 g / cm^3
# Si number density = 21.797727 Si / 1000 Ang^3
#
#
#
# Elastic Constant Matrix: (Units=GPa)
#
#
# Indices 1 2 3 4 5 6 
#
# 1 87.3145 43.3983 48.5486 -3.8858 17.6718 -6.1195
# 2 43.3983 147.8420 59.1002 -7.4712 -2.7183 -17.3138
# 3 48.5486 59.1002 113.1669 7.1201 16.8201 -4.4027
# 4 -3.8858 -7.4712 7.1201 50.0463 -1.5114 -0.0838
# 5 17.6718 -2.7183 16.8201 -1.5114 43.6725 3.5704
# 6 -6.1195 -17.3138 -4.4027 -0.0838 3.5704 36.8973
#
#
#
# Elastic Compliance Matrix: (Units=1/GPa)
#
#
# Indices 1 2 3 4 5 6 
#
# 1 0.016839 -0.002782 -0.005050 0.001459 -0.005104 0.001382
# 2 -0.002782 0.009920 -0.004467 0.002004 0.003259 0.003350
# 3 -0.005050 -0.004467 0.014047 -0.003170 -0.003680 -0.000909
# 4 0.001459 0.002004 -0.003170 0.020889 0.001420 0.000714
# 5 -0.005104 0.003259 -0.003680 0.001420 0.026824 -0.002349
# 6 0.001382 0.003350 -0.000909 0.000714 -0.002349 0.029024
#
#
# Mechanical properties :
#
#
# Convention : Reuss Voigt Hill
#
# Bulk Modulus (GPa) = 61.70456 72.26862 66.98659
# Shear Modulus (GPa) = 33.88816 39.27497 36.58156
#
# Velocity S-wave (km/s) = 3.94720 4.24936 4.10106
# Velocity P-wave (km/s) = 7.01021 7.56982 7.29539
#
# Compressibility (1/GPa) = 0.01620626
#
# Stress axis : x y z
#
# Youngs Moduli (GPa) = 59.38754 100.80628 71.18965
#
# Poissons Ratio (x) = 0.28049 0.35951
# Poissons Ratio (y) = 0.16524 0.31802
# Poissons Ratio (z) = 0.29991 0.45032
#
# Static dielectric constant tensor:
#      x y z
#    x 3.899170 -0.200080 0.331300 
#    y -0.200080 4.467780 0.103560 
#    z 0.331300 0.103560 4.046020 
# 
# 
# High freq. dielectric constant tensor:
#      x y z
#    x 1.837090 -0.010270 0.033350 
#    y -0.010270 1.882350 0.010140 
#    z 0.033350 0.010140 1.857620 
# 
# From -- ./inp_files/222211.got.cif
#   From: 2010.06.25/outbox.cif.g09.slc.cpg/sg2_112_cif.got.tgz:222211.got - 2010.06.27 13:26:56.
