data_PCOD8022762
_publ_section_title
;
Structure prediction by ZEFSAII (Michael W. Deem and Ramdas Pophale) SiO2 
 PCOD8022762
Probable space group: P -1
;
_chemical_formula_sum "Si O2"
_cell_formula_units_Z 16
_cell_length_a 13.851306
_cell_length_b 9.623930
_cell_length_c 12.728921
_cell_angle_alpha 84.760094
_cell_angle_beta 104.339812
_cell_angle_gamma 153.028731
_cell_volume 712.536276
_symmetry_space_group_name_H-M "P -1"
_symmetry_group_IT_number 2
_symmetry_cell_setting 'triclinic'
loop_
_space_group_symop_operation_xyz
x,y,z
-x,-y,-z
loop_
_atom_site_type_symbol
_atom_site_label
_atom_site_fract_x
_atom_site_fract_y
_atom_site_fract_z
Si Si1 0.847621 0.094549 0.997222
Si Si2 0.946264 0.318333 0.699396
Si Si3 0.083870 0.200733 0.203523
Si Si4 0.748430 0.252772 0.061202
Si Si5 0.710887 0.300955 0.651278
Si Si6 0.835899 0.780186 0.369969
Si Si7 0.351876 0.273273 0.235135
Si Si8 0.786854 0.413633 0.435809
O O1 0.740260 0.077854 0.044033
O O2 0.895623 0.012024 0.080463
O O3 0.083704 0.449873 0.989407
O O4 0.667912 0.830223 0.875099
O O5 0.178388 0.629494 0.806870
O O6 0.011805 0.411723 0.586698
O O7 0.773552 0.220588 0.697054
O O8 0.817731 0.011195 0.706339
O O9 0.212683 0.505334 0.247255
O O10 0.270013 0.329867 0.195607
O O11 0.970223 0.984415 0.287005
O O12 0.500000 0.000000 0.000000
O O13 0.846520 0.519859 0.566522
O O14 0.437112 0.966876 0.593057
O O15 0.611041 0.595623 0.327389
O O16 0.745158 0.506837 0.357802
O O17 0.000000 0.000000 0.500000
#
# Coordination Sequence:
#
# PCOD8022762 Si02
#       8
#     2   2   2   2   2   2   2   2
#     4  10  24  44  66 102 140 179 233 283 339 409
#     4  11  22  42  70 100 132 182 228 275 346 408
#     4  12  25  45  70 102 141 180 231 286 341 408
#     4  10  23  38  69 103 139 177 222 285 343 399
#     4  11  24  44  68 101 138 176 225 293 331 405
#     4  12  26  47  68 100 141 183 229 287 350 411
#     4  11  26  44  72  96 140 185 228 284 346 411
#     4  11  24  43  70  99 137 179 229 277 348 415
#
# _framework density 22.454998
#
# number of rings (size 3 to 8) (size 9 to 14) (size 15 to 20)
#    0.000    1.000    5.000    0.750    3.500    3.000 
#    4.500    0.000    0.000    0.000    0.000    0.000 
#    0.000    0.000    0.000    0.000    0.000    0.000 
#
# Total GULP energy -198426.609429 kJ/mol
# GULP energy per Si atom -12401.663089 kJ/mol
# Density = 2.240389 g / cm^3
# Si number density = 22.454998 Si / 1000 Ang^3
#
#
#
# Elastic Constant Matrix: (Units=GPa)
#
#
# Indices 1 2 3 4 5 6 
#
# 1 122.1831 25.6802 21.1706 14.6254 3.5260 2.8459
# 2 25.6802 52.4302 35.0947 8.6450 -3.7417 6.1693
# 3 21.1706 35.0947 112.1984 6.4605 7.1389 5.7281
# 4 14.6254 8.6450 6.4605 34.4743 4.6172 13.1421
# 5 3.5260 -3.7417 7.1389 4.6172 36.4211 -0.7086
# 6 2.8459 6.1693 5.7281 13.1421 -0.7086 30.5252
#
#
#
# Elastic Compliance Matrix: (Units=1/GPa)
#
#
# Indices 1 2 3 4 5 6 
#
# 1 0.009499 -0.004097 -0.000338 -0.003379 -0.000818 0.001442
# 2 -0.004097 0.027548 -0.007862 -0.003616 0.005187 -0.002033
# 3 -0.000338 -0.007862 0.011644 0.000718 -0.003167 -0.000947
# 4 -0.003379 -0.003616 0.000718 0.037828 -0.005282 -0.015498
# 5 -0.000818 0.005187 -0.003167 -0.005282 0.029409 0.002579
# 6 0.001442 -0.002033 -0.000947 -0.015498 0.002579 0.039946
#
#
# Mechanical properties :
#
#
# Convention : Reuss Voigt Hill
#
# Bulk Modulus (GPa) = 41.49838 50.07808 45.78823
# Shear Modulus (GPa) = 26.52528 33.94186 30.23357
#
# Velocity S-wave (km/s) = 3.44068 3.89208 3.67332
# Velocity P-wave (km/s) = 5.85706 6.52286 6.19891
#
# Compressibility (1/GPa) = 0.02409733
#
# Stress axis : x y z
#
# Youngs Moduli (GPa) = 105.27879 36.30078 85.88070
#
# Poissons Ratio (x) = 0.14873 0.02900
# Poissons Ratio (y) = 0.43135 0.67516
# Poissons Ratio (z) = 0.03555 0.28538
#
# Static dielectric constant tensor:
#      x y z
#    x 4.081840 -0.091050 -0.073860 
#    y -0.091050 3.840060 -0.141650 
#    z -0.073860 -0.141650 4.297000 
# 
# 
# High freq. dielectric constant tensor:
#      x y z
#    x 1.889920 -0.003770 0.003190 
#    y -0.003770 1.873880 -0.007910 
#    z 0.003190 -0.007910 1.889240 
# 
# From -- ./inp_files/457688.got.cif
#   From: 2010.06.25/outbox.cif.g09.slc.cpg/sg2_229_cif.got.tgz:457688.got - 2010.06.27 13:26:56.
