data_PCOD8022635
_publ_section_title
;
Structure prediction by ZEFSAII (Michael W. Deem and Ramdas Pophale) SiO2 
 PCOD8022635
Probable space group: P -1
;
_chemical_formula_sum "Si O2"
_cell_formula_units_Z 16
_cell_length_a 10.134989
_cell_length_b 12.267402
_cell_length_c 8.016914
_cell_angle_alpha 115.351804
_cell_angle_beta 62.210255
_cell_angle_gamma 93.326416
_cell_volume 784.264245
_symmetry_space_group_name_H-M "P -1"
_symmetry_group_IT_number 2
_symmetry_cell_setting 'triclinic'
loop_
_space_group_symop_operation_xyz
x,y,z
-x,-y,-z
loop_
_atom_site_type_symbol
_atom_site_label
_atom_site_fract_x
_atom_site_fract_y
_atom_site_fract_z
Si Si1 0.065267 0.796811 0.828846
Si Si2 0.241441 0.032750 0.425112
Si Si3 0.681150 0.700033 0.447657
Si Si4 0.971691 0.993750 0.767248
Si Si5 0.379934 0.666589 0.451572
Si Si6 0.518486 0.198804 0.819267
Si Si7 0.350703 0.398162 0.252734
Si Si8 0.788464 0.687471 0.027796
O O1 0.215053 0.697521 0.649912
O O2 0.995375 0.855149 0.734059
O O3 0.949055 0.727379 0.946594
O O4 0.104616 0.908771 0.987498
O O5 0.281567 0.165264 0.464636
O O6 0.146948 0.994352 0.302634
O O7 0.399537 0.937893 0.279112
O O8 0.135581 0.026558 0.644245
O O9 0.502074 0.704585 0.531409
O O10 0.730513 0.625187 0.539711
O O11 0.772364 0.633372 0.188837
O O12 0.378456 0.737578 0.324531
O O13 0.419675 0.521402 0.300818
O O14 0.353343 0.196533 0.829035
O O15 0.487997 0.283415 0.059685
O O16 0.231453 0.407843 0.172760
#
# Coordination Sequence:
#
# PCOD8022635 Si02
#       8
#     2   2   2   2   2   2   2   2
#     4  11  21  41  60  94 124 168 204 253 319 369
#     4  11  21  41  62  93 125 164 204 255 322 369
#     4  11  23  40  65  93 126 163 210 260 305 371
#     4  10  23  36  61  91 133 157 201 262 309 381
#     4  11  23  41  67  90 125 167 213 252 313 369
#     4   9  22  40  64  92 119 170 203 255 312 364
#     4  10  23  44  63  92 128 164 213 259 304 363
#     4   9  22  40  62  90 126 163 207 257 304 367
#
# _framework density 20.401287
#
# number of rings (size 3 to 8) (size 9 to 14) (size 15 to 20)
#    0.750    1.000    2.500    1.500    1.750    5.000 
#    0.000    0.625    0.000    0.000    0.000    0.000 
#    0.000    0.000    0.000    0.000    0.000    0.000 
#
# Total GULP energy -198325.225661 kJ/mol
# GULP energy per Si atom -12395.326604 kJ/mol
# Density = 2.035485 g / cm^3
# Si number density = 20.401287 Si / 1000 Ang^3
#
#
#
# Elastic Constant Matrix: (Units=GPa)
#
#
# Indices 1 2 3 4 5 6 
#
# 1 54.6545 17.4644 34.5058 -10.2673 -4.0139 18.0622
# 2 17.4644 80.7979 28.5580 -9.2415 6.1652 12.0693
# 3 34.5058 28.5580 93.1055 -19.6582 3.6928 1.4942
# 4 -10.2673 -9.2415 -19.6582 33.9674 0.0252 2.3079
# 5 -4.0139 6.1652 3.6928 0.0252 32.0008 -6.4584
# 6 18.0622 12.0693 1.4942 2.3079 -6.4584 25.5495
#
#
#
# Elastic Compliance Matrix: (Units=1/GPa)
#
#
# Indices 1 2 3 4 5 6 
#
# 1 0.034450 0.000870 -0.011464 0.005678 0.000533 -0.024473
# 2 0.000870 0.015682 -0.004249 0.002691 -0.004259 -0.009094
# 3 -0.011464 -0.004249 0.017197 0.004758 -0.000903 0.008448
# 4 0.005678 0.002691 0.004758 0.035277 -0.002265 -0.009323
# 5 0.000533 -0.004259 -0.000903 -0.002265 0.034378 0.010583
# 6 -0.024473 -0.009094 0.008448 -0.009323 0.010583 0.063760
#
#
# Mechanical properties :
#
#
# Convention : Reuss Voigt Hill
#
# Bulk Modulus (GPa) = 26.56562 43.29049 34.92805
# Shear Modulus (GPa) = 20.57794 28.17220 24.37507
#
# Velocity S-wave (km/s) = 3.17938 3.72008 3.46031
# Velocity P-wave (km/s) = 5.15051 6.30219 5.75523
#
# Compressibility (1/GPa) = 0.03764264
#
# Stress axis : x y z
#
# Youngs Moduli (GPa) = 29.02759 63.76858 58.14843
#
# Poissons Ratio (x) = -0.05548 0.66661
# Poissons Ratio (y) = -0.02526 0.24709
# Poissons Ratio (z) = 0.33277 0.27097
#
# Static dielectric constant tensor:
#      x y z
#    x 3.438040 0.053590 0.136400 
#    y 0.053590 3.503270 -0.222040 
#    z 0.136400 -0.222040 3.857000 
# 
# 
# High freq. dielectric constant tensor:
#      x y z
#    x 1.778680 0.012360 0.011600 
#    y 0.012360 1.787090 -0.015690 
#    z 0.011600 -0.015690 1.804250 
# 
# From -- ./inp_files/254812.got.cif
#   From: 2010.06.25/outbox.cif.g09.slc.cpg/sg2_128_cif.got.tgz:254812.got - 2010.06.27 13:26:56.
