data_PCOD8022793
_publ_section_title
;
Structure prediction by ZEFSAII (Michael W. Deem and Ramdas Pophale) SiO2 
 PCOD8022793
Probable space group: P -1
;
_chemical_formula_sum "Si O2"
_cell_formula_units_Z 14
_cell_length_a 9.342435
_cell_length_b 12.003693
_cell_length_c 10.133507
_cell_angle_alpha 108.838274
_cell_angle_beta 133.027724
_cell_angle_gamma 54.666027
_cell_volume 672.794254
_symmetry_space_group_name_H-M "P -1"
_symmetry_group_IT_number 2
_symmetry_cell_setting 'triclinic'
loop_
_space_group_symop_operation_xyz
x,y,z
-x,-y,-z
loop_
_atom_site_type_symbol
_atom_site_label
_atom_site_fract_x
_atom_site_fract_y
_atom_site_fract_z
Si Si1 0.391685 0.416946 0.962346
Si Si2 0.351763 0.986076 0.674508
Si Si3 0.651903 0.120344 0.903579
Si Si4 0.047583 0.515196 0.184633
Si Si5 0.869243 0.047982 0.732645
Si Si6 0.046700 0.777627 0.329007
Si Si7 0.505124 0.315417 0.292303
O O1 0.474165 0.280744 0.876440
O O2 0.110606 0.510884 0.821901
O O3 0.500000 0.500000 0.000000
O O4 0.451291 0.380774 0.138981
O O5 0.537308 0.030457 0.824080
O O6 0.140632 0.079461 0.671249
O O7 0.250573 0.000438 0.468658
O O8 0.473812 0.832103 0.748491
O O9 0.713970 0.098220 0.781848
O O10 0.872840 0.074077 0.117549
O O11 0.956837 0.676437 0.204604
O O12 0.320069 0.409165 0.326909
O O13 0.000000 0.500000 0.000000
O O14 0.871236 0.182072 0.735920
O O15 0.258493 0.695802 0.529146
#
# Coordination Sequence:
#
# PCOD8022793 Si02
#       7
#     2   2   2   2   2   2   2
#     4  11  24  42  62  90 130 167 213 257 314 379
#     4  11  22  42  69  96 125 162 218 264 313 375
#     4  11  23  40  65  94 130 171 203 262 325 371
#     4  10  23  39  62  92 124 167 212 249 309 385
#     4  10  24  38  65  98 127 162 208 270 316 376
#     4  11  21  42  67  91 127 161 215 260 315 371
#     4  10  23  41  66  94 124 164 208 269 308 373
#
# _framework density 20.80874
#
# number of rings (size 3 to 8) (size 9 to 14) (size 15 to 20)
#    0.000    1.429    1.429    4.286    8.000    2.286 
#    0.000    3.571    0.000    0.000    0.000    0.000 
#    0.000    0.000    0.000    0.000    0.000    0.000 
#
# Total GULP energy -173534.474660 kJ/mol
# GULP energy per Si atom -12395.319619 kJ/mol
# Density = 2.076138 g / cm^3
# Si number density = 20.808740 Si / 1000 Ang^3
#
#
#
# Elastic Constant Matrix: (Units=GPa)
#
#
# Indices 1 2 3 4 5 6 
#
# 1 123.7843 59.4853 18.4424 -0.6695 12.8983 2.9634
# 2 59.4853 118.8991 24.3257 11.8925 -3.6109 -3.4458
# 3 18.4424 24.3257 46.4358 1.6670 -5.7262 6.0275
# 4 -0.6695 11.8925 1.6670 30.6150 3.3401 6.5242
# 5 12.8983 -3.6109 -5.7262 3.3401 19.2507 -1.1562
# 6 2.9634 -3.4458 6.0275 6.5242 -1.1562 38.8691
#
#
#
# Elastic Compliance Matrix: (Units=1/GPa)
#
#
# Indices 1 2 3 4 5 6 
#
# 1 0.013176 -0.006912 -0.002966 0.004944 -0.012005 -0.002344
# 2 -0.006912 0.013648 -0.003712 -0.006854 0.007498 0.003686
# 3 -0.002966 -0.003712 0.026266 -0.000198 0.008905 -0.003878
# 4 0.004944 -0.006854 -0.000198 0.038381 -0.011782 -0.007747
# 5 -0.012005 0.007498 0.008905 -0.011782 0.066339 0.004150
# 6 -0.002344 0.003686 -0.003878 -0.007747 0.004150 0.028258
#
#
# Mechanical properties :
#
#
# Convention : Reuss Voigt Hill
#
# Bulk Modulus (GPa) = 38.59471 54.84733 46.72102
# Shear Modulus (GPa) = 22.53414 30.20468 26.36941
#
# Velocity S-wave (km/s) = 3.29434 3.81404 3.56368
# Velocity P-wave (km/s) = 5.74960 6.76838 6.27968
#
# Compressibility (1/GPa) = 0.02591028
#
# Stress axis : x y z
#
# Youngs Moduli (GPa) = 75.89572 73.26903 38.07169
#
# Poissons Ratio (x) = 0.50646 0.11290
# Poissons Ratio (y) = 0.52461 0.14133
# Poissons Ratio (z) = 0.22507 0.27200
#
# Static dielectric constant tensor:
#      x y z
#    x 4.417960 -0.669230 0.313660 
#    y -0.669230 4.323260 -0.117670 
#    z 0.313660 -0.117670 3.839860 
# 
# 
# High freq. dielectric constant tensor:
#      x y z
#    x 1.831160 -0.014840 0.011160 
#    y -0.014840 1.813340 0.007840 
#    z 0.011160 0.007840 1.812230 
# 
# From -- ./inp_files/157328.got.cif
#   From: 2010.06.25/outbox.cif.g09.slc.cpg/sg2_79_cif.got.tgz:157328.got - 2010.06.27 13:26:56.
