data_PCOD8022453
_publ_section_title
;
Structure prediction by ZEFSAII (Michael W. Deem and Ramdas Pophale) SiO2 
 PCOD8022453
Probable space group: P -1
;
_chemical_formula_sum "Si O2"
_cell_formula_units_Z 14
_cell_length_a 15.653475
_cell_length_b 12.251269
_cell_length_c 21.774134
_cell_angle_alpha 28.645605
_cell_angle_beta 160.597880
_cell_angle_gamma 152.262213
_cell_volume 620.416957
_symmetry_space_group_name_H-M "P -1"
_symmetry_group_IT_number 2
_symmetry_cell_setting 'triclinic'
loop_
_space_group_symop_operation_xyz
x,y,z
-x,-y,-z
loop_
_atom_site_type_symbol
_atom_site_label
_atom_site_fract_x
_atom_site_fract_y
_atom_site_fract_z
Si Si1 0.134026 0.519995 0.146436
Si Si2 0.044816 0.920421 0.966136
Si Si3 0.989811 0.576891 0.338143
Si Si4 0.563116 0.065708 0.321019
Si Si5 0.744867 0.640388 0.470384
Si Si6 0.444452 0.822070 0.607477
Si Si7 0.024987 0.133947 0.360604
O O1 0.434254 0.508459 0.346450
O O2 0.956096 0.295408 0.181042
O O3 0.157430 0.777047 0.064059
O O4 0.000000 0.500000 0.000000
O O5 0.722048 0.763755 0.839221
O O6 0.079995 0.179773 0.832211
O O7 0.236471 0.966906 0.133789
O O8 0.702812 0.352567 0.258382
O O9 0.159431 0.555954 0.402919
O O10 0.181783 0.586428 0.524364
O O11 0.616521 0.043052 0.440747
O O12 0.697518 0.910697 0.448116
O O13 0.932335 0.720992 0.618241
O O14 0.781438 0.871422 0.335621
O O15 0.500000 0.000000 0.500000
#
# Coordination Sequence:
#
# PCOD8022453 Si02
#       7
#     2   2   2   2   2   2   2
#     4  12  26  42  68  97 138 175 221 279 333 399
#     4  11  24  41  63 103 126 171 221 271 332 384
#     4  10  23  42  69  95 133 172 216 275 332 394
#     4  11  22  42  67  98 128 174 222 272 326 395
#     4  10  22  46  68  95 131 174 226 268 332 400
#     4  10  23  39  62  93 134 170 213 269 328 393
#     4  10  24  42  71  95 128 182 224 268 334 399
#
# _framework density 22.565470000000001
#
# number of rings (size 3 to 8) (size 9 to 14) (size 15 to 20)
#    0.000    1.429    1.429    2.571    8.000    1.714 
#    2.571    0.000    0.000    0.000    0.000    0.000 
#    0.000    0.000    0.000    0.000    0.000    0.000 
#
# Total GULP energy -173562.601294 kJ/mol
# GULP energy per Si atom -12397.328664 kJ/mol
# Density = 2.251411 g / cm^3
# Si number density = 22.565470 Si / 1000 Ang^3
#
#
#
# Elastic Constant Matrix: (Units=GPa)
#
#
# Indices 1 2 3 4 5 6 
#
# 1 129.5829 33.3738 25.9406 -8.0457 -16.2183 -14.1435
# 2 33.3738 83.9991 27.6163 -13.0113 -12.7159 -6.0459
# 3 25.9406 27.6163 55.9763 -1.1322 -12.4244 -12.4816
# 4 -8.0457 -13.0113 -1.1322 39.0047 1.0293 -12.2096
# 5 -16.2183 -12.7159 -12.4244 1.0293 35.3978 4.0475
# 6 -14.1435 -6.0459 -12.4816 -12.2096 4.0475 39.4983
#
#
#
# Elastic Compliance Matrix: (Units=1/GPa)
#
#
# Indices 1 2 3 4 5 6 
#
# 1 0.009423 -0.002189 -0.002101 0.001942 0.002425 0.002727
# 2 -0.002189 0.015947 -0.005994 0.004962 0.002357 0.001055
# 3 -0.002101 -0.005994 0.024040 -0.000172 0.004710 0.005391
# 4 0.001942 0.004962 -0.000172 0.031111 0.000453 0.010971
# 5 0.002425 0.002357 0.004710 0.000453 0.031895 -0.000411
# 6 0.002727 0.001055 0.005391 0.010971 -0.000411 0.031593
#
#
# Mechanical properties :
#
#
# Convention : Reuss Voigt Hill
#
# Bulk Modulus (GPa) = 34.67302 49.26886 41.97094
# Shear Modulus (GPa) = 28.70405 34.95531 31.82968
#
# Velocity S-wave (km/s) = 3.57043 3.94008 3.75980
# Velocity P-wave (km/s) = 5.69176 6.52535 6.12276
#
# Compressibility (1/GPa) = 0.02884087
#
# Stress axis : x y z
#
# Youngs Moduli (GPa) = 106.12052 62.70923 41.59751
#
# Poissons Ratio (x) = 0.13726 0.08741
# Poissons Ratio (y) = 0.23228 0.24935
# Poissons Ratio (z) = 0.22300 0.37590
#
# Static dielectric constant tensor:
#      x y z
#    x 4.242880 -0.185960 -0.035950 
#    y -0.185960 4.471050 0.382580 
#    z -0.035950 0.382580 4.045820 
# 
# 
# High freq. dielectric constant tensor:
#      x y z
#    x 1.902250 -0.011540 0.001780 
#    y -0.011540 1.895620 0.005380 
#    z 0.001780 0.005380 1.866940 
# 
# From -- ./inp_files/154098.got.cif
#   From: 2010.06.25/outbox.cif.g09.slc.cpg/sg2_78_cif.got.tgz:154098.got - 2010.06.27 13:26:56.
