data_PCOD8022303
_publ_section_title
;
Structure prediction by ZEFSAII (Michael W. Deem and Ramdas Pophale) SiO2 
 PCOD8022303
Probable space group: P -1
;
_chemical_formula_sum "Si O2"
_cell_formula_units_Z 16
_cell_length_a 9.424954
_cell_length_b 8.151136
_cell_length_c 7.725062
_cell_angle_alpha 91.679080
_cell_angle_beta 82.678600
_cell_angle_gamma 91.476108
_cell_volume 588.234209
_symmetry_space_group_name_H-M "P -1"
_symmetry_group_IT_number 2
_symmetry_cell_setting 'triclinic'
loop_
_space_group_symop_operation_xyz
x,y,z
-x,-y,-z
loop_
_atom_site_type_symbol
_atom_site_label
_atom_site_fract_x
_atom_site_fract_y
_atom_site_fract_z
Si Si1 0.202084 0.416405 0.169756
Si Si2 0.837185 0.695717 0.171428
Si Si3 0.903260 0.255764 0.309111
Si Si4 0.392297 0.673094 0.664421
Si Si5 0.207042 0.975889 0.985492
Si Si6 0.473945 0.324003 0.698792
Si Si7 0.540365 0.814411 0.944792
Si Si8 0.878235 0.249761 0.698358
O O1 0.336127 0.297533 0.164349
O O2 0.230231 0.595710 0.262067
O O3 0.059049 0.332670 0.269510
O O4 0.179167 0.455694 0.968173
O O5 0.692679 0.731500 0.299870
O O6 0.967186 0.668207 0.277876
O O7 0.861314 0.846834 0.032536
O O8 0.775098 0.389443 0.320197
O O9 0.847058 0.121711 0.177144
O O10 0.886036 0.177247 0.502065
O O11 0.490598 0.520529 0.689582
O O12 0.436961 0.754764 0.474632
O O13 0.417026 0.812714 0.814398
O O14 0.149448 0.898757 0.170087
O O15 0.380768 0.009624 0.003892
O O16 0.529975 0.268629 0.875797
#
# Coordination Sequence:
#
# PCOD8022303 Si02
#       8
#     2   2   2   2   2   2   2   2
#     4  10  23  43  70 105 131 164 229 279 329 389
#     4  10  22  45  70  98 135 175 219 277 329 396
#     4  12  27  40  66 105 138 168 223 276 333 391
#     4  11  24  42  68  99 136 176 220 274 325 403
#     4  10  25  45  64 101 134 175 226 268 330 405
#     4   9  22  41  68  98 130 171 226 267 327 394
#     4  10  25  46  72  94 132 184 219 273 331 392
#     4  12  24  39  70 102 136 173 210 284 343 378
#
# _framework density 27.200050000000001
#
# number of rings (size 3 to 8) (size 9 to 14) (size 15 to 20)
#    0.000    1.750    1.250    2.250   10.500    4.000 
#    0.000    4.375    0.000    0.000    0.000    0.000 
#    0.000    0.000    0.000    0.000    0.000    0.000 
#
# Total GULP energy -198276.090359 kJ/mol
# GULP energy per Si atom -12392.255647 kJ/mol
# Density = 2.713814 g / cm^3
# Si number density = 27.200050 Si / 1000 Ang^3
#
#
#
# Elastic Constant Matrix: (Units=GPa)
#
#
# Indices 1 2 3 4 5 6 
#
# 1 71.2126 12.8835 32.6984 -1.8915 0.2175 16.2829
# 2 12.8835 68.1595 38.8322 -2.5897 -12.1223 7.1239
# 3 32.6984 38.8322 207.2898 -7.5388 0.8279 23.2384
# 4 -1.8915 -2.5897 -7.5388 20.0413 8.5635 1.6713
# 5 0.2175 -12.1223 0.8279 8.5635 29.4534 -1.0821
# 6 16.2829 7.1239 23.2384 1.6713 -1.0821 31.5922
#
#
#
# Elastic Compliance Matrix: (Units=1/GPa)
#
#
# Indices 1 2 3 4 5 6 
#
# 1 0.016762 -0.001835 -0.001387 0.002185 -0.001746 -0.007381
# 2 -0.001835 0.018282 -0.003218 -0.002561 0.008359 -0.000388
# 3 -0.001387 -0.003218 0.006142 0.003116 -0.002515 -0.003329
# 4 0.002185 -0.002561 0.003116 0.059486 -0.018697 -0.006628
# 5 -0.001746 0.008359 -0.002515 -0.018697 0.043034 0.003329
# 6 -0.007381 -0.000388 -0.003329 -0.006628 0.003329 0.038458
#
#
# Mechanical properties :
#
#
# Convention : Reuss Voigt Hill
#
# Bulk Modulus (GPa) = 35.32673 57.27666 46.30170
# Shear Modulus (GPa) = 24.45233 33.70055 29.07644
#
# Velocity S-wave (km/s) = 3.00155 3.52375 3.27308
# Velocity P-wave (km/s) = 5.00284 6.13669 5.59854
#
# Compressibility (1/GPa) = 0.02830717
#
# Stress axis : x y z
#
# Youngs Moduli (GPa) = 59.65841 54.69958 162.80428
#
# Poissons Ratio (x) = 0.10035 0.22573
# Poissons Ratio (y) = 0.10945 0.52397
# Poissons Ratio (z) = 0.08272 0.17605
#
# Static dielectric constant tensor:
#      x y z
#    x 5.339680 -0.032120 0.004830 
#    y -0.032120 4.926490 0.188590 
#    z 0.004830 0.188590 4.998860 
# 
# 
# High freq. dielectric constant tensor:
#      x y z
#    x 2.130970 0.003240 -0.003130 
#    y 0.003240 2.082840 0.010440 
#    z -0.003130 0.010440 2.096250 
# 
# From -- ./inp_files/239023.got.cif
#   From: 2010.06.25/outbox.cif.g09.slc.cpg/sg2_120_cif.got.tgz:239023.got - 2010.06.27 13:26:56.
