data_PCOD8022113
_publ_section_title
;
Structure prediction by ZEFSAII (Michael W. Deem and Ramdas Pophale) SiO2 
 PCOD8022113
Probable space group: P -1
;
_chemical_formula_sum "Si O2"
_cell_formula_units_Z 16
_cell_length_a 21.605414
_cell_length_b 8.530155
_cell_length_c 6.757578
_cell_angle_alpha 97.590978
_cell_angle_beta 135.222558
_cell_angle_gamma 65.964579
_cell_volume 776.914139
_symmetry_space_group_name_H-M "P -1"
_symmetry_group_IT_number 2
_symmetry_cell_setting 'triclinic'
loop_
_space_group_symop_operation_xyz
x,y,z
-x,-y,-z
loop_
_atom_site_type_symbol
_atom_site_label
_atom_site_fract_x
_atom_site_fract_y
_atom_site_fract_z
Si Si1 0.783515 0.543511 0.191589
Si Si2 0.054404 0.619864 0.166001
Si Si3 0.562734 0.826945 0.239090
Si Si4 0.909302 0.904406 0.173558
Si Si5 0.408719 0.438089 0.083009
Si Si6 0.720099 0.879020 0.855934
Si Si7 0.076425 0.758616 0.820642
Si Si8 0.562570 0.234541 0.723504
O O1 0.839981 0.503842 0.520708
O O2 0.854824 0.419014 0.166095
O O3 0.686982 0.515256 0.993460
O O4 0.751763 0.743548 0.087466
O O5 0.989243 0.786235 0.178043
O O6 0.073439 0.700729 0.025405
O O7 0.000000 0.500000 0.000000
O O8 0.659485 0.833001 0.544814
O O9 0.498098 0.827152 0.278199
O O10 0.594801 0.652138 0.148072
O O11 0.500000 0.000000 0.000000
O O12 0.964140 0.855773 0.502279
O O13 0.874936 0.107820 0.068387
O O14 0.815101 0.868442 0.956492
O O15 0.503823 0.308620 0.399844
O O16 0.413270 0.622034 0.083619
O O17 0.662514 0.069217 0.858399
#
# Coordination Sequence:
#
# PCOD8022113 Si02
#       8
#     2   2   2   2   2   2   2   2
#     4  11  24  40  66  93 127 168 210 259 316 378
#     4  11  23  40  65  95 127 164 212 261 314 376
#     4  12  24  43  65  95 130 168 215 268 320 378
#     4  10  23  42  66  93 126 171 206 261 320 377
#     4  11  24  43  68  94 127 171 214 265 323 379
#     4  12  23  43  67  94 132 169 215 265 320 383
#     4  10  22  45  64  92 133 163 211 263 316 374
#     4  11  24  46  65  92 131 168 214 269 322 378
#
# _framework density 20.594296
#
# number of rings (size 3 to 8) (size 9 to 14) (size 15 to 20)
#    0.000    1.000    2.500    4.125    3.500    2.000 
#    4.500    0.000    0.000    0.000    0.000    0.000 
#    0.000    0.000    0.000    0.000    0.000    0.000 
#
# Total GULP energy -198481.406650 kJ/mol
# GULP energy per Si atom -12405.087916 kJ/mol
# Density = 2.054742 g / cm^3
# Si number density = 20.594296 Si / 1000 Ang^3
#
#
#
# Elastic Constant Matrix: (Units=GPa)
#
#
# Indices 1 2 3 4 5 6 
#
# 1 96.9306 18.9651 53.5432 -8.0519 5.0271 12.6075
# 2 18.9651 108.7940 61.0662 -5.2502 -1.2417 7.6863
# 3 53.5432 61.0662 116.6583 -6.7636 -8.6611 12.0782
# 4 -8.0519 -5.2502 -6.7636 36.9477 2.3687 -1.4025
# 5 5.0271 -1.2417 -8.6611 2.3687 38.6570 1.1237
# 6 12.6075 7.6863 12.0782 -1.4025 1.1237 36.0217
#
#
#
# Elastic Compliance Matrix: (Units=1/GPa)
#
#
# Indices 1 2 3 4 5 6 
#
# 1 0.014965 0.002024 -0.007774 0.002253 -0.003678 -0.002860
# 2 0.002024 0.013361 -0.007904 0.000967 -0.001640 -0.000820
# 3 -0.007774 -0.007904 0.016750 -0.000094 0.004555 -0.001355
# 4 0.002253 0.000967 -0.000094 0.027811 -0.001993 0.000182
# 5 -0.003678 -0.001640 0.004555 -0.001993 0.027461 -0.000824
# 6 -0.002860 -0.000820 -0.001355 0.000182 -0.000824 0.029424
#
#
# Mechanical properties :
#
#
# Convention : Reuss Voigt Hill
#
# Bulk Modulus (GPa) = 56.27976 65.50356 60.89166
# Shear Modulus (GPa) = 30.67414 34.91250 32.79332
#
# Velocity S-wave (km/s) = 3.86352 4.12181 3.99475
# Velocity P-wave (km/s) = 6.87674 7.38432 7.13504
#
# Compressibility (1/GPa) = 0.01776838
#
# Stress axis : x y z
#
# Youngs Moduli (GPa) = 66.82263 74.84391 59.69979
#
# Poissons Ratio (x) = -0.15147 0.46412
# Poissons Ratio (y) = -0.13523 0.47185
# Poissons Ratio (z) = 0.51949 0.59154
#
# Static dielectric constant tensor:
#      x y z
#    x 3.687180 0.107940 0.059480 
#    y 0.107940 3.922580 -0.070140 
#    z 0.059480 -0.070140 3.891450 
# 
# 
# High freq. dielectric constant tensor:
#      x y z
#    x 1.812940 0.003270 0.001850 
#    y 0.003270 1.821590 -0.004130 
#    z 0.001850 -0.004130 1.808970 
# 
# From -- ./inp_files/90555.got.cif
#   From: 2010.06.25/outbox.cif.g09.slc.cpg/sg2_46_cif.got.tgz:90555.got - 2010.06.27 13:26:56.
