data_PCOD8022358
_publ_section_title
;
Structure prediction by ZEFSAII (Michael W. Deem and Ramdas Pophale) SiO2 
 PCOD8022358
Probable space group: P -1
;
_chemical_formula_sum "Si O2"
_cell_formula_units_Z 16
_cell_length_a 11.383518
_cell_length_b 18.988794
_cell_length_c 16.335882
_cell_angle_alpha 157.786188
_cell_angle_beta 36.588645
_cell_angle_gamma 131.523030
_cell_volume 743.352854
_symmetry_space_group_name_H-M "P -1"
_symmetry_group_IT_number 2
_symmetry_cell_setting 'triclinic'
loop_
_space_group_symop_operation_xyz
x,y,z
-x,-y,-z
loop_
_atom_site_type_symbol
_atom_site_label
_atom_site_fract_x
_atom_site_fract_y
_atom_site_fract_z
Si Si1 0.383018 0.748418 0.147813
Si Si2 0.069692 0.597643 0.643136
Si Si3 0.393942 0.215353 0.104857
Si Si4 0.142024 0.198065 0.772565
Si Si5 0.339963 0.219881 0.840635
Si Si6 0.642029 0.178991 0.246418
Si Si7 0.768660 0.587045 0.190487
Si Si8 0.331425 0.716911 0.838333
O O1 0.534869 0.666884 0.054871
O O2 0.204750 0.961751 0.497523
O O3 0.520495 0.776426 0.025190
O O4 0.273470 0.590668 0.023627
O O5 0.194642 0.423005 0.450702
O O6 0.225643 0.715546 0.660803
O O7 0.000000 0.500000 0.500000
O O8 0.867582 0.765872 0.976537
O O9 0.579515 0.179059 0.028598
O O10 0.307596 0.036124 0.972454
O O11 0.248124 0.303904 0.893465
O O12 0.239456 0.232499 0.670015
O O13 0.889102 0.295668 0.021809
O O14 0.500000 0.000000 0.500000
O O15 0.396837 0.320118 0.544515
O O16 0.699753 0.161683 0.099080
O O17 0.000000 0.500000 0.000000
O O18 0.500000 0.500000 0.500000
#
# Coordination Sequence:
#
# PCOD8022358 Si02
#       8
#     2   2   2   2   2   2   2   2
#     4  11  23  45  67  99 135 178 222 284 340 405
#     4  12  23  46  71  98 137 183 227 285 340 405
#     4  12  24  41  70  99 137 180 229 279 343 412
#     4  11  24  43  69  96 136 177 223 282 346 401
#     4  10  22  45  72  96 137 177 227 284 343 401
#     4  12  25  44  67 103 137 179 229 280 345 412
#     4  12  25  41  69  99 135 182 228 274 342 412
#     4  12  23  45  68  96 140 179 225 289 342 408
#
# _framework density 21.524099
#
# number of rings (size 3 to 8) (size 9 to 14) (size 15 to 20)
#    0.000    0.500    6.250    1.875    1.750    2.000 
#    4.500    1.250    0.000    0.000    0.000    0.000 
#    0.000    0.000    0.000    0.000    0.000    0.000 
#
# Total GULP energy -198326.916543 kJ/mol
# GULP energy per Si atom -12395.432284 kJ/mol
# Density = 2.147511 g / cm^3
# Si number density = 21.524099 Si / 1000 Ang^3
#
#
#
# Elastic Constant Matrix: (Units=GPa)
#
#
# Indices 1 2 3 4 5 6 
#
# 1 136.1050 40.8244 19.7231 -0.0876 2.3024 22.6642
# 2 40.8244 103.4369 39.1397 6.5595 -5.3147 18.1355
# 3 19.7231 39.1397 107.3510 -10.5820 -9.4109 12.1595
# 4 -0.0876 6.5595 -10.5820 40.4361 0.6254 7.1429
# 5 2.3024 -5.3147 -9.4109 0.6254 31.3697 -5.2895
# 6 22.6642 18.1355 12.1595 7.1429 -5.2895 30.8709
#
#
#
# Elastic Compliance Matrix: (Units=1/GPa)
#
#
# Indices 1 2 3 4 5 6 
#
# 1 0.009201 -0.002801 -0.000051 0.001521 -0.002176 -0.005814
# 2 -0.002801 0.013101 -0.004086 -0.002628 0.000695 -0.003304
# 3 -0.000051 -0.004086 0.011741 0.004188 0.002284 -0.002764
# 4 0.001521 -0.002628 0.004188 0.027656 -0.001171 -0.007823
# 5 -0.002176 0.000695 0.002284 -0.001171 0.033939 0.006376
# 6 -0.005814 -0.003304 -0.002764 -0.007823 0.006376 0.042593
#
#
# Mechanical properties :
#
#
# Convention : Reuss Voigt Hill
#
# Bulk Modulus (GPa) = 49.58880 60.69635 55.14258
# Shear Modulus (GPa) = 31.48057 37.01572 34.24815
#
# Velocity S-wave (km/s) = 3.82851 4.15147 3.99325
# Velocity P-wave (km/s) = 6.52932 7.15821 6.85099
#
# Compressibility (1/GPa) = 0.02016584
#
# Stress axis : x y z
#
# Youngs Moduli (GPa) = 108.68668 76.33163 85.17517
#
# Poissons Ratio (x) = 0.21379 0.00439
# Poissons Ratio (y) = 0.30441 0.34801
# Poissons Ratio (z) = 0.00560 0.31188
#
# Static dielectric constant tensor:
#      x y z
#    x 9.273340 -4.595500 -0.596410 
#    y -4.595500 8.539960 0.454450 
#    z -0.596410 0.454450 4.090460 
# 
# 
# High freq. dielectric constant tensor:
#      x y z
#    x 1.862470 0.012000 0.000850 
#    y 0.012000 1.824980 -0.012680 
#    z 0.000850 -0.012680 1.854600 
# 
# From -- ./inp_files/273101.got.cif
#   From: 2010.06.25/outbox.cif.g09.slc.cpg/sg2_137_cif.got.tgz:273101.got - 2010.06.27 13:26:56.
