data_PCOD8022279
_publ_section_title
;
Structure prediction by ZEFSAII (Michael W. Deem and Ramdas Pophale) SiO2 
 PCOD8022279
Probable space group: P -1
;
_chemical_formula_sum "Si O2"
_cell_formula_units_Z 16
_cell_length_a 20.038832
_cell_length_b 8.551071
_cell_length_c 17.539067
_cell_angle_alpha 37.184479
_cell_angle_beta 158.688447
_cell_angle_gamma 138.222370
_cell_volume 660.066468
_symmetry_space_group_name_H-M "P -1"
_symmetry_group_IT_number 2
_symmetry_cell_setting 'triclinic'
loop_
_space_group_symop_operation_xyz
x,y,z
-x,-y,-z
loop_
_atom_site_type_symbol
_atom_site_label
_atom_site_fract_x
_atom_site_fract_y
_atom_site_fract_z
Si Si1 0.140847 0.065692 0.258617
Si Si2 0.581486 0.739287 0.794872
Si Si3 0.656350 0.953257 0.246605
Si Si4 0.461855 0.211948 0.654344
Si Si5 0.596714 0.721393 0.650343
Si Si6 0.005168 0.729434 0.476073
Si Si7 0.828142 0.032013 0.045248
Si Si8 0.221506 0.494352 0.543329
O O1 0.308472 0.077042 0.492236
O O2 0.196890 0.259208 0.174271
O O3 0.113566 0.767191 0.315083
O O4 0.960056 0.169975 0.068618
O O5 0.633713 0.616651 0.816328
O O6 0.436882 0.566804 0.755808
O O7 0.493816 0.004571 0.567632
O O8 0.754094 0.774644 0.021190
O O9 0.549666 0.928188 0.222333
O O10 0.778319 0.697558 0.455680
O O11 0.796082 0.201872 0.302408
O O12 0.500000 0.000000 0.000000
O O13 0.453434 0.521287 0.535566
O O14 0.656220 0.192418 0.826126
O O15 0.945292 0.975529 0.267074
O O16 0.855754 0.670711 0.404602
O O17 0.000000 0.500000 0.500000
#
# Coordination Sequence:
#
# PCOD8022279 Si02
#       8
#     2   2   2   2   2   2   2   2
#     4  11  24  45  69 101 138 183 235 288 347 418
#     4  10  23  43  72 101 136 188 233 286 359 414
#     4  12  27  45  71 106 141 190 234 287 360 413
#     4  12  23  45  70 102 142 181 230 296 351 414
#     4  10  22  45  69  99 139 184 233 294 348 413
#     4  12  26  45  71 105 144 182 234 293 342 425
#     4  12  25  43  69 105 140 183 239 279 360 420
#     4  11  22  46  70  97 143 180 229 295 342 413
#
# _framework density 24.239984
#
# number of rings (size 3 to 8) (size 9 to 14) (size 15 to 20)
#    0.000    0.750    6.250    1.500    1.750    1.500 
#    2.250    0.000    0.000    0.000    0.000    0.000 
#    0.000    0.000    0.000    0.000    0.000    0.000 
#
# Total GULP energy -198211.786933 kJ/mol
# GULP energy per Si atom -12388.236683 kJ/mol
# Density = 2.418481 g / cm^3
# Si number density = 24.239984 Si / 1000 Ang^3
#
#
#
# Elastic Constant Matrix: (Units=GPa)
#
#
# Indices 1 2 3 4 5 6 
#
# 1 180.4375 36.1585 44.0691 15.9264 26.7496 15.3871
# 2 36.1585 115.5253 20.0143 23.8702 3.7251 -0.8729
# 3 44.0691 20.0143 70.9836 33.6750 4.4462 5.1349
# 4 15.9264 23.8702 33.6750 26.8722 2.4033 3.8107
# 5 26.7496 3.7251 4.4462 2.4033 35.6604 15.0665
# 6 15.3871 -0.8729 5.1349 3.8107 15.0665 44.5287
#
#
#
# Elastic Compliance Matrix: (Units=1/GPa)
#
#
# Indices 1 2 3 4 5 6 
#
# 1 0.008022 -0.002604 -0.007358 0.007352 -0.004928 -0.000936
# 2 -0.002604 0.011939 0.006248 -0.017173 0.000337 0.001769
# 3 -0.007358 0.006248 0.042906 -0.055412 0.002582 0.001586
# 4 0.007352 -0.017173 -0.055412 0.118588 -0.002334 -0.005846
# 5 -0.004928 0.000337 0.002582 -0.002334 0.036006 -0.010571
# 6 -0.000936 0.001769 0.001586 -0.005846 -0.010571 0.026710
#
#
# Mechanical properties :
#
#
# Convention : Reuss Voigt Hill
#
# Bulk Modulus (GPa) = 18.03745 63.04781 40.54263
# Shear Modulus (GPa) = 18.51314 39.19257 28.85286
#
# Velocity S-wave (km/s) = 2.76659 4.02538 3.45382
# Velocity P-wave (km/s) = 4.20270 6.90443 5.71550
#
# Compressibility (1/GPa) = 0.05544021
#
# Stress axis : x y z
#
# Youngs Moduli (GPa) = 124.65069 83.75599 23.30694
#
# Poissons Ratio (x) = 0.21806 0.17149
# Poissons Ratio (y) = 0.32453 -0.14562
# Poissons Ratio (z) = 0.91719 -0.52330
#
# Static dielectric constant tensor:
#      x y z
#    x 5.893310 -0.099360 -1.213520 
#    y -0.099360 4.594090 0.421770 
#    z -1.213520 0.421770 7.022620 
# 
# 
# High freq. dielectric constant tensor:
#      x y z
#    x 1.991730 0.000340 0.010220 
#    y 0.000340 1.970550 0.019890 
#    z 0.010220 0.019890 1.919840 
# 
# From -- ./inp_files/577570.got.cif
#   From: 2010.06.25/outbox.cif.g09.slc.cpg/sg2_289_cif.got.tgz:577570.got - 2010.06.27 13:26:56.
