data_PCOD8022570
_publ_section_title
;
Structure prediction by ZEFSAII (Michael W. Deem and Ramdas Pophale) SiO2 
 PCOD8022570
Probable space group: P -1
;
_chemical_formula_sum "Si O2"
_cell_formula_units_Z 12
_cell_length_a 15.131440
_cell_length_b 8.301591
_cell_length_c 7.645292
_cell_angle_alpha 116.431766
_cell_angle_beta 45.106242
_cell_angle_gamma 138.189281
_cell_volume 446.852632
_symmetry_space_group_name_H-M "P -1"
_symmetry_group_IT_number 2
_symmetry_cell_setting 'triclinic'
loop_
_space_group_symop_operation_xyz
x,y,z
-x,-y,-z
loop_
_atom_site_type_symbol
_atom_site_label
_atom_site_fract_x
_atom_site_fract_y
_atom_site_fract_z
Si Si1 0.647999 0.004971 0.754111
Si Si2 0.900652 0.343038 0.868242
Si Si3 0.361428 0.009371 0.647329
Si Si4 0.101493 0.274833 0.042082
Si Si5 0.583295 0.535700 0.135812
Si Si6 0.114569 0.271927 0.403452
O O1 0.697030 0.061540 0.507839
O O2 0.591711 0.746581 0.757935
O O3 0.802714 0.212842 0.761100
O O4 0.500000 0.000000 0.000000
O O5 0.932139 0.587085 0.968707
O O6 0.082713 0.414682 0.641255
O O7 0.804595 0.175234 0.091000
O O8 0.448959 0.285940 0.704823
O O9 0.500000 0.000000 0.500000
O O10 0.037818 0.258701 0.317761
O O11 0.303420 0.425687 0.839339
O O12 0.000000 0.000000 0.000000
O O13 0.687720 0.596030 0.835637
O O14 0.000000 0.000000 0.500000
#
# Coordination Sequence:
#
# PCOD8022570 Si02
#       6
#     2   2   2   2   2   2
#     4  12  24  47  73 105 144 189 236 291 356 425
#     4  12  24  48  74 107 142 186 240 294 357 423
#     4  12  25  45  70 106 145 186 236 290 357 425
#     4  10  23  44  71 102 141 185 232 292 356 417
#     4  10  24  46  71 103 145 185 238 294 355 422
#     4  10  22  47  71 103 142 182 239 289 353 427
#
# _framework density 26.854489999999998
#
# number of rings (size 3 to 8) (size 9 to 14) (size 15 to 20)
#    1.000    0.000    5.000    1.000    2.333    0.667 
#    6.000    1.667    0.000    0.000    0.000    0.000 
#    0.000    0.000    0.000    0.000    0.000    0.000 
#
# Total GULP energy -148712.179757 kJ/mol
# GULP energy per Si atom -12392.681646 kJ/mol
# Density = 2.679337 g / cm^3
# Si number density = 26.854490 Si / 1000 Ang^3
#
#
#
# Elastic Constant Matrix: (Units=GPa)
#
#
# Indices 1 2 3 4 5 6 
#
# 1 74.4913 38.9599 42.1550 16.5759 18.2196 -0.8384
# 2 38.9599 175.2362 35.1154 20.8857 6.2616 -35.4098
# 3 42.1550 35.1154 148.1808 15.1820 13.3045 -13.4320
# 4 16.5759 20.8857 15.1820 42.9408 -13.6922 -2.5447
# 5 18.2196 6.2616 13.3045 -13.6922 52.4114 9.2816
# 6 -0.8384 -35.4098 -13.4320 -2.5447 9.2816 53.4218
#
#
#
# Elastic Compliance Matrix: (Units=1/GPa)
#
#
# Indices 1 2 3 4 5 6 
#
# 1 0.020722 -0.002982 -0.003871 -0.007696 -0.007578 -0.001674
# 2 -0.002982 0.007843 -0.000109 -0.002804 -0.001536 0.005258
# 3 -0.003871 -0.000109 0.008406 -0.001817 -0.001636 0.002178
# 4 -0.007696 -0.002804 -0.001817 0.032031 0.012382 -0.003061
# 5 -0.007578 -0.001536 -0.001636 0.012382 0.026534 -0.005569
# 6 -0.001674 0.005258 0.002178 -0.003061 -0.005569 0.023547
#
#
# Mechanical properties :
#
#
# Convention : Reuss Voigt Hill
#
# Bulk Modulus (GPa) = 43.38815 70.04096 56.71456
# Shear Modulus (GPa) = 35.53953 48.53334 42.03643
#
# Velocity S-wave (km/s) = 3.64182 4.25581 3.96073
# Velocity P-wave (km/s) = 5.82028 7.09137 6.48703
#
# Compressibility (1/GPa) = 0.02304777
#
# Stress axis : x y z
#
# Youngs Moduli (GPa) = 48.25834 127.50720 118.96153
#
# Poissons Ratio (x) = 0.38017 0.46054
# Poissons Ratio (y) = 0.14389 0.01291
# Poissons Ratio (z) = 0.18682 0.01384
#
# Static dielectric constant tensor:
#      x y z
#    x 4.893050 -0.192680 0.051750 
#    y -0.192680 4.849360 0.026880 
#    z 0.051750 0.026880 5.112020 
# 
# 
# High freq. dielectric constant tensor:
#      x y z
#    x 2.074560 -0.015290 0.002440 
#    y -0.015290 2.086480 0.007500 
#    z 0.002440 0.007500 2.091830 
# 
# From -- ./inp_files/325225.got.cif
#   From: 2010.06.25/outbox.cif.g09.slc.cpg/sg2_163_cif.got.tgz:325225.got - 2010.06.27 13:26:56.
