data_PCOD8022373
_publ_section_title
;
Structure prediction by ZEFSAII (Michael W. Deem and Ramdas Pophale) SiO2 
 PCOD8022373
Probable space group: P -1
;
_chemical_formula_sum "Si O2"
_cell_formula_units_Z 16
_cell_length_a 14.829884
_cell_length_b 5.378399
_cell_length_c 15.187073
_cell_angle_alpha 123.703323
_cell_angle_beta 40.670966
_cell_angle_gamma 120.377896
_cell_volume 648.667276
_symmetry_space_group_name_H-M "P -1"
_symmetry_group_IT_number 2
_symmetry_cell_setting 'triclinic'
loop_
_space_group_symop_operation_xyz
x,y,z
-x,-y,-z
loop_
_atom_site_type_symbol
_atom_site_label
_atom_site_fract_x
_atom_site_fract_y
_atom_site_fract_z
Si Si1 0.915297 0.878477 0.648906
Si Si2 0.269668 0.889396 0.637340
Si Si3 0.332636 0.522389 0.928330
Si Si4 0.164528 0.314455 0.509616
Si Si5 0.473746 0.000636 0.654094
Si Si6 0.245348 0.578978 0.189628
Si Si7 0.909891 0.712623 0.057700
Si Si8 0.559409 0.934821 0.767355
O O1 0.910159 0.653807 0.523929
O O2 0.857705 0.692396 0.740952
O O3 0.830144 0.153982 0.742865
O O4 0.078601 0.025954 0.569241
O O5 0.158786 0.603547 0.632024
O O6 0.375585 0.989477 0.499333
O O7 0.355544 0.798890 0.641867
O O8 0.187234 0.163961 0.773278
O O9 0.426221 0.324929 0.764090
O O10 0.181104 0.497057 0.989018
O O11 0.432418 0.849487 0.914738
O O12 0.312981 0.428091 0.026760
O O13 0.322914 0.281461 0.363108
O O14 0.482139 0.871239 0.719086
O O15 0.365369 0.723426 0.198589
O O16 0.000000 0.500000 0.000000
O O17 0.000000 0.000000 0.000000
#
# Coordination Sequence:
#
# PCOD8022373 Si02
#       8
#     2   2   2   2   2   2   2   2
#     4  10  25  46  72 109 150 196 250 299 365 441
#     4  10  22  46  74 109 143 194 242 308 370 439
#     4  11  26  48  70 107 150 190 252 305 362 441
#     4  10  22  45  73 108 149 192 252 306 365 437
#     4  10  23  43  71 108 147 184 248 305 374 429
#     4  11  26  45  73 106 150 202 240 302 372 436
#     4  11  29  52  75 107 149 197 244 301 370 445
#     4  11  24  43  74 105 145 196 247 311 365 433
#
# _framework density 24.665956999999999
#
# number of rings (size 3 to 8) (size 9 to 14) (size 15 to 20)
#    0.000    1.500    1.250    1.125    8.750    7.500 
#    0.000    0.000    0.000    0.000    0.000    0.000 
#    0.000    0.000    0.000    0.000    0.000    0.000 
#
# Total GULP energy -198330.530386 kJ/mol
# GULP energy per Si atom -12395.658149 kJ/mol
# Density = 2.460982 g / cm^3
# Si number density = 24.665957 Si / 1000 Ang^3
#
#
#
# Elastic Constant Matrix: (Units=GPa)
#
#
# Indices 1 2 3 4 5 6 
#
# 1 113.6892 60.2101 54.0336 -10.4630 9.7753 10.7651
# 2 60.2101 123.0322 61.4032 -27.7852 6.8883 8.2320
# 3 54.0336 61.4032 133.5964 -26.9520 15.7509 1.9846
# 4 -10.4630 -27.7852 -26.9520 45.4033 1.5095 4.7598
# 5 9.7753 6.8883 15.7509 1.5095 41.0918 -0.1568
# 6 10.7651 8.2320 1.9846 4.7598 -0.1568 43.0470
#
#
#
# Elastic Compliance Matrix: (Units=1/GPa)
#
#
# Indices 1 2 3 4 5 6 
#
# 1 0.013077 -0.005006 -0.003184 -0.001699 -0.000996 -0.001982
# 2 -0.005006 0.013442 -0.003008 0.005478 -0.000118 -0.001786
# 3 -0.003184 -0.003008 0.011394 0.004259 -0.003261 0.000363
# 4 -0.001699 0.005478 0.004259 0.028032 -0.003192 -0.003930
# 5 -0.000996 -0.000118 -0.003261 -0.003192 0.025963 0.000869
# 6 -0.001982 -0.001786 0.000363 -0.003930 0.000869 0.024489
#
#
# Mechanical properties :
#
#
# Convention : Reuss Voigt Hill
#
# Bulk Modulus (GPa) = 64.44490 80.17907 72.31199
# Shear Modulus (GPa) = 34.73024 38.88648 36.80836
#
# Velocity S-wave (km/s) = 3.75643 3.97485 3.86719
# Velocity P-wave (km/s) = 6.70807 7.32410 7.02284
#
# Compressibility (1/GPa) = 0.01551713
#
# Stress axis : x y z
#
# Youngs Moduli (GPa) = 76.46727 74.39172 87.76546
#
# Poissons Ratio (x) = 0.37241 0.27947
# Poissons Ratio (y) = 0.38280 0.26400
# Poissons Ratio (z) = 0.24349 0.22377
#
# Static dielectric constant tensor:
#      x y z
#    x 4.691330 0.277970 -0.035910 
#    y 0.277970 4.712070 0.035960 
#    z -0.035910 0.035960 4.655290 
# 
# 
# High freq. dielectric constant tensor:
#      x y z
#    x 1.982440 0.021310 0.000680 
#    y 0.021310 1.967810 -0.006200 
#    z 0.000680 -0.006200 1.993960 
# 
# From -- ./inp_files/525995.got.cif
#   From: 2010.06.25/outbox.cif.g09.slc.cpg/sg2_263_cif.got.tgz:525995.got - 2010.06.27 13:26:56.
