data_PCOD8022135
_publ_section_title
;
Structure prediction by ZEFSAII (Michael W. Deem and Ramdas Pophale) SiO2 
 PCOD8022135
Probable space group: P -1
;
_chemical_formula_sum "Si O2"
_cell_formula_units_Z 14
_cell_length_a 14.814179
_cell_length_b 15.061467
_cell_length_c 8.703157
_cell_angle_alpha 123.835128
_cell_angle_beta 75.386641
_cell_angle_gamma 150.332556
_cell_volume 659.764004
_symmetry_space_group_name_H-M "P -1"
_symmetry_group_IT_number 2
_symmetry_cell_setting 'triclinic'
loop_
_space_group_symop_operation_xyz
x,y,z
-x,-y,-z
loop_
_atom_site_type_symbol
_atom_site_label
_atom_site_fract_x
_atom_site_fract_y
_atom_site_fract_z
Si Si1 0.305129 0.569470 0.786833
Si Si2 0.521067 0.630294 0.523871
Si Si3 0.261929 0.722886 0.770108
Si Si4 0.192915 0.656631 0.386619
Si Si5 0.989753 0.877023 0.303353
Si Si6 0.399472 0.504036 0.115083
Si Si7 0.489780 0.161437 0.739572
O O1 0.429473 0.628530 0.665298
O O2 0.183684 0.537443 0.717192
O O3 0.115670 0.312289 0.711918
O O4 0.492349 0.805887 0.052616
O O5 0.500000 0.500000 0.500000
O O6 0.380494 0.475162 0.278436
O O7 0.771678 0.916943 0.648274
O O8 0.276546 0.711985 0.573490
O O9 0.073337 0.617179 0.776023
O O10 0.500000 0.000000 0.000000
O O11 0.280170 0.654517 0.235901
O O12 0.288868 0.873370 0.508545
O O13 0.845965 0.735803 0.074998
O O14 0.000000 0.000000 0.500000
O O15 0.545476 0.759488 0.249293
O O16 0.500000 0.500000 0.000000
#
# Coordination Sequence:
#
# PCOD8022135 Si02
#       7
#     2   2   2   2   2   2   2
#     4  11  24  43  67 100 135 175 224 278 333 400
#     4  12  24  44  67  96 137 177 221 275 331 402
#     4  11  23  42  65  99 131 171 226 277 333 398
#     4  10  23  43  68  93 135 175 222 282 331 400
#     4  11  23  45  66  97 136 177 226 273 335 400
#     4  11  23  41  70  98 134 174 220 278 334 401
#     4  10  22  45  65  98 132 175 227 274 339 398
#
# _framework density 21.219708000000001
#
# number of rings (size 3 to 8) (size 9 to 14) (size 15 to 20)
#    0.000    1.143    4.286    1.714    2.000    3.429 
#    2.571    0.000    0.000    0.000    0.000    0.000 
#    0.000    0.000    0.000    0.000    0.000    0.000 
#
# Total GULP energy -173619.923331 kJ/mol
# GULP energy per Si atom -12401.423095 kJ/mol
# Density = 2.117141 g / cm^3
# Si number density = 21.219708 Si / 1000 Ang^3
#
#
#
# Elastic Constant Matrix: (Units=GPa)
#
#
# Indices 1 2 3 4 5 6 
#
# 1 118.5832 55.3978 52.7026 -10.3923 1.7048 -14.7312
# 2 55.3978 127.4887 58.5073 -9.4618 10.3127 10.1669
# 3 52.7026 58.5073 119.7636 -14.4328 14.5482 2.8988
# 4 -10.3923 -9.4618 -14.4328 47.8835 1.7340 0.0988
# 5 1.7048 10.3127 14.5482 1.7340 39.4879 -2.6519
# 6 -14.7312 10.1669 2.8988 0.0988 -2.6519 43.4714
#
#
#
# Elastic Compliance Matrix: (Units=1/GPa)
#
#
# Indices 1 2 3 4 5 6 
#
# 1 0.013005 -0.004479 -0.003889 0.000666 0.002405 0.005859
# 2 -0.004479 0.011897 -0.003454 0.000417 -0.001941 -0.004189
# 3 -0.003889 -0.003454 0.012531 0.002390 -0.003758 -0.001580
# 4 0.000666 0.000417 0.002390 0.021904 -0.001994 -0.000202
# 5 0.002405 -0.001941 -0.003758 -0.001994 0.027414 0.003196
# 6 0.005859 -0.004189 -0.001580 -0.000202 0.003196 0.026270
#
#
# Mechanical properties :
#
#
# Convention : Reuss Voigt Hill
#
# Bulk Modulus (GPa) = 72.51210 77.67229 75.09219
# Shear Modulus (GPa) = 35.39572 39.45044 37.42308
#
# Velocity S-wave (km/s) = 4.08862 4.31645 4.20408
# Velocity P-wave (km/s) = 7.51900 7.84383 7.68313
#
# Compressibility (1/GPa) = 0.01379080
#
# Stress axis : x y z
#
# Youngs Moduli (GPa) = 76.89218 84.05463 79.80268
#
# Poissons Ratio (x) = 0.37648 0.31032
# Poissons Ratio (y) = 0.34440 0.27561
# Poissons Ratio (z) = 0.29900 0.29029
#
# Static dielectric constant tensor:
#      x y z
#    x 3.938740 -0.279290 -0.135850 
#    y -0.279290 3.699100 -0.374510 
#    z -0.135850 -0.374510 3.783750 
# 
# 
# High freq. dielectric constant tensor:
#      x y z
#    x 1.842270 -0.010420 -0.001390 
#    y -0.010420 1.836660 -0.008700 
#    z -0.001390 -0.008700 1.833740 
# 
# From -- ./inp_files/313863.got.cif
#   From: 2010.06.25/outbox.cif.g09.slc.cpg/sg2_157_cif.got.tgz:313863.got - 2010.06.27 13:26:56.
