data_PCOD8022775
_publ_section_title
;
Structure prediction by ZEFSAII (Michael W. Deem and Ramdas Pophale) SiO2 
 PCOD8022775
Probable space group: P -1
;
_chemical_formula_sum "Si O2"
_cell_formula_units_Z 12
_cell_length_a 12.555528
_cell_length_b 18.096631
_cell_length_c 15.095915
_cell_angle_alpha 30.743192
_cell_angle_beta 160.888299
_cell_angle_gamma 150.691772
_cell_volume 536.044880
_symmetry_space_group_name_H-M "P -1"
_symmetry_group_IT_number 2
_symmetry_cell_setting 'triclinic'
loop_
_space_group_symop_operation_xyz
x,y,z
-x,-y,-z
loop_
_atom_site_type_symbol
_atom_site_label
_atom_site_fract_x
_atom_site_fract_y
_atom_site_fract_z
Si Si1 0.103551 0.418246 0.247065
Si Si2 0.092292 0.432065 0.730713
Si Si3 0.823318 0.869298 0.923970
Si Si4 0.831889 0.069905 0.369645
Si Si5 0.931454 0.938388 0.244845
Si Si6 0.914115 0.352043 0.354342
O O1 0.500000 0.500000 0.500000
O O2 0.052167 0.248879 0.348843
O O3 0.872834 0.410529 0.162503
O O4 0.000000 0.500000 0.000000
O O5 0.917171 0.495526 0.608494
O O6 0.000000 0.500000 0.500000
O O7 0.500000 0.500000 0.000000
O O8 0.961875 0.245200 0.811530
O O9 0.453592 0.761985 0.781048
O O10 0.797281 0.957342 0.722407
O O11 0.000000 0.000000 0.000000
O O12 0.881847 0.007703 0.569931
O O13 0.424812 0.029545 0.073759
O O14 0.000000 0.000000 0.500000
O O15 0.844880 0.754090 0.350052
#
# Coordination Sequence:
#
# PCOD8022775 Si02
#       6
#     2   2   2   2   2   2
#     4  11  24  42  65  92 123 171 219 262 318 378
#     4  10  23  39  60  91 128 168 209 254 310 375
#     4  11  22  40  68 100 133 172 212 262 326 390
#     4  11  25  45  67  96 132 167 216 274 321 378
#     4  11  23  41  68  99 128 171 215 264 326 386
#     4  10  23  43  64  94 135 171 213 270 320 383
#
# _framework density 22.386185000000001
#
# number of rings (size 3 to 8) (size 9 to 14) (size 15 to 20)
#    0.000    1.333    0.000    6.000    0.000   12.000 
#    0.000    0.000    0.000    2.000    0.000    0.000 
#    0.000    0.000    0.000    0.000    0.000    0.000 
#
# Total GULP energy -148748.459814 kJ/mol
# GULP energy per Si atom -12395.704984 kJ/mol
# Density = 2.233523 g / cm^3
# Si number density = 22.386185 Si / 1000 Ang^3
#
#
#
# Elastic Constant Matrix: (Units=GPa)
#
#
# Indices 1 2 3 4 5 6 
#
# 1 221.5692 77.6383 84.6572 -31.3190 -21.1692 -8.5565
# 2 77.6383 111.8194 34.1187 -18.6046 -7.4993 -11.3383
# 3 84.6572 34.1187 130.0369 -0.0355 -26.2438 -2.8218
# 4 -31.3190 -18.6046 -0.0355 39.8108 4.9532 10.5223
# 5 -21.1692 -7.4993 -26.2438 4.9532 50.2487 -11.8445
# 6 -8.5565 -11.3383 -2.8218 10.5223 -11.8445 56.4795
#
#
#
# Elastic Compliance Matrix: (Units=1/GPa)
#
#
# Indices 1 2 3 4 5 6 
#
# 1 0.008073 -0.003535 -0.004344 0.004860 -0.000019 -0.000613
# 2 -0.003535 0.012234 -0.000889 0.002577 -0.000055 0.001384
# 3 -0.004344 -0.000889 0.011818 -0.004918 0.005105 0.001740
# 4 0.004860 0.002577 -0.004918 0.032319 -0.004738 -0.006007
# 5 -0.000019 -0.000055 0.005105 -0.004738 0.024494 0.006260
# 6 -0.000613 0.001384 0.001740 -0.006007 0.006260 0.020410
#
#
# Mechanical properties :
#
#
# Convention : Reuss Voigt Hill
#
# Bulk Modulus (GPa) = 68.54372 95.13930 81.84151
# Shear Modulus (GPa) = 37.95181 47.10856 42.53019
#
# Velocity S-wave (km/s) = 4.12190 4.59231 4.36344
# Velocity P-wave (km/s) = 7.30333 8.40895 7.87556
#
# Compressibility (1/GPa) = 0.01458923
#
# Stress axis : x y z
#
# Youngs Moduli (GPa) = 123.86872 81.74048 84.61556
#
# Poissons Ratio (x) = 0.28892 0.36758
# Poissons Ratio (y) = 0.43783 0.07524
# Poissons Ratio (z) = 0.53810 0.07268
#
# Static dielectric constant tensor:
#      x y z
#    x 4.609470 -0.400620 0.166040 
#    y -0.400620 4.448030 -0.477280 
#    z 0.166040 -0.477280 4.237720 
# 
# 
# High freq. dielectric constant tensor:
#      x y z
#    x 1.900150 -0.006760 -0.007370 
#    y -0.006760 1.882390 -0.013990 
#    z -0.007370 -0.013990 1.880030 
# 
# From -- ./inp_files/59417.got.cif
#   From: 2010.06.25/outbox.cif.g09.slc.cpg/sg2_30_cif.got.tgz:59417.got - 2010.06.27 13:26:56.
