data_PCOD8022409
_publ_section_title
;
Structure prediction by ZEFSAII (Michael W. Deem and Ramdas Pophale) SiO2 
 PCOD8022409
Probable space group: P -1
;
_chemical_formula_sum "Si O2"
_cell_formula_units_Z 14
_cell_length_a 16.888732
_cell_length_b 13.986918
_cell_length_c 7.696940
_cell_angle_alpha 123.350728
_cell_angle_beta 56.824720
_cell_angle_gamma 157.182213
_cell_volume 584.367016
_symmetry_space_group_name_H-M "P -1"
_symmetry_group_IT_number 2
_symmetry_cell_setting 'triclinic'
loop_
_space_group_symop_operation_xyz
x,y,z
-x,-y,-z
loop_
_atom_site_type_symbol
_atom_site_label
_atom_site_fract_x
_atom_site_fract_y
_atom_site_fract_z
Si Si1 0.386700 0.629593 0.928503
Si Si2 0.069505 0.795758 0.963659
Si Si3 0.639799 0.455892 0.515643
Si Si4 0.963208 0.622865 0.301558
Si Si5 0.714949 0.066521 0.470447
Si Si6 0.393494 0.334939 0.130322
Si Si7 0.430242 0.944705 0.831804
O O1 0.411228 0.655505 0.718764
O O2 0.436076 0.558034 0.871081
O O3 0.159009 0.422858 0.046762
O O4 0.546424 0.894842 0.081292
O O5 0.158479 0.796108 0.724180
O O6 0.076923 0.759616 0.116430
O O7 0.188856 0.043806 0.049263
O O8 0.847886 0.616498 0.491435
O O9 0.672589 0.626960 0.634827
O O10 0.442714 0.211458 0.626781
O O11 0.804429 0.346567 0.202401
O O12 0.135022 0.779657 0.391728
O O13 0.582487 0.039819 0.615123
O O14 0.500000 0.500000 0.000000
O O15 0.500000 0.000000 0.000000
#
# Coordination Sequence:
#
# PCOD8022409 Si02
#       7
#     2   2   2   2   2   2   2
#     4  11  25  45  71  99 141 181 229 290 342 413
#     4  11  25  43  69 109 134 178 244 275 342 422
#     4  10  22  46  65 102 137 182 232 282 346 409
#     4  10  24  44  75 101 142 182 230 282 350 413
#     4  11  23  42  73 101 142 184 225 284 349 408
#     4  12  26  43  71  98 141 182 231 290 346 399
#     4  11  22  47  70 103 145 177 227 286 346 419
#
# _framework density 23.957547999999999
#
# number of rings (size 3 to 8) (size 9 to 14) (size 15 to 20)
#    0.000    1.143    5.714    1.286    2.000    6.286 
#    0.000    1.429    6.286    0.000    0.000    0.000 
#    0.000    0.000    0.000    0.000    0.000    0.000 
#
# Total GULP energy -173655.331495 kJ/mol
# GULP energy per Si atom -12403.952250 kJ/mol
# Density = 2.390302 g / cm^3
# Si number density = 23.957548 Si / 1000 Ang^3
#
#
#
# Elastic Constant Matrix: (Units=GPa)
#
#
# Indices 1 2 3 4 5 6 
#
# 1 76.7913 31.0244 23.1670 0.4638 -1.9266 -12.1537
# 2 31.0244 133.5244 60.3175 -9.0656 1.5724 -9.8894
# 3 23.1670 60.3175 121.4412 -10.6112 -22.2615 -15.6892
# 4 0.4638 -9.0656 -10.6112 43.5684 -10.6546 -5.3644
# 5 -1.9266 1.5724 -22.2615 -10.6546 33.9832 8.4263
# 6 -12.1537 -9.8894 -15.6892 -5.3644 8.4263 31.9777
#
#
#
# Elastic Compliance Matrix: (Units=1/GPa)
#
#
# Indices 1 2 3 4 5 6 
#
# 1 0.015167 -0.002647 -0.001287 -0.000769 -0.001220 0.004507
# 2 -0.002647 0.010715 -0.005555 -0.000104 -0.004503 0.000752
# 3 -0.001287 -0.005555 0.013913 0.005084 0.010202 0.002784
# 4 -0.000769 -0.000104 0.005084 0.027319 0.010894 0.003882
# 5 -0.001220 -0.004503 0.010202 0.010894 0.041117 -0.005858
# 6 0.004507 0.000752 0.002784 0.003882 -0.005858 0.036778
#
#
# Mechanical properties :
#
#
# Convention : Reuss Voigt Hill
#
# Bulk Modulus (GPa) = 48.03537 62.30828 55.17182
# Shear Modulus (GPa) = 29.25253 36.38906 32.82080
#
# Velocity S-wave (km/s) = 3.49809 3.90153 3.70531
# Velocity P-wave (km/s) = 6.03401 6.80883 6.43310
#
# Compressibility (1/GPa) = 0.02081799
#
# Stress axis : x y z
#
# Youngs Moduli (GPa) = 65.93128 93.32663 71.87632
#
# Poissons Ratio (x) = 0.24700 0.09254
# Poissons Ratio (y) = 0.17449 0.39924
# Poissons Ratio (z) = 0.08488 0.51839
#
# Static dielectric constant tensor:
#      x y z
#    x 5.035260 0.143380 -0.893180 
#    y 0.143380 4.525880 -0.186610 
#    z -0.893180 -0.186610 5.037890 
# 
# 
# High freq. dielectric constant tensor:
#      x y z
#    x 1.951100 0.005210 -0.008620 
#    y 0.005210 1.960450 -0.008320 
#    z -0.008620 -0.008320 1.960940 
# 
# From -- ./inp_files/335754.got.cif
#   From: 2010.06.25/outbox.cif.g09.slc.cpg/sg2_168_cif.got.tgz:335754.got - 2010.06.27 13:26:56.
