data_PCOD8022784
_publ_section_title
;
Structure prediction by ZEFSAII (Michael W. Deem and Ramdas Pophale) SiO2 
 PCOD8022784
Probable space group: P -1
;
_chemical_formula_sum "Si O2"
_cell_formula_units_Z 14
_cell_length_a 16.243101
_cell_length_b 8.499559
_cell_length_c 18.467621
_cell_angle_alpha 136.861345
_cell_angle_beta 157.111749
_cell_angle_gamma 54.200156
_cell_volume 640.480789
_symmetry_space_group_name_H-M "P -1"
_symmetry_group_IT_number 2
_symmetry_cell_setting 'triclinic'
loop_
_space_group_symop_operation_xyz
x,y,z
-x,-y,-z
loop_
_atom_site_type_symbol
_atom_site_label
_atom_site_fract_x
_atom_site_fract_y
_atom_site_fract_z
Si Si1 0.119819 0.060997 0.540018
Si Si2 0.751171 0.485265 0.277755
Si Si3 0.445994 0.444764 0.718710
Si Si4 0.520725 0.164604 0.300302
Si Si5 0.707137 0.962936 0.065905
Si Si6 0.236732 0.301509 0.352004
Si Si7 0.713766 0.104724 0.838183
O O1 0.253677 0.355875 0.745458
O O2 0.287665 0.912355 0.612191
O O3 0.000000 0.000000 0.500000
O O4 0.944357 0.009618 0.313143
O O5 0.672609 0.630205 0.325842
O O6 0.000000 0.500000 0.500000
O O7 0.616170 0.196261 0.067473
O O8 0.271454 0.338531 0.477927
O O9 0.645011 0.333284 0.833044
O O10 0.528502 0.738264 0.886196
O O11 0.633926 0.452094 0.504560
O O12 0.434632 0.020957 0.255536
O O13 0.305182 0.120250 0.056844
O O14 0.330551 0.093750 0.328166
O O15 0.972965 0.218944 0.102411
#
# Coordination Sequence:
#
# PCOD8022784 Si02
#       7
#     2   2   2   2   2   2   2
#     4  11  25  41  61  94 131 169 218 263 307 388
#     4  10  23  39  61  92 131 168 210 260 314 386
#     4  11  22  43  65  92 131 171 211 263 324 382
#     4  11  24  42  68  92 131 174 211 264 326 384
#     4  10  25  40  61  93 129 170 208 260 318 377
#     4  10  25  42  67  97 130 164 217 280 317 381
#     4  11  23  44  68  97 125 170 221 266 330 378
#
# _framework density 21.858578999999999
#
# number of rings (size 3 to 8) (size 9 to 14) (size 15 to 20)
#    0.000    1.429    1.429    2.143   14.000    1.714 
#    0.000    0.000    0.000    9.429    0.000    0.000 
#    0.000    0.000    0.000    0.000    0.000    0.000 
#
# Total GULP energy -173494.006204 kJ/mol
# GULP energy per Si atom -12392.429015 kJ/mol
# Density = 2.180883 g / cm^3
# Si number density = 21.858579 Si / 1000 Ang^3
#
#
#
# Elastic Constant Matrix: (Units=GPa)
#
#
# Indices 1 2 3 4 5 6 
#
# 1 43.1092 37.7269 45.3943 26.3856 -15.8969 11.3404
# 2 37.7269 140.2751 45.7773 27.4687 -2.9916 0.6192
# 3 45.3943 45.7773 87.5281 21.4967 -5.4568 -5.0858
# 4 26.3856 27.4687 21.4967 33.7193 1.1419 3.4997
# 5 -15.8969 -2.9916 -5.4568 1.1419 1.9020 5.4228
# 6 11.3404 0.6192 -5.0858 3.4997 5.4228 34.7090
#
#
#
# Elastic Compliance Matrix: (Units=1/GPa)
#
#
# Indices 1 2 3 4 5 6 
#
# 1 -0.002680 -0.000850 -0.003027 0.005864 -0.064061 0.009865
# 2 -0.000850 0.009420 -0.003083 -0.005108 0.002604 -0.000234
# 3 -0.003027 -0.003083 0.017969 -0.007457 0.023905 0.000694
# 4 0.005864 -0.005108 -0.007457 0.034094 0.031078 -0.011211
# 5 -0.064061 0.002604 0.023905 0.031078 -0.029273 0.025827
# 6 0.009865 -0.000234 0.000694 -0.011211 0.025827 0.022789
#
#
# Mechanical properties :
#
#
# Convention : Reuss Voigt Hill
#
# Bulk Modulus (GPa) = 92.66941 58.74549 75.70745
# Shear Modulus (GPa) = 71.59676 23.53366 47.56521
#
# Velocity S-wave (km/s) = 5.72937 3.28477 4.66987
# Velocity P-wave (km/s) = 9.28733 6.42805 7.98669
#
# Compressibility (1/GPa) = 0.01079105
#
# Stress axis : x y z
#
# Youngs Moduli (GPa) = -373.18605 106.15499 55.65083
#
# Poissons Ratio (x) = 0.09019 0.16844
# Poissons Ratio (y) = -0.31706 0.17157
# Poissons Ratio (z) = -1.12954 0.32727
#
# Static dielectric constant tensor:
#      x y z
#    x 3.852820 0.088610 -0.123690 
#    y 0.088610 4.419700 0.422120 
#    z -0.123690 0.422120 4.119220 
# 
# 
# High freq. dielectric constant tensor:
#      x y z
#    x 1.850000 0.009540 -0.002410 
#    y 0.009540 1.875620 0.011530 
#    z -0.002410 0.011530 1.866160 
# 
# From -- ./inp_files/181089.got.cif
#   From: 2010.06.25/outbox.cif.g09.slc.cpg/sg2_91_cif.got.tgz:181089.got - 2010.06.27 13:26:56.
