data_PCOD8022419
_publ_section_title
;
Structure prediction by ZEFSAII (Michael W. Deem and Ramdas Pophale) SiO2 
 PCOD8022419
Probable space group: P -1
;
_chemical_formula_sum "Si O2"
_cell_formula_units_Z 14
_cell_length_a 9.055433
_cell_length_b 15.896706
_cell_length_c 5.488498
_cell_angle_alpha 53.540294
_cell_angle_beta 66.269141
_cell_angle_gamma 60.337490
_cell_volume 545.492903
_symmetry_space_group_name_H-M "P -1"
_symmetry_group_IT_number 2
_symmetry_cell_setting 'triclinic'
loop_
_space_group_symop_operation_xyz
x,y,z
-x,-y,-z
loop_
_atom_site_type_symbol
_atom_site_label
_atom_site_fract_x
_atom_site_fract_y
_atom_site_fract_z
Si Si1 0.254945 0.988303 0.524923
Si Si2 0.395531 0.162021 0.333120
Si Si3 0.742628 0.444613 0.468399
Si Si4 0.979015 0.138151 0.113915
Si Si5 0.695988 0.328185 0.200834
Si Si6 0.103317 0.319126 0.531059
Si Si7 0.615153 0.680778 0.320894
O O1 0.439001 0.891765 0.508853
O O2 0.126326 0.931683 0.829878
O O3 0.296779 0.073617 0.532423
O O4 0.161361 0.053922 0.234919
O O5 0.261116 0.279858 0.307705
O O6 0.459099 0.199658 0.973158
O O7 0.713284 0.394727 0.316857
O O8 0.626297 0.575104 0.323671
O O9 0.946326 0.429696 0.370258
O O10 0.692850 0.391683 0.838467
O O11 0.855377 0.210379 0.289303
O O12 0.019893 0.222089 0.759526
O O13 0.513739 0.309813 0.382733
O O14 0.189041 0.338367 0.692054
#
# Coordination Sequence:
#
# PCOD8022419 Si02
#       7
#     2   2   2   2   2   2   2
#     4  10  22  46  66 100 140 189 236 294 353 421
#     4  11  25  43  69 103 141 181 240 290 362 412
#     4  11  27  47  76 105 144 190 238 288 362 425
#     4  10  22  46  70  99 140 184 242 289 356 417
#     4  11  26  48  75 107 142 187 239 294 355 431
#     4  11  25  43  70 102 143 184 239 293 358 425
#     4  12  26  45  70 105 145 184 233 299 353 428
#
# _framework density 25.664860000000001
#
# number of rings (size 3 to 8) (size 9 to 14) (size 15 to 20)
#    0.000    1.143    1.429    3.000   10.000    1.714 
#   10.286    0.000    0.000    0.000    0.000    0.000 
#    0.000    0.000    0.000    0.000    0.000    0.000 
#
# Total GULP energy -173455.587447 kJ/mol
# GULP energy per Si atom -12389.684818 kJ/mol
# Density = 2.560645 g / cm^3
# Si number density = 25.664860 Si / 1000 Ang^3
#
#
#
# Elastic Constant Matrix: (Units=GPa)
#
#
# Indices 1 2 3 4 5 6 
#
# 1 134.0188 27.4684 36.6385 -1.9616 -6.1227 -19.6793
# 2 27.4684 97.4789 40.0039 1.9539 -0.1522 -20.5562
# 3 36.6385 40.0039 85.8285 1.3231 -8.3334 12.2202
# 4 -1.9616 1.9539 1.3231 32.1718 1.1729 -4.9363
# 5 -6.1227 -0.1522 -8.3334 1.1729 29.6096 2.0393
# 6 -19.6793 -20.5562 12.2202 -4.9363 2.0393 49.3322
#
#
#
# Elastic Compliance Matrix: (Units=1/GPa)
#
#
# Indices 1 2 3 4 5 6 
#
# 1 0.009588 0.000526 -0.005132 0.001600 0.000101 0.005471
# 2 0.000526 0.015855 -0.009260 0.000996 -0.003099 0.009338
# 3 -0.005132 -0.009260 0.020360 -0.002543 0.005509 -0.011432
# 4 0.001600 0.000996 -0.002543 0.032060 -0.001992 0.004973
# 5 0.000101 -0.003099 0.005509 -0.001992 0.035703 -0.004291
# 6 0.005471 0.009338 -0.011432 0.004973 -0.004291 0.029851
#
#
# Mechanical properties :
#
#
# Convention : Reuss Voigt Hill
#
# Bulk Modulus (GPa) = 55.33840 58.39419 56.86629
# Shear Modulus (GPa) = 28.22091 36.43709 32.32900
#
# Velocity S-wave (km/s) = 3.31961 3.77201 3.55302
# Velocity P-wave (km/s) = 6.02510 6.46319 6.24798
#
# Compressibility (1/GPa) = 0.01807064
#
# Stress axis : x y z
#
# Youngs Moduli (GPa) = 104.29405 63.07133 49.11631
#
# Poissons Ratio (x) = -0.03319 0.25207
# Poissons Ratio (y) = -0.05488 0.45483
# Poissons Ratio (z) = 0.53526 0.58406
#
# Static dielectric constant tensor:
#      x y z
#    x 4.870590 -0.329830 -0.384010 
#    y -0.329830 4.907100 -0.131170 
#    z -0.384010 -0.131170 4.270660 
# 
# 
# High freq. dielectric constant tensor:
#      x y z
#    x 2.042400 -0.013020 -0.020260 
#    y -0.013020 2.032180 -0.013850 
#    z -0.020260 -0.013850 2.001620 
# 
# From -- ./inp_files/34009.got.cif
#   From: 2010.06.25/outbox.cif.g09.slc.cpg/sg2_18_cif.got.tgz:34009.got - 2010.06.27 13:26:56.
