data_PCOD8022278
_publ_section_title
;
Structure prediction by ZEFSAII (Michael W. Deem and Ramdas Pophale) SiO2 
 PCOD8022278
Probable space group: P -1
;
_chemical_formula_sum "Si O2"
_cell_formula_units_Z 16
_cell_length_a 12.148455
_cell_length_b 14.197444
_cell_length_c 5.999156
_cell_angle_alpha 105.130192
_cell_angle_beta 98.000241
_cell_angle_gamma 129.627663
_cell_volume 701.305444
_symmetry_space_group_name_H-M "P -1"
_symmetry_group_IT_number 2
_symmetry_cell_setting 'triclinic'
loop_
_space_group_symop_operation_xyz
x,y,z
-x,-y,-z
loop_
_atom_site_type_symbol
_atom_site_label
_atom_site_fract_x
_atom_site_fract_y
_atom_site_fract_z
Si Si1 0.609186 0.111478 0.911841
Si Si2 0.868818 0.349747 0.461129
Si Si3 0.346076 0.444065 0.038365
Si Si4 0.348043 0.635884 0.452861
Si Si5 0.399922 0.083088 0.485016
Si Si6 0.141876 0.218054 0.167347
Si Si7 0.887380 0.967664 0.639552
Si Si8 0.144254 0.394189 0.574135
O O1 0.515177 0.136001 0.760425
O O2 0.657223 0.054174 0.721679
O O3 0.759694 0.249402 0.161750
O O4 0.500000 0.000000 0.000000
O O5 0.772410 0.347891 0.626696
O O6 0.000000 0.500000 0.500000
O O7 0.976484 0.329771 0.578306
O O8 0.363940 0.561011 0.229101
O O9 0.294253 0.326456 0.120115
O O10 0.500000 0.500000 0.000000
O O11 0.210731 0.369821 0.773767
O O12 0.515199 0.795315 0.603377
O O13 0.280435 0.554196 0.621759
O O14 0.247688 0.047036 0.508658
O O15 0.191927 0.173786 0.346813
O O16 0.099589 0.298209 0.296451
O O17 0.986078 0.088538 0.920659
O O18 0.000000 0.000000 0.500000
#
# Coordination Sequence:
#
# PCOD8022278 Si02
#       8
#     2   2   2   2   2   2   2   2
#     4  11  24  46  69 101 139 176 224 290 350 406
#     4  10  22  45  69  99 138 177 225 283 346 413
#     4  11  26  42  69 102 141 182 226 286 348 408
#     4  10  24  42  66 105 127 183 229 280 337 419
#     4  11  26  43  71 101 134 181 233 281 349 415
#     4  10  24  45  64 104 132 180 234 280 344 412
#     4  11  25  45  70  98 135 184 233 287 341 409
#     4  10  23  44  68  97 141 182 221 286 350 405
#
# _framework density 22.814595000000001
#
# number of rings (size 3 to 8) (size 9 to 14) (size 15 to 20)
#    0.000    1.500    1.250    1.500    8.750    5.500 
#    4.500    0.000    0.000    0.000    0.000    0.000 
#    0.000    0.000    0.000    0.000    0.000    0.000 
#
# Total GULP energy -198260.038521 kJ/mol
# GULP energy per Si atom -12391.252408 kJ/mol
# Density = 2.276267 g / cm^3
# Si number density = 22.814595 Si / 1000 Ang^3
#
#
#
# Elastic Constant Matrix: (Units=GPa)
#
#
# Indices 1 2 3 4 5 6 
#
# 1 206.1104 56.1032 58.6735 -6.9484 -2.2672 14.1921
# 2 56.1032 123.9437 41.9380 1.8695 -3.3706 -2.6241
# 3 58.6735 41.9380 85.4315 5.8827 7.1307 -1.5760
# 4 -6.9484 1.8695 5.8827 39.1182 1.2392 -0.8596
# 5 -2.2672 -3.3706 7.1307 1.2392 35.8525 -4.7852
# 6 14.1921 -2.6241 -1.5760 -0.8596 -4.7852 29.3986
#
#
#
# Elastic Compliance Matrix: (Units=1/GPa)
#
#
# Indices 1 2 3 4 5 6 
#
# 1 0.006794 -0.001805 -0.004013 0.001803 0.000526 -0.003518
# 2 -0.001805 0.010309 -0.003928 -0.000241 0.001896 0.001882
# 3 -0.004013 -0.003928 0.016928 -0.002915 -0.003647 0.001815
# 4 0.001803 -0.000241 -0.002915 0.026336 -0.000282 -0.000324
# 5 0.000526 0.001896 -0.003647 -0.000282 0.029440 0.004503
# 6 -0.003518 0.001882 0.001815 -0.000324 0.004503 0.036702
#
#
# Mechanical properties :
#
#
# Convention : Reuss Voigt Hill
#
# Bulk Modulus (GPa) = 68.77746 80.99055 74.88401
# Shear Modulus (GPa) = 33.14582 38.12526 35.63554
#
# Velocity S-wave (km/s) = 3.81574 4.09233 3.95645
# Velocity P-wave (km/s) = 7.04449 7.60961 7.33250
#
# Compressibility (1/GPa) = 0.01453965
#
# Stress axis : x y z
#
# Youngs Moduli (GPa) = 147.18284 96.99927 59.07214
#
# Poissons Ratio (x) = 0.17507 0.23707
# Poissons Ratio (y) = 0.26565 0.23204
# Poissons Ratio (z) = 0.59067 0.38103
#
# Static dielectric constant tensor:
#      x y z
#    x 7.738180 0.671390 0.385810 
#    y 0.671390 4.552180 0.220130 
#    z 0.385810 0.220130 3.933320 
# 
# 
# High freq. dielectric constant tensor:
#      x y z
#    x 1.911700 -0.003970 -0.015010 
#    y -0.003970 1.913500 0.011270 
#    z -0.015010 0.011270 1.882370 
# 
# From -- ./inp_files/78407.got.cif
#   From: 2010.06.25/outbox.cif.g09.slc.cpg/sg2_40_cif.got.tgz:78407.got - 2010.06.27 13:26:56.
