data_PCOD8022274
_publ_section_title
;
Structure prediction by ZEFSAII (Michael W. Deem and Ramdas Pophale) SiO2 
 PCOD8022274
Probable space group: P -1
;
_chemical_formula_sum "Si O2"
_cell_formula_units_Z 12
_cell_length_a 8.235376
_cell_length_b 5.330809
_cell_length_c 14.505501
_cell_angle_alpha 98.776834
_cell_angle_beta 71.271856
_cell_angle_gamma 54.621322
_cell_volume 441.965829
_symmetry_space_group_name_H-M "P -1"
_symmetry_group_IT_number 2
_symmetry_cell_setting 'triclinic'
loop_
_space_group_symop_operation_xyz
x,y,z
-x,-y,-z
loop_
_atom_site_type_symbol
_atom_site_label
_atom_site_fract_x
_atom_site_fract_y
_atom_site_fract_z
Si Si1 0.363985 0.762781 0.921497
Si Si2 0.181299 0.914274 0.151019
Si Si3 0.908007 0.663165 0.650062
Si Si4 0.803880 0.627874 0.116803
Si Si5 0.171109 0.080604 0.702120
Si Si6 0.359909 0.288465 0.465145
O O1 0.618837 0.498442 0.905300
O O2 0.289591 0.562972 0.885938
O O3 0.382154 0.963349 0.852448
O O4 0.181136 0.025174 0.052536
O O5 0.934102 0.035804 0.222835
O O6 0.239946 0.059558 0.227281
O O7 0.026457 0.285071 0.645974
O O8 0.124224 0.634008 0.574108
O O9 0.731501 0.796259 0.606610
O O10 0.852615 0.632515 0.217093
O O11 0.000000 0.500000 0.000000
O O12 0.438991 0.726433 0.612730
O O13 0.500000 0.000000 0.500000
#
# Coordination Sequence:
#
# PCOD8022274 Si02
#       6
#     2   2   2   2   2   2
#     4  11  27  43  69 105 150 197 235 295 347 421
#     4  11  25  41  66 103 139 188 241 290 358 419
#     4  10  22  45  69  98 141 178 237 301 361 426
#     4  12  24  45  69 104 149 193 244 286 352 419
#     4  11  24  39  71 102 138 188 238 293 354 425
#     4   9  21  45  71  99 133 183 234 303 362 433
#
# _framework density 27.151422
#
# number of rings (size 3 to 8) (size 9 to 14) (size 15 to 20)
#    0.000    1.333    1.667    2.500    7.000    2.000 
#    0.000    7.500    0.000    0.000    0.000    0.000 
#    0.000    0.000    0.000    0.000    0.000    0.000 
#
# Total GULP energy -148690.072750 kJ/mol
# GULP energy per Si atom -12390.839396 kJ/mol
# Density = 2.708962 g / cm^3
# Si number density = 27.151422 Si / 1000 Ang^3
#
#
#
# Elastic Constant Matrix: (Units=GPa)
#
#
# Indices 1 2 3 4 5 6 
#
# 1 94.7706 41.3781 35.6754 -23.1547 -2.2304 -21.3905
# 2 41.3781 75.9254 42.5762 -17.9521 9.6244 -5.5144
# 3 35.6754 42.5762 118.0594 -16.5300 5.4206 -11.7689
# 4 -23.1547 -17.9521 -16.5300 32.6677 -6.1288 3.9243
# 5 -2.2304 9.6244 5.4206 -6.1288 59.1470 0.1337
# 6 -21.3905 -5.5144 -11.7689 3.9243 0.1337 42.1039
#
#
#
# Elastic Compliance Matrix: (Units=1/GPa)
#
#
# Indices 1 2 3 4 5 6 
#
# 1 0.017516 -0.006914 -0.001152 0.007700 0.002673 0.006945
# 2 -0.006914 0.020813 -0.005011 0.003782 -0.002791 -0.002531
# 3 -0.001152 -0.005011 0.011049 0.001808 -0.000057 0.001678
# 4 0.007700 0.003782 0.001808 0.039594 0.003609 0.001211
# 5 0.002673 -0.002791 -0.000057 0.003609 0.017840 0.000584
# 6 0.006945 -0.002531 0.001678 0.001211 0.000584 0.027302
#
#
# Mechanical properties :
#
#
# Convention : Reuss Voigt Hill
#
# Bulk Modulus (GPa) = 43.05955 58.66833 50.86394
# Shear Modulus (GPa) = 29.76040 38.05876 33.90958
#
# Velocity S-wave (km/s) = 3.31432 3.74802 3.53782
# Velocity P-wave (km/s) = 5.52628 6.35491 5.95503
#
# Compressibility (1/GPa) = 0.02322365
#
# Stress axis : x y z
#
# Youngs Moduli (GPa) = 57.09113 48.04701 90.50810
#
# Poissons Ratio (x) = 0.33218 0.10426
# Poissons Ratio (y) = 0.39471 0.45356
# Poissons Ratio (z) = 0.06577 0.24078
#
# Static dielectric constant tensor:
#      x y z
#    x 4.850310 -0.420530 -0.233650 
#    y -0.420530 4.959420 0.132260 
#    z -0.233650 0.132260 5.929980 
# 
# 
# High freq. dielectric constant tensor:
#      x y z
#    x 2.084420 -0.031640 -0.001950 
#    y -0.031640 2.080760 -0.000810 
#    z -0.001950 -0.000810 2.121530 
# 
# From -- ./inp_files/136473.got.cif
#   From: 2010.06.25/outbox.cif.g09.slc.cpg/sg2_69_cif.got.tgz:136473.got - 2010.06.27 13:26:56.
