data_PCOD8022795
_publ_section_title
;
Structure prediction by ZEFSAII (Michael W. Deem and Ramdas Pophale) SiO2 
 PCOD8022795
Probable space group: P -1
;
_chemical_formula_sum "Si O2"
_cell_formula_units_Z 16
_cell_length_a 11.719541
_cell_length_b 11.333935
_cell_length_c 12.556075
_cell_angle_alpha 106.178254
_cell_angle_beta 122.580317
_cell_angle_gamma 121.088531
_cell_volume 765.793892
_symmetry_space_group_name_H-M "P -1"
_symmetry_group_IT_number 2
_symmetry_cell_setting 'triclinic'
loop_
_space_group_symop_operation_xyz
x,y,z
-x,-y,-z
loop_
_atom_site_type_symbol
_atom_site_label
_atom_site_fract_x
_atom_site_fract_y
_atom_site_fract_z
Si Si1 0.953288 0.327949 0.901717
Si Si2 0.268587 0.230763 0.560205
Si Si3 0.858538 0.075500 0.419216
Si Si4 0.560236 0.097722 0.942053
Si Si5 0.527035 0.900534 0.679672
Si Si6 0.776348 0.844256 0.728076
Si Si7 0.986515 0.396031 0.699931
Si Si8 0.763061 0.676368 0.870611
O O1 0.014142 0.349383 0.815172
O O2 0.113923 0.364646 0.069209
O O3 0.675125 0.091103 0.717158
O O4 0.000000 0.500000 0.000000
O O5 0.289575 0.213066 0.442435
O O6 0.518429 0.489762 0.770617
O O7 0.044561 0.148840 0.452977
O O8 0.247135 0.091622 0.584245
O O9 0.995898 0.294686 0.592578
O O10 0.636359 0.951392 0.206266
O O11 0.577215 0.995714 0.844797
O O12 0.806690 0.351726 0.146037
O O13 0.500000 0.000000 0.000000
O O14 0.615561 0.826574 0.702281
O O15 0.253646 0.704432 0.458255
O O16 0.724108 0.679471 0.726016
O O17 0.058802 0.087503 0.933488
#
# Coordination Sequence:
#
# PCOD8022795 Si02
#       8
#     2   2   2   2   2   2   2   2
#     4  11  21  38  66  96 126 163 202 262 316 369
#     4  11  23  42  65  89 126 168 209 262 306 372
#     4  10  25  42  63  93 121 167 222 250 312 379
#     4  11  25  43  62  91 128 167 211 262 313 374
#     4  10  23  39  65  98 123 164 215 253 320 375
#     4  10  23  41  62  96 127 163 208 260 311 377
#     4  11  23  42  65  91 128 165 207 266 314 369
#     4  10  23  39  62  93 129 162 208 253 320 371
#
# _framework density 20.893352
#
# number of rings (size 3 to 8) (size 9 to 14) (size 15 to 20)
#    0.000    1.500    1.250    3.000    3.500    8.000 
#    0.000    3.125    0.000    0.000    0.000    0.000 
#    0.000    0.000    0.000    0.000    0.000    0.000 
#
# Total GULP energy -198397.982996 kJ/mol
# GULP energy per Si atom -12399.873937 kJ/mol
# Density = 2.084580 g / cm^3
# Si number density = 20.893352 Si / 1000 Ang^3
#
#
#
# Elastic Constant Matrix: (Units=GPa)
#
#
# Indices 1 2 3 4 5 6 
#
# 1 108.2170 68.8175 53.7411 5.4691 13.2260 -3.5208
# 2 68.8175 160.7581 77.8224 -4.3486 9.0375 5.2037
# 3 53.7411 77.8224 121.5050 12.4253 18.6439 -5.6284
# 4 5.4691 -4.3486 12.4253 30.3361 2.6872 6.7555
# 5 13.2260 9.0375 18.6439 2.6872 26.3580 0.3531
# 6 -3.5208 5.2037 -5.6284 6.7555 0.3531 27.4529
#
#
#
# Elastic Compliance Matrix: (Units=1/GPa)
#
#
# Indices 1 2 3 4 5 6 
#
# 1 0.014149 -0.005041 -0.002034 -0.002802 -0.003689 0.003090
# 2 -0.005041 0.011825 -0.006674 0.006412 0.002620 -0.005868
# 3 -0.002034 -0.006674 0.015552 -0.007718 -0.006988 0.006182
# 4 -0.002802 0.006412 -0.007718 0.040404 0.000723 -0.013109
# 5 -0.003689 0.002620 -0.006988 0.000723 0.043802 -0.003144
# 6 0.003090 -0.005868 0.006182 -0.013109 -0.003144 0.042468
#
#
# Mechanical properties :
#
#
# Convention : Reuss Voigt Hill
#
# Bulk Modulus (GPa) = 71.28067 87.91580 79.59824
# Shear Modulus (GPa) = 24.95309 29.50268 27.22789
#
# Velocity S-wave (km/s) = 3.45962 3.76182 3.61388
# Velocity P-wave (km/s) = 7.08161 7.81269 7.45611
#
# Compressibility (1/GPa) = 0.01402905
#
# Stress axis : x y z
#
# Youngs Moduli (GPa) = 70.67496 84.56366 64.29992
#
# Poissons Ratio (x) = 0.42627 0.13078
# Poissons Ratio (y) = 0.35626 0.42914
# Poissons Ratio (z) = 0.14375 0.56439
#
# Static dielectric constant tensor:
#      x y z
#    x 3.652670 0.032670 0.046350 
#    y 0.032670 3.955300 0.083620 
#    z 0.046350 0.083620 4.006670 
# 
# 
# High freq. dielectric constant tensor:
#      x y z
#    x 1.807430 -0.003210 0.006800 
#    y -0.003210 1.831590 0.005030 
#    z 0.006800 0.005030 1.831740 
# 
# From -- ./inp_files/428432.got.cif
#   From: 2010.06.25/outbox.cif.g09.slc.cpg/sg2_215_cif.got.tgz:428432.got - 2010.06.27 13:26:56.
