data_PCOD8022328
_publ_section_title
;
Structure prediction by ZEFSAII (Michael W. Deem and Ramdas Pophale) SiO2 
 PCOD8022328
Probable space group: P -1
;
_chemical_formula_sum "Si O2"
_cell_formula_units_Z 16
_cell_length_a 8.948133
_cell_length_b 22.727555
_cell_length_c 8.987467
_cell_angle_alpha 42.088132
_cell_angle_beta 41.366719
_cell_angle_gamma 40.920128
_cell_volume 723.646742
_symmetry_space_group_name_H-M "P -1"
_symmetry_group_IT_number 2
_symmetry_cell_setting 'triclinic'
loop_
_space_group_symop_operation_xyz
x,y,z
-x,-y,-z
loop_
_atom_site_type_symbol
_atom_site_label
_atom_site_fract_x
_atom_site_fract_y
_atom_site_fract_z
Si Si1 0.405558 0.935804 0.292261
Si Si2 0.688069 0.593686 0.934070
Si Si3 0.847997 0.115037 0.866424
Si Si4 0.726747 0.767343 0.020601
Si Si5 0.789954 0.294427 0.728207
Si Si6 0.958465 0.903006 0.551040
Si Si7 0.749769 0.721277 0.419484
Si Si8 0.929034 0.381286 0.200447
O O1 0.631418 0.832418 0.362348
O O2 0.213434 0.906647 0.401959
O O3 0.277882 0.991738 0.434780
O O4 0.500000 0.000000 0.000000
O O5 0.622687 0.657466 0.710690
O O6 0.947055 0.588513 0.811908
O O7 0.487810 0.645939 0.113998
O O8 0.728503 0.482453 0.081034
O O9 0.863490 0.178099 0.877667
O O10 0.011928 0.127071 0.586501
O O11 0.551571 0.152792 0.974557
O O12 0.000000 0.000000 0.000000
O O13 0.899713 0.821698 0.830734
O O14 0.863433 0.686127 0.946185
O O15 0.712805 0.714694 0.282949
O O16 0.787086 0.327427 0.495093
O O17 0.960694 0.318285 0.672560
#
# Coordination Sequence:
#
# PCOD8022328 Si02
#       8
#     2   2   2   2   2   2   2   2
#     4  11  23  41  65  92 132 182 216 266 331 400
#     4  10  23  44  68  98 133 174 228 281 336 401
#     4  12  27  40  65 100 136 179 223 275 332 400
#     4  12  24  46  67 101 138 175 225 279 337 401
#     4  11  24  42  67  99 132 179 223 278 334 405
#     4  11  24  40  66  92 130 181 223 270 325 394
#     4  11  26  39  67 101 135 171 227 277 337 399
#     4  10  22  45  71  94 130 182 225 277 341 399
#
# _framework density 22.110234999999999
#
# number of rings (size 3 to 8) (size 9 to 14) (size 15 to 20)
#    0.000    1.000    5.000    0.375    7.000    1.000 
#    0.000    0.625    0.000    0.000    0.000    0.000 
#    0.000    0.000    0.000    0.000    0.000    0.000 
#
# Total GULP energy -198288.395445 kJ/mol
# GULP energy per Si atom -12393.024715 kJ/mol
# Density = 2.205991 g / cm^3
# Si number density = 22.110235 Si / 1000 Ang^3
#
#
#
# Elastic Constant Matrix: (Units=GPa)
#
#
# Indices 1 2 3 4 5 6 
#
# 1 65.1880 18.7128 32.1041 0.7012 5.6960 -0.2677
# 2 18.7128 141.7515 65.1110 -4.7422 17.4737 3.6063
# 3 32.1041 65.1110 127.9789 -3.5065 14.6396 -11.0551
# 4 0.7012 -4.7422 -3.5065 40.6439 1.5234 5.8034
# 5 5.6960 17.4737 14.6396 1.5234 29.7108 0.0357
# 6 -0.2677 3.6063 -11.0551 5.8034 0.0357 24.2254
#
#
#
# Elastic Compliance Matrix: (Units=1/GPa)
#
#
# Indices 1 2 3 4 5 6 
#
# 1 0.017633 -0.000153 -0.004375 -0.000418 -0.001112 -0.001677
# 2 -0.000153 0.009912 -0.004922 0.001444 -0.003444 -0.004064
# 3 -0.004375 -0.004922 0.012215 -0.000263 -0.002280 0.006325
# 4 -0.000418 0.001444 -0.000263 0.025759 -0.001953 -0.006507
# 5 -0.001112 -0.003444 -0.002280 -0.001953 0.037120 -0.000127
# 6 -0.001677 -0.004064 0.006325 -0.006507 -0.000127 0.046311
#
#
# Mechanical properties :
#
#
# Convention : Reuss Voigt Hill
#
# Bulk Modulus (GPa) = 47.93529 62.97492 55.45510
# Shear Modulus (GPa) = 28.60349 33.51539 31.05944
#
# Velocity S-wave (km/s) = 3.60067 3.89759 3.75207
# Velocity P-wave (km/s) = 6.24609 6.98563 6.62619
#
# Compressibility (1/GPa) = 0.02086146
#
# Stress axis : x y z
#
# Youngs Moduli (GPa) = 56.71063 100.88940 81.86408
#
# Poissons Ratio (x) = 0.01539 0.35815
# Poissons Ratio (y) = 0.00865 0.40294
# Poissons Ratio (z) = 0.24811 0.49658
#
# Static dielectric constant tensor:
#      x y z
#    x 3.640350 0.011740 0.022320 
#    y 0.011740 4.151400 -0.058770 
#    z 0.022320 -0.058770 4.277630 
# 
# 
# High freq. dielectric constant tensor:
#      x y z
#    x 1.839900 0.006270 -0.003790 
#    y 0.006270 1.880820 0.008220 
#    z -0.003790 0.008220 1.883230 
# 
# From -- ./inp_files/97739.got.cif
#   From: 2010.06.25/outbox.cif.g09.slc.cpg/sg2_49_cif.got.tgz:97739.got - 2010.06.27 13:26:56.
