data_PCOD8022868
_publ_section_title
;
Structure prediction by ZEFSAII (Michael W. Deem and Ramdas Pophale) SiO2 
 PCOD8022868
Probable space group: P -1
;
_chemical_formula_sum "Si O2"
_cell_formula_units_Z 12
_cell_length_a 12.230025
_cell_length_b 8.446978
_cell_length_c 13.319405
_cell_angle_alpha 82.913901
_cell_angle_beta 124.087287
_cell_angle_gamma 50.480492
_cell_volume 580.122988
_symmetry_space_group_name_H-M "P -1"
_symmetry_group_IT_number 2
_symmetry_cell_setting 'triclinic'
loop_
_space_group_symop_operation_xyz
x,y,z
-x,-y,-z
loop_
_atom_site_type_symbol
_atom_site_label
_atom_site_fract_x
_atom_site_fract_y
_atom_site_fract_z
Si Si1 0.134133 0.424586 0.976950
Si Si2 0.732251 0.840410 0.573171
Si Si3 0.264997 0.638852 0.645500
Si Si4 0.581430 0.183469 0.287914
Si Si5 0.424571 0.915204 0.025891
Si Si6 0.015233 0.282401 0.636996
O O1 0.933916 0.695189 0.769856
O O2 0.321437 0.377267 0.096973
O O3 0.000000 0.500000 0.000000
O O4 0.283927 0.113211 0.039689
O O5 0.875038 0.582525 0.584587
O O6 0.500000 0.000000 0.500000
O O7 0.620455 0.101750 0.431321
O O8 0.468350 0.573319 0.756051
O O9 0.334804 0.441786 0.786453
O O10 0.218632 0.598691 0.517130
O O11 0.000000 0.000000 0.500000
O O12 0.825263 0.863408 0.373904
O O13 0.500000 0.000000 0.000000
O O14 0.231746 0.006286 0.852058
#
# Coordination Sequence:
#
# PCOD8022868 Si02
#       6
#     2   2   2   2   2   2
#     4  11  23  40  66  91 127 168 215 267 307 378
#     4  11  23  38  67  93 122 168 220 255 315 377
#     4  10  25  39  63  96 136 163 206 265 328 369
#     4  11  22  40  62  94 128 164 211 262 320 368
#     4  11  23  40  67  96 122 168 219 257 315 379
#     4  10  23  39  67  92 130 164 215 260 315 380
#
# _framework density 20.685268000000001
#
# number of rings (size 3 to 8) (size 9 to 14) (size 15 to 20)
#    0.000    1.333    3.333    1.500    9.333    4.000 
#    0.000    1.667    0.000    0.000    0.000    0.000 
#    0.000    0.000    0.000    0.000    0.000    0.000 
#
# Total GULP energy -148659.308416 kJ/mol
# GULP energy per Si atom -12388.275701 kJ/mol
# Density = 2.063819 g / cm^3
# Si number density = 20.685268 Si / 1000 Ang^3
#
#
#
# Elastic Constant Matrix: (Units=GPa)
#
#
# Indices 1 2 3 4 5 6 
#
# 1 124.5492 59.5998 70.0560 11.3512 -0.8728 6.7089
# 2 59.5998 65.9645 55.0266 16.3520 -7.5534 -2.7175
# 3 70.0560 55.0266 184.5758 20.7648 -3.1573 28.6299
# 4 11.3512 16.3520 20.7648 41.9108 9.3921 4.9063
# 5 -0.8728 -7.5534 -3.1573 9.3921 42.8920 0.9473
# 6 6.7089 -2.7175 28.6299 4.9063 0.9473 33.8142
#
#
#
# Elastic Compliance Matrix: (Units=1/GPa)
#
#
# Indices 1 2 3 4 5 6 
#
# 1 0.015407 -0.013734 -0.001656 0.003002 -0.002815 -0.003115
# 2 -0.013734 0.036986 -0.006402 -0.010755 0.007842 0.012459
# 3 -0.001656 -0.006402 0.009257 -0.000678 -0.000156 -0.007921
# 4 0.003002 -0.010755 -0.000678 0.030037 -0.008349 -0.005010
# 5 -0.002815 0.007842 -0.000156 -0.008349 0.026415 0.001793
# 6 -0.003115 0.012459 -0.007921 -0.005010 0.001793 0.038576
#
#
# Mechanical properties :
#
#
# Convention : Reuss Voigt Hill
#
# Bulk Modulus (GPa) = 55.35123 82.71716 69.03420
# Shear Modulus (GPa) = 24.23841 36.41723 30.32782
#
# Velocity S-wave (km/s) = 3.42683 4.20043 3.83319
# Velocity P-wave (km/s) = 6.51724 7.97497 7.28267
#
# Compressibility (1/GPa) = 0.01806645
#
# Stress axis : x y z
#
# Youngs Moduli (GPa) = 64.90652 27.03718 108.02292
#
# Poissons Ratio (x) = 0.37132 0.17889
# Poissons Ratio (y) = 0.89140 0.69159
# Poissons Ratio (z) = 0.10749 0.17310
#
# Static dielectric constant tensor:
#      x y z
#    x 3.760690 0.191150 0.334920 
#    y 0.191150 4.060630 0.412050 
#    z 0.334920 0.412050 4.429230 
# 
# 
# High freq. dielectric constant tensor:
#      x y z
#    x 1.786990 -0.002000 0.009220 
#    y -0.002000 1.794980 0.018720 
#    z 0.009220 0.018720 1.837220 
# 
# From -- ./inp_files/178305.got.cif
#   From: 2010.06.25/outbox.cif.g09.slc.cpg/sg2_90_cif.got.tgz:178305.got - 2010.06.27 13:26:56.
