data_PCOD8022000
_publ_section_title
;
Structure prediction by ZEFSAII (Michael W. Deem and Ramdas Pophale) SiO2 
 PCOD8022000
Probable space group: P -1
;
_chemical_formula_sum "Si O2"
_cell_formula_units_Z 14
_cell_length_a 8.681154
_cell_length_b 9.479958
_cell_length_c 12.469795
_cell_angle_alpha 67.733254
_cell_angle_beta 72.621485
_cell_angle_gamma 121.415334
_cell_volume 630.553895
_symmetry_space_group_name_H-M "P -1"
_symmetry_group_IT_number 2
_symmetry_cell_setting 'triclinic'
loop_
_space_group_symop_operation_xyz
x,y,z
-x,-y,-z
loop_
_atom_site_type_symbol
_atom_site_label
_atom_site_fract_x
_atom_site_fract_y
_atom_site_fract_z
Si Si1 0.713064 0.032812 0.952981
Si Si2 0.403507 0.730644 0.378585
Si Si3 0.103558 0.400390 0.915530
Si Si4 0.836868 0.208697 0.236298
Si Si5 0.967877 0.800731 0.585132
Si Si6 0.452554 0.379136 0.796071
Si Si7 0.056013 0.712196 0.364738
O O1 0.862551 0.112594 0.790573
O O2 0.858401 0.208376 0.966251
O O3 0.500000 0.000000 0.000000
O O4 0.647870 0.816067 0.049253
O O5 0.537712 0.680113 0.310189
O O6 0.256616 0.718143 0.319427
O O7 0.194901 0.522889 0.556705
O O8 0.588721 0.964024 0.330218
O O9 0.201185 0.635036 0.802043
O O10 0.290991 0.415619 0.822091
O O11 0.048131 0.325672 0.074033
O O12 0.893913 0.175621 0.349726
O O13 0.701057 0.594506 0.726212
O O14 0.048452 0.772500 0.468383
O O15 0.000000 0.000000 0.500000
#
# Coordination Sequence:
#
# PCOD8022000 Si02
#       7
#     2   2   2   2   2   2   2
#     4  12  22  44  76 102 135 185 238 285 340 418
#     4  10  22  44  72 100 138 185 234 282 346 417
#     4  11  26  42  73 109 138 181 234 294 347 399
#     4  11  25  47  70 102 146 183 229 286 354 417
#     4  11  28  47  68 105 144 184 230 287 352 415
#     4  11  24  46  71 102 137 181 242 283 339 412
#     4  10  24  43  71 104 138 184 234 280 348 416
#
# _framework density 22.202701999999999
#
# number of rings (size 3 to 8) (size 9 to 14) (size 15 to 20)
#    0.000    1.143    2.857    1.286    8.000    3.429 
#    0.000    2.857    0.000    0.000    0.000    0.000 
#    0.000    0.000    0.000    0.000    0.000    0.000 
#
# Total GULP energy -173508.813800 kJ/mol
# GULP energy per Si atom -12393.486700 kJ/mol
# Density = 2.215217 g / cm^3
# Si number density = 22.202702 Si / 1000 Ang^3
#
#
#
# Elastic Constant Matrix: (Units=GPa)
#
#
# Indices 1 2 3 4 5 6 
#
# 1 114.4208 70.7934 50.4556 -7.6567 -8.8086 -9.1310
# 2 70.7934 148.1291 74.2931 -30.0932 0.6293 -3.1674
# 3 50.4556 74.2931 141.1291 -17.1503 14.0707 12.3249
# 4 -7.6567 -30.0932 -17.1503 41.2081 2.6095 -6.2646
# 5 -8.8086 0.6293 14.0707 2.6095 32.5033 1.9511
# 6 -9.1310 -3.1674 12.3249 -6.2646 1.9511 33.4475
#
#
#
# Elastic Compliance Matrix: (Units=1/GPa)
#
#
# Indices 1 2 3 4 5 6 
#
# 1 0.014203 -0.005596 -0.003312 -0.002593 0.005373 0.003769
# 2 -0.005596 0.013020 -0.004137 0.007189 -0.000712 0.002618
# 3 -0.003312 -0.004137 0.011537 0.000745 -0.005567 -0.005083
# 4 -0.002593 0.007189 0.000745 0.030452 -0.003947 0.005632
# 5 0.005373 -0.000712 -0.005567 -0.003947 0.034922 0.000674
# 6 0.003769 0.002618 -0.005083 0.005632 0.000674 0.034063
#
#
# Mechanical properties :
#
#
# Convention : Reuss Voigt Hill
#
# Bulk Modulus (GPa) = 78.92766 88.30701 83.61734
# Shear Modulus (GPa) = 29.67166 35.30757 32.48961
#
# Velocity S-wave (km/s) = 3.65964 3.99210 3.82948
# Velocity P-wave (km/s) = 7.31322 7.81720 7.56941
#
# Compressibility (1/GPa) = 0.01266983
#
# Stress axis : x y z
#
# Youngs Moduli (GPa) = 70.40597 76.80585 86.67674
#
# Poissons Ratio (x) = 0.42980 0.28708
# Poissons Ratio (y) = 0.39399 0.35860
# Poissons Ratio (z) = 0.23319 0.31776
#
# Static dielectric constant tensor:
#      x y z
#    x 3.926580 -0.026160 -0.034160 
#    y -0.026160 4.132240 -0.200210 
#    z -0.034160 -0.200210 4.340830 
# 
# 
# High freq. dielectric constant tensor:
#      x y z
#    x 1.868470 -0.004830 -0.007610 
#    y -0.004830 1.878430 -0.013420 
#    z -0.007610 -0.013420 1.895570 
# 
# From -- ./inp_files/158951.got.cif
#   From: 2010.06.25/outbox.cif.g09.slc.cpg/sg2_80_cif.got.tgz:158951.got - 2010.06.27 13:26:56.
