data_PCOD8022726
_publ_section_title
;
Structure prediction by ZEFSAII (Michael W. Deem and Ramdas Pophale) SiO2 
 PCOD8022726
Probable space group: P -1
;
_chemical_formula_sum "Si O2"
_cell_formula_units_Z 16
_cell_length_a 10.006271
_cell_length_b 12.235851
_cell_length_c 15.648215
_cell_angle_alpha 131.519030
_cell_angle_beta 135.662449
_cell_angle_gamma 35.802491
_cell_volume 767.071825
_symmetry_space_group_name_H-M "P -1"
_symmetry_group_IT_number 2
_symmetry_cell_setting 'triclinic'
loop_
_space_group_symop_operation_xyz
x,y,z
-x,-y,-z
loop_
_atom_site_type_symbol
_atom_site_label
_atom_site_fract_x
_atom_site_fract_y
_atom_site_fract_z
Si Si1 0.268059 0.915059 0.680168
Si Si2 0.996934 0.371791 0.119592
Si Si3 0.295321 0.799914 0.447986
Si Si4 0.553739 0.586535 0.910028
Si Si5 0.118751 0.567154 0.705626
Si Si6 0.460117 0.969900 0.062682
Si Si7 0.689714 0.529763 0.755483
Si Si8 0.336430 0.218998 0.513196
O O1 0.364416 0.839754 0.589585
O O2 0.426528 0.739608 0.727349
O O3 0.318012 0.061408 0.798054
O O4 0.979627 0.014813 0.612177
O O5 0.985422 0.398500 0.229313
O O6 0.078413 0.485203 0.174230
O O7 0.729422 0.457785 0.003375
O O8 0.193023 0.150433 0.070418
O O9 0.301503 0.623521 0.373109
O O10 0.496227 0.747253 0.443234
O O11 0.314656 0.601409 0.809202
O O12 0.711672 0.485733 0.843366
O O13 0.466361 0.795276 0.987196
O O14 0.238161 0.352895 0.621412
O O15 0.894355 0.720361 0.618646
O O16 0.500000 0.000000 0.000000
O O17 0.500000 0.000000 0.500000
#
# Coordination Sequence:
#
# PCOD8022726 Si02
#       8
#     2   2   2   2   2   2   2   2
#     4  10  23  38  64 102 129 162 215 279 322 387
#     4  11  25  43  67  99 137 174 215 276 329 390
#     4  11  23  41  66  97 128 168 219 271 331 385
#     4  12  24  42  70  98 130 180 220 266 327 396
#     4  11  27  47  64 100 135 173 226 269 328 395
#     4  11  23  40  66  98 135 169 219 271 325 387
#     4  11  22  40  69  97 129 169 217 269 328 386
#     4  11  26  44  71  91 134 181 219 271 330 393
#
# _framework density 20.858540999999999
#
# number of rings (size 3 to 8) (size 9 to 14) (size 15 to 20)
#    0.000    1.000    3.750    3.375    3.500    5.500 
#    0.000    0.000    0.000    0.000    0.000    0.000 
#    0.000    0.000    0.000    0.000    0.000    0.000 
#
# Total GULP energy -198485.175933 kJ/mol
# GULP energy per Si atom -12405.323496 kJ/mol
# Density = 2.081107 g / cm^3
# Si number density = 20.858541 Si / 1000 Ang^3
#
#
#
# Elastic Constant Matrix: (Units=GPa)
#
#
# Indices 1 2 3 4 5 6 
#
# 1 84.7353 16.5041 40.1681 5.0856 -5.6674 -20.6572
# 2 16.5041 77.7060 46.3151 3.2030 -9.0235 -11.7722
# 3 40.1681 46.3151 145.3262 4.8580 -2.4936 -8.5397
# 4 5.0856 3.2030 4.8580 35.6897 -6.0897 2.3194
# 5 -5.6674 -9.0235 -2.4936 -6.0897 39.8046 4.5035
# 6 -20.6572 -11.7722 -8.5397 2.3194 4.5035 25.9380
#
#
#
# Elastic Compliance Matrix: (Units=1/GPa)
#
#
# Indices 1 2 3 4 5 6 
#
# 1 0.016844 0.000965 -0.004123 -0.002658 0.000522 0.012643
# 2 0.000965 0.017144 -0.005276 -0.000891 0.002833 0.006400
# 3 -0.004123 -0.005276 0.009556 -0.000251 -0.000958 -0.002343
# 4 -0.002658 -0.000891 -0.000251 0.029697 0.004633 -0.006064
# 5 0.000522 0.002833 -0.000958 0.004633 0.026907 -0.003700
# 6 0.012643 0.006400 -0.002343 -0.006064 -0.003700 0.051940
#
#
# Mechanical properties :
#
#
# Convention : Reuss Voigt Hill
#
# Bulk Modulus (GPa) = 37.48467 57.08246 47.28357
# Shear Modulus (GPa) = 28.11385 33.93847 31.02616
#
# Velocity S-wave (km/s) = 3.67527 4.03808 3.86094
# Velocity P-wave (km/s) = 6.00167 7.01194 6.52638
#
# Compressibility (1/GPa) = 0.02667757
#
# Stress axis : x y z
#
# Youngs Moduli (GPa) = 59.36713 58.32940 104.64292
#
# Poissons Ratio (x) = -0.05629 0.43140
# Poissons Ratio (y) = -0.05730 0.55210
# Poissons Ratio (z) = 0.24475 0.30775
#
# Static dielectric constant tensor:
#      x y z
#    x 3.636930 -0.113110 -0.040520 
#    y -0.113110 3.823920 0.015730 
#    z -0.040520 0.015730 4.107160 
# 
# 
# High freq. dielectric constant tensor:
#      x y z
#    x 1.807710 -0.012110 -0.000940 
#    y -0.012110 1.820040 0.000810 
#    z -0.000940 0.000810 1.840740 
# 
# From -- ./inp_files/452580.got.cif
#   From: 2010.06.25/outbox.cif.g09.slc.cpg/sg2_227_cif.got.tgz:452580.got - 2010.06.27 13:26:56.
