data_PCOD8022094
_publ_section_title
;
Structure prediction by ZEFSAII (Michael W. Deem and Ramdas Pophale) SiO2 
 PCOD8022094
Probable space group: P -1
;
_chemical_formula_sum "Si O2"
_cell_formula_units_Z 12
_cell_length_a 10.921996
_cell_length_b 8.908987
_cell_length_c 7.475066
_cell_angle_alpha 117.096939
_cell_angle_beta 127.203100
_cell_angle_gamma 95.719497
_cell_volume 437.685240
_symmetry_space_group_name_H-M "P -1"
_symmetry_group_IT_number 2
_symmetry_cell_setting 'triclinic'
loop_
_space_group_symop_operation_xyz
x,y,z
-x,-y,-z
loop_
_atom_site_type_symbol
_atom_site_label
_atom_site_fract_x
_atom_site_fract_y
_atom_site_fract_z
Si Si1 0.669551 0.429908 0.643972
Si Si2 0.257077 0.767149 0.083543
Si Si3 0.961503 0.774453 0.646672
Si Si4 0.179773 0.206503 0.804652
Si Si5 0.463728 0.794847 0.935322
Si Si6 0.278033 0.148604 0.265407
O O1 0.750824 0.333439 0.791075
O O2 0.681567 0.380559 0.421226
O O3 0.458829 0.342964 0.458658
O O4 0.786102 0.670151 0.911392
O O5 0.334089 0.000878 0.323672
O O6 0.380322 0.747688 0.033081
O O7 0.051100 0.666535 0.767270
O O8 0.858046 0.667557 0.313171
O O9 0.814952 0.782241 0.641764
O O10 0.136492 0.011329 0.902444
O O11 0.351723 0.200783 0.890257
O O12 0.000000 0.000000 0.500000
O O13 0.500000 0.000000 0.000000
#
# Coordination Sequence:
#
# PCOD8022094 Si02
#       6
#     2   2   2   2   2   2
#     4  12  25  44  76 106 141 194 240 289 358 430
#     4  10  22  44  75 109 144 178 242 288 359 432
#     4   9  21  41  71 103 147 188 222 296 361 420
#     4  12  27  48  65 102 151 190 243 298 355 418
#     4  12  25  44  78 105 144 187 235 299 359 426
#     4   9  19  41  71 106 140 183 232 284 357 430
#
# _framework density 27.416962999999999
#
# number of rings (size 3 to 8) (size 9 to 14) (size 15 to 20)
#    1.000    0.333    1.667    4.000    2.333    3.333 
#    0.000    6.667    0.000    0.000    0.000    0.000 
#    0.000    0.000    0.000    0.000    0.000    0.000 
#
# Total GULP energy -148740.852788 kJ/mol
# GULP energy per Si atom -12395.071066 kJ/mol
# Density = 2.735456 g / cm^3
# Si number density = 27.416963 Si / 1000 Ang^3
#
#
#
# Elastic Constant Matrix: (Units=GPa)
#
#
# Indices 1 2 3 4 5 6 
#
# 1 106.5162 16.4535 26.9839 -13.6343 -2.1559 -30.1175
# 2 16.4535 103.2305 59.4072 -12.2803 13.2361 -7.0441
# 3 26.9839 59.4072 150.8207 -23.8923 -21.2115 -10.0543
# 4 -13.6343 -12.2803 -23.8923 51.6629 0.4945 1.7478
# 5 -2.1559 13.2361 -21.2115 0.4945 38.4557 -0.8200
# 6 -30.1175 -7.0441 -10.0543 1.7478 -0.8200 25.4329
#
#
#
# Elastic Compliance Matrix: (Units=1/GPa)
#
#
# Indices 1 2 3 4 5 6 
#
# 1 0.014842 -0.000587 -0.000702 0.002869 0.000972 0.016970
# 2 -0.000587 0.015052 -0.007038 0.000242 -0.009091 0.000381
# 3 -0.000702 -0.007038 0.011381 0.003262 0.008657 0.001774
# 4 0.002869 0.000242 0.003262 0.021551 0.001671 0.003328
# 5 0.000972 -0.009091 0.008657 0.001671 0.034005 0.003037
# 6 0.016970 0.000381 0.001774 0.003328 0.003037 0.060091
#
#
# Mechanical properties :
#
#
# Convention : Reuss Voigt Hill
#
# Bulk Modulus (GPa) = 40.61759 62.91738 51.76748
# Shear Modulus (GPa) = 27.50540 40.29184 33.89862
#
# Velocity S-wave (km/s) = 3.17081 3.83769 3.52008
# Velocity P-wave (km/s) = 5.31529 6.52957 5.95347
#
# Compressibility (1/GPa) = 0.02461988
#
# Stress axis : x y z
#
# Youngs Moduli (GPa) = 67.37684 66.43855 87.86753
#
# Poissons Ratio (x) = 0.03901 0.06164
# Poissons Ratio (y) = 0.03956 0.61845
# Poissons Ratio (z) = 0.04727 0.46762
#
# Static dielectric constant tensor:
#      x y z
#    x 4.818510 0.294110 -0.434120 
#    y 0.294110 6.073080 -0.868420 
#    z -0.434120 -0.868420 5.959700 
# 
# 
# High freq. dielectric constant tensor:
#      x y z
#    x 2.080890 -0.000050 -0.002250 
#    y -0.000050 2.142550 -0.021030 
#    z -0.002250 -0.021030 2.133430 
# 
# From -- ./inp_files/245727.got.cif
#   From: 2010.06.25/outbox.cif.g09.slc.cpg/sg2_123_cif.got.tgz:245727.got - 2010.06.27 13:26:56.
