data_PCOD8022436
_publ_section_title
;
Structure prediction by ZEFSAII (Michael W. Deem and Ramdas Pophale) SiO2 
 PCOD8022436
Probable space group: P -1
;
_chemical_formula_sum "Si O2"
_cell_formula_units_Z 12
_cell_length_a 15.090660
_cell_length_b 8.126300
_cell_length_c 7.229036
_cell_angle_alpha 118.044516
_cell_angle_beta 130.560182
_cell_angle_gamma 56.015342
_cell_volume 550.389525
_symmetry_space_group_name_H-M "P -1"
_symmetry_group_IT_number 2
_symmetry_cell_setting 'triclinic'
loop_
_space_group_symop_operation_xyz
x,y,z
-x,-y,-z
loop_
_atom_site_type_symbol
_atom_site_label
_atom_site_fract_x
_atom_site_fract_y
_atom_site_fract_z
Si Si1 0.748778 0.212287 0.308271
Si Si2 0.273660 0.425101 0.097370
Si Si3 0.322409 0.345016 0.515325
Si Si4 0.482230 0.209738 0.995712
Si Si5 0.835628 0.833702 0.994147
Si Si6 0.077437 0.828972 0.156857
O O1 0.845169 0.101306 0.546896
O O2 0.017005 0.247574 0.897028
O O3 0.784577 0.071569 0.100353
O O4 0.607484 0.253428 0.206405
O O5 0.360887 0.385849 0.380630
O O6 0.174212 0.652002 0.072074
O O7 0.364046 0.383229 0.022397
O O8 0.193683 0.279148 0.925911
O O9 0.444896 0.215474 0.731659
O O10 0.246526 0.569021 0.616972
O O11 0.233713 0.214256 0.306214
O O12 0.500000 0.000000 0.000000
O O13 0.000000 0.000000 0.000000
#
# Coordination Sequence:
#
# PCOD8022436 Si02
#       6
#     2   2   2   2   2   2
#     4  11  24  43  70  98 136 182 219 281 340 399
#     4   9  23  44  68  97 133 181 212 284 332 392
#     4   9  24  43  66  99 136 180 214 281 337 396
#     4  12  23  43  70 106 133 172 236 269 345 405
#     4  10  22  46  67  93 140 177 223 272 342 393
#     4  11  25  43  68 103 132 179 233 274 332 406
#
# _framework density 21.80274
#
# number of rings (size 3 to 8) (size 9 to 14) (size 15 to 20)
#    1.000    0.667    1.667    1.500    4.667    5.333 
#    0.000    1.667    0.000    0.000    0.000    0.000 
#    0.000    0.000    0.000    0.000    0.000    0.000 
#
# Total GULP energy -148686.326753 kJ/mol
# GULP energy per Si atom -12390.527229 kJ/mol
# Density = 2.175312 g / cm^3
# Si number density = 21.802740 Si / 1000 Ang^3
#
#
#
# Elastic Constant Matrix: (Units=GPa)
#
#
# Indices 1 2 3 4 5 6 
#
# 1 97.2730 26.1206 48.4192 -2.3295 21.9209 -20.0613
# 2 26.1206 120.7221 59.5927 9.6411 -9.2029 -18.0207
# 3 48.4192 59.5927 167.6053 -3.4659 11.7692 5.0810
# 4 -2.3295 9.6411 -3.4659 45.5743 3.3898 -9.3747
# 5 21.9209 -9.2029 11.7692 3.3898 31.2120 -6.9488
# 6 -20.0613 -18.0207 5.0810 -9.3747 -6.9488 28.8971
#
#
#
# Elastic Compliance Matrix: (Units=1/GPa)
#
#
# Indices 1 2 3 4 5 6 
#
# 1 0.016901 -0.000828 -0.004258 0.003629 -0.008427 0.011117
# 2 -0.000828 0.013685 -0.005639 -0.001882 0.009302 0.010577
# 3 -0.004258 -0.005639 0.009795 0.000155 -0.004433 -0.009211
# 4 0.003629 -0.001882 0.000155 0.024546 -0.003974 0.008325
# 5 -0.008427 0.009302 -0.004433 -0.003974 0.045093 0.010284
# 6 0.011117 0.010577 -0.009211 0.008325 0.010284 0.055713
#
#
# Mechanical properties :
#
#
# Convention : Reuss Voigt Hill
#
# Bulk Modulus (GPa) = 52.82492 72.65170 62.73831
# Shear Modulus (GPa) = 25.84067 37.90120 31.87094
#
# Velocity S-wave (km/s) = 3.44641 4.17390 3.82748
# Velocity P-wave (km/s) = 6.33389 7.52484 6.95490
#
# Compressibility (1/GPa) = 0.01893046
#
# Stress axis : x y z
#
# Youngs Moduli (GPa) = 59.16813 73.07473 102.08848
#
# Poissons Ratio (x) = 0.06047 0.43474
# Poissons Ratio (y) = 0.04896 0.57571
# Poissons Ratio (z) = 0.25197 0.41209
#
# Static dielectric constant tensor:
#      x y z
#    x 3.800310 -0.120600 0.043980 
#    y -0.120600 3.844980 0.171070 
#    z 0.043980 0.171070 3.956250 
# 
# 
# High freq. dielectric constant tensor:
#      x y z
#    x 1.835600 -0.009200 0.003560 
#    y -0.009200 1.859450 0.006650 
#    z 0.003560 0.006650 1.856570 
# 
# From -- ./inp_files/325206.got.cif
#   From: 2010.06.25/outbox.cif.g09.slc.cpg/sg2_163_cif.got.tgz:325206.got - 2010.06.27 13:26:56.
