data_PCOD8022855
_publ_section_title
;
Structure prediction by ZEFSAII (Michael W. Deem and Ramdas Pophale) SiO2 
 PCOD8022855
Probable space group: P -1
;
_chemical_formula_sum "Si O2"
_cell_formula_units_Z 14
_cell_length_a 9.750766
_cell_length_b 15.990609
_cell_length_c 10.428966
_cell_angle_alpha 142.844212
_cell_angle_beta 44.015430
_cell_angle_gamma 139.507801
_cell_volume 610.678353
_symmetry_space_group_name_H-M "P -1"
_symmetry_group_IT_number 2
_symmetry_cell_setting 'triclinic'
loop_
_space_group_symop_operation_xyz
x,y,z
-x,-y,-z
loop_
_atom_site_type_symbol
_atom_site_label
_atom_site_fract_x
_atom_site_fract_y
_atom_site_fract_z
Si Si1 0.034150 0.193950 0.010511
Si Si2 0.758887 0.269991 0.746011
Si Si3 0.629644 0.696719 0.861193
Si Si4 0.028750 0.563323 0.791674
Si Si5 0.249461 0.716652 0.514726
Si Si6 0.516528 0.350364 0.505108
Si Si7 0.102531 0.151412 0.383722
O O1 0.255593 0.257523 0.022064
O O2 0.060396 0.308458 0.013144
O O3 0.831086 0.178874 0.218933
O O4 0.982387 0.030257 0.785718
O O5 0.917524 0.457441 0.861257
O O6 0.662911 0.205293 0.588128
O O7 0.897283 0.184543 0.602402
O O8 0.557060 0.241278 0.941917
O O9 0.506472 0.512537 0.706886
O O10 0.807101 0.770954 0.720239
O O11 0.959777 0.450936 0.574847
O O12 0.294456 0.642438 0.713007
O O13 0.441068 0.694888 0.435597
O O14 0.286126 0.217938 0.450480
#
# Coordination Sequence:
#
# PCOD8022855 Si02
#       7
#     2   2   2   2   2   2   2
#     4  11  20  39  66  90 125 163 206 253 314 357
#     4  10  23  39  66  95 118 159 222 254 289 374
#     4  12  21  39  70  87 120 173 208 244 313 363
#     4   9  18  39  65  93 114 157 216 255 283 376
#     4   9  18  39  65  93 114 157 216 255 283 376
#     4  11  20  39  66  90 125 163 206 253 314 357
#     4  12  26  39  59  97 135 157 194 266 315 370
#
# _framework density 22.925325999999998
#
# number of rings (size 3 to 8) (size 9 to 14) (size 15 to 20)
#    0.857    0.571    5.714    1.714    0.000    5.714 
#    0.000    0.000    0.000    3.429    0.000    0.000 
#    0.000    0.000    0.000    0.000    0.000    0.000 
#
# Total GULP energy -173549.282244 kJ/mol
# GULP energy per Si atom -12396.377303 kJ/mol
# Density = 2.287315 g / cm^3
# Si number density = 22.925326 Si / 1000 Ang^3
#
#
#
# Elastic Constant Matrix: (Units=GPa)
#
#
# Indices 1 2 3 4 5 6 
#
# 1 64.1425 18.8901 66.0681 21.0804 -22.6013 6.9632
# 2 18.8901 33.5666 45.1053 19.2407 -3.6854 15.1517
# 3 66.0681 45.1053 38.2484 -15.1383 -37.5960 28.3610
# 4 21.0804 19.2407 -15.1383 33.7915 4.8283 1.0425
# 5 -22.6013 -3.6854 -37.5960 4.8283 29.8504 -7.0948
# 6 6.9632 15.1517 28.3610 1.0425 -7.0948 19.2625
#
#
#
# Elastic Compliance Matrix: (Units=1/GPa)
#
#
# Indices 1 2 3 4 5 6 
#
# 1 0.023452 -0.024499 0.008165 -0.001202 0.027326 0.008900
# 2 -0.024499 0.050995 0.014246 -0.004772 -0.006457 -0.054351
# 3 0.008165 0.014246 -0.005642 -0.015957 0.002445 -0.004086
# 4 -0.001202 -0.004772 -0.015957 0.028485 -0.021909 0.018070
# 5 0.027326 -0.006457 0.002445 -0.021909 0.063895 0.016321
# 6 0.008900 -0.054351 -0.004086 0.018070 0.016321 0.102498
#
#
# Mechanical properties :
#
#
# Convention : Reuss Voigt Hill
#
# Bulk Modulus (GPa) = 15.47253 44.00938 29.74095
# Shear Modulus (GPa) = 17.27707 16.97380 17.12544
#
# Velocity S-wave (km/s) = 2.74820 2.72397 2.73611
# Velocity P-wave (km/s) = 4.10291 5.39740 4.79405
#
# Compressibility (1/GPa) = 0.06463067
#
# Stress axis : x y z
#
# Youngs Moduli (GPa) = 42.63985 19.60974 -177.22696
#
# Poissons Ratio (x) = 0.48041 1.44713
# Poissons Ratio (y) = 1.04462 2.52479
# Poissons Ratio (z) = -0.34817 -0.27936
#
# Static dielectric constant tensor:
#      x y z
#    x 3.984660 0.038680 -0.173160 
#    y 0.038680 3.681260 0.030760 
#    z -0.173160 0.030760 3.934400 
# 
# 
# High freq. dielectric constant tensor:
#      x y z
#    x 1.901210 0.006620 -0.017900 
#    y 0.006620 1.871690 -0.001340 
#    z -0.017900 -0.001340 1.898370 
# 
# From -- ./inp_files/402416.got.cif
#   From: 2010.06.25/outbox.cif.g09.slc.cpg/sg2_202_cif.got.tgz:402416.got - 2010.06.27 13:26:56.
