data_PCOD8022044
_publ_section_title
;
Structure prediction by ZEFSAII (Michael W. Deem and Ramdas Pophale) SiO2 
 PCOD8022044
Probable space group: P -1
;
_chemical_formula_sum "Si O2"
_cell_formula_units_Z 16
_cell_length_a 15.397012
_cell_length_b 9.004415
_cell_length_c 8.513125
_cell_angle_alpha 105.698700
_cell_angle_beta 99.153005
_cell_angle_gamma 39.139747
_cell_volume 714.702359
_symmetry_space_group_name_H-M "P -1"
_symmetry_group_IT_number 2
_symmetry_cell_setting 'triclinic'
loop_
_space_group_symop_operation_xyz
x,y,z
-x,-y,-z
loop_
_atom_site_type_symbol
_atom_site_label
_atom_site_fract_x
_atom_site_fract_y
_atom_site_fract_z
Si Si1 0.956261 0.679553 0.267467
Si Si2 0.265776 0.176480 0.145597
Si Si3 0.235835 0.919005 0.920781
Si Si4 0.875338 0.068703 0.547767
Si Si5 0.529583 0.848868 0.327382
Si Si6 0.603434 0.436192 0.390541
Si Si7 0.142264 0.792947 0.065157
Si Si8 0.773609 0.643698 0.132680
O O1 0.891087 0.593997 0.233087
O O2 0.122831 0.443744 0.243703
O O3 0.906670 0.838349 0.141167
O O4 0.908489 0.842955 0.454070
O O5 0.398779 0.054902 0.238449
O O6 0.297972 0.156790 0.963703
O O7 0.259343 0.999799 0.098618
O O8 0.356391 0.751199 0.776518
O O9 0.241414 0.744311 0.955022
O O10 0.738680 0.310265 0.487081
O O11 0.855256 0.126082 0.742663
O O12 0.000000 0.000000 0.500000
O O13 0.535422 0.668543 0.343631
O O14 0.670799 0.715355 0.251954
O O15 0.500000 0.000000 0.500000
O O16 0.500000 0.500000 0.500000
O O17 0.172643 0.571318 0.018992
O O18 0.000000 0.000000 0.000000
#
# Coordination Sequence:
#
# PCOD8022044 Si02
#       8
#     2   2   2   2   2   2   2   2
#     4  10  23  47  74 105 142 185 228 293 359 419
#     4  11  24  45  72 102 141 188 233 286 358 419
#     4  10  22  44  73 102 133 178 246 290 346 415
#     4  11  26  45  77 103 140 183 239 290 358 411
#     4  12  30  44  68 102 146 186 237 285 351 431
#     4  11  27  50  70  99 142 189 234 291 354 419
#     4  12  23  40  73 107 136 177 236 300 345 412
#     4  11  24  47  71 104 146 182 233 296 355 416
#
# _framework density 22.386939999999999
#
# number of rings (size 3 to 8) (size 9 to 14) (size 15 to 20)
#    0.000    1.000    1.250    5.625   10.500    1.500 
#    0.000    1.875    0.000    0.000    0.000    0.000 
#    0.000    0.000    0.000    0.000    0.000    0.000 
#
# Total GULP energy -198275.784066 kJ/mol
# GULP energy per Si atom -12392.236504 kJ/mol
# Density = 2.233599 g / cm^3
# Si number density = 22.386940 Si / 1000 Ang^3
#
#
#
# Elastic Constant Matrix: (Units=GPa)
#
#
# Indices 1 2 3 4 5 6 
#
# 1 120.6690 34.1337 42.1143 7.2388 -11.9975 -0.0119
# 2 34.1337 69.3775 29.1812 6.8747 -3.1942 -2.2291
# 3 42.1143 29.1812 146.1182 19.1962 10.8318 -2.3867
# 4 7.2388 6.8747 19.1962 33.9089 2.6719 7.6501
# 5 -11.9975 -3.1942 10.8318 2.6719 48.1752 5.2204
# 6 -0.0119 -2.2291 -2.3867 7.6501 5.2204 35.7343
#
#
#
# Elastic Compliance Matrix: (Units=1/GPa)
#
#
# Indices 1 2 3 4 5 6 
#
# 1 0.010603 -0.004056 -0.002472 -0.000091 0.003023 -0.000837
# 2 -0.004056 0.017549 -0.002120 -0.001822 0.000595 0.001255
# 3 -0.002472 -0.002120 0.008756 -0.004180 -0.002681 0.001738
# 4 -0.000091 -0.001822 -0.004180 0.033988 -0.000262 -0.007631
# 5 0.003023 0.000595 -0.002681 -0.000262 0.022533 -0.003377
# 6 -0.000837 0.001255 0.001738 -0.007631 -0.003377 0.030305
#
#
# Mechanical properties :
#
#
# Convention : Reuss Voigt Hill
#
# Bulk Modulus (GPa) = 50.98631 60.78034 55.88333
# Shear Modulus (GPa) = 33.88266 38.94605 36.41436
#
# Velocity S-wave (km/s) = 3.89459 4.17547 4.03747
# Velocity P-wave (km/s) = 6.56112 7.10316 6.83751
#
# Compressibility (1/GPa) = 0.01961311
#
# Stress axis : x y z
#
# Youngs Moduli (GPa) = 94.31287 56.98237 114.20804
#
# Poissons Ratio (x) = 0.23110 0.28230
# Poissons Ratio (y) = 0.38250 0.24213
# Poissons Ratio (z) = 0.23312 0.12081
#
# Static dielectric constant tensor:
#      x y z
#    x 3.756240 0.060630 0.265810 
#    y 0.060630 4.249410 -0.073130 
#    z 0.265810 -0.073130 4.330570 
# 
# 
# High freq. dielectric constant tensor:
#      x y z
#    x 1.887140 0.008030 0.003780 
#    y 0.008030 1.879560 0.011200 
#    z 0.003780 0.011200 1.892530 
# 
# From -- ./inp_files/299235.got.cif
#   From: 2010.06.25/outbox.cif.g09.slc.cpg/sg2_150_cif.got.tgz:299235.got - 2010.06.27 13:26:56.
