data_PCOD8022029
_publ_section_title
;
Structure prediction by ZEFSAII (Michael W. Deem and Ramdas Pophale) SiO2 
 PCOD8022029
Probable space group: P -1
;
_chemical_formula_sum "Si O2"
_cell_formula_units_Z 16
_cell_length_a 11.485608
_cell_length_b 16.337523
_cell_length_c 8.803007
_cell_angle_alpha 60.368234
_cell_angle_beta 95.910451
_cell_angle_gamma 45.219273
_cell_volume 695.041193
_symmetry_space_group_name_H-M "P -1"
_symmetry_group_IT_number 2
_symmetry_cell_setting 'triclinic'
loop_
_space_group_symop_operation_xyz
x,y,z
-x,-y,-z
loop_
_atom_site_type_symbol
_atom_site_label
_atom_site_fract_x
_atom_site_fract_y
_atom_site_fract_z
Si Si1 0.846053 0.752624 0.784560
Si Si2 0.756876 0.622996 0.302890
Si Si3 0.510980 0.519421 0.656978
Si Si4 0.318311 0.340190 0.153411
Si Si5 0.115991 0.657981 0.510147
Si Si6 0.454862 0.771593 0.407646
Si Si7 0.019200 0.205220 0.972822
Si Si8 0.368720 0.965577 0.736710
O O1 0.790658 0.684949 0.886961
O O2 0.855382 0.806441 0.891021
O O3 0.647225 0.933940 0.473657
O O4 0.110619 0.566497 0.907203
O O5 0.826723 0.492652 0.307059
O O6 0.617849 0.668596 0.376768
O O7 0.000000 0.500000 0.500000
O O8 0.578097 0.827859 0.019116
O O9 0.500000 0.500000 0.500000
O O10 0.342897 0.562153 0.681912
O O11 0.407686 0.696081 0.509215
O O12 0.790928 0.321094 0.927028
O O13 0.405905 0.273840 0.398080
O O14 0.552292 0.183396 0.215703
O O15 0.888903 0.863239 0.376733
O O16 0.068682 0.687618 0.294966
O O17 0.195239 0.998068 0.141041
#
# Coordination Sequence:
#
# PCOD8022029 Si02
#       8
#     2   2   2   2   2   2   2   2
#     4  11  24  44  68  98 137 184 227 273 335 403
#     4  12  28  42  67 103 142 174 218 278 345 401
#     4  10  22  44  72  98 131 174 234 291 326 387
#     4  11  25  42  70  97 137 182 229 272 330 415
#     4  11  25  45  68 102 133 178 223 289 341 380
#     4  12  23  44  72 103 128 182 233 272 335 405
#     4  11  22  42  74  99 129 175 237 279 326 400
#     4  12  26  43  65 100 142 175 218 275 343 407
#
# _framework density 23.020219999999998
#
# number of rings (size 3 to 8) (size 9 to 14) (size 15 to 20)
#    0.000    0.750    6.250    1.125    7.000    3.500 
#    0.000    1.250    0.000    0.000    0.000    0.000 
#    0.000    0.000    0.000    0.000    0.000    0.000 
#
# Total GULP energy -198273.144951 kJ/mol
# GULP energy per Si atom -12392.071559 kJ/mol
# Density = 2.296782 g / cm^3
# Si number density = 23.020220 Si / 1000 Ang^3
#
#
#
# Elastic Constant Matrix: (Units=GPa)
#
#
# Indices 1 2 3 4 5 6 
#
# 1 94.6306 24.7104 13.8011 -12.7287 14.2915 9.4665
# 2 24.7104 129.1682 21.7105 -27.3969 2.8228 -1.6583
# 3 13.8011 21.7105 95.7720 -25.4467 4.9182 0.3628
# 4 -12.7287 -27.3969 -25.4467 54.7713 4.2515 0.2998
# 5 14.2915 2.8228 4.9182 4.2515 19.5348 0.5994
# 6 9.4665 -1.6583 0.3628 0.2998 0.5994 29.1926
#
#
#
# Elastic Compliance Matrix: (Units=1/GPa)
#
#
# Indices 1 2 3 4 5 6 
#
# 1 0.013384 -0.001736 -0.000226 0.002936 -0.009992 -0.004261
# 2 -0.001736 0.009039 -0.000752 0.003818 -0.000710 0.001061
# 3 -0.000226 -0.000752 0.012347 0.005623 -0.004056 -0.000097
# 4 0.002936 0.003818 0.005623 0.024193 -0.009354 -0.000862
# 5 -0.009992 -0.000710 -0.004056 -0.009354 0.061597 0.002082
# 6 -0.004261 0.001061 -0.000097 -0.000862 0.002082 0.035665
#
#
# Mechanical properties :
#
#
# Convention : Reuss Voigt Hill
#
# Bulk Modulus (GPa) = 34.07997 48.89053 41.48525
# Shear Modulus (GPa) = 29.16584 37.98965 33.57774
#
# Velocity S-wave (km/s) = 3.56331 4.06676 3.82333
# Velocity P-wave (km/s) = 5.63614 6.58298 6.12787
#
# Compressibility (1/GPa) = 0.02934275
#
# Stress axis : x y z
#
# Youngs Moduli (GPa) = 74.71675 110.62789 80.98998
#
# Poissons Ratio (x) = 0.19205 0.01828
# Poissons Ratio (y) = 0.12971 0.06091
# Poissons Ratio (z) = 0.01687 0.08320
#
# Static dielectric constant tensor:
#      x y z
#    x 4.138600 -0.218130 0.202780 
#    y -0.218130 4.634490 -0.344810 
#    z 0.202780 -0.344810 4.403110 
# 
# 
# High freq. dielectric constant tensor:
#      x y z
#    x 1.871890 -0.005600 0.003450 
#    y -0.005600 1.935810 -0.020120 
#    z 0.003450 -0.020120 1.920860 
# 
# From -- ./inp_files/272598.got.cif
#   From: 2010.06.25/outbox.cif.g09.slc.cpg/sg2_137_cif.got.tgz:272598.got - 2010.06.27 13:26:56.
