data_PCOD8022351
_publ_section_title
;
Structure prediction by ZEFSAII (Michael W. Deem and Ramdas Pophale) SiO2 
 PCOD8022351
Probable space group: P -1
;
_chemical_formula_sum "Si O2"
_cell_formula_units_Z 16
_cell_length_a 11.731286
_cell_length_b 5.224533
_cell_length_c 23.863220
_cell_angle_alpha 98.003993
_cell_angle_beta 32.005050
_cell_angle_gamma 113.498229
_cell_volume 648.649270
_symmetry_space_group_name_H-M "P -1"
_symmetry_group_IT_number 2
_symmetry_cell_setting 'triclinic'
loop_
_space_group_symop_operation_xyz
x,y,z
-x,-y,-z
loop_
_atom_site_type_symbol
_atom_site_label
_atom_site_fract_x
_atom_site_fract_y
_atom_site_fract_z
Si Si1 0.916664 0.860359 0.923908
Si Si2 0.659328 0.210612 0.491612
Si Si3 0.782479 0.233458 0.909496
Si Si4 0.090808 0.162309 0.352238
Si Si5 0.108899 0.746301 0.255716
Si Si6 0.511429 0.800741 0.166262
Si Si7 0.484380 0.278228 0.679242
Si Si8 0.363264 0.068262 0.323441
O O1 0.795113 0.516836 0.942608
O O2 0.882250 0.072054 0.901855
O O3 0.780557 0.844157 0.039217
O O4 0.217889 0.019081 0.810916
O O5 0.480694 0.243366 0.611979
O O6 0.808074 0.091095 0.462310
O O7 0.867311 0.532152 0.388614
O O8 0.500000 0.000000 0.500000
O O9 0.957479 0.344520 0.784043
O O10 0.500000 0.000000 0.000000
O O11 0.326155 0.511410 0.274951
O O12 0.098273 0.974301 0.398008
O O13 0.160252 0.077205 0.260381
O O14 0.360557 0.748677 0.168919
O O15 0.550546 0.088433 0.195090
O O16 0.525822 0.606942 0.683243
O O17 0.682900 0.196486 0.621182
#
# Coordination Sequence:
#
# PCOD8022351 Si02
#       8
#     2   2   2   2   2   2   2   2
#     4  12  27  43  69 108 149 188 239 296 357 428
#     4  11  27  47  72 106 147 190 233 295 365 431
#     4  12  24  42  71 107 146 191 239 293 350 430
#     4  10  23  47  74 104 138 191 240 298 353 424
#     4  10  23  41  71 102 142 189 236 291 357 422
#     4  10  22  45  72 106 138 183 241 294 363 414
#     4  12  28  48  71 108 146 191 241 294 357 419
#     4  11  25  50  74 104 143 188 248 295 351 427
#
# _framework density 24.666644000000002
#
# number of rings (size 3 to 8) (size 9 to 14) (size 15 to 20)
#    0.000    1.000    2.500    2.625    8.750    2.500 
#    0.000    0.000    0.000    0.000    0.000    0.000 
#    0.000    0.000    0.000    0.000    0.000    0.000 
#
# Total GULP energy -198291.163151 kJ/mol
# GULP energy per Si atom -12393.197697 kJ/mol
# Density = 2.461050 g / cm^3
# Si number density = 24.666644 Si / 1000 Ang^3
#
#
#
# Elastic Constant Matrix: (Units=GPa)
#
#
# Indices 1 2 3 4 5 6 
#
# 1 105.8195 39.1043 31.7450 15.4614 8.2633 -5.6700
# 2 39.1043 153.5809 44.7897 38.5083 9.3477 7.9951
# 3 31.7450 44.7897 123.6379 15.8506 15.7933 19.3165
# 4 15.4614 38.5083 15.8506 32.2674 13.3033 4.6536
# 5 8.2633 9.3477 15.7933 13.3033 43.2340 10.8394
# 6 -5.6700 7.9951 19.3165 4.6536 10.8394 42.2144
#
#
#
# Elastic Compliance Matrix: (Units=1/GPa)
#
#
# Indices 1 2 3 4 5 6 
#
# 1 0.011426 -0.001759 -0.002415 -0.002237 -0.001112 0.003505
# 2 -0.001759 0.010286 -0.002037 -0.011378 0.002519 -0.000645
# 3 -0.002415 -0.002037 0.010350 -0.000157 -0.001777 -0.004201
# 4 -0.002237 -0.011378 -0.000157 0.050991 -0.012632 -0.000451
# 5 -0.001112 0.002519 -0.001777 -0.012632 0.028792 -0.005814
# 6 0.003505 -0.000645 -0.004201 -0.000451 -0.005814 0.027746
#
#
# Mechanical properties :
#
#
# Convention : Reuss Voigt Hill
#
# Bulk Modulus (GPa) = 50.91856 68.25737 59.58797
# Shear Modulus (GPa) = 31.53375 41.36978 36.45177
#
# Velocity S-wave (km/s) = 3.57935 4.09975 3.84836
# Velocity P-wave (km/s) = 6.14571 7.08114 6.62995
#
# Compressibility (1/GPa) = 0.01963920
#
# Stress axis : x y z
#
# Youngs Moduli (GPa) = 87.51944 97.21736 96.62067
#
# Poissons Ratio (x) = 0.17099 0.23338
# Poissons Ratio (y) = 0.15393 0.19683
# Poissons Ratio (z) = 0.21140 0.19804
#
# Static dielectric constant tensor:
#      x y z
#    x 4.645820 0.044280 0.004590 
#    y 0.044280 4.655250 0.124960 
#    z 0.004590 0.124960 4.601360 
# 
# 
# High freq. dielectric constant tensor:
#      x y z
#    x 1.986180 0.000810 0.009250 
#    y 0.000810 1.987150 0.024070 
#    z 0.009250 0.024070 1.973940 
# 
# From -- ./inp_files/609217.got.cif
#   From: 2010.06.25/outbox.cif.g09.slc.cpg/sg2_305_cif.got.tgz:609217.got - 2010.06.27 13:26:56.
