data_PCOD8022706
_publ_section_title
;
Structure prediction by ZEFSAII (Michael W. Deem and Ramdas Pophale) SiO2 
 PCOD8022706
Probable space group: P -1
;
_chemical_formula_sum "Si O2"
_cell_formula_units_Z 16
_cell_length_a 22.972938
_cell_length_b 14.777500
_cell_length_c 6.584195
_cell_angle_alpha 119.829893
_cell_angle_beta 101.723336
_cell_angle_gamma 28.966079
_cell_volume 782.884065
_symmetry_space_group_name_H-M "P -1"
_symmetry_group_IT_number 2
_symmetry_cell_setting 'triclinic'
loop_
_space_group_symop_operation_xyz
x,y,z
-x,-y,-z
loop_
_atom_site_type_symbol
_atom_site_label
_atom_site_fract_x
_atom_site_fract_y
_atom_site_fract_z
Si Si1 0.938357 0.988470 0.892506
Si Si2 0.370210 0.093911 0.862534
Si Si3 0.400109 0.905719 0.307271
Si Si4 0.697860 0.372594 0.818889
Si Si5 0.123696 0.222827 0.328647
Si Si6 0.430544 0.225933 0.985622
Si Si7 0.124830 0.049840 0.815989
Si Si8 0.055861 0.627546 0.330764
O O1 0.792770 0.229763 0.928556
O O2 0.915988 0.971362 0.074122
O O3 0.056724 0.739391 0.561983
O O4 0.000000 0.000000 0.000000
O O5 0.379857 0.976666 0.600116
O O6 0.512455 0.861102 0.841280
O O7 0.372680 0.202070 0.868076
O O8 0.217537 0.325105 0.129404
O O9 0.260614 0.068499 0.320258
O O10 0.535174 0.610231 0.047676
O O11 0.431806 0.961174 0.263697
O O12 0.697744 0.484100 0.820648
O O13 0.747182 0.199152 0.514239
O O14 0.000000 0.500000 0.500000
O O15 0.066186 0.243986 0.495699
O O16 0.169191 0.083237 0.006578
O O17 0.987130 0.296541 0.852252
#
# Coordination Sequence:
#
# PCOD8022706 Si02
#       8
#     2   2   2   2   2   2   2   2
#     4  10  23  39  64  91 125 167 205 255 312 369
#     4  11  21  38  62  91 129 159 202 260 311 369
#     4  10  23  38  62  89 121 163 206 253 302 364
#     4   9  23  40  60  93 121 160 212 241 316 373
#     4  11  23  43  64  92 125 164 213 256 308 366
#     4   9  23  38  59  94 124 163 204 248 318 372
#     4  10  23  42  62  88 129 159 207 267 301 366
#     4  10  24  40  62  96 123 162 212 253 312 372
#
# _framework density 20.437255
#
# number of rings (size 3 to 8) (size 9 to 14) (size 15 to 20)
#    0.750    1.250    0.000    1.875    5.250    6.500 
#    0.000    5.625    0.000    0.000    0.000    0.000 
#    0.000    0.000    0.000    0.000    0.000    0.000 
#
# Total GULP energy -198290.420189 kJ/mol
# GULP energy per Si atom -12393.151262 kJ/mol
# Density = 2.039074 g / cm^3
# Si number density = 20.437255 Si / 1000 Ang^3
#
#
#
# Elastic Constant Matrix: (Units=GPa)
#
#
# Indices 1 2 3 4 5 6 
#
# 1 72.9222 27.9371 46.3145 -5.4651 8.2505 -18.1857
# 2 27.9371 113.5768 52.3365 -6.9351 6.6532 -0.1846
# 3 46.3145 52.3365 126.5682 -2.7935 16.8832 -18.0081
# 4 -5.4651 -6.9351 -2.7935 32.1131 -2.4640 1.6780
# 5 8.2505 6.6532 16.8832 -2.4640 29.8157 -1.5595
# 6 -18.1857 -0.1846 -18.0081 1.6780 -1.5595 36.5337
#
#
#
# Elastic Compliance Matrix: (Units=1/GPa)
#
#
# Indices 1 2 3 4 5 6 
#
# 1 0.019960 -0.002366 -0.005032 0.001944 -0.001604 0.007286
# 2 -0.002366 0.011490 -0.004395 0.001915 0.000562 -0.003350
# 3 -0.005032 -0.004395 0.012670 -0.001252 -0.004718 0.003574
# 4 0.001944 0.001915 -0.001252 0.032007 0.002336 -0.001010
# 5 -0.001604 0.000562 -0.004718 0.002336 0.036635 -0.001665
# 6 0.007286 -0.003350 0.003574 -0.001010 -0.001665 0.032719
#
#
# Mechanical properties :
#
#
# Convention : Reuss Voigt Hill
#
# Bulk Modulus (GPa) = 48.70033 62.91594 55.80814
# Shear Modulus (GPa) = 28.42339 32.12446 30.27392
#
# Velocity S-wave (km/s) = 3.73334 3.96897 3.85296
# Velocity P-wave (km/s) = 6.51649 7.20107 6.86732
#
# Compressibility (1/GPa) = 0.02053374
#
# Stress axis : x y z
#
# Youngs Moduli (GPa) = 50.10090 87.02957 78.92910
#
# Poissons Ratio (x) = 0.20595 0.39715
# Poissons Ratio (y) = 0.11856 0.34688
# Poissons Ratio (z) = 0.25210 0.38248
#
# Static dielectric constant tensor:
#      x y z
#    x 3.623780 0.222070 0.154330 
#    y 0.222070 3.610570 -0.085270 
#    z 0.154330 -0.085270 3.736940 
# 
# 
# High freq. dielectric constant tensor:
#      x y z
#    x 1.788570 0.004340 0.008440 
#    y 0.004340 1.803440 -0.003560 
#    z 0.008440 -0.003560 1.803750 
# 
# From -- ./inp_files/124393.got.cif
#   From: 2010.06.25/outbox.cif.g09.slc.cpg/sg2_63_cif.got.tgz:124393.got - 2010.06.27 13:26:56.
