data_PCOD8022271
_publ_section_title
;
Structure prediction by ZEFSAII (Michael W. Deem and Ramdas Pophale) SiO2 
 PCOD8022271
Probable space group: P -1
;
_chemical_formula_sum "Si O2"
_cell_formula_units_Z 16
_cell_length_a 5.296243
_cell_length_b 15.395424
_cell_length_c 12.054578
_cell_angle_alpha 113.657658
_cell_angle_beta 56.073100
_cell_angle_gamma 88.900987
_cell_volume 707.765358
_symmetry_space_group_name_H-M "P -1"
_symmetry_group_IT_number 2
_symmetry_cell_setting 'triclinic'
loop_
_space_group_symop_operation_xyz
x,y,z
-x,-y,-z
loop_
_atom_site_type_symbol
_atom_site_label
_atom_site_fract_x
_atom_site_fract_y
_atom_site_fract_z
Si Si1 0.649534 0.850101 0.705134
Si Si2 0.564397 0.071180 0.794462
Si Si3 0.750019 0.723368 0.412925
Si Si4 0.051691 0.599307 0.713851
Si Si5 0.964333 0.821307 0.850638
Si Si6 0.604197 0.416865 0.584802
Si Si7 0.295727 0.529490 0.174695
Si Si8 0.253025 0.101791 0.657134
O O1 0.838526 0.761233 0.528960
O O2 0.853441 0.833176 0.757239
O O3 0.278515 0.854322 0.812369
O O4 0.661105 0.951957 0.698174
O O5 0.352172 0.121737 0.766717
O O6 0.886442 0.102142 0.741264
O O7 0.340368 0.105568 0.973436
O O8 0.436299 0.690084 0.494818
O O9 0.701185 0.807535 0.376816
O O10 0.987452 0.618329 0.255368
O O11 0.350953 0.517388 0.653019
O O12 0.069635 0.591482 0.569529
O O13 0.029529 0.708453 0.819726
O O14 0.744340 0.572289 0.818618
O O15 0.584232 0.421668 0.725160
O O16 0.500000 0.500000 0.000000
O O17 0.500000 0.000000 0.500000
#
# Coordination Sequence:
#
# PCOD8022271 Si02
#       8
#     2   2   2   2   2   2   2   2
#     4  12  25  46  73 105 143 186 244 294 365 425
#     4  12  27  47  72 105 148 187 239 304 361 425
#     4  11  26  42  72 100 138 191 240 292 357 431
#     4  10  23  41  69 102 132 189 237 293 353 431
#     4  12  26  43  75 107 143 187 237 305 361 426
#     4  10  22  45  69  97 140 181 246 289 355 430
#     4  11  26  42  69 103 145 183 231 304 362 432
#     4  12  27  46  72 102 142 194 244 291 351 436
#
# _framework density 22.606363000000002
#
# number of rings (size 3 to 8) (size 9 to 14) (size 15 to 20)
#    0.000    0.750    2.500    3.750    5.250    3.000 
#    0.000    0.000    0.000    0.000    0.000    0.000 
#    0.000    0.000    0.000    0.000    0.000    0.000 
#
# Total GULP energy -198276.559718 kJ/mol
# GULP energy per Si atom -12392.284982 kJ/mol
# Density = 2.255491 g / cm^3
# Si number density = 22.606363 Si / 1000 Ang^3
#
#
#
# Elastic Constant Matrix: (Units=GPa)
#
#
# Indices 1 2 3 4 5 6 
#
# 1 97.8213 26.5769 16.3175 -11.1368 1.8688 -2.1470
# 2 26.5769 139.8930 29.7914 -8.4864 -0.9298 -2.8666
# 3 16.3175 29.7914 131.9943 -18.5597 8.3752 0.1868
# 4 -11.1368 -8.4864 -18.5597 27.1780 -2.1069 6.0722
# 5 1.8688 -0.9298 8.3752 -2.1069 38.4630 -9.5818
# 6 -2.1470 -2.8666 0.1868 6.0722 -9.5818 20.0489
#
#
#
# Elastic Compliance Matrix: (Units=1/GPa)
#
#
# Indices 1 2 3 4 5 6 
#
# 1 0.011219 -0.001823 -0.000416 0.003802 -0.000388 -0.000392
# 2 -0.001823 0.007885 -0.001554 0.000444 0.000958 0.001270
# 3 -0.000416 -0.001554 0.008990 0.006044 -0.002483 -0.003368
# 4 0.003802 0.000444 0.006044 0.045695 -0.002647 -0.014690
# 5 -0.000388 0.000958 -0.002483 -0.002647 0.030270 0.015387
# 6 -0.000392 0.001270 -0.003368 -0.014690 0.015387 0.061852
#
#
# Mechanical properties :
#
#
# Convention : Reuss Voigt Hill
#
# Bulk Modulus (GPa) = 48.76094 57.23113 52.99604
# Shear Modulus (GPa) = 27.72638 36.93950 32.33294
#
# Velocity S-wave (km/s) = 3.50592 4.04670 3.78598
# Velocity P-wave (km/s) = 6.16482 6.87064 6.52728
#
# Compressibility (1/GPa) = 0.02050822
#
# Stress axis : x y z
#
# Youngs Moduli (GPa) = 89.13501 126.82305 111.22914
#
# Poissons Ratio (x) = 0.23118 0.04625
# Poissons Ratio (y) = 0.16248 0.17290
# Poissons Ratio (z) = 0.03706 0.19714
#
# Static dielectric constant tensor:
#      x y z
#    x 4.133670 0.110630 -0.022940 
#    y 0.110630 4.444620 -0.029520 
#    z -0.022940 -0.029520 4.085450 
# 
# 
# High freq. dielectric constant tensor:
#      x y z
#    x 1.887150 0.000650 0.004120 
#    y 0.000650 1.913710 0.000840 
#    z 0.004120 0.000840 1.895450 
# 
# From -- ./inp_files/84189.got.cif
#   From: 2010.06.25/outbox.cif.g09.slc.cpg/sg2_43_cif.got.tgz:84189.got - 2010.06.27 13:26:56.
