data_PCOD8022709
_publ_section_title
;
Structure prediction by ZEFSAII (Michael W. Deem and Ramdas Pophale) SiO2 
 PCOD8022709
Probable space group: P -1
;
_chemical_formula_sum "Si O2"
_cell_formula_units_Z 16
_cell_length_a 12.285277
_cell_length_b 8.303273
_cell_length_c 9.122497
_cell_angle_alpha 87.252918
_cell_angle_beta 122.779259
_cell_angle_gamma 92.526970
_cell_volume 781.305144
_symmetry_space_group_name_H-M "P -1"
_symmetry_group_IT_number 2
_symmetry_cell_setting 'triclinic'
loop_
_space_group_symop_operation_xyz
x,y,z
-x,-y,-z
loop_
_atom_site_type_symbol
_atom_site_label
_atom_site_fract_x
_atom_site_fract_y
_atom_site_fract_z
Si Si1 0.008627 0.187365 0.530171
Si Si2 0.761224 0.769410 0.789057
Si Si3 0.074429 0.405587 0.301432
Si Si4 0.388342 0.479670 0.804634
Si Si5 0.359769 0.921923 0.366459
Si Si6 0.837261 0.624744 0.145316
Si Si7 0.529704 0.658980 0.422798
Si Si8 0.762472 0.297053 0.482471
O O1 0.079688 0.290562 0.451550
O O2 0.079406 0.223170 0.736237
O O3 0.863830 0.248955 0.434915
O O4 0.000000 0.000000 0.500000
O O5 0.892726 0.708953 0.809039
O O6 0.644812 0.743226 0.592522
O O7 0.742534 0.961887 0.796780
O O8 0.752531 0.678584 0.941933
O O9 0.182534 0.549586 0.388631
O O10 0.932619 0.480894 0.174699
O O11 0.256942 0.428912 0.791513
O O12 0.427219 0.354072 0.713413
O O13 0.366269 0.648679 0.698597
O O14 0.500000 0.500000 0.000000
O O15 0.397706 0.761730 0.310854
O O16 0.278657 0.860786 0.450643
O O17 0.500000 0.000000 0.500000
O O18 0.500000 0.500000 0.500000
#
# Coordination Sequence:
#
# PCOD8022709 Si02
#       8
#     2   2   2   2   2   2   2   2
#     4  11  22  41  67  94 132 171 204 267 331 381
#     4  11  22  39  63  92 131 164 206 272 314 371
#     4  11  20  42  69  93 126 171 217 259 318 392
#     4  12  23  38  67  97 123 162 223 266 304 375
#     4  10  23  38  62  92 129 172 213 256 320 381
#     4  11  23  41  63 102 127 165 219 262 316 388
#     4  11  20  40  63  87 122 176 214 251 316 380
#     4  11  20  41  66  92 124 172 220 256 315 387
#
# _framework density 20.478553999999999
#
# number of rings (size 3 to 8) (size 9 to 14) (size 15 to 20)
#    0.000    1.000    5.000    2.625    1.750    1.000 
#    2.250    7.500    0.000    0.000    0.000    0.000 
#    0.000    0.000    0.000    0.000    0.000    0.000 
#
# Total GULP energy -198255.316550 kJ/mol
# GULP energy per Si atom -12390.957284 kJ/mol
# Density = 2.043194 g / cm^3
# Si number density = 20.478554 Si / 1000 Ang^3
#
#
#
# Elastic Constant Matrix: (Units=GPa)
#
#
# Indices 1 2 3 4 5 6 
#
# 1 109.8336 42.9646 23.0276 -9.6865 -10.2093 -14.4034
# 2 42.9646 109.7180 31.5653 -22.4346 0.9335 -20.0791
# 3 23.0276 31.5653 102.7468 -15.1619 -2.8200 -12.4214
# 4 -9.6865 -22.4346 -15.1619 29.2800 1.9131 0.6892
# 5 -10.2093 0.9335 -2.8200 1.9131 31.7187 -3.2928
# 6 -14.4034 -20.0791 -12.4214 0.6892 -3.2928 48.0242
#
#
#
# Elastic Compliance Matrix: (Units=1/GPa)
#
#
# Indices 1 2 3 4 5 6 
#
# 1 0.011441 -0.003889 -0.001050 -0.000035 0.003893 0.001801
# 2 -0.003889 0.013512 -0.001655 0.008244 -0.001899 0.003806
# 3 -0.001050 -0.001655 0.011341 0.004169 0.000666 0.001912
# 4 -0.000035 0.008244 0.004169 0.042663 -0.002066 0.003760
# 5 0.003893 -0.001899 0.000666 -0.002066 0.033317 0.002860
# 6 0.001801 0.003806 0.001912 0.003760 0.002860 0.023591
#
#
# Mechanical properties :
#
#
# Convention : Reuss Voigt Hill
#
# Bulk Modulus (GPa) = 43.27829 57.49039 50.38434
# Shear Modulus (GPa) = 31.89711 36.78730 34.34220
#
# Velocity S-wave (km/s) = 3.95091 4.24297 4.09954
# Velocity P-wave (km/s) = 6.48014 7.22068 6.86041
#
# Compressibility (1/GPa) = 0.02310627
#
# Stress axis : x y z
#
# Youngs Moduli (GPa) = 87.40507 74.01067 88.17531
#
# Poissons Ratio (x) = 0.28781 0.09259
# Poissons Ratio (y) = 0.33990 0.14592
# Poissons Ratio (z) = 0.09178 0.12248
#
# Static dielectric constant tensor:
#      x y z
#    x 3.983030 -0.068280 -0.041050 
#    y -0.068280 3.476420 0.103320 
#    z -0.041050 0.103320 3.389630 
# 
# 
# High freq. dielectric constant tensor:
#      x y z
#    x 1.822530 -0.014640 -0.000720 
#    y -0.014640 1.796890 -0.018540 
#    z -0.000720 -0.018540 1.778710 
# 
# From -- ./inp_files/205678.got.cif
#   From: 2010.06.25/outbox.cif.g09.slc.cpg/sg2_103_cif.got.tgz:205678.got - 2010.06.27 13:26:56.
