data_PCOD8022935
_publ_section_title
;
Structure prediction by ZEFSAII (Michael W. Deem and Ramdas Pophale) SiO2 
 PCOD8022935
Probable space group: P -1
;
_chemical_formula_sum "Si O2"
_cell_formula_units_Z 16
_cell_length_a 9.487941
_cell_length_b 12.095359
_cell_length_c 10.124056
_cell_angle_alpha 78.437153
_cell_angle_beta 121.695632
_cell_angle_gamma 124.236878
_cell_volume 809.740231
_symmetry_space_group_name_H-M "P -1"
_symmetry_group_IT_number 2
_symmetry_cell_setting 'triclinic'
loop_
_space_group_symop_operation_xyz
x,y,z
-x,-y,-z
loop_
_atom_site_type_symbol
_atom_site_label
_atom_site_fract_x
_atom_site_fract_y
_atom_site_fract_z
Si Si1 0.874384 0.880334 0.367734
Si Si2 0.478097 0.624104 0.950935
Si Si3 0.584836 0.285808 0.830435
Si Si4 0.843351 0.924173 0.053124
Si Si5 0.667148 0.463733 0.579289
Si Si6 0.044365 0.738491 0.624041
Si Si7 0.717464 0.108231 0.042275
Si Si8 0.774332 0.384365 0.397808
O O1 0.645087 0.829949 0.280778
O O2 0.913647 0.766483 0.455122
O O3 0.944369 0.925135 0.240899
O O4 0.000000 0.000000 0.500000
O O5 0.674599 0.768525 0.971392
O O6 0.309813 0.574704 0.772361
O O7 0.500000 0.500000 0.000000
O O8 0.396048 0.634769 0.047131
O O9 0.669539 0.389314 0.728122
O O10 0.720151 0.225071 0.931237
O O11 0.768340 0.023478 0.995591
O O12 0.000000 0.000000 0.000000
O O13 0.500000 0.500000 0.500000
O O14 0.640202 0.366355 0.464797
O O15 0.886439 0.595284 0.645580
O O16 0.216081 0.742757 0.617214
O O17 0.146294 0.840646 0.771702
O O18 0.500000 0.000000 0.000000
O O19 0.000000 0.500000 0.500000
#
# Coordination Sequence:
#
# PCOD8022935 Si02
#       8
#     2   2   2   2   2   2   2   2
#     4  11  21  40  68  90 124 175 217 254 330 396
#     4  11  23  43  68  92 133 176 216 262 333 394
#     4  11  23  40  66  98 124 176 218 262 331 387
#     4  11  26  42  66 104 133 168 221 277 326 385
#     4  11  23  40  64  98 134 162 219 275 319 387
#     4  11  22  41  67  92 129 174 214 270 327 386
#     4  12  21  44  67  89 131 173 217 267 320 396
#     4  10  23  40  61  93 130 168 213 269 326 379
#
# _framework density 19.759423000000002
#
# number of rings (size 3 to 8) (size 9 to 14) (size 15 to 20)
#    0.000    1.000    6.250    0.750    5.250    4.500 
#    2.250    0.000    0.000    4.500    0.000    0.000 
#    0.000    0.000    0.000    0.000    0.000    0.000 
#
# Total GULP energy -198255.299920 kJ/mol
# GULP energy per Si atom -12390.956245 kJ/mol
# Density = 1.971445 g / cm^3
# Si number density = 19.759423 Si / 1000 Ang^3
#
#
#
# Elastic Constant Matrix: (Units=GPa)
#
#
# Indices 1 2 3 4 5 6 
#
# 1 129.4363 58.7465 48.9627 -12.1336 -11.1245 -5.1519
# 2 58.7465 116.6116 60.4370 -12.0532 -9.8891 -11.5885
# 3 48.9627 60.4370 149.2873 -15.6768 2.9235 10.7687
# 4 -12.1336 -12.0532 -15.6768 42.6570 -1.0138 4.6609
# 5 -11.1245 -9.8891 2.9235 -1.0138 34.0120 -13.3611
# 6 -5.1519 -11.5885 10.7687 4.6609 -13.3611 29.8714
#
#
#
# Elastic Compliance Matrix: (Units=1/GPa)
#
#
# Indices 1 2 3 4 5 6 
#
# 1 0.010714 -0.003507 -0.002271 0.001000 0.003835 0.002865
# 2 -0.003507 0.015240 -0.005969 0.000097 0.008158 0.011093
# 3 -0.002271 -0.005969 0.011041 0.002689 -0.007448 -0.010439
# 4 0.001000 0.000097 0.002689 0.025286 -0.001177 -0.005231
# 5 0.003835 0.008158 -0.007448 -0.001177 0.043993 0.026372
# 6 0.002865 0.011093 -0.010439 -0.005231 0.026372 0.054650
#
#
# Mechanical properties :
#
#
# Convention : Reuss Voigt Hill
#
# Bulk Modulus (GPa) = 74.07117 81.29196 77.68156
# Shear Modulus (GPa) = 26.46624 36.45399 31.46011
#
# Velocity S-wave (km/s) = 3.66378 4.29988 3.99451
# Velocity P-wave (km/s) = 7.44753 8.11678 7.78934
#
# Compressibility (1/GPa) = 0.01350053
#
# Stress axis : x y z
#
# Youngs Moduli (GPa) = 93.33553 65.61518 90.57081
#
# Poissons Ratio (x) = 0.23013 0.20567
# Poissons Ratio (y) = 0.32735 0.54065
# Poissons Ratio (z) = 0.21195 0.39168
#
# Static dielectric constant tensor:
#      x y z
#    x 3.852320 -0.321730 0.161960 
#    y -0.321730 3.726020 -0.252510 
#    z 0.161960 -0.252510 4.714590 
# 
# 
# High freq. dielectric constant tensor:
#      x y z
#    x 1.768540 -0.019030 0.004650 
#    y -0.019030 1.770880 -0.000220 
#    z 0.004650 -0.000220 1.787960 
# 
# From -- ./inp_files/186982.got.cif
#   From: 2010.06.25/outbox.cif.g09.slc.cpg/sg2_94_cif.got.tgz:186982.got - 2010.06.27 13:26:56.
