data_PCOD8022353
_publ_section_title
;
Structure prediction by ZEFSAII (Michael W. Deem and Ramdas Pophale) SiO2 
 PCOD8022353
Probable space group: P -1
;
_chemical_formula_sum "Si O2"
_cell_formula_units_Z 16
_cell_length_a 11.614585
_cell_length_b 17.873837
_cell_length_c 19.928014
_cell_angle_alpha 21.373784
_cell_angle_beta 28.865199
_cell_angle_gamma 31.485596
_cell_volume 711.361949
_symmetry_space_group_name_H-M "P -1"
_symmetry_group_IT_number 2
_symmetry_cell_setting 'triclinic'
loop_
_space_group_symop_operation_xyz
x,y,z
-x,-y,-z
loop_
_atom_site_type_symbol
_atom_site_label
_atom_site_fract_x
_atom_site_fract_y
_atom_site_fract_z
Si Si1 0.373984 0.678152 0.716261
Si Si2 0.254461 0.385176 0.649285
Si Si3 0.918074 0.617719 0.511158
Si Si4 0.216745 0.611268 0.613382
Si Si5 0.373796 0.241912 0.027028
Si Si6 0.845097 0.021605 0.898151
Si Si7 0.203782 0.061015 0.390346
Si Si8 0.897842 0.792389 0.930453
O O1 0.637709 0.608689 0.674193
O O2 0.191469 0.730852 0.828901
O O3 0.363344 0.876580 0.506971
O O4 0.303390 0.493720 0.861034
O O5 0.241286 0.566944 0.558965
O O6 0.546637 0.296936 0.558801
O O7 0.102537 0.489772 0.577185
O O8 0.123633 0.200531 0.894846
O O9 0.000000 0.500000 0.500000
O O10 0.929170 0.865290 0.299208
O O11 0.949933 0.758932 0.634030
O O12 0.227039 0.397956 0.827149
O O13 0.389306 0.144140 0.175609
O O14 0.180718 0.150928 0.154544
O O15 0.622603 0.187232 0.904568
O O16 0.812444 0.983863 0.866339
O O17 0.000000 0.000000 0.500000
#
# Coordination Sequence:
#
# PCOD8022353 Si02
#       8
#     2   2   2   2   2   2   2   2
#     4  12  27  45  67 102 144 187 231 283 345 424
#     4  10  25  46  72 102 144 180 233 295 346 413
#     4  12  28  47  70  98 145 196 235 276 346 425
#     4  10  22  45  72 108 139 177 231 298 357 403
#     4  12  23  43  71 102 145 177 229 299 351 407
#     4  11  26  45  72 103 134 188 238 286 346 416
#     4  12  24  38  69 104 137 182 228 282 357 407
#     4  11  23  44  71 106 141 178 234 295 355 407
#
# _framework density 22.492066999999999
#
# number of rings (size 3 to 8) (size 9 to 14) (size 15 to 20)
#    0.000    0.750    3.750    3.000    5.250    3.000 
#    0.000    1.250    0.000    0.750    0.000    0.000 
#    0.000    0.000    0.000    0.000    0.000    0.000 
#
# Total GULP energy -198372.855363 kJ/mol
# GULP energy per Si atom -12398.303460 kJ/mol
# Density = 2.244087 g / cm^3
# Si number density = 22.492067 Si / 1000 Ang^3
#
#
#
# Elastic Constant Matrix: (Units=GPa)
#
#
# Indices 1 2 3 4 5 6 
#
# 1 123.5068 43.6037 48.9105 1.5775 6.9175 -0.9872
# 2 43.6037 113.1391 25.7785 10.1259 8.6120 14.7421
# 3 48.9105 25.7785 104.2964 -1.9414 -1.1850 9.7104
# 4 1.5775 10.1259 -1.9414 37.1044 -1.9372 -2.6892
# 5 6.9175 8.6120 -1.1850 -1.9372 33.9356 1.1835
# 6 -0.9872 14.7421 9.7104 -2.6892 1.1835 35.3993
#
#
#
# Elastic Compliance Matrix: (Units=1/GPa)
#
#
# Indices 1 2 3 4 5 6 
#
# 1 0.011371 -0.003631 -0.004746 0.000406 -0.001651 0.003217
# 2 -0.003631 0.011538 -0.000785 -0.003506 -0.002245 -0.004882
# 3 -0.004746 -0.000785 0.012341 0.000923 0.001761 -0.003179
# 4 0.000406 -0.003506 0.000923 0.028300 0.002340 0.003290
# 5 -0.001651 -0.002245 0.001761 0.002340 0.030584 -0.000439
# 6 0.003217 -0.004882 -0.003179 0.003290 -0.000439 0.031509
#
#
# Mechanical properties :
#
#
# Convention : Reuss Voigt Hill
#
# Bulk Modulus (GPa) = 59.08127 64.16974 61.62551
# Shear Modulus (GPa) = 33.42060 36.13116 34.77588
#
# Velocity S-wave (km/s) = 3.85890 4.01233 3.93636
# Velocity P-wave (km/s) = 6.79554 7.07510 6.93673
#
# Compressibility (1/GPa) = 0.01692584
#
# Stress axis : x y z
#
# Youngs Moduli (GPa) = 87.94286 86.67144 81.03124
#
# Poissons Ratio (x) = 0.31470 0.38456
# Poissons Ratio (y) = 0.31931 0.06363
# Poissons Ratio (z) = 0.41736 0.06806
#
# Static dielectric constant tensor:
#      x y z
#    x 4.093020 0.228190 -0.140220 
#    y 0.228190 5.213870 -0.212510 
#    z -0.140220 -0.212510 4.492540 
# 
# 
# High freq. dielectric constant tensor:
#      x y z
#    x 1.862040 0.019470 0.006440 
#    y 0.019470 1.897990 0.002410 
#    z 0.006440 0.002410 1.897020 
# 
# From -- ./inp_files/518793.got.cif
#   From: 2010.06.25/outbox.cif.g09.slc.cpg/sg2_260_cif.got.tgz:518793.got - 2010.06.27 13:26:56.
