data_PCOD8022763
_publ_section_title
;
Structure prediction by ZEFSAII (Michael W. Deem and Ramdas Pophale) SiO2 
 PCOD8022763
Probable space group: P -1
;
_chemical_formula_sum "Si O2"
_cell_formula_units_Z 14
_cell_length_a 9.013215
_cell_length_b 11.886394
_cell_length_c 9.757400
_cell_angle_alpha 68.097279
_cell_angle_beta 44.700561
_cell_angle_gamma 88.384803
_cell_volume 635.670627
_symmetry_space_group_name_H-M "P -1"
_symmetry_group_IT_number 2
_symmetry_cell_setting 'triclinic'
loop_
_space_group_symop_operation_xyz
x,y,z
-x,-y,-z
loop_
_atom_site_type_symbol
_atom_site_label
_atom_site_fract_x
_atom_site_fract_y
_atom_site_fract_z
Si Si1 0.209468 0.098235 0.660569
Si Si2 0.651713 0.325995 0.666178
Si Si3 0.842549 0.202312 0.822038
Si Si4 0.260564 0.078501 0.948669
Si Si5 0.940779 0.372634 0.188180
Si Si6 0.344307 0.743380 0.804865
Si Si7 0.574503 0.514690 0.100604
O O1 0.304215 0.103448 0.748241
O O2 0.426382 0.127236 0.406079
O O3 0.101868 0.210789 0.660603
O O4 0.010464 0.957362 0.825715
O O5 0.821037 0.281913 0.667484
O O6 0.413496 0.204555 0.872458
O O7 0.765932 0.370606 0.424488
O O8 0.605201 0.446391 0.709872
O O9 0.782193 0.269902 0.963120
O O10 0.679837 0.048854 0.991643
O O11 0.819890 0.253315 0.216244
O O12 0.000000 0.500000 0.000000
O O13 0.175153 0.371758 0.099131
O O14 0.421027 0.621013 0.785730
O O15 0.500000 0.500000 0.000000
#
# Coordination Sequence:
#
# PCOD8022763 Si02
#       7
#     2   2   2   2   2   2   2
#     4   9  21  41  66  97 133 167 218 265 324 387
#     4  12  23  45  68  94 141 171 209 287 318 387
#     4  10  23  38  69  95 136 169 215 265 327 386
#     4   9  21  43  64 101 126 177 218 255 337 382
#     4  10  26  43  66  98 128 177 225 258 330 394
#     4  11  22  44  64  98 129 173 220 266 322 391
#     4  11  26  43  65  99 130 166 227 270 329 385
#
# _framework density 22.023986000000001
#
# number of rings (size 3 to 8) (size 9 to 14) (size 15 to 20)
#    0.857    0.857    2.857    0.429    4.000    5.714 
#    2.571    0.714    0.000    0.000    0.000    0.000 
#    0.000    0.000    0.000    0.000    0.000    0.000 
#
# Total GULP energy -173468.948999 kJ/mol
# GULP energy per Si atom -12390.639214 kJ/mol
# Density = 2.197386 g / cm^3
# Si number density = 22.023986 Si / 1000 Ang^3
#
#
#
# Elastic Constant Matrix: (Units=GPa)
#
#
# Indices 1 2 3 4 5 6 
#
# 1 93.2119 14.5729 47.7193 -2.9584 9.9211 2.5610
# 2 14.5729 62.8519 13.1611 1.4975 11.4228 -2.0363
# 3 47.7193 13.1611 100.9011 8.5995 -2.2456 23.2833
# 4 -2.9584 1.4975 8.5995 21.3682 7.1605 2.6385
# 5 9.9211 11.4228 -2.2456 7.1605 32.4765 0.7838
# 6 2.5610 -2.0363 23.2833 2.6385 0.7838 21.8729
#
#
#
# Elastic Compliance Matrix: (Units=1/GPa)
#
#
# Indices 1 2 3 4 5 6 
#
# 1 0.017381 -0.000102 -0.011233 0.008533 -0.008153 0.009175
# 2 -0.000102 0.018253 -0.004064 0.002029 -0.007263 0.006053
# 3 -0.011233 -0.004064 0.021765 -0.010480 0.009190 -0.021297
# 4 0.008533 0.002029 -0.010480 0.057167 -0.016747 0.004049
# 5 -0.008153 -0.007263 0.009190 -0.016747 0.040380 -0.008931
# 6 0.009175 0.006053 -0.021297 0.004049 -0.008931 0.067709
#
#
# Mechanical properties :
#
#
# Convention : Reuss Voigt Hill
#
# Bulk Modulus (GPa) = 37.59128 45.31905 41.45517
# Shear Modulus (GPa) = 19.06066 27.24431 23.15248
#
# Velocity S-wave (km/s) = 2.94504 3.52096 3.24580
# Velocity P-wave (km/s) = 5.35442 6.09519 5.73677
#
# Compressibility (1/GPa) = 0.02660191
#
# Stress axis : x y z
#
# Youngs Moduli (GPa) = 57.53292 54.78618 45.94516
#
# Poissons Ratio (x) = 0.00560 0.51609
# Poissons Ratio (y) = 0.00588 0.18671
# Poissons Ratio (z) = 0.64626 0.22263
#
# Static dielectric constant tensor:
#      x y z
#    x 4.422690 0.105550 -0.240090 
#    y 0.105550 3.728810 -0.151700 
#    z -0.240090 -0.151700 3.764570 
# 
# 
# High freq. dielectric constant tensor:
#      x y z
#    x 1.875660 0.001090 -0.004480 
#    y 0.001090 1.843590 -0.006540 
#    z -0.004480 -0.006540 1.861650 
# 
# From -- ./inp_files/168334.got.cif
#   From: 2010.06.25/outbox.cif.g09.slc.cpg/sg2_85_cif.got.tgz:168334.got - 2010.06.27 13:26:56.
