data_PCOD8022055
_publ_section_title
;
Structure prediction by ZEFSAII (Michael W. Deem and Ramdas Pophale) SiO2 
 PCOD8022055
Probable space group: P -1
;
_chemical_formula_sum "Si O2"
_cell_formula_units_Z 16
_cell_length_a 8.534078
_cell_length_b 14.983201
_cell_length_c 14.745729
_cell_angle_alpha 28.041752
_cell_angle_beta 134.498373
_cell_angle_gamma 133.084695
_cell_volume 620.449416
_symmetry_space_group_name_H-M "P -1"
_symmetry_group_IT_number 2
_symmetry_cell_setting 'triclinic'
loop_
_space_group_symop_operation_xyz
x,y,z
-x,-y,-z
loop_
_atom_site_type_symbol
_atom_site_label
_atom_site_fract_x
_atom_site_fract_y
_atom_site_fract_z
Si Si1 0.042117 0.156979 0.454877
Si Si2 0.541802 0.138783 0.305834
Si Si3 0.376654 0.426063 0.876956
Si Si4 0.927251 0.187848 0.843532
Si Si5 0.301215 0.695654 0.191742
Si Si6 0.218628 0.544370 0.108491
Si Si7 0.197809 0.257511 0.610478
Si Si8 0.255761 0.788162 0.431916
O O1 0.803595 0.217193 0.324493
O O2 0.235315 0.333640 0.342394
O O3 0.140883 0.107294 0.636427
O O4 0.000000 0.000000 0.500000
O O5 0.500000 0.000000 0.500000
O O6 0.417495 0.998132 0.302839
O O7 0.418445 0.328106 0.079875
O O8 0.568376 0.370147 0.941486
O O9 0.375886 0.656907 0.668539
O O10 0.142915 0.348560 0.804908
O O11 0.793821 0.153254 0.916752
O O12 0.774221 0.277244 0.627269
O O13 0.000000 0.000000 0.000000
O O14 0.203594 0.693040 0.051889
O O15 0.217007 0.481619 0.389979
O O16 0.568356 0.764828 0.230468
O O17 0.000000 0.500000 0.000000
O O18 0.993099 0.195929 0.651394
#
# Coordination Sequence:
#
# PCOD8022055 Si02
#       8
#     2   2   2   2   2   2   2   2
#     4  11  24  45  71 108 150 196 255 318 388 455
#     4  12  26  48  71 110 150 195 261 314 381 459
#     4  12  26  48  77 107 150 203 256 315 386 461
#     4  12  26  47  75 112 157 198 257 323 384 460
#     4  10  24  44  74 110 146 198 256 315 383 456
#     4  11  24  49  75 105 151 201 256 311 379 468
#     4  10  22  44  73 105 149 194 258 313 379 461
#     4  12  25  46  75 108 151 206 250 320 387 453
#
# _framework density 25.787759000000001
#
# number of rings (size 3 to 8) (size 9 to 14) (size 15 to 20)
#    0.000    0.750    5.000    1.875    7.000    0.500 
#    6.750    1.250    0.000    0.000    0.000    0.000 
#    0.000    0.000    0.000    0.000    0.000    0.000 
#
# Total GULP energy -198220.149474 kJ/mol
# GULP energy per Si atom -12388.759342 kJ/mol
# Density = 2.572906 g / cm^3
# Si number density = 25.787759 Si / 1000 Ang^3
#
#
#
# Elastic Constant Matrix: (Units=GPa)
#
#
# Indices 1 2 3 4 5 6 
#
# 1 106.7281 36.8180 17.7481 12.7517 -1.9507 -9.3456
# 2 36.8180 127.6563 23.9478 26.2890 1.8969 -6.7328
# 3 17.7481 23.9478 106.1840 11.9261 5.3598 -7.6943
# 4 12.7517 26.2890 11.9261 49.7307 -2.6317 -1.2563
# 5 -1.9507 1.8969 5.3598 -2.6317 32.0456 -3.8901
# 6 -9.3456 -6.7328 -7.6943 -1.2563 -3.8901 51.8041
#
#
#
# Elastic Compliance Matrix: (Units=1/GPa)
#
#
# Indices 1 2 3 4 5 6 
#
# 1 0.010719 -0.002626 -0.001031 -0.001018 0.001078 0.001496
# 2 -0.002626 0.009719 -0.001207 -0.004208 -0.000825 0.000446
# 3 -0.001031 -0.001207 0.010202 -0.001609 -0.001708 0.001005
# 4 -0.001018 -0.004208 -0.001609 0.023097 0.002324 -0.000235
# 5 0.001078 -0.000825 -0.001708 0.002324 0.032076 0.002299
# 6 0.001496 0.000446 0.001005 -0.000235 0.002299 0.019948
#
#
# Mechanical properties :
#
#
# Convention : Reuss Voigt Hill
#
# Bulk Modulus (GPa) = 47.81523 55.28848 51.55186
# Shear Modulus (GPa) = 40.83019 44.18636 42.50828
#
# Velocity S-wave (km/s) = 3.98341 4.14389 4.06444
# Velocity P-wave (km/s) = 6.30387 6.66199 6.48540
#
# Compressibility (1/GPa) = 0.02091384
#
# Stress axis : x y z
#
# Youngs Moduli (GPa) = 93.29079 102.88640 98.02110
#
# Poissons Ratio (x) = 0.27013 0.10108
# Poissons Ratio (y) = 0.24494 0.11828
# Poissons Ratio (z) = 0.09620 0.12415
#
# Static dielectric constant tensor:
#      x y z
#    x 4.357340 0.343390 -0.334360 
#    y 0.343390 5.183230 -0.110570 
#    z -0.334360 -0.110570 5.230500 
# 
# 
# High freq. dielectric constant tensor:
#      x y z
#    x 2.021740 0.009020 -0.016680 
#    y 0.009020 2.055520 0.009620 
#    z -0.016680 0.009620 2.021610 
# 
# From -- ./inp_files/505170.got.cif
#   From: 2010.06.25/outbox.cif.g09.slc.cpg/sg2_253_cif.got.tgz:505170.got - 2010.06.27 13:26:56.
