data_PCOD8022296
_publ_section_title
;
Structure prediction by ZEFSAII (Michael W. Deem and Ramdas Pophale) SiO2 
 PCOD8022296
Probable space group: P -1
;
_chemical_formula_sum "Si O2"
_cell_formula_units_Z 12
_cell_length_a 9.222383
_cell_length_b 11.613997
_cell_length_c 10.521107
_cell_angle_alpha 65.123157
_cell_angle_beta 79.288435
_cell_angle_gamma 132.426713
_cell_volume 537.906227
_symmetry_space_group_name_H-M "P -1"
_symmetry_group_IT_number 2
_symmetry_cell_setting 'triclinic'
loop_
_space_group_symop_operation_xyz
x,y,z
-x,-y,-z
loop_
_atom_site_type_symbol
_atom_site_label
_atom_site_fract_x
_atom_site_fract_y
_atom_site_fract_z
Si Si1 0.677204 0.907714 0.963639
Si Si2 0.751225 0.860772 0.458200
Si Si3 0.836594 0.581565 0.238039
Si Si4 0.865783 0.086813 0.577486
Si Si5 0.737060 0.677797 0.984098
Si Si6 0.914345 0.476678 0.666623
O O1 0.681857 0.759250 0.044368
O O2 0.669272 0.944289 0.799809
O O3 0.415612 0.769197 0.148391
O O4 0.959086 0.166744 0.854392
O O5 0.457198 0.635452 0.538044
O O6 0.860786 0.799047 0.497210
O O7 0.696278 0.900664 0.577493
O O8 0.964016 0.094609 0.232300
O O9 0.966112 0.535815 0.244753
O O10 0.749080 0.558868 0.120169
O O11 0.963447 0.297764 0.425343
O O12 0.500000 0.500000 0.000000
O O13 0.000000 0.500000 0.500000
#
# Coordination Sequence:
#
# PCOD8022296 Si02
#       6
#     2   2   2   2   2   2
#     4  11  24  43  69  97 135 176 223 275 327 389
#     4  10  23  43  70  99 130 174 227 268 331 386
#     4  12  25  40  68 103 132 174 221 273 332 397
#     4  10  22  45  70  94 136 176 217 276 328 390
#     4  11  24  45  71  98 135 172 224 278 324 391
#     4  12  26  43  67  96 141 177 217 272 336 395
#
# _framework density 22.308721999999999
#
# number of rings (size 3 to 8) (size 9 to 14) (size 15 to 20)
#    0.000    1.000    1.667    6.000    2.333    3.333 
#    0.000    5.833    0.000    0.000    0.000    0.000 
#    0.000    0.000    0.000    0.000    0.000    0.000 
#
# Total GULP energy -148782.210519 kJ/mol
# GULP energy per Si atom -12398.517543 kJ/mol
# Density = 2.225795 g / cm^3
# Si number density = 22.308722 Si / 1000 Ang^3
#
#
#
# Elastic Constant Matrix: (Units=GPa)
#
#
# Indices 1 2 3 4 5 6 
#
# 1 131.2895 61.8438 67.3664 -9.1921 14.3656 3.0306
# 2 61.8438 87.7382 65.8474 -3.7643 -9.9223 -7.5031
# 3 67.3664 65.8474 158.1974 -16.4537 -21.4931 6.3416
# 4 -9.1921 -3.7643 -16.4537 37.9686 1.3809 1.9848
# 5 14.3656 -9.9223 -21.4931 1.3809 53.7923 -3.9186
# 6 3.0306 -7.5031 6.3416 1.9848 -3.9186 30.7340
#
#
#
# Elastic Compliance Matrix: (Units=1/GPa)
#
#
# Indices 1 2 3 4 5 6 
#
# 1 0.014336 -0.008903 -0.003010 0.001746 -0.007008 -0.003972
# 2 -0.008903 0.023245 -0.005860 -0.003023 0.005028 0.008598
# 3 -0.003010 -0.005860 0.011052 0.003506 0.003819 -0.003154
# 4 0.001746 -0.003023 0.003506 0.028186 -0.000604 -0.003531
# 5 -0.007008 0.005028 0.003819 -0.000604 0.023231 0.004131
# 6 -0.003972 0.008598 -0.003154 -0.003531 0.004131 0.036433
#
#
# Mechanical properties :
#
#
# Convention : Reuss Voigt Hill
#
# Bulk Modulus (GPa) = 76.41499 85.26003 80.83751
# Shear Modulus (GPa) = 28.34575 36.64349 32.49462
#
# Velocity S-wave (km/s) = 3.56843 4.05725 3.82067
# Velocity P-wave (km/s) = 7.16283 7.76206 7.46846
#
# Compressibility (1/GPa) = 0.01308644
#
# Stress axis : x y z
#
# Youngs Moduli (GPa) = 69.75562 43.01960 90.47914
#
# Poissons Ratio (x) = 0.38300 0.27237
# Poissons Ratio (y) = 0.62103 0.53023
# Poissons Ratio (z) = 0.20998 0.25211
#
# Static dielectric constant tensor:
#      x y z
#    x 4.084600 -0.066460 0.105600 
#    y -0.066460 3.920270 -0.048210 
#    z 0.105600 -0.048210 4.304870 
# 
# 
# High freq. dielectric constant tensor:
#      x y z
#    x 1.870340 -0.006020 0.006550 
#    y -0.006020 1.869860 -0.015670 
#    z 0.006550 -0.015670 1.901320 
# 
# From -- ./inp_files/389424.got.cif
#   From: 2010.06.25/outbox.cif.g09.slc.cpg/sg2_195_cif.got.tgz:389424.got - 2010.06.27 13:26:56.
