data_PCOD8022984
_publ_section_title
;
Structure prediction by ZEFSAII (Michael W. Deem and Ramdas Pophale) SiO2 
 PCOD8022984
Probable space group: P -1
;
_chemical_formula_sum "Si O2"
_cell_formula_units_Z 16
_cell_length_a 12.846354
_cell_length_b 13.668418
_cell_length_c 7.911344
_cell_angle_alpha 93.771411
_cell_angle_beta 129.714840
_cell_angle_gamma 124.728136
_cell_volume 644.075674
_symmetry_space_group_name_H-M "P -1"
_symmetry_group_IT_number 2
_symmetry_cell_setting 'triclinic'
loop_
_space_group_symop_operation_xyz
x,y,z
-x,-y,-z
loop_
_atom_site_type_symbol
_atom_site_label
_atom_site_fract_x
_atom_site_fract_y
_atom_site_fract_z
Si Si1 0.019024 0.469363 0.766915
Si Si2 0.031680 0.888214 0.264349
Si Si3 0.666234 0.429434 0.299729
Si Si4 0.004392 0.265305 0.503281
Si Si5 0.837618 0.221670 0.774461
Si Si6 0.629280 0.013631 0.845292
Si Si7 0.507891 0.747227 0.241000
Si Si8 0.354856 0.205013 0.251948
O O1 0.833795 0.435095 0.499740
O O2 0.974107 0.403066 0.906866
O O3 0.006252 0.362926 0.630731
O O4 0.267325 0.659241 0.026319
O O5 0.006041 0.781613 0.099074
O O6 0.931701 0.794944 0.330222
O O7 0.296929 0.062690 0.571228
O O8 0.897313 0.903549 0.056853
O O9 0.815897 0.614437 0.449063
O O10 0.515439 0.352078 0.300726
O O11 0.515726 0.330076 0.963311
O O12 0.755261 0.097615 0.161268
O O13 0.743331 0.160007 0.857319
O O14 0.629405 0.107287 0.412436
O O15 0.646043 0.912881 0.777843
O O16 0.573085 0.722615 0.474718
#
# Coordination Sequence:
#
# PCOD8022984 Si02
#       8
#     2   2   2   2   2   2   2   2
#     4  10  23  43  67 103 136 180 222 281 353 397
#     4  11  25  45  68  98 140 179 233 273 339 411
#     4  11  25  45  69 104 141 175 233 277 344 413
#     4  10  24  42  68  99 137 180 223 289 338 396
#     4  10  23  40  64 103 137 171 232 279 335 406
#     4  11  23  40  68 103 135 177 227 287 337 395
#     4  11  24  43  72  98 138 186 220 285 338 405
#     4  12  26  47  70 104 134 188 226 278 344 406
#
# _framework density 24.841802000000001
#
# number of rings (size 3 to 8) (size 9 to 14) (size 15 to 20)
#    0.000    1.250    2.500    2.625    5.250    4.000 
#    0.000    8.125    0.000    0.000    0.000    0.000 
#    0.000    0.000    0.000    0.000    0.000    0.000 
#
# Total GULP energy -198285.501842 kJ/mol
# GULP energy per Si atom -12392.843865 kJ/mol
# Density = 2.478526 g / cm^3
# Si number density = 24.841802 Si / 1000 Ang^3
#
#
#
# Elastic Constant Matrix: (Units=GPa)
#
#
# Indices 1 2 3 4 5 6 
#
# 1 35.0739 39.5554 25.4908 -4.0586 20.4533 0.0071
# 2 39.5554 140.5473 33.1362 -2.6732 1.0973 38.8809
# 3 25.4908 33.1362 111.1967 -8.1017 12.4034 -8.7761
# 4 -4.0586 -2.6732 -8.1017 35.8409 5.0627 3.2711
# 5 20.4533 1.0973 12.4034 5.0627 11.4364 0.5490
# 6 0.0071 38.8809 -8.7761 3.2711 0.5490 32.5993
#
#
#
# Elastic Compliance Matrix: (Units=1/GPa)
#
#
# Indices 1 2 3 4 5 6 
#
# 1 -0.039986 0.019832 -0.009775 -0.015332 0.088256 -0.026224
# 2 0.019832 0.003575 -0.001179 0.008027 -0.037858 -0.004753
# 3 -0.009775 -0.001179 0.011407 0.000295 0.004883 0.004367
# 4 -0.015332 0.008027 0.000295 0.025765 0.015516 -0.012338
# 5 0.088256 -0.037858 0.004883 0.015516 -0.081152 0.046258
# 6 -0.026224 -0.004753 0.004367 -0.012338 0.046258 0.037985
#
#
# Mechanical properties :
#
#
# Convention : Reuss Voigt Hill
#
# Bulk Modulus (GPa) = -137.97304 53.68697 -42.14303
# Shear Modulus (GPa) = -79.89937 28.55102 -25.67417
#
# Velocity S-wave (km/s) = -5.67742 3.39383 -3.21831
# Velocity P-wave (km/s) = 9.93170 6.08407 5.55080
#
# Compressibility (1/GPa) = -0.00724779
#
# Stress axis : x y z
#
# Youngs Moduli (GPa) = -25.00896 279.74315 87.66794
#
# Poissons Ratio (x) = -5.54784 0.85693
# Poissons Ratio (y) = 0.49598 0.10336
# Poissons Ratio (z) = -0.24446 0.32981
#
# Static dielectric constant tensor:
#      x y z
#    x 4.110900 0.505660 -0.033300 
#    y 0.505660 5.119460 0.106480 
#    z -0.033300 0.106480 4.511600 
# 
# 
# High freq. dielectric constant tensor:
#      x y z
#    x 1.958850 0.024750 -0.005130 
#    y 0.024750 2.013070 0.000640 
#    z -0.005130 0.000640 1.987990 
# 
# From -- ./inp_files/315165.got.cif
#   From: 2010.06.25/outbox.cif.g09.slc.cpg/sg2_158_cif.got.tgz:315165.got - 2010.06.27 13:26:56.
