data_PCOD8022230
_publ_section_title
;
Structure prediction by ZEFSAII (Michael W. Deem and Ramdas Pophale) SiO2 
 PCOD8022230
Probable space group: P -1
;
_chemical_formula_sum "Si O2"
_cell_formula_units_Z 16
_cell_length_a 14.621639
_cell_length_b 11.772114
_cell_length_c 14.767181
_cell_angle_alpha 29.576474
_cell_angle_beta 139.245298
_cell_angle_gamma 121.472909
_cell_volume 741.667948
_symmetry_space_group_name_H-M "P -1"
_symmetry_group_IT_number 2
_symmetry_cell_setting 'triclinic'
loop_
_space_group_symop_operation_xyz
x,y,z
-x,-y,-z
loop_
_atom_site_type_symbol
_atom_site_label
_atom_site_fract_x
_atom_site_fract_y
_atom_site_fract_z
Si Si1 0.392676 0.417877 0.366179
Si Si2 0.179217 0.805276 0.610384
Si Si3 0.707852 0.155351 0.862845
Si Si4 0.114297 0.315750 0.285964
Si Si5 0.713410 0.036750 0.597999
Si Si6 0.045780 0.670229 0.153798
Si Si7 0.408885 0.382784 0.203196
Si Si8 0.936501 0.635475 0.452914
O O1 0.568825 0.203511 0.655597
O O2 0.363039 0.667455 0.227248
O O3 0.285485 0.286570 0.412572
O O4 0.366091 0.521458 0.171813
O O5 0.259865 0.888184 0.533826
O O6 0.047917 0.737751 0.515709
O O7 0.108633 0.041929 0.464057
O O8 0.306012 0.562930 0.922594
O O9 0.840996 0.208430 0.877267
O O10 0.773839 0.868689 0.147176
O O11 0.056787 0.439573 0.255767
O O12 0.000000 0.500000 0.000000
O O13 0.592011 0.288665 0.384071
O O14 0.628684 0.856509 0.647420
O O15 0.873669 0.896934 0.869611
O O16 0.090784 0.560682 0.364619
O O17 0.000000 0.500000 0.500000
#
# Coordination Sequence:
#
# PCOD8022230 Si02
#       8
#     2   2   2   2   2   2   2   2
#     4  10  22  45  68  99 129 180 218 270 342 389
#     4  12  23  43  67 103 134 173 223 280 338 393
#     4  10  24  47  67  91 140 173 224 275 324 401
#     4  11  21  42  74 101 137 168 216 288 335 397
#     4  11  22  42  63  96 140 167 221 274 335 399
#     4  11  23  45  68 100 130 180 226 268 340 392
#     4  11  24  38  69  98 134 178 218 277 336 399
#     4  12  28  43  67  99 135 179 229 269 323 411
#
# _framework density 21.572994999999999
#
# number of rings (size 3 to 8) (size 9 to 14) (size 15 to 20)
#    0.000    1.000    5.000    1.125    3.500    2.000 
#    4.500    1.875    0.000    0.000    0.000    0.000 
#    0.000    0.000    0.000    0.000    0.000    0.000 
#
# Total GULP energy -198425.668215 kJ/mol
# GULP energy per Si atom -12401.604263 kJ/mol
# Density = 2.152389 g / cm^3
# Si number density = 21.572995 Si / 1000 Ang^3
#
#
#
# Elastic Constant Matrix: (Units=GPa)
#
#
# Indices 1 2 3 4 5 6 
#
# 1 72.8840 -1.4965 41.9458 7.7698 -8.5467 -11.9891
# 2 -1.4965 50.7980 10.3808 7.5372 5.7781 -3.5493
# 3 41.9458 10.3808 89.6567 20.9220 1.4188 -8.3148
# 4 7.7698 7.5372 20.9220 28.2570 0.8648 4.0689
# 5 -8.5467 5.7781 1.4188 0.8648 44.4974 8.5518
# 6 -11.9891 -3.5493 -8.3148 4.0689 8.5518 30.5840
#
#
#
# Elastic Compliance Matrix: (Units=1/GPa)
#
#
# Indices 1 2 3 4 5 6 
#
# 1 0.020329 0.002542 -0.009365 -0.000132 0.002931 0.004916
# 2 0.002542 0.021652 -0.001909 -0.005628 -0.003035 0.004587
# 3 -0.009365 -0.001909 0.018725 -0.011192 -0.002586 0.003410
# 4 -0.000132 -0.005628 -0.011192 0.046668 0.002186 -0.010567
# 5 0.002931 -0.003035 -0.002586 0.002186 0.024843 -0.007144
# 6 0.004916 0.004587 0.003410 -0.010567 -0.007144 0.039487
#
#
# Mechanical properties :
#
#
# Convention : Reuss Voigt Hill
#
# Bulk Modulus (GPa) = 23.12614 34.99989 29.06302
# Shear Modulus (GPa) = 24.56027 31.50160 28.03094
#
# Velocity S-wave (km/s) = 3.37779 3.82545 3.60856
# Velocity P-wave (km/s) = 5.09469 5.98090 5.55549
#
# Compressibility (1/GPa) = 0.04324110
#
# Stress axis : x y z
#
# Youngs Moduli (GPa) = 49.19189 46.18571 53.40489
#
# Poissons Ratio (x) = -0.11742 0.50013
# Poissons Ratio (y) = -0.12506 0.10197
# Poissons Ratio (z) = 0.46067 0.08819
#
# Static dielectric constant tensor:
#      x y z
#    x 4.311150 -0.108730 0.204140 
#    y -0.108730 4.023790 -0.004870 
#    z 0.204140 -0.004870 4.147700 
# 
# 
# High freq. dielectric constant tensor:
#      x y z
#    x 1.854140 -0.007470 0.005330 
#    y -0.007470 1.839900 0.005740 
#    z 0.005330 0.005740 1.855530 
# 
# From -- ./inp_files/314201.got.cif
#   From: 2010.06.25/outbox.cif.g09.slc.cpg/sg2_158_cif.got.tgz:314201.got - 2010.06.27 13:26:56.
