data_PCOD8022723
_publ_section_title
;
Structure prediction by ZEFSAII (Michael W. Deem and Ramdas Pophale) SiO2 
 PCOD8022723
Probable space group: P -1
;
_chemical_formula_sum "Si O2"
_cell_formula_units_Z 12
_cell_length_a 15.598166
_cell_length_b 6.722979
_cell_length_c 10.106753
_cell_angle_alpha 127.831277
_cell_angle_beta 137.947713
_cell_angle_gamma 45.621818
_cell_volume 497.513294
_symmetry_space_group_name_H-M "P -1"
_symmetry_group_IT_number 2
_symmetry_cell_setting 'triclinic'
loop_
_space_group_symop_operation_xyz
x,y,z
-x,-y,-z
loop_
_atom_site_type_symbol
_atom_site_label
_atom_site_fract_x
_atom_site_fract_y
_atom_site_fract_z
Si Si1 0.773974 0.768325 0.375954
Si Si2 0.981046 0.114367 0.376456
Si Si3 0.353973 0.208778 0.494413
Si Si4 0.377923 0.126691 0.036571
Si Si5 0.494861 0.446674 0.165316
Si Si6 0.772368 0.949407 0.935388
O O1 0.871492 0.444356 0.396590
O O2 0.656767 0.901643 0.415922
O O3 0.702475 0.784898 0.160074
O O4 0.870152 0.932903 0.539873
O O5 0.921786 0.945533 0.143986
O O6 0.000000 0.000000 0.500000
O O7 0.364111 0.503774 0.633757
O O8 0.500000 0.000000 0.500000
O O9 0.218437 0.222303 0.259817
O O10 0.471020 0.781137 0.008615
O O11 0.476062 0.291596 0.214453
O O12 0.267745 0.222880 0.069987
O O13 0.349639 0.726850 0.082245
#
# Coordination Sequence:
#
# PCOD8022723 Si02
#       6
#     2   2   2   2   2   2
#     4  11  24  43  67 100 125 172 226 270 317 384
#     4  11  23  44  73  92 126 173 231 274 305 378
#     4  10  25  43  62  97 146 167 203 270 342 395
#     4  11  22  37  71  96 123 174 227 266 321 379
#     4  10  23  38  63  98 132 169 214 270 323 387
#     4  11  22  43  62  97 133 171 213 268 331 387
#
# _framework density 24.119959999999999
#
# number of rings (size 3 to 8) (size 9 to 14) (size 15 to 20)
#    0.000    1.333    3.333    1.500    9.333    1.333 
#    3.000    0.833    0.000    0.000    0.000    0.000 
#    0.000    0.000    0.000    0.000    0.000    0.000 
#
# Total GULP energy -148680.913778 kJ/mol
# GULP energy per Si atom -12390.076148 kJ/mol
# Density = 2.406506 g / cm^3
# Si number density = 24.119960 Si / 1000 Ang^3
#
#
#
# Elastic Constant Matrix: (Units=GPa)
#
#
# Indices 1 2 3 4 5 6 
#
# 1 126.6846 26.1019 35.8348 19.0786 2.2791 39.3612
# 2 26.1019 64.3267 33.0745 -4.7370 0.3952 21.8537
# 3 35.8348 33.0745 163.2960 8.1117 11.3356 39.5508
# 4 19.0786 -4.7370 8.1117 27.9223 16.6531 10.3236
# 5 2.2791 0.3952 11.3356 16.6531 44.3763 4.1218
# 6 39.3612 21.8537 39.5508 10.3236 4.1218 37.0460
#
#
#
# Elastic Compliance Matrix: (Units=1/GPa)
#
#
# Indices 1 2 3 4 5 6 
#
# 1 0.012593 -0.002087 0.000493 -0.006638 0.002771 -0.011135
# 2 -0.002087 0.022242 -0.001430 0.012039 -0.003093 -0.012387
# 3 0.000493 -0.001430 0.008541 0.001377 -0.001877 -0.008973
# 4 -0.006638 0.012039 0.001377 0.060690 -0.021402 -0.016050
# 5 0.002771 -0.003093 -0.001877 -0.021402 0.030611 0.003443
# 6 -0.011135 -0.012387 -0.008973 -0.016050 0.003443 0.059801
#
#
# Mechanical properties :
#
#
# Convention : Reuss Voigt Hill
#
# Bulk Modulus (GPa) = 26.78911 60.48107 43.63509
# Shear Modulus (GPa) = 23.47770 39.15533 31.31651
#
# Velocity S-wave (km/s) = 3.12328 4.03346 3.60719
# Velocity P-wave (km/s) = 4.91296 6.84261 5.95645
#
# Compressibility (1/GPa) = 0.03732860
#
# Stress axis : x y z
#
# Youngs Moduli (GPa) = 79.40663 44.96082 117.08874
#
# Poissons Ratio (x) = 0.09382 -0.05776
# Poissons Ratio (y) = 0.16570 0.16744
# Poissons Ratio (z) = -0.03917 0.06429
#
# Static dielectric constant tensor:
#      x y z
#    x 4.610730 0.464930 0.422800 
#    y 0.464930 4.470850 0.280740 
#    z 0.422800 0.280740 5.042580 
# 
# 
# High freq. dielectric constant tensor:
#      x y z
#    x 1.954860 0.035810 0.016700 
#    y 0.035810 1.947700 -0.004200 
#    z 0.016700 -0.004200 1.962480 
# 
# From -- ./inp_files/33815.got.cif
#   From: 2010.06.25/outbox.cif.g09.slc.cpg/sg2_17_cif.got.tgz:33815.got - 2010.06.27 13:26:56.
