data_PCOD8022190
_publ_section_title
;
Structure prediction by ZEFSAII (Michael W. Deem and Ramdas Pophale) SiO2 
 PCOD8022190
Probable space group: P -1
;
_chemical_formula_sum "Si O2"
_cell_formula_units_Z 16
_cell_length_a 8.960390
_cell_length_b 12.391396
_cell_length_c 8.498145
_cell_angle_alpha 89.652789
_cell_angle_beta 94.209822
_cell_angle_gamma 51.169426
_cell_volume 731.406802
_symmetry_space_group_name_H-M "P -1"
_symmetry_group_IT_number 2
_symmetry_cell_setting 'triclinic'
loop_
_space_group_symop_operation_xyz
x,y,z
-x,-y,-z
loop_
_atom_site_type_symbol
_atom_site_label
_atom_site_fract_x
_atom_site_fract_y
_atom_site_fract_z
Si Si1 0.110132 0.177643 0.777459
Si Si2 0.746627 0.756616 0.927182
Si Si3 0.120127 0.644723 0.808763
Si Si4 0.875008 0.162248 0.987351
Si Si5 0.453263 0.929009 0.625056
Si Si6 0.560750 0.655599 0.108937
Si Si7 0.799595 0.381765 0.542346
Si Si8 0.520180 0.310758 0.541157
O O1 0.930134 0.191098 0.827624
O O2 0.988006 0.319797 0.665153
O O3 0.241913 0.046478 0.675700
O O4 0.238119 0.164171 0.930219
O O5 0.603277 0.865932 0.781284
O O6 0.953236 0.641951 0.862622
O O7 0.681821 0.677806 0.006692
O O8 0.329572 0.509549 0.888737
O O9 0.114440 0.648074 0.623169
O O10 0.071522 0.787087 0.861326
O O11 0.648916 0.247273 0.982299
O O12 0.000000 0.000000 0.000000
O O13 0.442550 0.814878 0.551165
O O14 0.500000 0.000000 0.500000
O O15 0.547687 0.696478 0.290390
O O16 0.705230 0.305762 0.562171
O O17 0.646827 0.545998 0.562097
#
# Coordination Sequence:
#
# PCOD8022190 Si02
#       8
#     2   2   2   2   2   2   2   2
#     4  11  24  44  67  97 136 178 224 277 332 407
#     4  11  25  44  67 102 136 176 225 279 338 404
#     4  10  24  41  68  96 132 176 224 278 329 402
#     4  11  24  40  61  97 132 174 220 276 336 394
#     4  12  26  44  69 101 138 183 224 277 346 410
#     4  11  22  44  67  97 132 177 224 275 338 394
#     4  10  22  45  68 100 135 176 231 280 337 392
#     4  10  24  42  70 100 136 179 224 285 335 401
#
# _framework density 21.875651999999999
#
# number of rings (size 3 to 8) (size 9 to 14) (size 15 to 20)
#    0.000    1.250    1.250    3.375    3.500    7.500 
#    0.000    3.125    0.000    0.000    0.000    0.000 
#    0.000    0.000    0.000    0.000    0.000    0.000 
#
# Total GULP energy -198308.984059 kJ/mol
# GULP energy per Si atom -12394.311504 kJ/mol
# Density = 2.182586 g / cm^3
# Si number density = 21.875652 Si / 1000 Ang^3
#
#
#
# Elastic Constant Matrix: (Units=GPa)
#
#
# Indices 1 2 3 4 5 6 
#
# 1 87.0200 35.8065 42.2972 1.2158 -3.2142 -5.0082
# 2 35.8065 104.0436 44.9830 7.4382 -1.7691 1.8817
# 3 42.2972 44.9830 124.3248 -7.8004 -2.0926 2.8844
# 4 1.2158 7.4382 -7.8004 35.9690 -9.6868 -1.8069
# 5 -3.2142 -1.7691 -2.0926 -9.6868 29.6500 -1.7046
# 6 -5.0082 1.8817 2.8844 -1.8069 -1.7046 38.1415
#
#
#
# Elastic Compliance Matrix: (Units=1/GPa)
#
#
# Indices 1 2 3 4 5 6 
#
# 1 0.015012 -0.003496 -0.003890 -0.000172 0.001231 0.002485
# 2 -0.003496 0.012632 -0.003604 -0.003630 -0.001125 -0.001032
# 3 -0.003890 -0.003604 0.010935 0.003534 0.001236 -0.000937
# 4 -0.000172 -0.003630 0.003534 0.032294 0.010674 0.001896
# 5 0.001231 -0.001125 0.001236 0.010674 0.037500 0.002305
# 6 0.002485 -0.001032 -0.000937 0.001896 0.002305 0.026859
#
#
# Mechanical properties :
#
#
# Convention : Reuss Voigt Hill
#
# Bulk Modulus (GPa) = 60.24521 62.39574 61.32048
# Shear Modulus (GPa) = 30.72294 33.57222 32.14758
#
# Velocity S-wave (km/s) = 3.75165 3.92175 3.83764
# Velocity P-wave (km/s) = 6.80926 7.00655 6.90861
#
# Compressibility (1/GPa) = 0.01659883
#
# Stress axis : x y z
#
# Youngs Moduli (GPa) = 66.61402 79.16600 91.44941
#
# Poissons Ratio (x) = 0.27678 0.35573
# Poissons Ratio (y) = 0.23290 0.32955
# Poissons Ratio (z) = 0.25913 0.28529
#
# Static dielectric constant tensor:
#      x y z
#    x 3.963360 -0.207720 -0.154210 
#    y -0.207720 3.945400 0.058170 
#    z -0.154210 0.058170 3.934730 
# 
# 
# High freq. dielectric constant tensor:
#      x y z
#    x 1.859100 -0.017990 -0.013380 
#    y -0.017990 1.862760 -0.001130 
#    z -0.013380 -0.001130 1.875800 
# 
# From -- ./inp_files/186708.got.cif
#   From: 2010.06.25/outbox.cif.g09.slc.cpg/sg2_94_cif.got.tgz:186708.got - 2010.06.27 13:26:56.
