data_PCOD8022861
_publ_section_title
;
Structure prediction by ZEFSAII (Michael W. Deem and Ramdas Pophale) SiO2 
 PCOD8022861
Probable space group: P -1
;
_chemical_formula_sum "Si O2"
_cell_formula_units_Z 14
_cell_length_a 16.016709
_cell_length_b 25.451837
_cell_length_c 5.385454
_cell_angle_alpha 124.767256
_cell_angle_beta 52.205316
_cell_angle_gamma 157.488855
_cell_volume 664.143394
_symmetry_space_group_name_H-M "P -1"
_symmetry_group_IT_number 2
_symmetry_cell_setting 'triclinic'
loop_
_space_group_symop_operation_xyz
x,y,z
-x,-y,-z
loop_
_atom_site_type_symbol
_atom_site_label
_atom_site_fract_x
_atom_site_fract_y
_atom_site_fract_z
Si Si1 0.058947 0.411752 0.341093
Si Si2 0.619917 0.206422 0.829584
Si Si3 0.890227 0.867040 0.238814
Si Si4 0.528673 0.282888 0.483662
Si Si5 0.158826 0.906733 0.656860
Si Si6 0.131871 0.008210 0.683760
Si Si7 0.949149 0.297572 0.727306
O O1 0.237195 0.565037 0.426847
O O2 0.803489 0.303568 0.531381
O O3 0.102361 0.390043 0.447954
O O4 0.088093 0.388087 0.968351
O O5 0.730304 0.226920 0.916714
O O6 0.392472 0.047131 0.748447
O O7 0.573924 0.255410 0.111894
O O8 0.623320 0.739344 0.409663
O O9 0.030176 0.968558 0.490176
O O10 0.946954 0.821891 0.978030
O O11 0.979636 0.951115 0.045415
O O12 0.387765 0.173855 0.669651
O O13 0.157504 0.944922 0.501103
O O14 0.133305 0.819019 0.417894
#
# Coordination Sequence:
#
# PCOD8022861 Si02
#       7
#     2   2   2   2   2   2   2
#     4  10  27  41  63  96 130 180 202 258 316 387
#     4  10  24  41  68  97 125 174 206 272 313 371
#     4  10  24  39  67 102 120 166 207 274 324 362
#     4  12  22  45  65  97 137 160 217 256 329 387
#     4  10  23  42  69  94 127 162 223 265 318 361
#     4  10  23  39  66  99 123 164 206 273 319 365
#     4  10  25  44  63  94 129 171 220 253 314 378
#
# _framework density 21.079784
#
# number of rings (size 3 to 8) (size 9 to 14) (size 15 to 20)
#    1.714    0.000    1.429    1.714    4.000    4.571 
#    0.000    1.429    0.000    0.000    0.000    0.000 
#    0.000    0.000    0.000    0.000    0.000    0.000 
#
# Total GULP energy -173445.824983 kJ/mol
# GULP energy per Si atom -12388.987499 kJ/mol
# Density = 2.103181 g / cm^3
# Si number density = 21.079784 Si / 1000 Ang^3
#
#
#
# Elastic Constant Matrix: (Units=GPa)
#
#
# Indices 1 2 3 4 5 6 
#
# 1 97.8208 35.6867 50.7331 0.6746 7.5852 -8.9517
# 2 35.6867 83.7981 56.8305 18.7896 -12.4813 -8.6299
# 3 50.7331 56.8305 119.9541 18.7485 8.8526 1.4300
# 4 0.6746 18.7896 18.7485 31.7142 2.6120 -3.8975
# 5 7.5852 -12.4813 8.8526 2.6120 43.5140 -7.0066
# 6 -8.9517 -8.6299 1.4300 -3.8975 -7.0066 17.7314
#
#
#
# Elastic Compliance Matrix: (Units=1/GPa)
#
#
# Indices 1 2 3 4 5 6 
#
# 1 0.015188 -0.003533 -0.005664 0.006130 -0.001739 0.007065
# 2 -0.003533 0.026117 -0.010745 -0.008267 0.013238 0.015208
# 3 -0.005664 -0.010745 0.017283 -0.004771 -0.007497 -0.013494
# 4 0.006130 -0.008267 -0.004771 0.040269 -0.003790 0.006810
# 5 -0.001739 0.013238 -0.007497 -0.003790 0.031711 0.017868
# 6 0.007065 0.015208 -0.013494 0.006810 0.017868 0.077011
#
#
# Mechanical properties :
#
#
# Convention : Reuss Voigt Hill
#
# Bulk Modulus (GPa) = 53.46529 65.34152 59.40340
# Shear Modulus (GPa) = 19.70847 29.14677 24.42762
#
# Velocity S-wave (km/s) = 3.06101 3.72249 3.40783
# Velocity P-wave (km/s) = 6.15722 7.03849 6.61256
#
# Compressibility (1/GPa) = 0.01870373
#
# Stress axis : x y z
#
# Youngs Moduli (GPa) = 65.84053 38.28933 57.86124
#
# Poissons Ratio (x) = 0.13527 0.32772
# Poissons Ratio (y) = 0.23260 0.62174
# Poissons Ratio (z) = 0.37292 0.41143
#
# Static dielectric constant tensor:
#      x y z
#    x 3.819780 0.082290 -0.068250 
#    y 0.082290 3.508600 -0.098130 
#    z -0.068250 -0.098130 3.777350 
# 
# 
# High freq. dielectric constant tensor:
#      x y z
#    x 1.832100 0.002670 -0.004870 
#    y 0.002670 1.797980 -0.002860 
#    z -0.004870 -0.002860 1.833890 
# 
# From -- ./inp_files/113270.got.cif
#   From: 2010.06.25/outbox.cif.g09.slc.cpg/sg2_57_cif.got.tgz:113270.got - 2010.06.27 13:26:56.
