data_PCOD8022429
_publ_section_title
;
Structure prediction by ZEFSAII (Michael W. Deem and Ramdas Pophale) SiO2 
 PCOD8022429
Probable space group: P -1
;
_chemical_formula_sum "Si O2"
_cell_formula_units_Z 14
_cell_length_a 10.707904
_cell_length_b 11.646535
_cell_length_c 12.102860
_cell_angle_alpha 49.352960
_cell_angle_beta 50.248545
_cell_angle_gamma 34.128721
_cell_volume 624.448254
_symmetry_space_group_name_H-M "P -1"
_symmetry_group_IT_number 2
_symmetry_cell_setting 'triclinic'
loop_
_space_group_symop_operation_xyz
x,y,z
-x,-y,-z
loop_
_atom_site_type_symbol
_atom_site_label
_atom_site_fract_x
_atom_site_fract_y
_atom_site_fract_z
Si Si1 0.143229 0.489696 0.016653
Si Si2 0.913861 0.163407 0.779452
Si Si3 0.037771 0.171394 0.928298
Si Si4 0.455802 0.466619 0.716773
Si Si5 0.058377 0.349050 0.462305
Si Si6 0.544403 0.904071 0.765762
Si Si7 0.406423 0.333626 0.601915
O O1 0.252625 0.569246 0.853069
O O2 0.333064 0.246735 0.102193
O O3 0.000000 0.500000 0.000000
O O4 0.987945 0.652169 0.104246
O O5 0.687255 0.279727 0.767018
O O6 0.076622 0.165203 0.613124
O O7 0.867249 0.277956 0.852427
O O8 0.022593 0.928809 0.893756
O O9 0.294474 0.992428 0.844045
O O10 0.423965 0.369006 0.696803
O O11 0.447575 0.644278 0.568455
O O12 0.859131 0.491502 0.393853
O O13 0.000000 0.500000 0.500000
O O14 0.303793 0.230513 0.344890
O O15 0.528415 0.093923 0.669302
#
# Coordination Sequence:
#
# PCOD8022429 Si02
#       7
#     2   2   2   2   2   2   2
#     4  12  26  42  68 100 136 181 225 279 336 400
#     4  10  23  45  67  96 137 178 222 279 339 395
#     4  11  25  44  66 103 136 173 236 276 327 415
#     4  10  22  46  66  98 137 180 218 284 339 390
#     4  11  24  45  68 101 137 177 225 281 333 403
#     4  12  24  43  70  99 133 180 222 280 334 396
#     4  10  24  43  68 100 137 172 232 275 331 412
#
# _framework density 22.419789999999999
#
# number of rings (size 3 to 8) (size 9 to 14) (size 15 to 20)
#    0.000    1.143    1.429    4.286    4.000    4.000 
#    7.714    2.857    0.000    0.000    0.000    0.000 
#    0.000    0.000    0.000    0.000    0.000    0.000 
#
# Total GULP energy -173578.321518 kJ/mol
# GULP energy per Si atom -12398.451537 kJ/mol
# Density = 2.236876 g / cm^3
# Si number density = 22.419790 Si / 1000 Ang^3
#
#
#
# Elastic Constant Matrix: (Units=GPa)
#
#
# Indices 1 2 3 4 5 6 
#
# 1 103.5828 26.3866 26.1947 -18.2133 28.2834 10.2716
# 2 26.3866 92.7679 46.4599 -6.5681 1.5449 12.9654
# 3 26.1947 46.4599 134.0947 -10.6326 -6.4954 -4.2608
# 4 -18.2133 -6.5681 -10.6326 30.3155 -4.4008 -1.4950
# 5 28.2834 1.5449 -6.4954 -4.4008 47.0331 -2.2396
# 6 10.2716 12.9654 -4.2608 -1.4950 -2.2396 31.0747
#
#
#
# Elastic Compliance Matrix: (Units=1/GPa)
#
#
# Indices 1 2 3 4 5 6 
#
# 1 0.014609 -0.001742 -0.002341 0.006079 -0.008709 -0.004758
# 2 -0.001742 0.014632 -0.004945 0.000022 -0.000411 -0.006236
# 3 -0.002341 -0.004945 0.010074 0.001765 0.003343 0.004544
# 4 0.006079 0.000022 0.001765 0.037275 0.000076 0.000022
# 5 -0.008709 -0.000411 0.003343 0.000076 0.027242 0.005475
# 6 -0.004758 -0.006236 0.004544 0.000022 0.005475 0.037374
#
#
# Mechanical properties :
#
#
# Convention : Reuss Voigt Hill
#
# Bulk Modulus (GPa) = 47.04273 58.72529 52.88401
# Shear Modulus (GPa) = 30.05735 37.11160 33.58447
#
# Velocity S-wave (km/s) = 3.66548 4.07296 3.87458
# Velocity P-wave (km/s) = 6.24039 6.95478 6.60725
#
# Compressibility (1/GPa) = 0.02125727
#
# Stress axis : x y z
#
# Youngs Moduli (GPa) = 68.45228 68.34418 99.26090
#
# Poissons Ratio (x) = 0.11908 0.23238
# Poissons Ratio (y) = 0.11927 0.49089
# Poissons Ratio (z) = 0.16025 0.33799
#
# Static dielectric constant tensor:
#      x y z
#    x 4.111800 -0.050560 -0.066180 
#    y -0.050560 3.726570 -0.176910 
#    z -0.066180 -0.176910 4.754720 
# 
# 
# High freq. dielectric constant tensor:
#      x y z
#    x 1.894290 0.001220 -0.002990 
#    y 0.001220 1.851790 -0.012030 
#    z -0.002990 -0.012030 1.918420 
# 
# From -- ./inp_files/72590.got.cif
#   From: 2010.06.25/outbox.cif.g09.slc.cpg/sg2_37_cif.got.tgz:72590.got - 2010.06.27 13:26:56.
