data_PCOD8022606
_publ_section_title
;
Structure prediction by ZEFSAII (Michael W. Deem and Ramdas Pophale) SiO2 
 PCOD8022606
Probable space group: P -1
;
_chemical_formula_sum "Si O2"
_cell_formula_units_Z 14
_cell_length_a 8.925020
_cell_length_b 8.634958
_cell_length_c 18.949685
_cell_angle_alpha 35.876182
_cell_angle_beta 59.156790
_cell_angle_gamma 44.701305
_cell_volume 594.883122
_symmetry_space_group_name_H-M "P -1"
_symmetry_group_IT_number 2
_symmetry_cell_setting 'triclinic'
loop_
_space_group_symop_operation_xyz
x,y,z
-x,-y,-z
loop_
_atom_site_type_symbol
_atom_site_label
_atom_site_fract_x
_atom_site_fract_y
_atom_site_fract_z
Si Si1 0.292523 0.702710 0.336698
Si Si2 0.989166 0.821471 0.888894
Si Si3 0.762476 0.818975 0.454580
Si Si4 0.376606 0.843859 0.784380
Si Si5 0.224110 0.849454 0.040584
Si Si6 0.022330 0.954868 0.594041
Si Si7 0.677167 0.762140 0.218142
O O1 0.367834 0.333481 0.434847
O O2 0.483227 0.732426 0.265606
O O3 0.086743 0.974237 0.240311
O O4 0.206835 0.792453 0.405290
O O5 0.224404 0.730367 0.882426
O O6 0.816641 0.045675 0.907399
O O7 0.000000 0.500000 0.000000
O O8 0.000000 0.500000 0.500000
O O9 0.647011 0.050620 0.329667
O O10 0.789853 0.009232 0.439606
O O11 0.622908 0.543381 0.852798
O O12 0.313580 0.145462 0.737722
O O13 0.352846 0.972278 0.926916
O O14 0.000000 0.000000 0.000000
O O15 0.101604 0.585018 0.726107
O O16 0.000000 0.000000 0.500000
#
# Coordination Sequence:
#
# PCOD8022606 Si02
#       7
#     2   2   2   2   2   2   2
#     4  11  26  47  74 109 154 188 237 310 364 437
#     4  12  26  46  78 106 147 193 244 305 367 431
#     4  10  22  48  73 107 147 190 240 294 371 435
#     4  12  26  48  77 105 150 195 241 305 369 436
#     4  12  29  47  75 108 146 196 251 301 361 435
#     4  11  25  44  77 107 148 191 245 299 361 443
#     4  12  27  46  73 110 146 194 248 299 369 427
#
# _framework density 23.534034999999999
#
# number of rings (size 3 to 8) (size 9 to 14) (size 15 to 20)
#    0.000    0.571    4.286    3.857    6.000    4.000 
#    0.000    0.000    0.000    0.000    0.000    0.000 
#    0.000    0.000    0.000    0.000    0.000    0.000 
#
# Total GULP energy -173649.304767 kJ/mol
# GULP energy per Si atom -12403.521769 kJ/mol
# Density = 2.348047 g / cm^3
# Si number density = 23.534035 Si / 1000 Ang^3
#
#
#
# Elastic Constant Matrix: (Units=GPa)
#
#
# Indices 1 2 3 4 5 6 
#
# 1 123.9156 33.6869 55.1323 -1.9267 -11.5141 2.0388
# 2 33.6869 74.3537 32.8517 1.7857 -3.6753 19.9415
# 3 55.1323 32.8517 143.5757 -7.9078 -3.9662 5.5239
# 4 -1.9267 1.7857 -7.9078 48.5316 3.6834 -3.7387
# 5 -11.5141 -3.6753 -3.9662 3.6834 47.3253 3.9003
# 6 2.0388 19.9415 5.5239 -3.7387 3.9003 44.9017
#
#
#
# Elastic Compliance Matrix: (Units=1/GPa)
#
#
# Indices 1 2 3 4 5 6 
#
# 1 0.010674 -0.003670 -0.003260 -0.000012 0.001926 0.001378
# 2 -0.003670 0.018505 -0.002593 -0.001951 0.001138 -0.007994
# 3 -0.003260 -0.002593 0.008866 0.001469 -0.000396 0.000366
# 4 -0.000012 -0.001951 0.001469 0.021262 -0.001902 0.002622
# 5 0.001926 0.001138 -0.000396 -0.001902 0.022018 -0.002615
# 6 0.001378 -0.007994 0.000366 0.002622 -0.002615 0.026159
#
#
# Mechanical properties :
#
#
# Convention : Reuss Voigt Hill
#
# Bulk Modulus (GPa) = 52.63398 65.02075 58.82736
# Shear Modulus (GPa) = 37.63300 42.83001 40.23151
#
# Velocity S-wave (km/s) = 4.00320 4.27068 4.13910
# Velocity P-wave (km/s) = 6.61673 7.21156 6.92054
#
# Compressibility (1/GPa) = 0.01899913
#
# Stress axis : x y z
#
# Youngs Moduli (GPa) = 93.68545 54.04015 112.79164
#
# Poissons Ratio (x) = 0.19832 0.36765
# Poissons Ratio (y) = 0.34381 0.29251
# Poissons Ratio (z) = 0.30537 0.14015
#
# Static dielectric constant tensor:
#      x y z
#    x 4.406410 0.019300 -0.258370 
#    y 0.019300 4.488050 -0.147390 
#    z -0.258370 -0.147390 4.609010 
# 
# 
# High freq. dielectric constant tensor:
#      x y z
#    x 1.935090 0.004330 -0.007120 
#    y 0.004330 1.939640 -0.005380 
#    z -0.007120 -0.005380 1.944340 
# 
# From -- ./inp_files/587694.got.cif
#   From: 2010.06.25/outbox.cif.g09.slc.cpg/sg2_294_cif.got.tgz:587694.got - 2010.06.27 13:26:56.
