data_PCOD8022388
_publ_section_title
;
Structure prediction by ZEFSAII (Michael W. Deem and Ramdas Pophale) SiO2 
 PCOD8022388
Probable space group: P -1
;
_chemical_formula_sum "Si O2"
_cell_formula_units_Z 16
_cell_length_a 9.558903
_cell_length_b 17.011087
_cell_length_c 5.297924
_cell_angle_alpha 112.249400
_cell_angle_beta 102.568494
_cell_angle_gamma 64.841369
_cell_volume 720.047806
_symmetry_space_group_name_H-M "P -1"
_symmetry_group_IT_number 2
_symmetry_cell_setting 'triclinic'
loop_
_space_group_symop_operation_xyz
x,y,z
-x,-y,-z
loop_
_atom_site_type_symbol
_atom_site_label
_atom_site_fract_x
_atom_site_fract_y
_atom_site_fract_z
Si Si1 0.394913 0.961492 0.571791
Si Si2 0.143882 0.391702 0.691068
Si Si3 0.828820 0.009158 0.895855
Si Si4 0.295810 0.799190 0.752131
Si Si5 0.398853 0.232420 0.364482
Si Si6 0.197439 0.134454 0.995121
Si Si7 0.142160 0.760113 0.148947
Si Si8 0.957952 0.401144 0.124085
O O1 0.244872 0.956144 0.362918
O O2 0.503085 0.858390 0.555655
O O3 0.500000 0.000000 0.500000
O O4 0.329151 0.037749 0.851600
O O5 0.317196 0.316918 0.625409
O O6 0.036839 0.384917 0.409795
O O7 0.151263 0.492154 0.824176
O O8 0.082738 0.369993 0.907600
O O9 0.834292 0.904786 0.797367
O O10 0.731144 0.092123 0.153106
O O11 0.000000 0.000000 0.000000
O O12 0.482892 0.743679 0.744940
O O13 0.219696 0.768213 0.450429
O O14 0.228802 0.781430 0.969181
O O15 0.262824 0.214749 0.134883
O O16 0.038406 0.171350 0.820622
O O17 0.151860 0.656257 0.999884
#
# Coordination Sequence:
#
# PCOD8022388 Si02
#       8
#     2   2   2   2   2   2   2   2
#     4  12  25  39  63  94 139 182 227 286 338 402
#     4  10  23  43  74 108 131 178 220 296 335 414
#     4  12  24  42  61  91 136 182 236 277 330 394
#     4  12  27  43  64 100 143 182 225 286 343 408
#     4  12  25  45  65 103 139 181 231 281 358 406
#     4  12  25  41  66  95 130 189 235 279 328 405
#     4  12  26  45  71 100 136 185 231 285 340 404
#     4  10  22  45  74 104 137 165 238 282 345 400
#
# _framework density 22.220748
#
# number of rings (size 3 to 8) (size 9 to 14) (size 15 to 20)
#    0.000    0.500    5.000    3.375    1.750    3.000 
#    0.000    1.250    0.000    0.000    0.000    0.000 
#    0.000    0.000    0.000    0.000    0.000    0.000 
#
# Total GULP energy -198251.684462 kJ/mol
# GULP energy per Si atom -12390.730279 kJ/mol
# Density = 2.217017 g / cm^3
# Si number density = 22.220748 Si / 1000 Ang^3
#
#
#
# Elastic Constant Matrix: (Units=GPa)
#
#
# Indices 1 2 3 4 5 6 
#
# 1 102.6054 31.5408 12.6160 10.1253 -4.5618 -9.8883
# 2 31.5408 88.4547 14.2271 27.6547 -13.7403 0.3174
# 3 12.6160 14.2271 76.0669 6.8210 -8.5494 3.9774
# 4 10.1253 27.6547 6.8210 41.5330 -3.2931 -3.7376
# 5 -4.5618 -13.7403 -8.5494 -3.2931 30.7082 9.7271
# 6 -9.8883 0.3174 3.9774 -3.7376 9.7271 36.4915
#
#
#
# Elastic Compliance Matrix: (Units=1/GPa)
#
#
# Indices 1 2 3 4 5 6 
#
# 1 0.011502 -0.004313 -0.001555 0.000526 -0.001821 0.003863
# 2 -0.004313 0.017231 -0.000575 -0.010139 0.007153 -0.004201
# 3 -0.001555 -0.000575 0.014314 -0.001539 0.004378 -0.003301
# 4 0.000526 -0.010139 -0.001539 0.031113 -0.002934 0.004367
# 5 -0.001821 0.007153 0.004378 -0.002934 0.040217 -0.012053
# 6 0.003863 -0.004201 -0.003301 0.004367 -0.012053 0.032507
#
#
# Mechanical properties :
#
#
# Convention : Reuss Voigt Hill
#
# Bulk Modulus (GPa) = 33.15281 42.65496 37.90389
# Shear Modulus (GPa) = 29.44224 35.66276 32.55250
#
# Velocity S-wave (km/s) = 3.64399 4.01050 3.83163
# Velocity P-wave (km/s) = 5.71463 6.37834 6.05559
#
# Compressibility (1/GPa) = 0.03016335
#
# Stress axis : x y z
#
# Youngs Moduli (GPa) = 86.93862 58.03362 69.85994
#
# Poissons Ratio (x) = 0.25027 0.10863
# Poissons Ratio (y) = 0.37493 0.04016
# Poissons Ratio (z) = 0.13519 0.03336
#
# Static dielectric constant tensor:
#      x y z
#    x 4.384890 0.040770 -0.205490 
#    y 0.040770 4.158780 -0.010390 
#    z -0.205490 -0.010390 4.594450 
# 
# 
# High freq. dielectric constant tensor:
#      x y z
#    x 1.882180 0.004220 -0.003330 
#    y 0.004220 1.872090 0.004870 
#    z -0.003330 0.004870 1.877330 
# 
# From -- ./inp_files/48892.got.cif
#   From: 2010.06.25/outbox.cif.g09.slc.cpg/sg2_25_cif.got.tgz:48892.got - 2010.06.27 13:26:56.
