data_PCOD8022951
_publ_section_title
;
Structure prediction by ZEFSAII (Michael W. Deem and Ramdas Pophale) SiO2 
 PCOD8022951
Probable space group: P -1
;
_chemical_formula_sum "Si O2"
_cell_formula_units_Z 16
_cell_length_a 11.671604
_cell_length_b 13.107587
_cell_length_c 8.756231
_cell_angle_alpha 78.868302
_cell_angle_beta 55.780862
_cell_angle_gamma 123.173874
_cell_volume 639.998024
_symmetry_space_group_name_H-M "P -1"
_symmetry_group_IT_number 2
_symmetry_cell_setting 'triclinic'
loop_
_space_group_symop_operation_xyz
x,y,z
-x,-y,-z
loop_
_atom_site_type_symbol
_atom_site_label
_atom_site_fract_x
_atom_site_fract_y
_atom_site_fract_z
Si Si1 0.455949 0.948701 0.721251
Si Si2 0.706827 0.048231 0.780473
Si Si3 0.278807 0.567303 0.656592
Si Si4 0.213206 0.435068 0.270227
Si Si5 0.195263 0.279694 0.751887
Si Si6 0.708513 0.930113 0.086165
Si Si7 0.142917 0.566606 0.072833
Si Si8 0.579969 0.563763 0.165316
O O1 0.385034 0.011781 0.832550
O O2 0.500000 0.000000 0.500000
O O3 0.675324 0.025254 0.625043
O O4 0.240950 0.740712 0.949696
O O5 0.962432 0.247299 0.575967
O O6 0.699282 0.929023 0.905654
O O7 0.500000 0.000000 0.000000
O O8 0.173801 0.392935 0.731525
O O9 0.135985 0.581788 0.695549
O O10 0.547050 0.745210 0.342258
O O11 0.254766 0.560330 0.860268
O O12 0.194108 0.543178 0.202858
O O13 0.402760 0.541815 0.233030
O O14 0.282684 0.406916 0.081927
O O15 0.424311 0.390116 0.441001
O O16 0.236782 0.270100 0.901891
O O17 0.971208 0.081413 0.914655
#
# Coordination Sequence:
#
# PCOD8022951 Si02
#       8
#     2   2   2   2   2   2   2   2
#     4  11  22  37  64  99 138 176 208 270 354 402
#     4  10  23  40  62  98 136 173 211 273 345 394
#     4  11  23  38  69 104 136 167 226 285 338 400
#     4  11  22  43  68  94 136 180 222 280 335 392
#     4  11  22  45  69  98 128 183 232 270 334 397
#     4  11  22  42  64  99 138 170 216 277 342 397
#     4  11  22  37  64 106 133 168 227 282 336 412
#     4  10  24  41  70  91 131 187 230 271 325 397
#
# _framework density 25.000078999999999
#
# number of rings (size 3 to 8) (size 9 to 14) (size 15 to 20)
#    0.000    1.250    5.000    1.500    3.500    1.000 
#    0.000    5.000    5.500    3.000    0.000    0.000 
#    0.000    0.000    0.000    0.000    0.000    0.000 
#
# Total GULP energy -198251.786854 kJ/mol
# GULP energy per Si atom -12390.736678 kJ/mol
# Density = 2.494318 g / cm^3
# Si number density = 25.000079 Si / 1000 Ang^3
#
#
#
# Elastic Constant Matrix: (Units=GPa)
#
#
# Indices 1 2 3 4 5 6 
#
# 1 106.9591 17.4344 42.6057 2.4384 11.7582 48.4636
# 2 17.4344 52.9134 15.5931 1.2688 -1.0228 12.6119
# 3 42.6057 15.5931 101.7815 -9.5493 4.5969 9.9491
# 4 2.4384 1.2688 -9.5493 34.6521 2.0979 0.4960
# 5 11.7582 -1.0228 4.5969 2.0979 47.1694 4.6368
# 6 48.4636 12.6119 9.9491 0.4960 4.6368 48.6410
#
#
#
# Elastic Compliance Matrix: (Units=1/GPa)
#
#
# Indices 1 2 3 4 5 6 
#
# 1 0.021503 -0.000264 -0.007214 -0.003053 -0.002600 -0.019601
# 2 -0.000264 0.021013 -0.002854 -0.001550 0.001332 -0.004713
# 3 -0.007214 -0.002854 0.013176 0.004183 -0.000246 0.005213
# 4 -0.003053 -0.001550 0.004183 0.030325 -0.001265 0.002400
# 5 -0.002600 0.001332 -0.000246 -0.001265 0.021936 0.000218
# 6 -0.019601 -0.004713 0.005213 0.002400 0.000218 0.040199
#
#
# Mechanical properties :
#
#
# Convention : Reuss Voigt Hill
#
# Bulk Modulus (GPa) = 28.54796 45.88003 37.21400
# Shear Modulus (GPa) = 27.70224 38.49388 33.09806
#
# Velocity S-wave (km/s) = 3.33240 3.92822 3.64252
# Velocity P-wave (km/s) = 5.12352 6.24230 5.71038
#
# Compressibility (1/GPa) = 0.03502877
#
# Stress axis : x y z
#
# Youngs Moduli (GPa) = 46.50556 47.58972 75.89677
#
# Poissons Ratio (x) = 0.01257 0.54749
# Poissons Ratio (y) = 0.01229 0.21658
# Poissons Ratio (z) = 0.33547 0.13580
#
# Static dielectric constant tensor:
#      x y z
#    x 5.441200 0.722540 0.630790 
#    y 0.722540 4.445910 0.501780 
#    z 0.630790 0.501780 5.219100 
# 
# 
# High freq. dielectric constant tensor:
#      x y z
#    x 2.031670 0.016650 0.008950 
#    y 0.016650 1.968530 0.006340 
#    z 0.008950 0.006340 1.993200 
# 
# From -- ./inp_files/272401.got.cif
#   From: 2010.06.25/outbox.cif.g09.slc.cpg/sg2_137_cif.got.tgz:272401.got - 2010.06.27 13:26:56.
