data_PCOD8022848
_publ_section_title
;
Structure prediction by ZEFSAII (Michael W. Deem and Ramdas Pophale) SiO2 
 PCOD8022848
Probable space group: P -1
;
_chemical_formula_sum "Si O2"
_cell_formula_units_Z 16
_cell_length_a 9.776788
_cell_length_b 14.827486
_cell_length_c 9.264207
_cell_angle_alpha 99.693726
_cell_angle_beta 63.205898
_cell_angle_gamma 52.999807
_cell_volume 753.623934
_symmetry_space_group_name_H-M "P -1"
_symmetry_group_IT_number 2
_symmetry_cell_setting 'triclinic'
loop_
_space_group_symop_operation_xyz
x,y,z
-x,-y,-z
loop_
_atom_site_type_symbol
_atom_site_label
_atom_site_fract_x
_atom_site_fract_y
_atom_site_fract_z
Si Si1 0.063162 0.668734 0.361151
Si Si2 0.839428 0.183602 0.756753
Si Si3 0.519178 0.383367 0.200015
Si Si4 0.564764 0.653427 0.479070
Si Si5 0.900501 0.628362 0.177115
Si Si6 0.085922 0.667549 0.874002
Si Si7 0.782063 0.870409 0.800957
Si Si8 0.899525 0.109503 0.394074
O O1 0.057126 0.761552 0.288875
O O2 0.312211 0.550803 0.300807
O O3 0.049175 0.586968 0.240537
O O4 0.846279 0.774084 0.609433
O O5 0.774553 0.174170 0.627854
O O6 0.595725 0.294211 0.995829
O O7 0.029702 0.028693 0.703263
O O8 0.418703 0.356739 0.357397
O O9 0.754483 0.324258 0.136414
O O10 0.645118 0.713438 0.387170
O O11 0.726640 0.497038 0.301558
O O12 0.287321 0.767546 0.601154
O O13 0.000000 0.500000 0.000000
O O14 0.896254 0.718290 0.098816
O O15 0.924829 0.772111 0.846472
O O16 0.864291 0.935313 0.738229
O O17 0.500000 0.000000 0.000000
#
# Coordination Sequence:
#
# PCOD8022848 Si02
#       8
#     2   2   2   2   2   2   2   2
#     4  11  23  44  67 104 131 180 238 267 340 403
#     4  10  23  39  66 100 131 177 220 283 327 401
#     4  12  22  39  74  98 130 175 230 281 321 407
#     4  11  23  42  66  98 133 176 218 287 327 396
#     4  10  25  41  63 100 142 173 219 287 343 388
#     4  11  21  44  66 101 130 178 222 273 347 392
#     4  11  24  44  70  96 139 184 220 276 340 410
#     4  10  23  44  65  98 137 174 233 268 340 398
#
# _framework density 21.230747999999998
#
# number of rings (size 3 to 8) (size 9 to 14) (size 15 to 20)
#    0.000    1.250    3.750    2.250    3.500    5.000 
#    4.500    1.250    0.000    0.000    0.000    0.000 
#    0.000    0.000    0.000    0.000    0.000    0.000 
#
# Total GULP energy -198298.909835 kJ/mol
# GULP energy per Si atom -12393.681865 kJ/mol
# Density = 2.118243 g / cm^3
# Si number density = 21.230748 Si / 1000 Ang^3
#
#
#
# Elastic Constant Matrix: (Units=GPa)
#
#
# Indices 1 2 3 4 5 6 
#
# 1 90.1088 41.9889 46.7717 -0.7519 0.3430 -1.7190
# 2 41.9889 124.4346 60.9816 -0.0550 -2.3456 -4.0061
# 3 46.7717 60.9816 157.7487 -12.3802 -3.8364 6.7953
# 4 -0.7519 -0.0550 -12.3802 40.1592 2.3882 -6.4903
# 5 0.3430 -2.3456 -3.8364 2.3882 30.3579 -3.3924
# 6 -1.7190 -4.0061 6.7953 -6.4903 -3.3924 23.3193
#
#
#
# Elastic Compliance Matrix: (Units=1/GPa)
#
#
# Indices 1 2 3 4 5 6 
#
# 1 0.014232 -0.003282 -0.003052 -0.000454 -0.000635 0.001156
# 2 -0.003282 0.010900 -0.003388 -0.000729 0.000791 0.002530
# 3 -0.003052 -0.003388 0.008854 0.002204 0.000415 -0.002713
# 4 -0.000454 -0.000729 0.002204 0.026683 -0.001150 0.006458
# 5 -0.000635 0.000791 0.000415 -0.001150 0.033659 0.004545
# 6 0.001156 0.002530 -0.002713 0.006458 0.004545 0.046652
#
#
# Mechanical properties :
#
#
# Convention : Reuss Voigt Hill
#
# Bulk Modulus (GPa) = 68.76203 74.64183 71.70193
# Shear Modulus (GPa) = 30.25361 33.60393 31.92877
#
# Velocity S-wave (km/s) = 3.77900 3.98275 3.88221
# Velocity P-wave (km/s) = 7.17631 7.50889 7.34448
#
# Compressibility (1/GPa) = 0.01454291
#
# Stress axis : x y z
#
# Youngs Moduli (GPa) = 70.26588 91.74407 112.94840
#
# Poissons Ratio (x) = 0.30107 0.34471
# Poissons Ratio (y) = 0.23058 0.38262
# Poissons Ratio (z) = 0.21445 0.31079
#
# Static dielectric constant tensor:
#      x y z
#    x 3.714370 0.168950 -0.019240 
#    y 0.168950 3.848080 -0.337170 
#    z -0.019240 -0.337170 4.204040 
# 
# 
# High freq. dielectric constant tensor:
#      x y z
#    x 1.812090 0.005920 0.004940 
#    y 0.005920 1.829190 -0.024460 
#    z 0.004940 -0.024460 1.845430 
# 
# From -- ./inp_files/207646.got.cif
#   From: 2010.06.25/outbox.cif.g09.slc.cpg/sg2_104_cif.got.tgz:207646.got - 2010.06.27 13:26:56.
