data_PCOD8022428
_publ_section_title
;
Structure prediction by ZEFSAII (Michael W. Deem and Ramdas Pophale) SiO2 
 PCOD8022428
Probable space group: P -1
;
_chemical_formula_sum "Si O2"
_cell_formula_units_Z 16
_cell_length_a 10.638035
_cell_length_b 13.708213
_cell_length_c 7.327349
_cell_angle_alpha 72.896713
_cell_angle_beta 84.954773
_cell_angle_gamma 128.332515
_cell_volume 747.222169
_symmetry_space_group_name_H-M "P -1"
_symmetry_group_IT_number 2
_symmetry_cell_setting 'triclinic'
loop_
_space_group_symop_operation_xyz
x,y,z
-x,-y,-z
loop_
_atom_site_type_symbol
_atom_site_label
_atom_site_fract_x
_atom_site_fract_y
_atom_site_fract_z
Si Si1 0.666993 0.158751 0.899998
Si Si2 0.839109 0.556711 0.532953
Si Si3 0.060597 0.166148 0.213366
Si Si4 0.661862 0.519739 0.919501
Si Si5 0.049078 0.834105 0.151219
Si Si6 0.606659 0.267203 0.170060
Si Si7 0.788004 0.962774 0.646919
Si Si8 0.185601 0.657096 0.558351
O O1 0.648383 0.249717 0.972622
O O2 0.825178 0.180299 0.947808
O O3 0.706925 0.211691 0.660037
O O4 0.500000 0.000000 0.000000
O O5 0.677200 0.497510 0.715042
O O6 0.789564 0.447381 0.445600
O O7 0.894455 0.692258 0.353458
O O8 0.987986 0.585682 0.622415
O O9 0.161322 0.327280 0.135306
O O10 0.178068 0.139266 0.287945
O O11 0.887382 0.071481 0.407836
O O12 0.018964 0.131176 0.022628
O O13 0.500000 0.500000 0.000000
O O14 0.639433 0.405458 0.102193
O O15 0.157212 0.960330 0.209638
O O16 0.411626 0.130810 0.318501
O O17 0.734975 0.283056 0.285555
#
# Coordination Sequence:
#
# PCOD8022428 Si02
#       8
#     2   2   2   2   2   2   2   2
#     4  11  24  40  62 100 137 164 216 275 327 398
#     4  10  22  46  66  97 138 170 227 280 323 400
#     4  11  25  44  69  94 130 182 223 266 335 394
#     4  12  24  45  68  97 134 175 225 281 322 390
#     4  11  23  42  69  96 128 180 217 268 335 397
#     4  12  25  42  69 101 135 175 217 278 340 385
#     4  11  24  44  64  98 139 170 221 276 320 405
#     4  10  24  43  68  97 134 177 219 275 336 392
#
# _framework density 21.41264
#
# number of rings (size 3 to 8) (size 9 to 14) (size 15 to 20)
#    0.000    1.000    5.000    1.125    3.500    1.000 
#    0.000    5.000    0.000    0.000    0.000    0.000 
#    0.000    0.000    0.000    0.000    0.000    0.000 
#
# Total GULP energy -198441.850383 kJ/mol
# GULP energy per Si atom -12402.615649 kJ/mol
# Density = 2.136390 g / cm^3
# Si number density = 21.412640 Si / 1000 Ang^3
#
#
#
# Elastic Constant Matrix: (Units=GPa)
#
#
# Indices 1 2 3 4 5 6 
#
# 1 69.8540 7.0868 37.6299 1.3130 -15.3414 -5.4128
# 2 7.0868 95.2064 27.1031 -7.1852 2.2591 -6.5558
# 3 37.6299 27.1031 103.2128 2.3835 -2.0504 6.9695
# 4 1.3130 -7.1852 2.3835 35.1401 3.7767 -1.0603
# 5 -15.3414 2.2591 -2.0504 3.7767 37.4970 3.6138
# 6 -5.4128 -6.5558 6.9695 -1.0603 3.6138 29.3423
#
#
#
# Elastic Compliance Matrix: (Units=1/GPa)
#
#
# Indices 1 2 3 4 5 6 
#
# 1 0.020505 0.000812 -0.007852 -0.000728 0.007514 0.004877
# 2 0.000812 0.012064 -0.003829 0.002956 -0.001289 0.004020
# 3 -0.007852 -0.003829 0.013929 -0.001433 -0.001548 -0.005474
# 4 -0.000728 0.002956 -0.001433 0.029664 -0.003774 0.002403
# 5 0.007514 -0.001289 -0.001548 -0.003774 0.030348 -0.002408
# 6 0.004877 0.004020 -0.005474 0.002403 -0.002408 0.037562
#
#
# Mechanical properties :
#
#
# Convention : Reuss Voigt Hill
#
# Bulk Modulus (GPa) = 40.39047 45.76810 43.07928
# Shear Modulus (GPa) = 28.72493 33.49277 31.10885
#
# Velocity S-wave (km/s) = 3.66661 3.95924 3.81573
# Velocity P-wave (km/s) = 6.06871 6.50550 6.29090
#
# Compressibility (1/GPa) = 0.02475832
#
# Stress axis : x y z
#
# Youngs Moduli (GPa) = 48.76826 82.89375 71.79273
#
# Poissons Ratio (x) = -0.06728 0.56374
# Poissons Ratio (y) = -0.03958 0.27490
# Poissons Ratio (z) = 0.38294 0.31741
#
# Static dielectric constant tensor:
#      x y z
#    x 3.585480 -0.138650 -0.270710 
#    y -0.138650 3.891080 -0.127390 
#    z -0.270710 -0.127390 3.770090 
# 
# 
# High freq. dielectric constant tensor:
#      x y z
#    x 1.830760 -0.012800 -0.008940 
#    y -0.012800 1.848460 -0.011950 
#    z -0.008940 -0.011950 1.843390 
# 
# From -- ./inp_files/77391.got.cif
#   From: 2010.06.25/outbox.cif.g09.slc.cpg/sg2_39_cif.got.tgz:77391.got - 2010.06.27 13:26:56.
