data_PCOD8022340
_publ_section_title
;
Structure prediction by ZEFSAII (Michael W. Deem and Ramdas Pophale) SiO2 
 PCOD8022340
Probable space group: P -1
;
_chemical_formula_sum "Si O2"
_cell_formula_units_Z 16
_cell_length_a 11.594918
_cell_length_b 15.246051
_cell_length_c 9.563190
_cell_angle_alpha 67.800889
_cell_angle_beta 103.634325
_cell_angle_gamma 44.416215
_cell_volume 685.167399
_symmetry_space_group_name_H-M "P -1"
_symmetry_group_IT_number 2
_symmetry_cell_setting 'triclinic'
loop_
_space_group_symop_operation_xyz
x,y,z
-x,-y,-z
loop_
_atom_site_type_symbol
_atom_site_label
_atom_site_fract_x
_atom_site_fract_y
_atom_site_fract_z
Si Si1 0.337716 0.679536 0.513119
Si Si2 0.353331 0.271231 0.379590
Si Si3 0.552573 0.075557 0.828166
Si Si4 0.874805 0.982203 0.651678
Si Si5 0.504057 0.892871 0.891607
Si Si6 0.115508 0.519769 0.910656
Si Si7 0.067993 0.743820 0.600618
Si Si8 0.897255 0.227730 0.872229
O O1 0.282862 0.621849 0.620039
O O2 0.636100 0.476997 0.667929
O O3 0.154584 0.811474 0.242325
O O4 0.276578 0.810334 0.519383
O O5 0.193760 0.287303 0.298151
O O6 0.384513 0.264355 0.561236
O O7 0.658730 0.049795 0.547613
O O8 0.204995 0.461258 0.135505
O O9 0.528313 0.987012 0.813952
O O10 0.860812 0.879059 0.038569
O O11 0.429512 0.175485 0.885836
O O12 0.051372 0.840697 0.650870
O O13 0.052674 0.858798 0.914472
O O14 0.715329 0.685805 0.985237
O O15 0.209402 0.070508 0.666838
O O16 0.169642 0.577793 0.809375
#
# Coordination Sequence:
#
# PCOD8022340 Si02
#       8
#     2   2   2   2   2   2   2   2
#     4  11  25  47  69  98 133 182 230 276 335 391
#     4  10  23  42  67 102 131 178 221 273 334 406
#     4  10  22  45  71  98 138 178 224 276 344 396
#     4  11  25  43  71  97 134 179 230 274 337 395
#     4  11  23  43  69 102 140 174 218 283 342 405
#     4  11  25  42  67 102 140 177 219 277 343 402
#     4  12  25  46  67 103 140 176 222 282 338 406
#     4  10  24  45  70 100 132 175 228 288 323 405
#
# _framework density 23.351956000000001
#
# number of rings (size 3 to 8) (size 9 to 14) (size 15 to 20)
#    0.000    1.250    3.750    0.750    3.500    6.000 
#    9.000    0.000    0.000    0.000    0.000    0.000 
#    0.000    0.000    0.000    0.000    0.000    0.000 
#
# Total GULP energy -198302.161986 kJ/mol
# GULP energy per Si atom -12393.885124 kJ/mol
# Density = 2.329881 g / cm^3
# Si number density = 23.351956 Si / 1000 Ang^3
#
#
#
# Elastic Constant Matrix: (Units=GPa)
#
#
# Indices 1 2 3 4 5 6 
#
# 1 74.1390 28.8110 46.1518 0.4243 18.1968 -5.5686
# 2 28.8110 87.8070 27.8342 5.4350 3.7381 8.3324
# 3 46.1518 27.8342 145.2433 17.3506 -4.4529 -9.3253
# 4 0.4243 5.4350 17.3506 20.9751 -2.6636 -1.4832
# 5 18.1968 3.7381 -4.4529 -2.6636 25.3709 -3.1739
# 6 -5.5686 8.3324 -9.3253 -1.4832 -3.1739 31.9364
#
#
#
# Elastic Compliance Matrix: (Units=1/GPa)
#
#
# Indices 1 2 3 4 5 6 
#
# 1 0.025043 -0.005451 -0.007976 0.005387 -0.017749 0.001946
# 2 -0.005451 0.014091 -0.000899 -0.003054 0.000735 -0.004958
# 3 -0.007976 -0.000899 0.010864 -0.007500 0.007271 0.002390
# 4 0.005387 -0.003054 -0.007500 0.054886 0.001311 0.002226
# 5 -0.017749 0.000735 0.007271 0.001311 0.053984 0.004262
# 6 0.001946 -0.004958 0.002390 0.002226 0.004262 0.034170
#
#
# Mechanical properties :
#
#
# Convention : Reuss Voigt Hill
#
# Bulk Modulus (GPa) = 46.84803 56.97593 51.91198
# Shear Modulus (GPa) = 21.85262 29.28264 25.56763
#
# Velocity S-wave (km/s) = 3.06239 3.54498 3.31249
# Velocity P-wave (km/s) = 5.71048 6.41932 6.07525
#
# Compressibility (1/GPa) = 0.02134561
#
# Stress axis : x y z
#
# Youngs Moduli (GPa) = 39.93080 70.96949 92.04776
#
# Poissons Ratio (x) = 0.38689 0.73414
# Poissons Ratio (y) = 0.21768 0.08275
# Poissons Ratio (z) = 0.31848 0.06380
#
# Static dielectric constant tensor:
#      x y z
#    x 4.090620 -0.191660 0.083730 
#    y -0.191660 3.922790 0.316250 
#    z 0.083730 0.316250 4.455550 
# 
# 
# High freq. dielectric constant tensor:
#      x y z
#    x 1.923050 -0.016750 0.006550 
#    y -0.016750 1.899560 0.023110 
#    z 0.006550 0.023110 1.941930 
# 
# From -- ./inp_files/272615.got.cif
#   From: 2010.06.25/outbox.cif.g09.slc.cpg/sg2_137_cif.got.tgz:272615.got - 2010.06.27 13:26:56.
