data_PCOD8022586
_publ_section_title
;
Structure prediction by ZEFSAII (Michael W. Deem and Ramdas Pophale) SiO2 
 PCOD8022586
Probable space group: P -1
;
_chemical_formula_sum "Si O2"
_cell_formula_units_Z 14
_cell_length_a 22.552931
_cell_length_b 16.564292
_cell_length_c 11.917104
_cell_angle_alpha 146.780162
_cell_angle_beta 25.610704
_cell_angle_gamma 162.116305
_cell_volume 583.062071
_symmetry_space_group_name_H-M "P -1"
_symmetry_group_IT_number 2
_symmetry_cell_setting 'triclinic'
loop_
_space_group_symop_operation_xyz
x,y,z
-x,-y,-z
loop_
_atom_site_type_symbol
_atom_site_label
_atom_site_fract_x
_atom_site_fract_y
_atom_site_fract_z
Si Si1 0.810496 0.954315 0.728118
Si Si2 0.513809 0.835224 0.673070
Si Si3 0.136987 0.016714 0.919460
Si Si4 0.249616 0.695908 0.537563
Si Si5 0.277387 0.429399 0.052882
Si Si6 0.984107 0.727436 0.050279
Si Si7 0.806127 0.165253 0.778034
O O1 0.816531 0.032585 0.685885
O O2 0.558510 0.636209 0.791619
O O3 0.000000 0.000000 0.500000
O O4 0.851426 0.124203 0.943836
O O5 0.635505 0.870279 0.394920
O O6 0.729857 0.047992 0.644918
O O7 0.386176 0.877217 0.904861
O O8 0.308218 0.540133 0.734044
O O9 0.089702 0.957805 0.064453
O O10 0.168655 0.220502 0.088562
O O11 0.878708 0.727164 0.974746
O O12 0.294204 0.615047 0.273312
O O13 0.061635 0.651783 0.758875
O O14 0.090506 0.478835 0.657875
O O15 0.500000 0.000000 0.500000
#
# Coordination Sequence:
#
# PCOD8022586 Si02
#       7
#     2   2   2   2   2   2   2
#     4  12  27  45  69 103 148 195 234 290 362 430
#     4  10  22  47  74 109 137 185 244 297 361 415
#     4  11  25  45  76 104 144 186 238 304 357 418
#     4  11  23  44  70 101 141 182 236 297 354 421
#     4  11  25  46  68 107 138 188 243 289 361 423
#     4  11  26  42  70 111 140 187 240 291 361 429
#     4  10  24  45  74 103 143 186 239 299 353 427
#
# _framework density 24.011167
#
# number of rings (size 3 to 8) (size 9 to 14) (size 15 to 20)
#    0.000    1.143    2.857    1.714    4.000    5.714 
#    0.000    3.571    0.000    0.000    0.000    0.000 
#    0.000    0.000    0.000    0.000    0.000    0.000 
#
# Total GULP energy -173435.268909 kJ/mol
# GULP energy per Si atom -12388.233493 kJ/mol
# Density = 2.395652 g / cm^3
# Si number density = 24.011167 Si / 1000 Ang^3
#
#
#
# Elastic Constant Matrix: (Units=GPa)
#
#
# Indices 1 2 3 4 5 6 
#
# 1 102.4502 38.8139 18.4617 -11.1068 -9.3180 -15.4736
# 2 38.8139 155.4997 34.7975 -25.4536 -0.0988 10.1842
# 3 18.4617 34.7975 74.2877 -15.6106 -16.7152 3.1679
# 4 -11.1068 -25.4536 -15.6106 50.5840 -1.6279 -4.1586
# 5 -9.3180 -0.0988 -16.7152 -1.6279 25.3868 0.1183
# 6 -15.4736 10.1842 3.1679 -4.1586 0.1183 29.6537
#
#
#
# Elastic Compliance Matrix: (Units=1/GPa)
#
#
# Indices 1 2 3 4 5 6 
#
# 1 0.012977 -0.003338 -0.000646 0.001788 0.004401 0.008220
# 2 -0.003338 0.008618 -0.003307 0.002148 -0.003212 -0.004034
# 3 -0.000646 -0.003307 0.018933 0.004385 0.012500 -0.000659
# 4 0.001788 0.002148 0.004385 0.022998 0.005013 0.002932
# 5 0.004401 -0.003212 0.012500 0.005013 0.049533 0.002570
# 6 0.008220 -0.004034 -0.000659 0.002932 0.002570 0.039869
#
#
# Mechanical properties :
#
#
# Convention : Reuss Voigt Hill
#
# Bulk Modulus (GPa) = 38.53990 57.37598 47.95794
# Shear Modulus (GPa) = 28.38368 37.13587 32.75978
#
# Velocity S-wave (km/s) = 3.44190 3.93696 3.69773
# Velocity P-wave (km/s) = 5.64635 6.67934 6.18445
#
# Compressibility (1/GPa) = 0.02594713
#
# Stress axis : x y z
#
# Youngs Moduli (GPa) = 77.05690 116.04083 52.81857
#
# Poissons Ratio (x) = 0.38729 0.03414
# Poissons Ratio (y) = 0.25718 0.17465
# Poissons Ratio (z) = 0.04980 0.38369
#
# Static dielectric constant tensor:
#      x y z
#    x 4.095130 0.181060 -0.010130 
#    y 0.181060 4.829360 0.119550 
#    z -0.010130 0.119550 4.587600 
# 
# 
# High freq. dielectric constant tensor:
#      x y z
#    x 1.922450 -0.004220 -0.009640 
#    y -0.004220 1.976510 -0.002950 
#    z -0.009640 -0.002950 1.966500 
# 
# From -- ./inp_files/263688.got.cif
#   From: 2010.06.25/outbox.cif.g09.slc.cpg/sg2_132_cif.got.tgz:263688.got - 2010.06.27 13:26:56.
