data_PCOD8022854
_publ_section_title
;
Structure prediction by ZEFSAII (Michael W. Deem and Ramdas Pophale) SiO2 
 PCOD8022854
Probable space group: P -1
;
_chemical_formula_sum "Si O2"
_cell_formula_units_Z 14
_cell_length_a 9.767072
_cell_length_b 8.035502
_cell_length_c 9.379416
_cell_angle_alpha 64.667246
_cell_angle_beta 73.870594
_cell_angle_gamma 72.540682
_cell_volume 625.082996
_symmetry_space_group_name_H-M "P -1"
_symmetry_group_IT_number 2
_symmetry_cell_setting 'triclinic'
loop_
_space_group_symop_operation_xyz
x,y,z
-x,-y,-z
loop_
_atom_site_type_symbol
_atom_site_label
_atom_site_fract_x
_atom_site_fract_y
_atom_site_fract_z
Si Si1 0.427478 0.033901 0.163753
Si Si2 0.111252 0.088513 0.783821
Si Si3 0.129250 0.306856 0.196391
Si Si4 0.628453 0.318920 0.514540
Si Si5 0.047818 0.681895 0.484322
Si Si6 0.397428 0.908694 0.657545
Si Si7 0.051603 0.704379 0.013681
O O1 0.266763 0.160538 0.152142
O O2 0.522794 0.149063 0.192469
O O3 0.415403 0.838618 0.313312
O O4 0.500000 0.000000 0.000000
O O5 0.977381 0.150222 0.687840
O O6 0.089671 0.241972 0.860593
O O7 0.260747 0.081081 0.660576
O O8 0.129003 0.881567 0.924810
O O9 0.160489 0.519798 0.114938
O O10 0.066713 0.241977 0.384530
O O11 0.994519 0.329207 0.119566
O O12 0.500000 0.500000 0.500000
O O13 0.783764 0.362965 0.500499
O O14 0.642878 0.260610 0.362853
O O15 0.000000 0.500000 0.500000
O O16 0.500000 0.000000 0.500000
#
# Coordination Sequence:
#
# PCOD8022854 Si02
#       7
#     2   2   2   2   2   2   2
#     4  11  25  45  70 101 142 185 224 289 348 417
#     4  11  22  42  65  96 131 168 233 269 347 388
#     4  11  23  43  66  96 136 172 235 271 352 395
#     4  11  27  45  70 101 141 183 233 281 353 410
#     4  12  25  41  72 102 133 180 234 291 328 406
#     4  10  23  41  67  94 136 182 218 281 343 410
#     4  10  23  39  66  94 129 172 212 294 331 411
#
# _framework density 22.397026
#
# number of rings (size 3 to 8) (size 9 to 14) (size 15 to 20)
#    0.000    1.143    1.429    4.286    6.000    6.286 
#    0.000    1.429    0.000    0.000    0.000    0.000 
#    0.000    0.000    0.000    0.000    0.000    0.000 
#
# Total GULP energy -173491.816305 kJ/mol
# GULP energy per Si atom -12392.272593 kJ/mol
# Density = 2.234605 g / cm^3
# Si number density = 22.397026 Si / 1000 Ang^3
#
#
#
# Elastic Constant Matrix: (Units=GPa)
#
#
# Indices 1 2 3 4 5 6 
#
# 1 111.7243 29.0378 33.8540 8.6825 -3.2262 -2.3607
# 2 29.0378 120.6965 53.9601 0.7157 -11.5837 -16.9800
# 3 33.8540 53.9601 130.9913 18.7388 1.8971 -5.1444
# 4 8.6825 0.7157 18.7388 49.1168 -3.7907 3.5639
# 5 -3.2262 -11.5837 1.8971 -3.7907 31.9195 11.5450
# 6 -2.3607 -16.9800 -5.1444 3.5639 11.5450 40.9428
#
#
#
# Elastic Compliance Matrix: (Units=1/GPa)
#
#
# Indices 1 2 3 4 5 6 
#
# 1 0.009997 -0.001589 -0.001812 -0.000981 0.000564 -0.000384
# 2 -0.001589 0.011405 -0.004489 0.001876 0.003400 0.002952
# 3 -0.001812 -0.004489 0.010583 -0.003935 -0.003120 0.000586
# 4 -0.000981 0.001876 -0.003935 0.022582 0.004595 -0.003034
# 5 0.000564 0.003400 -0.003120 0.004595 0.036876 -0.009748
# 6 -0.000384 0.002952 0.000586 -0.003034 -0.009748 0.028713
#
#
# Mechanical properties :
#
#
# Convention : Reuss Voigt Hill
#
# Bulk Modulus (GPa) = 61.71084 66.34620 64.02852
# Shear Modulus (GPa) = 35.37620 40.83317 38.10468
#
# Velocity S-wave (km/s) = 3.97861 4.27447 4.12919
# Velocity P-wave (km/s) = 6.97988 7.35177 7.16824
#
# Compressibility (1/GPa) = 0.01620461
#
# Stress axis : x y z
#
# Youngs Moduli (GPa) = 100.02890 87.68057 94.49392
#
# Poissons Ratio (x) = 0.13934 0.17121
# Poissons Ratio (y) = 0.15897 0.42419
# Poissons Ratio (z) = 0.18124 0.39360
#
# Static dielectric constant tensor:
#      x y z
#    x 4.217630 0.352920 0.400190 
#    y 0.352920 4.526100 0.383390 
#    z 0.400190 0.383390 4.618580 
# 
# 
# High freq. dielectric constant tensor:
#      x y z
#    x 1.868230 -0.005320 0.007640 
#    y -0.005320 1.890060 0.015860 
#    z 0.007640 0.015860 1.898080 
# 
# From -- ./inp_files/157124.got.cif
#   From: 2010.06.25/outbox.cif.g09.slc.cpg/sg2_79_cif.got.tgz:157124.got - 2010.06.27 13:26:56.
