data_PCOD8022907
_publ_section_title
;
Structure prediction by ZEFSAII (Michael W. Deem and Ramdas Pophale) SiO2 
 PCOD8022907
Probable space group: P -1
;
_chemical_formula_sum "Si O2"
_cell_formula_units_Z 16
_cell_length_a 16.520777
_cell_length_b 13.793151
_cell_length_c 8.356997
_cell_angle_alpha 44.636144
_cell_angle_beta 43.351211
_cell_angle_gamma 35.789655
_cell_volume 728.510273
_symmetry_space_group_name_H-M "P -1"
_symmetry_group_IT_number 2
_symmetry_cell_setting 'triclinic'
loop_
_space_group_symop_operation_xyz
x,y,z
-x,-y,-z
loop_
_atom_site_type_symbol
_atom_site_label
_atom_site_fract_x
_atom_site_fract_y
_atom_site_fract_z
Si Si1 0.561171 0.339452 0.489274
Si Si2 0.694071 0.529465 0.536019
Si Si3 0.762932 0.301978 0.969855
Si Si4 0.974868 0.669124 0.404672
Si Si5 0.750197 0.029487 0.170844
Si Si6 0.697949 0.013440 0.902679
Si Si7 0.023659 0.333582 0.233325
Si Si8 0.463681 0.108324 0.584194
O O1 0.500000 0.500000 0.500000
O O2 0.420053 0.378258 0.554231
O O3 0.678207 0.331938 0.217985
O O4 0.644415 0.162017 0.677014
O O5 0.680371 0.688095 0.460069
O O6 0.860805 0.379135 0.411650
O O7 0.652156 0.440395 0.828949
O O8 0.830216 0.111058 0.025230
O O9 0.881057 0.336519 0.796875
O O10 0.913554 0.700232 0.636715
O O11 0.000000 0.500000 0.500000
O O12 0.856080 0.822898 0.277706
O O13 0.608324 0.103407 0.407502
O O14 0.705803 0.076971 0.992951
O O15 0.861867 0.840527 0.827037
O O16 0.575907 0.976129 0.123245
O O17 0.000000 0.500000 0.000000
O O18 0.500000 0.000000 0.500000
#
# Coordination Sequence:
#
# PCOD8022907 Si02
#       8
#     2   2   2   2   2   2   2   2
#     4  12  27  43  67 104 140 182 230 289 350 407
#     4  11  24  45  70  97 138 188 227 281 346 414
#     4  11  25  46  70  96 140 184 234 277 346 426
#     4  11  26  44  71 100 136 187 234 278 343 424
#     4  11  23  45  71 100 139 185 234 281 346 416
#     4  11  25  44  70 107 143 179 234 291 347 400
#     4  11  23  43  68 103 142 173 228 291 348 399
#     4  10  23  39  72  99 134 180 235 278 345 406
#
# _framework density 21.962626
#
# number of rings (size 3 to 8) (size 9 to 14) (size 15 to 20)
#    0.000    1.000    2.500    3.000    8.750    4.500 
#    0.000    3.750    0.000    0.000    0.000    0.000 
#    0.000    0.000    0.000    0.000    0.000    0.000 
#
# Total GULP energy -198325.006473 kJ/mol
# GULP energy per Si atom -12395.312905 kJ/mol
# Density = 2.191264 g / cm^3
# Si number density = 21.962626 Si / 1000 Ang^3
#
#
#
# Elastic Constant Matrix: (Units=GPa)
#
#
# Indices 1 2 3 4 5 6 
#
# 1 93.6398 46.4350 53.8699 -1.0636 -1.6842 1.0265
# 2 46.4350 150.0873 71.4058 -9.9566 -0.4659 8.0038
# 3 53.8699 71.4058 174.0692 -9.4276 6.3603 -1.5888
# 4 -1.0636 -9.9566 -9.4276 43.5663 -1.7674 2.4632
# 5 -1.6842 -0.4659 6.3603 -1.7674 41.4391 -9.1282
# 6 1.0265 8.0038 -1.5888 2.4632 -9.1282 38.8383
#
#
#
# Elastic Compliance Matrix: (Units=1/GPa)
#
#
# Indices 1 2 3 4 5 6 
#
# 1 0.013965 -0.002865 -0.003236 -0.000993 0.001079 0.000406
# 2 -0.002865 0.009076 -0.002774 0.001518 0.000036 -0.001996
# 3 -0.003236 -0.002774 0.007984 0.000930 -0.001207 0.000641
# 4 -0.000993 0.001518 0.000930 0.023589 0.000481 -0.001632
# 5 0.001079 0.000036 -0.001207 0.000481 0.025686 0.005921
# 6 0.000406 -0.001996 0.000641 -0.001632 0.005921 0.027670
#
#
# Mechanical properties :
#
#
# Convention : Reuss Voigt Hill
#
# Bulk Modulus (GPa) = 75.32480 84.57974 79.95227
# Shear Modulus (GPa) = 38.41814 41.17445 39.79629
#
# Velocity S-wave (km/s) = 4.18694 4.33454 4.26138
# Velocity P-wave (km/s) = 7.59903 7.97780 7.79072
#
# Compressibility (1/GPa) = 0.01327584
#
# Stress axis : x y z
#
# Youngs Moduli (GPa) = 71.60533 110.17812 125.24294
#
# Poissons Ratio (x) = 0.31569 0.40530
# Poissons Ratio (y) = 0.20517 0.34740
# Poissons Ratio (z) = 0.23172 0.30561
#
# Static dielectric constant tensor:
#      x y z
#    x 3.941370 -0.019280 -0.042910 
#    y -0.019280 4.180760 -0.082590 
#    z -0.042910 -0.082590 4.517340 
# 
# 
# High freq. dielectric constant tensor:
#      x y z
#    x 1.853650 0.009160 0.000090 
#    y 0.009160 1.876660 -0.006610 
#    z 0.000090 -0.006610 1.881880 
# 
# From -- ./inp_files/298265.got.cif
#   From: 2010.06.25/outbox.cif.g09.slc.cpg/sg2_150_cif.got.tgz:298265.got - 2010.06.27 13:26:56.
