data_PCOD8022956
_publ_section_title
;
Structure prediction by ZEFSAII (Michael W. Deem and Ramdas Pophale) SiO2 
 PCOD8022956
Probable space group: P -1
;
_chemical_formula_sum "Si O2"
_cell_formula_units_Z 16
_cell_length_a 12.815942
_cell_length_b 21.574828
_cell_length_c 9.723275
_cell_angle_alpha 67.499888
_cell_angle_beta 112.698746
_cell_angle_gamma 161.863138
_cell_volume 770.882577
_symmetry_space_group_name_H-M "P -1"
_symmetry_group_IT_number 2
_symmetry_cell_setting 'triclinic'
loop_
_space_group_symop_operation_xyz
x,y,z
-x,-y,-z
loop_
_atom_site_type_symbol
_atom_site_label
_atom_site_fract_x
_atom_site_fract_y
_atom_site_fract_z
Si Si1 0.501302 0.901493 0.668006
Si Si2 0.077131 0.938185 0.063118
Si Si3 0.304618 0.234712 0.230118
Si Si4 0.801847 0.841965 0.277307
Si Si5 0.294466 0.656428 0.123926
Si Si6 0.142043 0.565866 0.666691
Si Si7 0.365456 0.358397 0.418101
Si Si8 0.029522 0.752907 0.566023
O O1 0.365884 0.752711 0.679459
O O2 0.193396 0.774014 0.679683
O O3 0.788416 0.054967 0.802842
O O4 0.664193 0.028988 0.512476
O O5 0.982894 0.934802 0.143286
O O6 0.759000 0.758662 0.950000
O O7 0.377012 0.128167 0.956279
O O8 0.650129 0.386758 0.266078
O O9 0.320305 0.298301 0.302037
O O10 0.008444 0.017479 0.305631
O O11 0.409222 0.643744 0.226065
O O12 0.806237 0.778428 0.426834
O O13 0.176861 0.624149 0.234400
O O14 0.000000 0.500000 0.000000
O O15 0.000000 0.500000 0.500000
O O16 0.762103 0.590035 0.446468
O O17 0.171551 0.321977 0.349013
#
# Coordination Sequence:
#
# PCOD8022956 Si02
#       8
#     2   2   2   2   2   2   2   2
#     4  11  21  41  61  86 121 164 200 247 304 355
#     4  11  22  38  60  92 127 165 185 241 323 372
#     4  11  22  38  60  94 128 152 192 251 317 368
#     4  11  20  37  62  90 126 158 191 242 318 369
#     4  11  20  33  55  90 127 152 191 230 301 382
#     4  12  23  38  62  98 125 153 194 255 309 360
#     4  11  22  40  62  91 114 161 211 252 288 352
#     4  10  23  40  63  83 117 164 218 248 283 350
#
# _framework density 20.755431999999999
#
# number of rings (size 3 to 8) (size 9 to 14) (size 15 to 20)
#    0.000    1.000    3.750    4.875    0.000    3.000 
#    0.000    1.250    0.000    0.000    0.000    0.000 
#    0.000    0.000    0.000    0.000    0.000    0.000 
#
# Total GULP energy -198260.096251 kJ/mol
# GULP energy per Si atom -12391.256016 kJ/mol
# Density = 2.070819 g / cm^3
# Si number density = 20.755432 Si / 1000 Ang^3
#
#
#
# Elastic Constant Matrix: (Units=GPa)
#
#
# Indices 1 2 3 4 5 6 
#
# 1 143.8121 42.8789 61.0356 36.0414 -11.6860 29.1849
# 2 42.8789 69.0955 27.9008 11.1134 -11.6565 20.3094
# 3 61.0356 27.9008 115.4107 20.8240 -17.7859 20.1791
# 4 36.0414 11.1134 20.8240 33.8467 9.4526 10.2916
# 5 -11.6860 -11.6565 -17.7859 9.4526 32.9636 8.4536
# 6 29.1849 20.3094 20.1791 10.2916 8.4536 44.9526
#
#
#
# Elastic Compliance Matrix: (Units=1/GPa)
#
#
# Indices 1 2 3 4 5 6 
#
# 1 0.013528 -0.002668 -0.002108 -0.012821 0.007711 -0.005146
# 2 -0.002668 0.021021 0.000196 -0.004335 0.010082 -0.008757
# 3 -0.002108 0.000196 0.013468 -0.007387 0.009977 -0.004951
# 4 -0.012821 -0.004335 -0.007387 0.054941 -0.027401 0.006173
# 5 0.007711 0.010082 0.009977 -0.027401 0.054496 -0.018015
# 6 -0.005146 -0.008757 -0.004951 0.006173 -0.018015 0.033740
#
#
# Mechanical properties :
#
#
# Convention : Reuss Voigt Hill
#
# Bulk Modulus (GPa) = 25.73536 65.77211 45.75374
# Shear Modulus (GPa) = 23.44057 35.45276 29.44666
#
# Velocity S-wave (km/s) = 3.36426 4.13742 3.77071
# Velocity P-wave (km/s) = 5.24569 7.38798 6.40701
#
# Compressibility (1/GPa) = 0.03885704
#
# Stress axis : x y z
#
# Youngs Moduli (GPa) = 73.92339 47.57083 74.24969
#
# Poissons Ratio (x) = 0.12693 0.15650
# Poissons Ratio (y) = 0.19725 -0.01456
# Poissons Ratio (z) = 0.15581 -0.00933
#
# Static dielectric constant tensor:
#      x y z
#    x 2.828600 -1.730090 -0.407840 
#    y -1.730090 -0.037200 -1.088830 
#    z -0.407840 -1.088830 3.565600 
# 
# 
# High freq. dielectric constant tensor:
#      x y z
#    x 1.813780 0.036590 0.010030 
#    y 0.036590 1.810290 0.003230 
#    z 0.010030 0.003230 1.803950 
# 
# From -- ./inp_files/269924.got.cif
#   From: 2010.06.25/outbox.cif.g09.slc.cpg/sg2_135_cif.got.tgz:269924.got - 2010.06.27 13:26:56.
