data_PCOD8022143
_publ_section_title
;
Structure prediction by ZEFSAII (Michael W. Deem and Ramdas Pophale) SiO2 
 PCOD8022143
Probable space group: P -1
;
_chemical_formula_sum "Si O2"
_cell_formula_units_Z 16
_cell_length_a 19.494516
_cell_length_b 5.015886
_cell_length_c 8.362742
_cell_angle_alpha 96.581163
_cell_angle_beta 66.040038
_cell_angle_gamma 67.263184
_cell_volume 652.437048
_symmetry_space_group_name_H-M "P -1"
_symmetry_group_IT_number 2
_symmetry_cell_setting 'triclinic'
loop_
_space_group_symop_operation_xyz
x,y,z
-x,-y,-z
loop_
_atom_site_type_symbol
_atom_site_label
_atom_site_fract_x
_atom_site_fract_y
_atom_site_fract_z
Si Si1 0.137498 0.099994 0.897801
Si Si2 0.402842 0.961665 0.206786
Si Si3 0.988454 0.243874 0.858020
Si Si4 0.888425 0.198362 0.690594
Si Si5 0.403318 0.415716 0.994175
Si Si6 0.103685 0.370188 0.527551
Si Si7 0.250254 0.554200 0.938642
Si Si8 0.250623 0.203128 0.594742
O O1 0.059627 0.029698 0.910630
O O2 0.211654 0.986955 0.682298
O O3 0.187448 0.919829 0.995618
O O4 0.097721 0.467037 0.975682
O O5 0.500005 0.810832 0.166811
O O6 0.345167 0.014535 0.421349
O O7 0.391320 0.743752 0.075900
O O8 0.377610 0.277504 0.161070
O O9 0.035308 0.408351 0.729559
O O10 0.959409 0.049661 0.757647
O O11 0.932338 0.347968 0.544066
O O12 0.868141 0.950734 0.611294
O O13 0.800469 0.484710 0.863733
O O14 0.345619 0.463779 0.895882
O O15 0.185169 0.391983 0.527628
O O16 0.254438 0.388320 0.758132
#
# Coordination Sequence:
#
# PCOD8022143 Si02
#       8
#     2   2   2   2   2   2   2   2
#     4  10  24  44  62  99 136 181 222 284 345 391
#     4  10  23  47  75 104 138 174 222 269 340 395
#     4  10  22  45  66  92 134 178 235 286 336 395
#     4  12  24  44  65  97 125 177 229 285 329 391
#     4  10  24  46  75 105 136 177 217 279 329 405
#     4  11  26  42  68  94 130 173 231 283 334 386
#     4  12  26  41  71  96 141 176 227 272 343 402
#     4  11  25  43  66 100 136 180 219 275 337 408
#
# _framework density 24.523434999999999
#
# number of rings (size 3 to 8) (size 9 to 14) (size 15 to 20)
#    0.000    1.250    1.250    3.000    7.000    2.000 
#    2.250    0.625    0.000    0.000    0.000    0.000 
#    0.000    0.000    0.000    0.000    0.000    0.000 
#
# Total GULP energy -198278.235628 kJ/mol
# GULP energy per Si atom -12392.389727 kJ/mol
# Density = 2.446762 g / cm^3
# Si number density = 24.523435 Si / 1000 Ang^3
#
#
#
# Elastic Constant Matrix: (Units=GPa)
#
#
# Indices 1 2 3 4 5 6 
#
# 1 177.4069 33.7296 52.2149 5.9588 11.8924 -27.3416
# 2 33.7296 57.3518 1.4029 6.3784 5.8962 -13.9628
# 3 52.2149 1.4029 115.3964 12.8131 -10.1860 -12.1450
# 4 5.9588 6.3784 12.8131 18.3111 1.5364 4.4339
# 5 11.8924 5.8962 -10.1860 1.5364 51.9583 -2.2751
# 6 -27.3416 -13.9628 -12.1450 4.4339 -2.2751 39.5599
#
#
#
# Elastic Compliance Matrix: (Units=1/GPa)
#
#
# Indices 1 2 3 4 5 6 
#
# 1 0.007931 -0.003736 -0.003478 0.000614 -0.001964 0.002913
# 2 -0.003736 0.022664 0.003393 -0.010874 -0.000395 0.007655
# 3 -0.003478 0.003393 0.011934 -0.009568 0.003196 0.003714
# 4 0.000614 -0.010874 -0.009568 0.068631 -0.003435 -0.014241
# 5 -0.001964 -0.000395 0.003196 -0.003435 0.020515 0.001050
# 6 0.002913 0.007655 0.003714 -0.014241 0.001050 0.032790
#
#
# Mechanical properties :
#
#
# Convention : Reuss Voigt Hill
#
# Bulk Modulus (GPa) = 28.66444 58.31667 43.49056
# Shear Modulus (GPa) = 27.21307 39.48638 33.34972
#
# Velocity S-wave (km/s) = 3.33479 4.01702 3.69170
# Velocity P-wave (km/s) = 5.15187 6.73401 5.99536
#
# Compressibility (1/GPa) = 0.03488643
#
# Stress axis : x y z
#
# Youngs Moduli (GPa) = 126.09138 44.12245 83.79682
#
# Poissons Ratio (x) = 0.16486 0.29145
# Poissons Ratio (y) = 0.47112 -0.28434
# Poissons Ratio (z) = 0.43855 -0.14972
#
# Static dielectric constant tensor:
#      x y z
#    x 4.631040 -0.097020 -0.044740 
#    y -0.097020 4.216880 -0.318220 
#    z -0.044740 -0.318220 4.635920 
# 
# 
# High freq. dielectric constant tensor:
#      x y z
#    x 1.986750 0.004160 -0.000760 
#    y 0.004160 1.959340 -0.015040 
#    z -0.000760 -0.015040 1.984090 
# 
# From -- ./inp_files/339851.got.cif
#   From: 2010.06.25/outbox.cif.g09.slc.cpg/sg2_170_cif.got.tgz:339851.got - 2010.06.27 13:26:56.
