data_PCOD8022911
_publ_section_title
;
Structure prediction by ZEFSAII (Michael W. Deem and Ramdas Pophale) SiO2 
 PCOD8022911
Probable space group: P -1
;
_chemical_formula_sum "Si O2"
_cell_formula_units_Z 16
_cell_length_a 13.825156
_cell_length_b 9.361343
_cell_length_c 11.410882
_cell_angle_alpha 63.915101
_cell_angle_beta 30.523545
_cell_angle_gamma 74.673815
_cell_volume 652.116150
_symmetry_space_group_name_H-M "P -1"
_symmetry_group_IT_number 2
_symmetry_cell_setting 'triclinic'
loop_
_space_group_symop_operation_xyz
x,y,z
-x,-y,-z
loop_
_atom_site_type_symbol
_atom_site_label
_atom_site_fract_x
_atom_site_fract_y
_atom_site_fract_z
Si Si1 0.805471 0.492314 0.054403
Si Si2 0.111157 0.887016 0.185714
Si Si3 0.780727 0.769670 0.136313
Si Si4 0.686557 0.678515 0.731473
Si Si5 0.487078 0.952501 0.897700
Si Si6 0.154563 0.553931 0.215075
Si Si7 0.630701 0.556123 0.571925
Si Si8 0.649605 0.272855 0.496824
O O1 0.882498 0.666936 0.976381
O O2 0.594518 0.454324 0.221922
O O3 0.806486 0.347909 0.201614
O O4 0.942479 0.502795 0.791623
O O5 0.212025 0.751617 0.071355
O O6 0.895130 0.809122 0.489059
O O7 0.108742 0.037706 0.046589
O O8 0.264254 0.962484 0.101178
O O9 0.779234 0.704333 0.293295
O O10 0.557542 0.723888 0.342986
O O11 0.665327 0.527827 0.902990
O O12 0.681362 0.601858 0.636515
O O13 0.518946 0.772194 0.902729
O O14 0.645861 0.086978 0.605814
O O15 0.500000 0.000000 0.000000
O O16 0.000000 0.500000 0.500000
O O17 0.685895 0.388770 0.532642
#
# Coordination Sequence:
#
# PCOD8022911 Si02
#       8
#     2   2   2   2   2   2   2   2
#     4   9  17  36  65  88 122 168 208 258 307 366
#     4  10  23  43  60  91 128 161 206 262 308 368
#     4   8  17  36  63  93 121 162 206 258 315 361
#     4  11  25  40  60  93 127 168 206 252 323 368
#     4  11  25  41  65  96 124 165 212 259 312 377
#     4  10  23  40  57  90 126 169 208 249 312 372
#     4   9  18  35  64  92 125 160 206 257 310 382
#     4   8  18  37  61  95 122 158 213 257 308 369
#
# _framework density 24.535508
#
# number of rings (size 3 to 8) (size 9 to 14) (size 15 to 20)
#    0.000    2.500    0.000    2.250    7.000    3.000 
#    2.250    5.000    0.000    7.500    0.000    0.000 
#    0.000    0.000    0.000    0.000    0.000    0.000 
#
# Total GULP energy -198210.192299 kJ/mol
# GULP energy per Si atom -12388.137019 kJ/mol
# Density = 2.447966 g / cm^3
# Si number density = 24.535508 Si / 1000 Ang^3
#
#
#
# Elastic Constant Matrix: (Units=GPa)
#
#
# Indices 1 2 3 4 5 6 
#
# 1 93.5380 39.5324 33.8938 -5.7733 28.3865 17.2049
# 2 39.5324 128.6523 39.8273 -26.2883 34.6456 -0.9584
# 3 33.8938 39.8273 83.1851 -11.3752 24.0680 9.1330
# 4 -5.7733 -26.2883 -11.3752 42.9748 -1.1739 10.0074
# 5 28.3865 34.6456 24.0680 -1.1739 33.3659 2.3574
# 6 17.2049 -0.9584 9.1330 10.0074 2.3574 32.0945
#
#
#
# Elastic Compliance Matrix: (Units=1/GPa)
#
#
# Indices 1 2 3 4 5 6 
#
# 1 0.017021 -0.001110 -0.001779 0.002855 -0.011329 -0.008709
# 2 -0.001110 0.013093 -0.001591 0.007121 -0.011256 0.000045
# 3 -0.001779 -0.001591 0.017098 0.004151 -0.008696 -0.004615
# 4 0.002855 0.007121 0.004151 0.031492 -0.010896 -0.011519
# 5 -0.011329 -0.011256 -0.008696 -0.010896 0.056660 0.007447
# 6 -0.008709 0.000045 -0.004615 -0.011519 0.007447 0.040186
#
#
# Mechanical properties :
#
#
# Convention : Reuss Voigt Hill
#
# Bulk Modulus (GPa) = 26.14236 59.09805 42.62021
# Shear Modulus (GPa) = 25.34704 34.49516 29.92110
#
# Velocity S-wave (km/s) = 3.21764 3.75364 3.49593
# Velocity P-wave (km/s) = 4.94796 6.55175 5.80550
#
# Compressibility (1/GPa) = 0.03825209
#
# Stress axis : x y z
#
# Youngs Moduli (GPa) = 58.75115 76.37604 58.48547
#
# Poissons Ratio (x) = 0.08477 0.10406
# Poissons Ratio (y) = 0.06521 0.09304
# Poissons Ratio (z) = 0.10453 0.12151
#
# Static dielectric constant tensor:
#      x y z
#    x 4.675060 -0.321520 0.160030 
#    y -0.321520 4.836270 -0.160050 
#    z 0.160030 -0.160050 4.567900 
# 
# 
# High freq. dielectric constant tensor:
#      x y z
#    x 1.983260 -0.005370 0.001760 
#    y -0.005370 1.968490 -0.010410 
#    z 0.001760 -0.010410 1.971440 
# 
# From -- ./inp_files/447047.got.cif
#   From: 2010.06.25/outbox.cif.g09.slc.cpg/sg2_224_cif.got.tgz:447047.got - 2010.06.27 13:26:56.
