data_PCOD8022901
_publ_section_title
;
Structure prediction by ZEFSAII (Michael W. Deem and Ramdas Pophale) SiO2 
 PCOD8022901
Probable space group: P -1
;
_chemical_formula_sum "Si O2"
_cell_formula_units_Z 16
_cell_length_a 9.646652
_cell_length_b 13.158918
_cell_length_c 7.115904
_cell_angle_alpha 92.472172
_cell_angle_beta 107.986567
_cell_angle_gamma 117.604083
_cell_volume 742.534848
_symmetry_space_group_name_H-M "P -1"
_symmetry_group_IT_number 2
_symmetry_cell_setting 'triclinic'
loop_
_space_group_symop_operation_xyz
x,y,z
-x,-y,-z
loop_
_atom_site_type_symbol
_atom_site_label
_atom_site_fract_x
_atom_site_fract_y
_atom_site_fract_z
Si Si1 0.285203 0.820637 0.907536
Si Si2 0.964300 0.450316 0.272830
Si Si3 0.246877 0.272011 0.057633
Si Si4 0.537780 0.754502 0.168248
Si Si5 0.679986 0.851594 0.609016
Si Si6 0.136382 0.879485 0.187989
Si Si7 0.615835 0.120711 0.450362
Si Si8 0.244390 0.504732 0.104898
O O1 0.148100 0.689895 0.777798
O O2 0.354576 0.899964 0.755564
O O3 0.437513 0.822464 0.085020
O O4 0.199666 0.877010 0.003897
O O5 0.000000 0.500000 0.500000
O O6 0.140403 0.486493 0.250196
O O7 0.867080 0.504348 0.123351
O O8 0.255202 0.225380 0.263507
O O9 0.298407 0.406913 0.103672
O O10 0.380331 0.259913 0.985884
O O11 0.062835 0.195476 0.886858
O O12 0.683843 0.831057 0.386183
O O13 0.414088 0.628547 0.198077
O O14 0.484101 0.807339 0.579015
O O15 0.804266 0.987573 0.720291
O O16 0.207732 0.817921 0.356864
O O17 0.500000 0.000000 0.500000
#
# Coordination Sequence:
#
# PCOD8022901 Si02
#       8
#     2   2   2   2   2   2   2   2
#     4  11  22  42  72 100 133 183 223 287 339 396
#     4  10  23  39  71 103 134 174 231 282 337 401
#     4  12  25  45  67  99 145 179 219 289 347 400
#     4  11  25  42  70  98 140 179 230 277 341 408
#     4  11  25  43  67 101 136 184 227 280 340 407
#     4  11  25  44  70 100 137 176 237 284 328 408
#     4  10  23  41  68 100 129 176 231 275 329 402
#     4  10  24  43  66 103 136 178 225 286 337 401
#
# _framework density 21.547812
#
# number of rings (size 3 to 8) (size 9 to 14) (size 15 to 20)
#    0.000    1.250    3.750    0.750    3.500    7.000 
#    0.000    0.000    0.000    0.000    0.000    0.000 
#    0.000    0.000    0.000    0.000    0.000    0.000 
#
# Total GULP energy -198460.054856 kJ/mol
# GULP energy per Si atom -12403.753429 kJ/mol
# Density = 2.149877 g / cm^3
# Si number density = 21.547812 Si / 1000 Ang^3
#
#
#
# Elastic Constant Matrix: (Units=GPa)
#
#
# Indices 1 2 3 4 5 6 
#
# 1 71.0633 23.6308 12.6018 0.4278 4.3574 3.8499
# 2 23.6308 96.2745 43.2271 -1.2151 -0.8424 -1.5693
# 3 12.6018 43.2271 129.5816 4.7377 -4.5259 1.4695
# 4 0.4278 -1.2151 4.7377 28.6676 -2.5069 -1.2977
# 5 4.3574 -0.8424 -4.5259 -2.5069 40.7439 -0.1960
# 6 3.8499 -1.5693 1.4695 -1.2977 -0.1960 31.1425
#
#
#
# Elastic Compliance Matrix: (Units=1/GPa)
#
#
# Indices 1 2 3 4 5 6 
#
# 1 0.015604 -0.003763 -0.000280 -0.000603 -0.001825 -0.002142
# 2 -0.003763 0.013189 -0.004089 0.001381 0.000313 0.001382
# 3 -0.000280 -0.004089 0.009206 -0.001645 0.000864 -0.000669
# 4 -0.000603 0.001381 -0.001645 0.035483 0.002102 0.001714
# 5 -0.001825 0.000313 0.000864 0.002102 0.024973 0.000445
# 6 -0.002142 0.001382 -0.000669 0.001714 0.000445 0.032551
#
#
# Mechanical properties :
#
#
# Convention : Reuss Voigt Hill
#
# Bulk Modulus (GPa) = 46.00562 50.64876 48.32719
# Shear Modulus (GPa) = 32.35912 34.60812 33.48362
#
# Velocity S-wave (km/s) = 3.87943 4.01198 3.94626
# Velocity P-wave (km/s) = 6.43921 6.70951 6.57575
#
# Compressibility (1/GPa) = 0.02173647
#
# Stress axis : x y z
#
# Youngs Moduli (GPa) = 64.08417 75.81888 108.62089
#
# Poissons Ratio (x) = 0.28531 0.03037
# Poissons Ratio (y) = 0.24115 0.44416
# Poissons Ratio (z) = 0.01792 0.31003
#
# Static dielectric constant tensor:
#      x y z
#    x 4.039520 -0.018120 0.179060 
#    y -0.018120 3.799830 -0.081710 
#    z 0.179060 -0.081710 4.012040 
# 
# 
# High freq. dielectric constant tensor:
#      x y z
#    x 1.844060 -0.000040 0.001080 
#    y -0.000040 1.843220 -0.000530 
#    z 0.001080 -0.000530 1.855370 
# 
# From -- ./inp_files/39449.got.cif
#   From: 2010.06.25/outbox.cif.g09.slc.cpg/sg2_20_cif.got.tgz:39449.got - 2010.06.27 13:26:56.
