data_PCOD8022477
_publ_section_title
;
Structure prediction by ZEFSAII (Michael W. Deem and Ramdas Pophale) SiO2 
 PCOD8022477
Probable space group: P -1
;
_chemical_formula_sum "Si O2"
_cell_formula_units_Z 16
_cell_length_a 8.533618
_cell_length_b 16.446449
_cell_length_c 12.116428
_cell_angle_alpha 130.983948
_cell_angle_beta 54.674534
_cell_angle_gamma 147.437464
_cell_volume 689.557165
_symmetry_space_group_name_H-M "P -1"
_symmetry_group_IT_number 2
_symmetry_cell_setting 'triclinic'
loop_
_space_group_symop_operation_xyz
x,y,z
-x,-y,-z
loop_
_atom_site_type_symbol
_atom_site_label
_atom_site_fract_x
_atom_site_fract_y
_atom_site_fract_z
Si Si1 0.000264 0.902315 0.630620
Si Si2 0.841160 0.741495 0.779282
Si Si3 0.878334 0.525657 0.663841
Si Si4 0.274642 0.539064 0.932800
Si Si5 0.532520 0.178016 0.202315
Si Si6 0.435221 0.716068 0.237840
Si Si7 0.869255 0.228394 0.702410
Si Si8 0.568283 0.968776 0.104974
O O1 0.092500 0.870547 0.459208
O O2 0.952641 0.800975 0.662118
O O3 0.692422 0.829062 0.664984
O O4 0.244297 0.095289 0.727428
O O5 0.541119 0.680722 0.867343
O O6 0.772318 0.588754 0.702414
O O7 0.084307 0.887812 0.894402
O O8 0.134755 0.652119 0.759964
O O9 0.000000 0.500000 0.500000
O O10 0.613327 0.357425 0.687760
O O11 0.147097 0.368621 0.794742
O O12 0.407500 0.606490 0.061981
O O13 0.000000 0.500000 0.000000
O O14 0.447478 0.030577 0.163979
O O15 0.506642 0.157523 0.062331
O O16 0.185210 0.701158 0.304143
O O17 0.575223 0.110179 0.788394
#
# Coordination Sequence:
#
# PCOD8022477 Si02
#       8
#     2   2   2   2   2   2   2   2
#     4  12  26  41  74 107 139 179 239 293 346 413
#     4  11  25  44  72 100 139 186 230 282 356 412
#     4  11  26  45  69  96 144 183 229 285 354 417
#     4  10  25  43  67 103 139 183 230 292 343 421
#     4  10  25  42  69 102 136 185 231 286 346 418
#     4  11  24  44  69 100 138 185 233 284 350 415
#     4  11  24  41  69 103 143 179 233 292 349 404
#     4  10  22  46  69  98 142 183 230 282 347 422
#
# _framework density 23.203298
#
# number of rings (size 3 to 8) (size 9 to 14) (size 15 to 20)
#    0.000    1.250    1.250    2.625   12.250    3.500 
#    0.000    0.000    0.000    0.000    0.000    0.000 
#    0.000    0.000    0.000    0.000    0.000    0.000 
#
# Total GULP energy -198375.305729 kJ/mol
# GULP energy per Si atom -12398.456608 kJ/mol
# Density = 2.315049 g / cm^3
# Si number density = 23.203298 Si / 1000 Ang^3
#
#
#
# Elastic Constant Matrix: (Units=GPa)
#
#
# Indices 1 2 3 4 5 6 
#
# 1 72.3053 51.4192 14.3838 -0.2919 -2.6137 -0.4878
# 2 51.4192 131.4333 55.7793 -18.3065 -1.7863 -8.8219
# 3 14.3838 55.7793 119.5851 -1.9956 10.4946 9.2748
# 4 -0.2919 -18.3065 -1.9956 37.2623 -1.9801 0.5531
# 5 -2.6137 -1.7863 10.4946 -1.9801 19.8887 -12.5336
# 6 -0.4878 -8.8219 9.2748 0.5531 -12.5336 38.6670
#
#
#
# Elastic Compliance Matrix: (Units=1/GPa)
#
#
# Indices 1 2 3 4 5 6 
#
# 1 0.020234 -0.009869 0.002518 -0.004616 -0.002026 -0.003191
# 2 -0.009869 0.016891 -0.008253 0.008238 0.011208 0.009224
# 3 0.002518 -0.008253 0.013848 -0.003905 -0.014240 -0.009733
# 4 -0.004616 0.008238 -0.003905 0.031014 0.008470 0.005060
# 5 -0.002026 0.011208 -0.014240 0.008470 0.079234 0.031509
# 6 -0.003191 0.009224 -0.009733 0.005060 0.031509 0.040402
#
#
# Mechanical properties :
#
#
# Convention : Reuss Voigt Hill
#
# Bulk Modulus (GPa) = 50.59493 62.94314 56.76904
# Shear Modulus (GPa) = 20.88390 32.61303 26.74846
#
# Velocity S-wave (km/s) = 3.00332 3.75311 3.39896
# Velocity P-wave (km/s) = 5.82057 6.77988 6.31846
#
# Compressibility (1/GPa) = 0.01976483
#
# Stress axis : x y z
#
# Youngs Moduli (GPa) = 49.42089 59.20413 72.21158
#
# Poissons Ratio (x) = 0.58430 -0.18183
# Poissons Ratio (y) = 0.48775 0.59595
# Poissons Ratio (z) = -0.12444 0.48861
#
# Static dielectric constant tensor:
#      x y z
#    x 4.630030 0.697750 0.024610 
#    y 0.697750 5.712150 0.152290 
#    z 0.024610 0.152290 4.265460 
# 
# 
# High freq. dielectric constant tensor:
#      x y z
#    x 1.907440 0.004090 0.000830 
#    y 0.004090 1.925820 0.001750 
#    z 0.000830 0.001750 1.919820 
# 
# From -- ./inp_files/403196.got.cif
#   From: 2010.06.25/outbox.cif.g09.slc.cpg/sg2_202_cif.got.tgz:403196.got - 2010.06.27 13:26:56.
