data_PCOD8022849
_publ_section_title
;
Structure prediction by ZEFSAII (Michael W. Deem and Ramdas Pophale) SiO2 
 PCOD8022849
Probable space group: P -1
;
_chemical_formula_sum "Si O2"
_cell_formula_units_Z 16
_cell_length_a 13.837955
_cell_length_b 11.194597
_cell_length_c 14.470220
_cell_angle_alpha 105.490124
_cell_angle_beta 19.867735
_cell_angle_gamma 104.895346
_cell_volume 734.013553
_symmetry_space_group_name_H-M "P -1"
_symmetry_group_IT_number 2
_symmetry_cell_setting 'triclinic'
loop_
_space_group_symop_operation_xyz
x,y,z
-x,-y,-z
loop_
_atom_site_type_symbol
_atom_site_label
_atom_site_fract_x
_atom_site_fract_y
_atom_site_fract_z
Si Si1 0.950393 0.748589 0.185656
Si Si2 0.358843 0.631863 0.665591
Si Si3 0.883601 0.377909 0.306716
Si Si4 0.437651 0.342343 0.924231
Si Si5 0.063703 0.349192 0.627859
Si Si6 0.411656 0.832890 0.380017
Si Si7 0.439606 0.382235 0.134730
Si Si8 0.034675 0.009324 0.080063
O O1 0.623013 0.730755 0.444245
O O2 0.957484 0.751111 0.291742
O O3 0.085869 0.874601 0.048309
O O4 0.171717 0.643480 0.930243
O O5 0.500000 0.500000 0.500000
O O6 0.120024 0.653132 0.805716
O O7 0.820554 0.522820 0.404933
O O8 0.611629 0.295514 0.567942
O O9 0.167456 0.339080 0.096729
O O10 0.333276 0.328565 0.120965
O O11 0.635009 0.224416 0.694368
O O12 0.622529 0.470193 0.773267
O O13 0.285260 0.308260 0.341329
O O14 0.773505 0.364468 0.837764
O O15 0.218703 0.937117 0.619147
O O16 0.719029 0.892229 0.107951
O O17 0.000000 0.000000 0.000000
#
# Coordination Sequence:
#
# PCOD8022849 Si02
#       8
#     2   2   2   2   2   2   2   2
#     4  12  26  45  64  94 134 180 221 260 334 387
#     4  12  25  40  65  96 134 170 212 270 328 401
#     4  11  23  38  65  99 134 163 219 266 337 384
#     4  10  23  40  67 102 135 171 212 279 333 399
#     4  11  23  39  65  93 134 171 207 269 331 407
#     4  12  23  41  67  93 129 169 224 271 324 377
#     4  10  23  39  66 100 138 165 211 270 354 389
#     4  12  26  45  64  92 131 182 225 273 310 379
#
# _framework density 21.797961999999998
#
# number of rings (size 3 to 8) (size 9 to 14) (size 15 to 20)
#    0.000    0.750    3.750    3.750    3.500    1.500 
#    0.000    0.000    0.000    4.500    0.000    0.000 
#    0.000    0.000    0.000    0.000    0.000    0.000 
#
# Total GULP energy -198223.440119 kJ/mol
# GULP energy per Si atom -12388.965007 kJ/mol
# Density = 2.174835 g / cm^3
# Si number density = 21.797962 Si / 1000 Ang^3
#
#
#
# Elastic Constant Matrix: (Units=GPa)
#
#
# Indices 1 2 3 4 5 6 
#
# 1 130.0949 42.3082 55.8150 6.0047 25.2288 4.7349
# 2 42.3082 76.6139 9.5582 1.1846 18.9942 -0.0448
# 3 55.8150 9.5582 56.8717 7.7647 37.5073 14.9855
# 4 6.0047 1.1846 7.7647 37.1793 3.3521 12.3983
# 5 25.2288 18.9942 37.5073 3.3521 41.0228 -3.5316
# 6 4.7349 -0.0448 14.9855 12.3983 -3.5316 28.5775
#
#
#
# Elastic Compliance Matrix: (Units=1/GPa)
#
#
# Indices 1 2 3 4 5 6 
#
# 1 -0.072284 0.065719 0.252514 0.032331 -0.233542 -0.163222
# 2 0.065719 -0.043091 -0.215317 -0.027231 0.190445 0.137301
# 3 0.252514 -0.215317 -0.774283 -0.100450 0.703094 0.494313
# 4 0.032331 -0.027231 -0.100450 0.019043 0.087298 0.049801
# 5 -0.233542 0.190445 0.703094 0.087298 -0.608265 -0.442740
# 6 -0.163222 0.137301 0.494313 0.049801 -0.442740 -0.273278
#
#
# Mechanical properties :
#
#
# Convention : Reuss Voigt Hill
#
# Bulk Modulus (GPa) = -1.46236 53.21592 25.87678
# Shear Modulus (GPa) = -2.28735 31.74918 14.73092
#
# Velocity S-wave (km/s) = -1.02549 3.82058 2.60242
# Velocity P-wave (km/s) = 1.44031 6.62787 4.57461
#
# Compressibility (1/GPa) = -0.68382638
#
# Stress axis : x y z
#
# Youngs Moduli (GPa) = -13.83424 -23.20665 -1.29152
#
# Poissons Ratio (x) = 1.52512 0.32613
# Poissons Ratio (y) = 0.90917 -0.27809
# Poissons Ratio (z) = 3.49334 -4.99678
#
# Static dielectric constant tensor:
#      x y z
#    x 3.933360 0.278330 0.370110 
#    y 0.278330 4.069150 0.119810 
#    z 0.370110 0.119810 4.108530 
# 
# 
# High freq. dielectric constant tensor:
#      x y z
#    x 1.848900 0.017710 0.018460 
#    y 0.017710 1.832100 -0.008960 
#    z 0.018460 -0.008960 1.873820 
# 
# From -- ./inp_files/532541.got.cif
#   From: 2010.06.25/outbox.cif.g09.slc.cpg/sg2_267_cif.got.tgz:532541.got - 2010.06.27 13:26:56.
