data_PCOD8022294
_publ_section_title
;
Structure prediction by ZEFSAII (Michael W. Deem and Ramdas Pophale) SiO2 
 PCOD8022294
Probable space group: P -1
;
_chemical_formula_sum "Si O2"
_cell_formula_units_Z 16
_cell_length_a 7.540872
_cell_length_b 16.685159
_cell_length_c 7.344871
_cell_angle_alpha 84.005784
_cell_angle_beta 58.820077
_cell_angle_gamma 69.055327
_cell_volume 734.629841
_symmetry_space_group_name_H-M "P -1"
_symmetry_group_IT_number 2
_symmetry_cell_setting 'triclinic'
loop_
_space_group_symop_operation_xyz
x,y,z
-x,-y,-z
loop_
_atom_site_type_symbol
_atom_site_label
_atom_site_fract_x
_atom_site_fract_y
_atom_site_fract_z
Si Si1 0.805801 0.023437 0.921827
Si Si2 0.708765 0.339630 0.832794
Si Si3 0.493105 0.707106 0.689979
Si Si4 0.385626 0.026557 0.329996
Si Si5 0.737422 0.107915 0.364915
Si Si6 0.067086 0.844366 0.386304
Si Si7 0.065131 0.417850 0.612523
Si Si8 0.549413 0.582240 0.389056
O O1 0.836984 0.112579 0.835822
O O2 0.700691 0.993204 0.812392
O O3 0.626148 0.038165 0.179352
O O4 0.047583 0.949632 0.858360
O O5 0.865545 0.255907 0.663444
O O6 0.511331 0.396123 0.793251
O O7 0.852054 0.397909 0.795380
O O8 0.608035 0.314811 0.069261
O O9 0.416462 0.809832 0.684801
O O10 0.761561 0.664522 0.568697
O O11 0.411612 0.663438 0.572796
O O12 0.200488 0.114338 0.479636
O O13 0.411203 0.948053 0.476033
O O14 0.833989 0.139187 0.481028
O O15 0.187534 0.436372 0.722575
O O16 0.000000 0.500000 0.500000
O O17 0.500000 0.500000 0.500000
#
# Coordination Sequence:
#
# PCOD8022294 Si02
#       8
#     2   2   2   2   2   2   2   2
#     4   8  15  28  52  86 116 168 216 254 307 369
#     4  12  22  43  66  95 135 167 207 269 316 376
#     4  10  24  40  62 100 127 163 218 261 310 390
#     4   8  15  28  52  85 123 163 215 261 299 368
#     4   9  16  34  55  84 127 165 208 264 310 356
#     4   9  17  31  57  84 124 170 206 254 322 359
#     4  10  23  43  66  97 126 159 212 261 315 392
#     4  10  22  45  70  92 128 166 201 263 325 379
#
# _framework density 21.779675000000001
#
# number of rings (size 3 to 8) (size 9 to 14) (size 15 to 20)
#    0.750    1.750    2.500    1.500    0.000    4.000 
#    2.250    5.000    0.000    4.500    0.000    0.000 
#    0.000    0.000    0.000    0.000    0.000    0.000 
#
# Total GULP energy -198361.951468 kJ/mol
# GULP energy per Si atom -12397.621967 kJ/mol
# Density = 2.173010 g / cm^3
# Si number density = 21.779675 Si / 1000 Ang^3
#
#
#
# Elastic Constant Matrix: (Units=GPa)
#
#
# Indices 1 2 3 4 5 6 
#
# 1 115.8951 35.4926 44.9098 -17.5481 -21.1015 -14.9307
# 2 35.4926 107.7374 28.7288 -21.7892 -5.7789 -22.8202
# 3 44.9098 28.7288 119.1592 -16.5438 -13.4363 -15.9935
# 4 -17.5481 -21.7892 -16.5438 31.9758 1.5683 4.5665
# 5 -21.1015 -5.7789 -13.4363 1.5683 28.0967 -0.8873
# 6 -14.9307 -22.8202 -15.9935 4.5665 -0.8873 37.9827
#
#
#
# Elastic Compliance Matrix: (Units=1/GPa)
#
#
# Indices 1 2 3 4 5 6 
#
# 1 0.012404 -0.001745 -0.002567 0.003560 0.007609 0.002496
# 2 -0.001745 0.012611 -0.000607 0.006442 0.000819 0.005880
# 3 -0.002567 -0.000607 0.010652 0.003144 0.002954 0.002803
# 4 0.003560 0.006442 0.003144 0.038790 0.003401 0.002009
# 5 0.007609 0.000819 0.002954 0.003401 0.042866 0.005320
# 6 0.002496 0.005880 0.002803 0.002009 0.005320 0.031904
#
#
# Mechanical properties :
#
#
# Convention : Reuss Voigt Hill
#
# Bulk Modulus (GPa) = 38.71600 62.33933 50.52767
# Shear Modulus (GPa) = 29.82006 35.18841 32.50424
#
# Velocity S-wave (km/s) = 3.70424 4.02388 3.86737
# Velocity P-wave (km/s) = 6.00916 7.09039 6.57205
#
# Compressibility (1/GPa) = 0.02582912
#
# Stress axis : x y z
#
# Youngs Moduli (GPa) = 80.62178 79.29825 93.88293
#
# Poissons Ratio (x) = 0.13836 0.24097
# Poissons Ratio (y) = 0.14067 0.05697
# Poissons Ratio (z) = 0.20693 0.04812
#
# Static dielectric constant tensor:
#      x y z
#    x 3.593480 0.033510 0.021020 
#    y 0.033510 4.007800 0.070030 
#    z 0.021020 0.070030 3.921720 
# 
# 
# High freq. dielectric constant tensor:
#      x y z
#    x 1.874900 -0.001340 0.008700 
#    y -0.001340 1.856090 -0.004610 
#    z 0.008700 -0.004610 1.851310 
# 
# From -- ./inp_files/214917.got.cif
#   From: 2010.06.25/outbox.cif.g09.slc.cpg/sg2_108_cif.got.tgz:214917.got - 2010.06.27 13:26:56.
