data_PCOD8022130
_publ_section_title
;
Structure prediction by ZEFSAII (Michael W. Deem and Ramdas Pophale) SiO2 
 PCOD8022130
Probable space group: P -1
;
_chemical_formula_sum "Si O2"
_cell_formula_units_Z 16
_cell_length_a 19.138698
_cell_length_b 5.335119
_cell_length_c 8.692944
_cell_angle_alpha 62.351234
_cell_angle_beta 97.582660
_cell_angle_gamma 115.273587
_cell_volume 708.564546
_symmetry_space_group_name_H-M "P -1"
_symmetry_group_IT_number 2
_symmetry_cell_setting 'triclinic'
loop_
_space_group_symop_operation_xyz
x,y,z
-x,-y,-z
loop_
_atom_site_type_symbol
_atom_site_label
_atom_site_fract_x
_atom_site_fract_y
_atom_site_fract_z
Si Si1 0.248634 0.108804 0.680223
Si Si2 0.946806 0.779111 0.745356
Si Si3 0.888465 0.812312 0.229086
Si Si4 0.183623 0.468583 0.005463
Si Si5 0.106369 0.660099 0.421301
Si Si6 0.412103 0.533174 0.611854
Si Si7 0.578167 0.783566 0.614300
Si Si8 0.736254 0.847757 0.692483
O O1 0.179733 0.201377 0.675652
O O2 0.330553 0.317277 0.730880
O O3 0.260597 0.169168 0.485695
O O4 0.227850 0.762004 0.827718
O O5 0.945015 0.626902 0.622106
O O6 0.925667 0.076671 0.644673
O O7 0.883574 0.513406 0.910335
O O8 0.032158 0.881485 0.811472
O O9 0.862602 0.815761 0.044311
O O10 0.899047 0.497428 0.367398
O O11 0.247862 0.420528 0.140893
O O12 0.194846 0.819460 0.336720
O O13 0.491173 0.580955 0.715903
O O14 0.415942 0.373981 0.498120
O O15 0.410983 0.866199 0.499623
O O16 0.650486 0.802932 0.735906
#
# Coordination Sequence:
#
# PCOD8022130 Si02
#       8
#     2   2   2   2   2   2   2   2
#     4  11  24  42  68  94 130 172 215 264 320 381
#     4  11  27  43  66  91 131 166 221 269 324 378
#     4  12  24  42  65  93 127 173 215 272 322 378
#     4  11  26  42  62  97 126 173 217 267 317 386
#     4  11  23  43  67  96 122 169 216 271 321 383
#     4   9  19  36  65  98 127 162 215 255 310 381
#     4   9  18  37  66  97 126 168 206 257 314 377
#     4  10  22  45  65  95 131 169 212 263 324 380
#
# _framework density 22.580864999999999
#
# number of rings (size 3 to 8) (size 9 to 14) (size 15 to 20)
#    0.000    1.500    1.250    3.375    7.000    2.500 
#    0.000    0.625    0.000    0.750    0.000    0.000 
#    0.000    0.000    0.000    0.000    0.000    0.000 
#
# Total GULP energy -198227.289907 kJ/mol
# GULP energy per Si atom -12389.205619 kJ/mol
# Density = 2.252947 g / cm^3
# Si number density = 22.580865 Si / 1000 Ang^3
#
#
#
# Elastic Constant Matrix: (Units=GPa)
#
#
# Indices 1 2 3 4 5 6 
#
# 1 156.4029 55.8215 26.2668 7.0370 0.1953 48.4291
# 2 55.8215 101.1626 21.4320 -7.8086 -1.8429 4.8958
# 3 26.2668 21.4320 93.0262 9.6199 10.2295 8.8244
# 4 7.0370 -7.8086 9.6199 8.8200 0.9071 -4.1789
# 5 0.1953 -1.8429 10.2295 0.9071 9.7395 -1.1019
# 6 48.4291 4.8958 8.8244 -4.1789 -1.1019 52.6376
#
#
#
# Elastic Compliance Matrix: (Units=1/GPa)
#
#
# Indices 1 2 3 4 5 6 
#
# 1 0.018257 -0.013298 0.004591 -0.040013 -0.006199 -0.019637
# 2 -0.013298 0.022082 -0.008785 0.045955 0.011149 0.015535
# 3 0.004591 -0.008785 0.017870 -0.033507 -0.018471 -0.009449
# 4 -0.040013 0.045955 -0.033507 0.247286 0.028264 0.058380
# 5 -0.006199 0.011149 -0.018471 0.028264 0.123100 0.012584
# 6 -0.019637 0.015535 -0.009449 0.058380 0.012584 0.042102
#
#
# Mechanical properties :
#
#
# Convention : Reuss Voigt Hill
#
# Bulk Modulus (GPa) = 43.05576 61.95914 52.50745
# Shear Modulus (GPa) = 9.73855 30.71087 20.22471
#
# Velocity S-wave (km/s) = 2.07897 3.69187 2.99600
# Velocity P-wave (km/s) = 4.98714 6.75807 5.93899
#
# Compressibility (1/GPa) = 0.02322570
#
# Stress axis : x y z
#
# Youngs Moduli (GPa) = 54.77246 45.28485 55.96043
#
# Poissons Ratio (x) = 0.60220 -0.25689
# Poissons Ratio (y) = 0.72837 0.49159
# Poissons Ratio (z) = -0.25144 0.39781
#
# Static dielectric constant tensor:
#      x y z
#    x 4.948350 0.671830 0.040600 
#    y 0.671830 4.340850 -0.053910 
#    z 0.040600 -0.053910 3.760730 
# 
# 
# High freq. dielectric constant tensor:
#      x y z
#    x 1.911380 0.017200 0.006720 
#    y 0.017200 1.900680 -0.006840 
#    z 0.006720 -0.006840 1.851850 
# 
# From -- ./inp_files/340150.got.cif
#   From: 2010.06.25/outbox.cif.g09.slc.cpg/sg2_171_cif.got.tgz:340150.got - 2010.06.27 13:26:56.
