data_PCOD8022887
_publ_section_title
;
Structure prediction by ZEFSAII (Michael W. Deem and Ramdas Pophale) SiO2 
 PCOD8022887
Probable space group: P -1
;
_chemical_formula_sum "Si O2"
_cell_formula_units_Z 16
_cell_length_a 12.563933
_cell_length_b 16.200689
_cell_length_c 15.567938
_cell_angle_alpha 27.948163
_cell_angle_beta 146.222648
_cell_angle_gamma 128.323404
_cell_volume 742.206677
_symmetry_space_group_name_H-M "P -1"
_symmetry_group_IT_number 2
_symmetry_cell_setting 'triclinic'
loop_
_space_group_symop_operation_xyz
x,y,z
-x,-y,-z
loop_
_atom_site_type_symbol
_atom_site_label
_atom_site_fract_x
_atom_site_fract_y
_atom_site_fract_z
Si Si1 0.829028 0.582119 0.437756
Si Si2 0.245314 0.928584 0.244238
Si Si3 0.375953 0.681110 0.397444
Si Si4 0.283533 0.326397 0.908489
Si Si5 0.936488 0.109761 0.146055
Si Si6 0.629101 0.119831 0.449152
Si Si7 0.156047 0.499398 0.180294
Si Si8 0.743731 0.844567 0.298815
O O1 0.773543 0.428328 0.592460
O O2 0.687978 0.633469 0.208912
O O3 0.779073 0.766151 0.296385
O O4 0.075500 0.495551 0.655961
O O5 0.383546 0.797182 0.380436
O O6 0.313656 0.802498 0.494664
O O7 0.280846 0.118905 0.101814
O O8 0.000000 0.000000 0.000000
O O9 0.616999 0.532903 0.675268
O O10 0.268033 0.824647 0.114054
O O11 0.488322 0.302391 0.124600
O O12 0.901059 0.947546 0.328654
O O13 0.942829 0.285127 0.043863
O O14 0.155927 0.021148 0.324157
O O15 0.500000 0.000000 0.500000
O O16 0.189277 0.333205 0.425559
O O17 0.000000 0.500000 0.000000
O O18 0.500000 0.000000 0.000000
#
# Coordination Sequence:
#
# PCOD8022887 Si02
#       8
#     2   2   2   2   2   2   2   2
#     4  11  23  41  70  97 138 179 236 285 342 419
#     4  11  20  37  66  98 126 179 228 267 346 413
#     4  12  22  43  70  96 135 185 233 278 343 419
#     4  10  23  40  62 101 139 175 221 289 343 412
#     4  12  24  47  74 100 137 188 233 285 350 421
#     4  10  23  39  69 100 140 182 221 283 355 417
#     4  12  30  46  70 106 142 178 236 300 347 408
#     4  12  26  45  76 101 133 188 240 288 343 415
#
# _framework density 21.557338999999999
#
# number of rings (size 3 to 8) (size 9 to 14) (size 15 to 20)
#    0.000    0.750    5.000    2.625    3.500    1.500 
#    0.000    1.250    0.000    0.000    0.000    0.000 
#    0.000    0.000    0.000    0.000    0.000    0.000 
#
# Total GULP energy -198383.735758 kJ/mol
# GULP energy per Si atom -12398.983485 kJ/mol
# Density = 2.150827 g / cm^3
# Si number density = 21.557339 Si / 1000 Ang^3
#
#
#
# Elastic Constant Matrix: (Units=GPa)
#
#
# Indices 1 2 3 4 5 6 
#
# 1 97.2729 43.0871 26.4892 -2.5616 8.6073 -13.4142
# 2 43.0871 110.9069 45.0006 3.5107 -1.4815 -28.1628
# 3 26.4892 45.0006 71.7678 11.3676 0.3571 -23.5264
# 4 -2.5616 3.5107 11.3676 46.7739 -1.1815 -2.5804
# 5 8.6073 -1.4815 0.3571 -1.1815 38.8472 -3.2964
# 6 -13.4142 -28.1628 -23.5264 -2.5804 -3.2964 44.1634
#
#
#
# Elastic Compliance Matrix: (Units=1/GPa)
#
#
# Indices 1 2 3 4 5 6 
#
# 1 0.013108 -0.004218 -0.002477 0.001552 -0.003009 -0.000162
# 2 -0.004218 0.014293 -0.005890 0.000446 0.001960 0.004868
# 3 -0.002477 -0.005890 0.021450 -0.004523 0.000558 0.006695
# 4 0.001552 0.000446 -0.004523 0.022523 0.000373 -0.000310
# 5 -0.003009 0.001960 0.000558 0.000373 0.026714 0.002649
# 6 -0.000162 0.004868 0.006695 -0.000310 0.002649 0.029445
#
#
# Mechanical properties :
#
#
# Convention : Reuss Voigt Hill
#
# Bulk Modulus (GPa) = 42.22765 56.56682 49.39723
# Shear Modulus (GPa) = 31.13382 36.98160 34.05771
#
# Velocity S-wave (km/s) = 3.80443 4.14635 3.97907
# Velocity P-wave (km/s) = 6.23933 7.01571 6.63888
#
# Compressibility (1/GPa) = 0.02368117
#
# Stress axis : x y z
#
# Youngs Moduli (GPa) = 76.28940 69.96271 46.62004
#
# Poissons Ratio (x) = 0.29508 0.11549
# Poissons Ratio (y) = 0.32176 0.27460
# Poissons Ratio (z) = 0.18900 0.41209
#
# Static dielectric constant tensor:
#      x y z
#    x 4.237160 -0.467830 -0.250390 
#    y -0.467830 4.505960 0.433230 
#    z -0.250390 0.433230 4.361380 
# 
# 
# High freq. dielectric constant tensor:
#      x y z
#    x 1.858330 -0.007630 -0.000290 
#    y -0.007630 1.849250 0.000690 
#    z -0.000290 0.000690 1.848040 
# 
# From -- ./inp_files/237745.got.cif
#   From: 2010.06.25/outbox.cif.g09.slc.cpg/sg2_119_cif.got.tgz:237745.got - 2010.06.27 13:26:56.
