data_PCOD8022461
_publ_section_title
;
Structure prediction by ZEFSAII (Michael W. Deem and Ramdas Pophale) SiO2 
 PCOD8022461
Probable space group: P -1
;
_chemical_formula_sum "Si O2"
_cell_formula_units_Z 16
_cell_length_a 25.801225
_cell_length_b 8.889895
_cell_length_c 12.143554
_cell_angle_alpha 147.329918
_cell_angle_beta 28.819572
_cell_angle_gamma 141.550705
_cell_volume 713.558211
_symmetry_space_group_name_H-M "P -1"
_symmetry_group_IT_number 2
_symmetry_cell_setting 'triclinic'
loop_
_space_group_symop_operation_xyz
x,y,z
-x,-y,-z
loop_
_atom_site_type_symbol
_atom_site_label
_atom_site_fract_x
_atom_site_fract_y
_atom_site_fract_z
Si Si1 0.757479 0.086111 0.532690
Si Si2 0.348800 0.377809 0.995434
Si Si3 0.769944 0.201545 0.209944
Si Si4 0.081181 0.785478 0.501678
Si Si5 0.379960 0.366553 0.173169
Si Si6 0.933214 0.238246 0.735346
Si Si7 0.073150 0.804684 0.887656
Si Si8 0.439475 0.227135 0.197467
O O1 0.809596 0.198702 0.621309
O O2 0.846033 0.005481 0.232397
O O3 0.668895 0.797063 0.538794
O O4 0.705348 0.342939 0.737078
O O5 0.477603 0.469632 0.776281
O O6 0.292229 0.125118 0.866296
O O7 0.327870 0.253262 0.083076
O O8 0.683111 0.406808 0.511946
O O9 0.861201 0.268531 0.174125
O O10 0.831179 0.260440 0.016507
O O11 0.115383 0.821160 0.332778
O O12 0.000000 0.500000 0.500000
O O13 0.023848 0.044507 0.801579
O O14 0.394043 0.140507 0.104147
O O15 0.500000 0.500000 0.000000
O O16 0.021913 0.523405 0.744873
O O17 0.000000 0.000000 0.500000
O O18 0.500000 0.000000 0.000000
#
# Coordination Sequence:
#
# PCOD8022461 Si02
#       8
#     2   2   2   2   2   2   2   2
#     4  11  22  42  71  95 140 186 221 285 349 399
#     4  10  22  46  68  98 135 176 231 282 340 409
#     4  12  25  40  76 101 133 183 233 279 348 401
#     4  12  26  43  67 101 145 184 232 283 343 411
#     4  10  23  43  72  95 135 174 227 284 342 400
#     4  12  27  44  67 102 142 185 237 285 334 414
#     4  12  25  44  69 100 144 183 232 286 341 412
#     4   9  22  41  70  97 128 172 223 277 344 404
#
# _framework density 22.422840000000001
#
# number of rings (size 3 to 8) (size 9 to 14) (size 15 to 20)
#    0.000    1.000    3.750    2.250    3.500    2.000 
#    0.000    0.625    5.500    0.000    0.000    0.000 
#    0.000    0.000    0.000    0.000    0.000    0.000 
#
# Total GULP energy -198291.877922 kJ/mol
# GULP energy per Si atom -12393.242370 kJ/mol
# Density = 2.237180 g / cm^3
# Si number density = 22.422840 Si / 1000 Ang^3
#
#
#
# Elastic Constant Matrix: (Units=GPa)
#
#
# Indices 1 2 3 4 5 6 
#
# 1 130.8013 18.7545 22.2525 -2.0759 2.2669 -22.0617
# 2 18.7545 99.3983 30.7315 -26.5407 6.9316 -4.4432
# 3 22.2525 30.7315 90.5140 -16.8561 6.0472 -4.0896
# 4 -2.0759 -26.5407 -16.8561 39.6806 -5.8861 2.5151
# 5 2.2669 6.9316 6.0472 -5.8861 31.7949 -2.7750
# 6 -22.0617 -4.4432 -4.0896 2.5151 -2.7750 37.6508
#
#
#
# Elastic Compliance Matrix: (Units=1/GPa)
#
#
# Indices 1 2 3 4 5 6 
#
# 1 0.008961 -0.001309 -0.001817 -0.001473 0.000157 0.005009
# 2 -0.001309 0.013203 -0.002711 0.007483 -0.000890 -0.000069
# 3 -0.001817 -0.002711 0.013135 0.003518 -0.001151 -0.000278
# 4 -0.001473 0.007483 0.003518 0.032259 0.003647 -0.001484
# 5 0.000157 -0.000890 -0.001151 0.003647 0.032705 0.002029
# 6 0.005009 -0.000069 -0.000278 -0.001484 0.002029 0.029705
#
#
# Mechanical properties :
#
#
# Convention : Reuss Voigt Hill
#
# Bulk Modulus (GPa) = 42.32989 51.57673 46.95331
# Shear Modulus (GPa) = 33.44119 38.42360 35.93240
#
# Velocity S-wave (km/s) = 3.86604 4.14405 4.00746
# Velocity P-wave (km/s) = 6.23277 6.77859 6.51140
#
# Compressibility (1/GPa) = 0.02362397
#
# Stress axis : x y z
#
# Youngs Moduli (GPa) = 111.59831 75.74160 76.13487
#
# Poissons Ratio (x) = 0.09917 0.13833
# Poissons Ratio (y) = 0.14612 0.20639
# Poissons Ratio (z) = 0.20276 0.20532
#
# Static dielectric constant tensor:
#      x y z
#    x 4.768090 -0.175880 0.104290 
#    y -0.175880 4.341390 -0.483920 
#    z 0.104290 -0.483920 4.018500 
# 
# 
# High freq. dielectric constant tensor:
#      x y z
#    x 1.906570 -0.007320 -0.009770 
#    y -0.007320 1.888030 -0.027860 
#    z -0.009770 -0.027860 1.864630 
# 
# From -- ./inp_files/357023.got.cif
#   From: 2010.06.25/outbox.cif.g09.slc.cpg/sg2_179_cif.got.tgz:357023.got - 2010.06.27 13:26:56.
