data_PCOD8022141
_publ_section_title
;
Structure prediction by ZEFSAII (Michael W. Deem and Ramdas Pophale) SiO2 
 PCOD8022141
Probable space group: P -1
;
_chemical_formula_sum "Si O2"
_cell_formula_units_Z 16
_cell_length_a 22.440658
_cell_length_b 7.043889
_cell_length_c 13.990531
_cell_angle_alpha 108.751470
_cell_angle_beta 20.677841
_cell_angle_gamma 106.222950
_cell_volume 737.939255
_symmetry_space_group_name_H-M "P -1"
_symmetry_group_IT_number 2
_symmetry_cell_setting 'triclinic'
loop_
_space_group_symop_operation_xyz
x,y,z
-x,-y,-z
loop_
_atom_site_type_symbol
_atom_site_label
_atom_site_fract_x
_atom_site_fract_y
_atom_site_fract_z
Si Si1 0.162798 0.313712 0.128263
Si Si2 0.598057 0.208027 0.973067
Si Si3 0.718194 0.779341 0.676139
Si Si4 0.521718 0.411384 0.556103
Si Si5 0.041310 0.280844 0.861415
Si Si6 0.259342 0.967653 0.785965
Si Si7 0.650123 0.795302 0.492398
Si Si8 0.167488 0.440636 0.343900
O O1 0.130063 0.289228 0.287612
O O2 0.010770 0.456722 0.334290
O O3 0.336636 0.421429 0.879872
O O4 0.173138 0.104335 0.021209
O O5 0.454125 0.283968 0.125157
O O6 0.510768 0.131297 0.189242
O O7 0.717144 0.387777 0.841203
O O8 0.713850 0.020693 0.728309
O O9 0.880779 0.701048 0.358218
O O10 0.735030 0.680466 0.738564
O O11 0.500000 0.500000 0.500000
O O12 0.601412 0.184314 0.398661
O O13 0.642722 0.553601 0.455550
O O14 0.176684 0.160248 0.707183
O O15 0.000000 0.500000 0.000000
O O16 0.877806 0.153488 0.083403
O O17 0.355994 0.098735 0.584617
#
# Coordination Sequence:
#
# PCOD8022141 Si02
#       8
#     2   2   2   2   2   2   2   2
#     4  11  26  44  66 102 134 182 231 267 337 402
#     4  10  22  45  66 104 134 173 233 272 334 409
#     4  10  24  42  71  97 135 177 223 283 339 394
#     4  12  25  44  68  96 140 179 229 278 329 403
#     4  11  24  46  69 105 133 173 227 283 349 399
#     4  12  26  45  72 100 138 179 228 283 338 403
#     4  11  24  43  72  99 136 181 219 285 337 402
#     4  11  24  45  68  96 139 182 220 283 335 396
#
# _framework density 21.681999999999999
#
# number of rings (size 3 to 8) (size 9 to 14) (size 15 to 20)
#    0.000    1.000    3.750    1.875    5.250    0.000 
#    6.750    1.875    0.000    0.000    0.000    0.000 
#    0.000    0.000    0.000    0.000    0.000    0.000 
#
# Total GULP energy -198417.768616 kJ/mol
# GULP energy per Si atom -12401.110539 kJ/mol
# Density = 2.163265 g / cm^3
# Si number density = 21.682000 Si / 1000 Ang^3
#
#
#
# Elastic Constant Matrix: (Units=GPa)
#
#
# Indices 1 2 3 4 5 6 
#
# 1 106.8345 53.8618 42.3323 12.4548 9.0299 -0.1536
# 2 53.8618 107.5340 51.6204 4.7294 4.5140 3.5297
# 3 42.3323 51.6204 112.0577 12.4418 1.2609 -6.6815
# 4 12.4548 4.7294 12.4418 28.5276 10.7247 -3.6797
# 5 9.0299 4.5140 1.2609 10.7247 36.4478 2.5591
# 6 -0.1536 3.5297 -6.6815 -3.6797 2.5591 38.5824
#
#
#
# Elastic Compliance Matrix: (Units=1/GPa)
#
#
# Indices 1 2 3 4 5 6 
#
# 1 0.013541 -0.005519 -0.002173 -0.003463 -0.001574 -0.000043
# 2 -0.005519 0.014418 -0.004907 0.002196 -0.000759 -0.001931
# 3 -0.002173 -0.004907 0.012568 -0.004114 0.001774 0.002107
# 4 -0.003463 0.002196 -0.004114 0.043112 -0.012238 0.003996
# 5 -0.001574 -0.000759 0.001774 -0.012238 0.031664 -0.002897
# 6 -0.000043 -0.001931 0.002107 0.003996 -0.002897 0.027033
#
#
# Mechanical properties :
#
#
# Convention : Reuss Voigt Hill
#
# Bulk Modulus (GPa) = 65.24262 69.11727 67.17994
# Shear Modulus (GPa) = 28.96132 32.61901 30.79016
#
# Velocity S-wave (km/s) = 3.65873 3.88290 3.77248
# Velocity P-wave (km/s) = 6.92852 7.21453 7.07297
#
# Compressibility (1/GPa) = 0.01532740
#
# Stress axis : x y z
#
# Youngs Moduli (GPa) = 73.85179 69.35660 79.56736
#
# Poissons Ratio (x) = 0.38280 0.17291
# Poissons Ratio (y) = 0.40761 0.39046
# Poissons Ratio (z) = 0.16049 0.34035
#
# Static dielectric constant tensor:
#      x y z
#    x 4.095850 0.348330 -0.064270 
#    y 0.348330 3.830160 0.062670 
#    z -0.064270 0.062670 3.941470 
# 
# 
# High freq. dielectric constant tensor:
#      x y z
#    x 1.865720 0.016340 -0.003110 
#    y 0.016340 1.837620 0.005390 
#    z -0.003110 0.005390 1.860950 
# 
# From -- ./inp_files/542204.got.cif
#   From: 2010.06.25/outbox.cif.g09.slc.cpg/sg2_272_cif.got.tgz:542204.got - 2010.06.27 13:26:56.
