data_PCOD8022959
_publ_section_title
;
Structure prediction by ZEFSAII (Michael W. Deem and Ramdas Pophale) SiO2 
 PCOD8022959
Probable space group: P -1
;
_chemical_formula_sum "Si O2"
_cell_formula_units_Z 16
_cell_length_a 9.074319
_cell_length_b 17.522236
_cell_length_c 7.046885
_cell_angle_alpha 68.682156
_cell_angle_beta 54.190218
_cell_angle_gamma 57.373342
_cell_volume 763.377997
_symmetry_space_group_name_H-M "P -1"
_symmetry_group_IT_number 2
_symmetry_cell_setting 'triclinic'
loop_
_space_group_symop_operation_xyz
x,y,z
-x,-y,-z
loop_
_atom_site_type_symbol
_atom_site_label
_atom_site_fract_x
_atom_site_fract_y
_atom_site_fract_z
Si Si1 0.116322 0.670560 0.584659
Si Si2 0.605723 0.134271 0.645708
Si Si3 0.634357 0.218164 0.157046
Si Si4 0.353868 0.612607 0.834644
Si Si5 0.668303 0.774820 0.906214
Si Si6 0.806291 0.477102 0.660027
Si Si7 0.638704 0.962023 0.609183
Si Si8 0.091659 0.858772 0.307015
O O1 0.286161 0.627902 0.654170
O O2 0.147622 0.596064 0.472103
O O3 0.127586 0.755307 0.398583
O O4 0.899005 0.704748 0.816892
O O5 0.594557 0.169333 0.410249
O O6 0.817320 0.111888 0.607379
O O7 0.579667 0.041210 0.739731
O O8 0.428961 0.214844 0.821835
O O9 0.711328 0.291978 0.095861
O O10 0.432115 0.265501 0.138094
O O11 0.800839 0.139713 0.973474
O O12 0.597240 0.563293 0.690989
O O13 0.238881 0.559852 0.072531
O O14 0.620393 0.876792 0.790164
O O15 0.000000 0.500000 0.500000
O O16 0.864518 0.931525 0.393059
O O17 0.500000 0.000000 0.500000
#
# Coordination Sequence:
#
# PCOD8022959 Si02
#       8
#     2   2   2   2   2   2   2   2
#     4  11  22  43  65  94 127 164 210 258 315 379
#     4  11  22  41  62  89 124 170 212 261 319 372
#     4  11  21  42  64  92 125 166 210 258 320 379
#     4  11  24  42  69  98 129 168 211 260 320 384
#     4  10  24  39  63  92 128 168 213 265 312 375
#     4  11  25  45  67  97 133 166 206 264 320 385
#     4  11  22  41  59  90 128 166 213 267 315 366
#     4  10  23  40  63  89 124 166 210 258 311 375
#
# _framework density 20.959472000000002
#
# number of rings (size 3 to 8) (size 9 to 14) (size 15 to 20)
#    0.000    1.250    3.750    1.875    0.000    4.000 
#    2.250    0.000    0.000    0.000    0.000    0.000 
#    0.000    0.000    0.000    0.000    0.000    0.000 
#
# Total GULP energy -198401.708680 kJ/mol
# GULP energy per Si atom -12400.106793 kJ/mol
# Density = 2.091177 g / cm^3
# Si number density = 20.959472 Si / 1000 Ang^3
#
#
#
# Elastic Constant Matrix: (Units=GPa)
#
#
# Indices 1 2 3 4 5 6 
#
# 1 120.8096 31.8870 39.0359 17.6720 3.0814 1.5808
# 2 31.8870 62.1171 16.9833 12.5908 12.7905 3.7620
# 3 39.0359 16.9833 107.2866 15.3257 5.7094 -11.3055
# 4 17.6720 12.5908 15.3257 22.0186 3.5377 -0.7647
# 5 3.0814 12.7905 5.7094 3.5377 37.6357 5.3929
# 6 1.5808 3.7620 -11.3055 -0.7647 5.3929 44.7776
#
#
#
# Elastic Compliance Matrix: (Units=1/GPa)
#
#
# Indices 1 2 3 4 5 6 
#
# 1 0.010955 -0.004142 -0.002845 -0.004726 0.001533 -0.001022
# 2 -0.004142 0.021189 -0.000592 -0.007474 -0.005897 -0.001201
# 3 -0.002845 -0.000592 0.011581 -0.005123 -0.001291 0.003142
# 4 -0.004726 -0.007474 -0.005123 0.057360 -0.001787 0.000696
# 5 0.001533 -0.005897 -0.001291 -0.001787 0.029307 -0.003445
# 6 -0.001022 -0.001201 0.003142 0.000696 -0.003445 0.023690
#
#
# Mechanical properties :
#
#
# Convention : Reuss Voigt Hill
#
# Bulk Modulus (GPa) = 35.00424 51.78062 43.39243
# Shear Modulus (GPa) = 27.97015 34.37352 31.17183
#
# Velocity S-wave (km/s) = 3.65703 4.05408 3.86066
# Velocity P-wave (km/s) = 5.87954 6.83176 6.37345
#
# Compressibility (1/GPa) = 0.02856797
#
# Stress axis : x y z
#
# Youngs Moduli (GPa) = 91.27843 47.19502 86.34699
#
# Poissons Ratio (x) = 0.19547 0.24563
# Poissons Ratio (y) = 0.37806 0.05113
# Poissons Ratio (z) = 0.25965 0.02795
#
# Static dielectric constant tensor:
#      x y z
#    x 3.952420 0.098390 -0.158230 
#    y 0.098390 3.818230 0.040260 
#    z -0.158230 0.040260 3.883460 
# 
# 
# High freq. dielectric constant tensor:
#      x y z
#    x 1.831830 0.008990 0.000110 
#    y 0.008990 1.819760 0.009270 
#    z 0.000110 0.009270 1.826700 
# 
# From -- ./inp_files/46971.got.cif
#   From: 2010.06.25/outbox.cif.g09.slc.cpg/sg2_24_cif.got.tgz:46971.got - 2010.06.27 13:26:56.
