data_PCOD8022756
_publ_section_title
;
Structure prediction by ZEFSAII (Michael W. Deem and Ramdas Pophale) SiO2 
 PCOD8022756
Probable space group: P -1
;
_chemical_formula_sum "Si O2"
_cell_formula_units_Z 12
_cell_length_a 10.733758
_cell_length_b 10.501427
_cell_length_c 15.290779
_cell_angle_alpha 112.397063
_cell_angle_beta 52.047695
_cell_angle_gamma 152.297338
_cell_volume 565.497088
_symmetry_space_group_name_H-M "P -1"
_symmetry_group_IT_number 2
_symmetry_cell_setting 'triclinic'
loop_
_space_group_symop_operation_xyz
x,y,z
-x,-y,-z
loop_
_atom_site_type_symbol
_atom_site_label
_atom_site_fract_x
_atom_site_fract_y
_atom_site_fract_z
Si Si1 0.706522 0.290181 0.143567
Si Si2 0.535784 0.645675 0.832286
Si Si3 0.257649 0.158461 0.747942
Si Si4 0.724634 0.310331 0.493447
Si Si5 0.188234 0.361366 0.079863
Si Si6 0.120910 0.610578 0.224748
O O1 0.472825 0.240951 0.206214
O O2 0.870247 0.445576 0.207977
O O3 0.474745 0.972934 0.161173
O O4 0.000000 0.500000 0.000000
O O5 0.505163 0.474261 0.755133
O O6 0.206712 0.409050 0.980577
O O7 0.904104 0.943140 0.801472
O O8 0.472495 0.241629 0.605158
O O9 0.169520 0.992015 0.826432
O O10 0.000000 0.500000 0.500000
O O11 0.918949 0.498181 0.369290
O O12 0.500000 0.000000 0.500000
O O13 0.228570 0.533753 0.161929
O O14 0.500000 0.500000 0.000000
#
# Coordination Sequence:
#
# PCOD8022756 Si02
#       6
#     2   2   2   2   2   2
#     4  12  26  44  69  97 140 179 224 273 330 402
#     4  11  24  42  66  97 135 177 219 273 336 394
#     4  11  24  43  66  99 134 174 220 276 338 392
#     4  12  25  45  70  98 138 176 222 276 333 402
#     4  10  23  38  68 100 138 164 220 276 348 388
#     4  12  26  44  68 104 131 177 231 271 331 403
#
# _framework density 21.220269999999999
#
# number of rings (size 3 to 8) (size 9 to 14) (size 15 to 20)
#    0.000    0.667    3.333    4.000    7.000    0.000 
#    0.000    5.000    0.000    0.000    0.000    0.000 
#    0.000    0.000    0.000    0.000    0.000    0.000 
#
# Total GULP energy -148851.160622 kJ/mol
# GULP energy per Si atom -12404.263385 kJ/mol
# Density = 2.117197 g / cm^3
# Si number density = 21.220270 Si / 1000 Ang^3
#
#
#
# Elastic Constant Matrix: (Units=GPa)
#
#
# Indices 1 2 3 4 5 6 
#
# 1 270.9163 119.9875 -100.8999 38.6422 -65.3308 -22.5191
# 2 119.9875 158.7535 -68.4107 24.3817 -36.8689 -14.4146
# 3 -100.8999 -68.4107 235.5974 -21.7635 64.5425 20.1088
# 4 38.6422 24.3817 -21.7635 42.6647 -19.3028 -3.9896
# 5 -65.3308 -36.8689 64.5425 -19.3028 64.0137 21.5626
# 6 -22.5191 -14.4146 20.1088 -3.9896 21.5626 52.0031
#
#
#
# Elastic Compliance Matrix: (Units=1/GPa)
#
#
# Indices 1 2 3 4 5 6 
#
# 1 0.006674 -0.003642 0.000676 -0.002082 0.003385 0.000056
# 2 -0.003642 0.009856 0.001040 -0.001647 0.000236 0.000528
# 3 0.000676 0.001040 0.006192 -0.000356 -0.005162 0.000300
# 4 -0.002082 -0.001647 -0.000356 0.028900 0.006584 -0.001733
# 5 0.003385 0.000236 -0.005162 0.006584 0.029110 -0.008038
# 6 0.000056 0.000528 0.000300 -0.001733 -0.008038 0.022484
#
#
# Mechanical properties :
#
#
# Convention : Reuss Voigt Hill
#
# Bulk Modulus (GPa) = 52.99237 62.95787 57.97512
# Shear Modulus (GPa) = 44.10837 79.37565 61.74201
#
# Velocity S-wave (km/s) = 4.56411 6.12265 5.39990
# Velocity P-wave (km/s) = 7.26647 8.92836 8.13993
#
# Compressibility (1/GPa) = 0.01887064
#
# Stress axis : x y z
#
# Youngs Moduli (GPa) = 149.83715 101.46535 161.50156
#
# Poissons Ratio (x) = 0.36952 -0.10922
# Poissons Ratio (y) = 0.54568 -0.16798
# Poissons Ratio (z) = -0.10134 -0.10554
#
# Static dielectric constant tensor:
#      x y z
#    x 4.281440 -0.103150 0.287290 
#    y -0.103150 3.848940 -0.006050 
#    z 0.287290 -0.006050 4.143320 
# 
# 
# High freq. dielectric constant tensor:
#      x y z
#    x 1.841760 -0.003690 -0.000930 
#    y -0.003690 1.840470 0.003890 
#    z -0.000930 0.003890 1.831880 
# 
# From -- ./inp_files/36537.got.cif
#   From: 2010.06.25/outbox.cif.g09.slc.cpg/sg2_19_cif.got.tgz:36537.got - 2010.06.27 13:26:56.
