data_PCOD8022042
_publ_section_title
;
Structure prediction by ZEFSAII (Michael W. Deem and Ramdas Pophale) SiO2 
 PCOD8022042
Probable space group: P -1
;
_chemical_formula_sum "Si O2"
_cell_formula_units_Z 14
_cell_length_a 7.971662
_cell_length_b 13.175748
_cell_length_c 19.982675
_cell_angle_alpha 24.522713
_cell_angle_beta 136.974597
_cell_angle_gamma 128.429529
_cell_volume 587.318607
_symmetry_space_group_name_H-M "P -1"
_symmetry_group_IT_number 2
_symmetry_cell_setting 'triclinic'
loop_
_space_group_symop_operation_xyz
x,y,z
-x,-y,-z
loop_
_atom_site_type_symbol
_atom_site_label
_atom_site_fract_x
_atom_site_fract_y
_atom_site_fract_z
Si Si1 0.868855 0.398591 0.110660
Si Si2 0.678013 0.405400 0.821153
Si Si3 0.746007 0.282822 0.559615
Si Si4 0.760524 0.578018 0.512122
Si Si5 0.988151 0.747579 0.110188
Si Si6 0.428995 0.167752 0.167723
Si Si7 0.174168 0.934529 0.819321
O O1 0.711206 0.220029 0.213359
O O2 0.141651 0.399901 0.220125
O O3 0.905756 0.294083 0.108629
O O4 0.712848 0.675866 0.905298
O O5 0.405665 0.550711 0.640946
O O6 0.788948 0.270394 0.867426
O O7 0.641322 0.198042 0.990478
O O8 0.860763 0.455329 0.543682
O O9 0.946625 0.089421 0.697979
O O10 0.564276 0.123504 0.642357
O O11 0.500000 0.500000 0.500000
O O12 0.961861 0.484319 0.684505
O O13 0.711869 0.877342 0.309844
O O14 0.722954 0.747852 0.996152
O O15 0.000000 0.000000 0.000000
#
# Coordination Sequence:
#
# PCOD8022042 Si02
#       7
#     2   2   2   2   2   2   2
#     4  10  23  45  69  97 140 184 229 280 339 397
#     4  11  25  44  70 101 140 182 228 280 343 403
#     4  12  24  44  70 104 139 178 227 284 346 404
#     4  12  25  45  70  99 136 179 227 282 343 409
#     4  11  21  42  73 101 136 179 229 281 340 404
#     4  10  22  44  73 101 138 180 230 287 332 406
#     4  12  26  46  67 100 143 178 226 287 342 406
#
# _framework density 23.837147999999999
#
# number of rings (size 3 to 8) (size 9 to 14) (size 15 to 20)
#    0.000    0.857    5.714    1.714    0.000    2.857 
#    5.143    0.000    0.000    0.000    0.000    0.000 
#    0.000    0.000    0.000    0.000    0.000    0.000 
#
# Total GULP energy -173595.625700 kJ/mol
# GULP energy per Si atom -12399.687550 kJ/mol
# Density = 2.378289 g / cm^3
# Si number density = 23.837148 Si / 1000 Ang^3
#
#
#
# Elastic Constant Matrix: (Units=GPa)
#
#
# Indices 1 2 3 4 5 6 
#
# 1 28.0602 18.1089 27.8541 11.8246 -12.2530 -13.4546
# 2 18.1089 116.3130 54.3029 -10.1269 -9.7112 -22.8433
# 3 27.8541 54.3029 191.9338 9.4086 -32.8075 0.6154
# 4 11.8246 -10.1269 9.4086 33.9675 0.1489 -4.5044
# 5 -12.2530 -9.7112 -32.8075 0.1489 33.1836 -6.1844
# 6 -13.4546 -22.8433 0.6154 -4.5044 -6.1844 48.2177
#
#
#
# Elastic Compliance Matrix: (Units=1/GPa)
#
#
# Indices 1 2 3 4 5 6 
#
# 1 0.073029 -0.006095 -0.003425 -0.023942 0.025361 0.018550
# 2 -0.006095 0.012570 -0.003197 0.007405 -0.000857 0.004877
# 3 -0.003425 -0.003197 0.007559 -0.002160 0.004884 -0.002142
# 4 -0.023942 0.007405 -0.002160 0.040551 -0.009089 -0.000522
# 5 0.025361 -0.000857 0.004884 -0.009089 0.046298 0.011698
# 6 0.018550 0.004877 -0.002142 -0.000522 0.011698 0.029705
#
#
# Mechanical properties :
#
#
# Convention : Reuss Voigt Hill
#
# Bulk Modulus (GPa) = 14.76567 59.64874 37.20720
# Shear Modulus (GPa) = 19.40085 38.80982 29.10534
#
# Velocity S-wave (km/s) = 2.85597 4.03938 3.49808
# Velocity P-wave (km/s) = 4.13319 6.84348 5.65316
#
# Compressibility (1/GPa) = 0.06772468
#
# Stress axis : x y z
#
# Youngs Moduli (GPa) = 13.69325 79.55428 132.28913
#
# Poissons Ratio (x) = 0.48489 0.45303
# Poissons Ratio (y) = 0.08346 0.42293
# Poissons Ratio (z) = 0.04689 0.25433
#
# Static dielectric constant tensor:
#      x y z
#    x 4.519960 -0.121230 -0.637610 
#    y -0.121230 4.641360 -0.287940 
#    z -0.637610 -0.287940 5.503410 
# 
# 
# High freq. dielectric constant tensor:
#      x y z
#    x 1.954330 -0.015800 -0.006010 
#    y -0.015800 1.952920 -0.016890 
#    z -0.006010 -0.016890 1.933650 
# 
# From -- ./inp_files/171858.got.cif
#   From: 2010.06.25/outbox.cif.g09.slc.cpg/sg2_86_cif.got.tgz:171858.got - 2010.06.27 13:26:56.
