data_PCOD8022347
_publ_section_title
;
Structure prediction by ZEFSAII (Michael W. Deem and Ramdas Pophale) SiO2 
 PCOD8022347
Probable space group: P -1
;
_chemical_formula_sum "Si O2"
_cell_formula_units_Z 16
_cell_length_a 11.641193
_cell_length_b 11.504837
_cell_length_c 12.561516
_cell_angle_alpha 70.663511
_cell_angle_beta 141.962575
_cell_angle_gamma 80.435781
_cell_volume 663.984011
_symmetry_space_group_name_H-M "P -1"
_symmetry_group_IT_number 2
_symmetry_cell_setting 'triclinic'
loop_
_space_group_symop_operation_xyz
x,y,z
-x,-y,-z
loop_
_atom_site_type_symbol
_atom_site_label
_atom_site_fract_x
_atom_site_fract_y
_atom_site_fract_z
Si Si1 0.869880 0.382097 0.115816
Si Si2 0.340869 0.466613 0.446961
Si Si3 0.758154 0.832826 0.970403
Si Si4 0.444526 0.794778 0.643714
Si Si5 0.904667 0.912808 0.253831
Si Si6 0.791827 0.409937 0.277830
Si Si7 0.475050 0.683896 0.136210
Si Si8 0.573025 0.827148 0.508310
O O1 0.939743 0.394700 0.284924
O O2 0.136851 0.247365 0.278269
O O3 0.637387 0.581823 0.835313
O O4 0.766960 0.292590 0.077640
O O5 0.500000 0.500000 0.500000
O O6 0.438322 0.386344 0.659919
O O7 0.397899 0.328402 0.451946
O O8 0.019153 0.650088 0.156325
O O9 0.831027 0.839559 0.140400
O O10 0.524273 0.837556 0.793978
O O11 0.665961 0.998925 0.789690
O O12 0.134567 0.896139 0.383490
O O13 0.491979 0.871021 0.560207
O O14 0.017843 0.793043 0.478663
O O15 0.631599 0.124521 0.014301
O O16 0.734066 0.539235 0.288758
O O17 0.500000 0.500000 0.000000
#
# Coordination Sequence:
#
# PCOD8022347 Si02
#       8
#     2   2   2   2   2   2   2   2
#     4  11  23  46  71 100 138 186 234 289 356 406
#     4  12  25  41  70 100 140 189 228 287 350 414
#     4  12  26  45  70 104 146 181 235 283 348 420
#     4  12  25  45  73 103 147 183 230 293 346 420
#     4  12  24  46  73 106 138 187 235 284 352 416
#     4  10  22  45  72 101 137 183 239 289 347 413
#     4  11  23  43  72 100 138 184 237 286 349 416
#     4  12  26  45  67 104 142 182 232 286 351 420
#
# _framework density 24.096968
#
# number of rings (size 3 to 8) (size 9 to 14) (size 15 to 20)
#    0.000    0.500    6.250    3.000    3.500    3.000 
#    2.250    3.125    0.000    0.000    0.000    0.000 
#    0.000    0.000    0.000    0.000    0.000    0.000 
#
# Total GULP energy -198430.382621 kJ/mol
# GULP energy per Si atom -12401.898914 kJ/mol
# Density = 2.404212 g / cm^3
# Si number density = 24.096968 Si / 1000 Ang^3
#
#
#
# Elastic Constant Matrix: (Units=GPa)
#
#
# Indices 1 2 3 4 5 6 
#
# 1 59.7702 -6.9348 4.8981 2.0183 -3.6518 -15.7587
# 2 -6.9348 89.8532 24.2223 -0.2353 12.1468 2.5552
# 3 4.8981 24.2223 85.4585 -22.6587 -10.1923 6.2245
# 4 2.0183 -0.2353 -22.6587 54.1750 10.3136 0.7483
# 5 -3.6518 12.1468 -10.1923 10.3136 30.1893 -2.2932
# 6 -15.7587 2.5552 6.2245 0.7483 -2.2932 18.4064
#
#
#
# Elastic Compliance Matrix: (Units=1/GPa)
#
#
# Indices 1 2 3 4 5 6 
#
# 1 0.023286 0.001730 -0.003886 -0.003476 0.003637 0.021605
# 2 0.001730 0.013470 -0.004958 -0.000838 -0.006560 0.000504
# 3 -0.003886 -0.004958 0.016027 0.006124 0.004253 -0.007778
# 4 -0.003476 -0.000838 0.006124 0.022413 -0.006175 -0.006612
# 5 0.003637 -0.006560 0.004253 -0.006175 0.040346 0.007864
# 6 0.021605 0.000504 -0.007778 -0.006612 0.007864 0.076635
#
#
# Mechanical properties :
#
#
# Convention : Reuss Voigt Hill
#
# Bulk Modulus (GPa) = 25.93853 31.05034 28.49444
# Shear Modulus (GPa) = 22.80423 34.74723 28.77573
#
# Velocity S-wave (km/s) = 3.07962 3.80145 3.45942
# Velocity P-wave (km/s) = 4.84077 5.67289 5.27327
#
# Compressibility (1/GPa) = 0.03855269
#
# Stress axis : x y z
#
# Youngs Moduli (GPa) = 42.94473 74.24117 62.39356
#
# Poissons Ratio (x) = -0.12841 0.24249
# Poissons Ratio (y) = -0.07428 0.30936
# Poissons Ratio (z) = 0.16690 0.36810
#
# Static dielectric constant tensor:
#      x y z
#    x 4.454730 -0.279710 -0.132210 
#    y -0.279710 4.654710 -0.045460 
#    z -0.132210 -0.045460 4.375200 
# 
# 
# High freq. dielectric constant tensor:
#      x y z
#    x 1.940490 -0.003130 -0.012280 
#    y -0.003130 1.970930 -0.006570 
#    z -0.012280 -0.006570 1.965670 
# 
# From -- ./inp_files/428047.got.cif
#   From: 2010.06.25/outbox.cif.g09.slc.cpg/sg2_215_cif.got.tgz:428047.got - 2010.06.27 13:26:56.
