data_PCOD8022455
_publ_section_title
;
Structure prediction by ZEFSAII (Michael W. Deem and Ramdas Pophale) SiO2 
 PCOD8022455
Probable space group: P -1
;
_chemical_formula_sum "Si O2"
_cell_formula_units_Z 14
_cell_length_a 9.038426
_cell_length_b 8.443691
_cell_length_c 9.616075
_cell_angle_alpha 58.893434
_cell_angle_beta 96.343379
_cell_angle_gamma 74.233259
_cell_volume 576.002680
_symmetry_space_group_name_H-M "P -1"
_symmetry_group_IT_number 2
_symmetry_cell_setting 'triclinic'
loop_
_space_group_symop_operation_xyz
x,y,z
-x,-y,-z
loop_
_atom_site_type_symbol
_atom_site_label
_atom_site_fract_x
_atom_site_fract_y
_atom_site_fract_z
Si Si1 0.784869 0.253524 0.800817
Si Si2 0.694725 0.713104 0.905833
Si Si3 0.500813 0.172747 0.719147
Si Si4 0.824755 0.505100 0.458963
Si Si5 0.780185 0.324606 0.263806
Si Si6 0.507151 0.213421 0.392997
Si Si7 0.009758 0.162980 0.119307
O O1 0.609749 0.239948 0.808386
O O2 0.766028 0.450367 0.623991
O O3 0.896738 0.067380 0.803053
O O4 0.862873 0.263235 0.952092
O O5 0.653059 0.653983 0.772892
O O6 0.872220 0.717250 0.925607
O O7 0.558968 0.931434 0.835105
O O8 0.690745 0.544669 0.087377
O O9 0.311520 0.274945 0.696774
O O10 0.520293 0.271985 0.527596
O O11 0.842034 0.345965 0.412920
O O12 0.000000 0.500000 0.500000
O O13 0.657537 0.213438 0.318319
O O14 0.932741 0.182591 0.254855
O O15 0.500000 0.000000 0.500000
#
# Coordination Sequence:
#
# PCOD8022455 Si02
#       7
#     2   2   2   2   2   2   2
#     4  10  22  46  68  97 142 195 226 279 363 415
#     4  10  23  43  69 102 143 186 234 286 353 416
#     4  10  23  45  68  94 143 193 227 283 358 422
#     4  12  27  42  70 104 141 181 238 295 356 417
#     4  12  25  42  70 111 136 185 243 289 348 415
#     4  10  23  43  67 101 138 185 233 288 353 409
#     4  10  24  43  73 102 145 186 232 294 351 415
#
# _framework density 24.305441999999999
#
# number of rings (size 3 to 8) (size 9 to 14) (size 15 to 20)
#    0.000    1.429    1.429    2.143    4.000    4.571 
#    0.000    0.000    0.000    0.000    0.000    0.000 
#    0.000    0.000    0.000    0.000    0.000    0.000 
#
# Total GULP energy -173547.559326 kJ/mol
# GULP energy per Si atom -12396.254238 kJ/mol
# Density = 2.425012 g / cm^3
# Si number density = 24.305442 Si / 1000 Ang^3
#
#
#
# Elastic Constant Matrix: (Units=GPa)
#
#
# Indices 1 2 3 4 5 6 
#
# 1 177.6376 52.2378 40.5006 -5.0773 13.8597 7.9038
# 2 52.2378 23.0588 0.0883 -2.5051 -4.6631 -10.4678
# 3 40.5006 0.0883 72.3308 0.3415 1.9676 15.0757
# 4 -5.0773 -2.5051 0.3415 45.3350 8.8790 8.4301
# 5 13.8597 -4.6631 1.9676 8.8790 48.0942 2.2849
# 6 7.9038 -10.4678 15.0757 8.4301 2.2849 48.4166
#
#
#
# Elastic Compliance Matrix: (Units=1/GPa)
#
#
# Indices 1 2 3 4 5 6 
#
# 1 0.096239 -0.252872 -0.040051 0.018030 -0.051156 -0.058636
# 2 -0.252872 0.713804 0.102704 -0.047588 0.138809 0.165362
# 3 -0.040051 0.102704 0.031622 -0.006616 0.020521 0.019080
# 4 0.018030 -0.047588 -0.006616 0.027033 -0.013806 -0.015227
# 5 -0.051156 0.138809 0.020521 -0.013806 0.049180 0.032055
# 6 -0.058636 0.165362 0.019080 -0.015227 0.032055 0.061175
#
#
# Mechanical properties :
#
#
# Convention : Reuss Voigt Hill
#
# Bulk Modulus (GPa) = 2.16813 50.96451 26.56632
# Shear Modulus (GPa) = 3.30418 40.38254 21.84336
#
# Velocity S-wave (km/s) = 1.16722 4.08052 3.00109
# Velocity P-wave (km/s) = 1.64636 6.57379 4.79193
#
# Compressibility (1/GPa) = 0.46122649
#
# Stress axis : x y z
#
# Youngs Moduli (GPa) = 10.39085 1.40094 31.62336
#
# Poissons Ratio (x) = 0.35426 1.26655
# Poissons Ratio (y) = 2.62756 -3.24784
# Poissons Ratio (z) = 0.41616 -0.14388
#
# Static dielectric constant tensor:
#      x y z
#    x 4.382270 0.164790 0.375920 
#    y 0.164790 4.385820 0.310190 
#    z 0.375920 0.310190 4.914720 
# 
# 
# High freq. dielectric constant tensor:
#      x y z
#    x 1.967050 0.005400 0.020950 
#    y 0.005400 1.968830 0.002580 
#    z 0.020950 0.002580 1.970790 
# 
# From -- ./inp_files/156763.got.cif
#   From: 2010.06.25/outbox.cif.g09.slc.cpg/sg2_79_cif.got.tgz:156763.got - 2010.06.27 13:26:56.
