data_PCOD8022344
_publ_section_title
;
Structure prediction by ZEFSAII (Michael W. Deem and Ramdas Pophale) SiO2 
 PCOD8022344
Probable space group: P -1
;
_chemical_formula_sum "Si O2"
_cell_formula_units_Z 16
_cell_length_a 6.445058
_cell_length_b 17.201192
_cell_length_c 20.683552
_cell_angle_alpha 161.386585
_cell_angle_beta 77.960979
_cell_angle_gamma 102.032924
_cell_volume 715.366944
_symmetry_space_group_name_H-M "P -1"
_symmetry_group_IT_number 2
_symmetry_cell_setting 'triclinic'
loop_
_space_group_symop_operation_xyz
x,y,z
-x,-y,-z
loop_
_atom_site_type_symbol
_atom_site_label
_atom_site_fract_x
_atom_site_fract_y
_atom_site_fract_z
Si Si1 0.224552 0.704672 0.586118
Si Si2 0.334917 0.438917 0.605403
Si Si3 0.087874 0.749597 0.772403
Si Si4 0.883196 0.200238 0.622055
Si Si5 0.494451 0.506529 0.917824
Si Si6 0.958121 0.007669 0.752087
Si Si7 0.732154 0.439232 0.154011
Si Si8 0.254585 0.179724 0.766158
O O1 0.468080 0.670282 0.529185
O O2 0.203423 0.790609 0.728894
O O3 0.149981 0.921899 0.716475
O O4 0.100945 0.450323 0.380378
O O5 0.257512 0.665102 0.747098
O O6 0.387460 0.526456 0.743536
O O7 0.155679 0.228083 0.456572
O O8 0.000000 0.000000 0.000000
O O9 0.703398 0.342143 0.785227
O O10 0.061819 0.383602 0.726719
O O11 0.750608 0.076584 0.473355
O O12 0.000000 0.000000 0.500000
O O13 0.445935 0.526758 0.861830
O O14 0.284998 0.390371 0.875691
O O15 0.549373 0.769719 0.155791
O O16 0.040207 0.182667 0.825515
O O17 0.803327 0.161417 0.927507
#
# Coordination Sequence:
#
# PCOD8022344 Si02
#       8
#     2   2   2   2   2   2   2   2
#     4  10  24  43  68 102 135 170 221 266 328 399
#     4  11  25  42  70 100 134 180 217 270 333 397
#     4  10  22  45  72 100 136 171 214 268 326 396
#     4  12  25  43  65  92 129 175 227 286 336 399
#     4  11  27  42  65  97 128 180 234 280 339 403
#     4  11  25  42  64  98 134 177 221 282 331 397
#     4  12  26  42  65  97 135 175 228 275 341 397
#     4  11  24  45  66  92 135 174 231 284 340 388
#
# _framework density 22.366143000000001
#
# number of rings (size 3 to 8) (size 9 to 14) (size 15 to 20)
#    0.000    1.000    3.750    1.500    3.500    4.500 
#    0.000    0.000    0.000    0.000    0.000    0.000 
#    0.000    0.000    0.000    0.000    0.000    0.000 
#
# Total GULP energy -198346.657069 kJ/mol
# GULP energy per Si atom -12396.666067 kJ/mol
# Density = 2.231524 g / cm^3
# Si number density = 22.366143 Si / 1000 Ang^3
#
#
#
# Elastic Constant Matrix: (Units=GPa)
#
#
# Indices 1 2 3 4 5 6 
#
# 1 95.5859 57.6997 38.2563 -5.6254 -16.4854 -18.3526
# 2 57.6997 134.2107 51.0214 -28.9523 -13.6508 -11.8131
# 3 38.2563 51.0214 116.8230 -19.6784 -10.7199 -19.3126
# 4 -5.6254 -28.9523 -19.6784 36.1818 -8.6884 -0.0313
# 5 -16.4854 -13.6508 -10.7199 -8.6884 40.9839 -5.7218
# 6 -18.3526 -11.8131 -19.3126 -0.0313 -5.7218 37.0545
#
#
#
# Elastic Compliance Matrix: (Units=1/GPa)
#
#
# Indices 1 2 3 4 5 6 
#
# 1 0.016578 -0.005857 -0.001743 -0.001919 0.004715 0.006162
# 2 -0.005857 0.013154 -0.001703 0.009591 0.003752 0.000993
# 3 -0.001743 -0.001703 0.012150 0.005925 0.003939 0.005539
# 4 -0.001919 0.009591 0.005925 0.041559 0.013810 0.007363
# 5 0.004715 0.003752 0.003939 0.013810 0.032997 0.010691
# 6 0.006162 0.000993 0.005539 0.007363 0.010691 0.034900
#
#
# Mechanical properties :
#
#
# Convention : Reuss Voigt Hill
#
# Bulk Modulus (GPa) = 42.96209 71.17495 57.06852
# Shear Modulus (GPa) = 28.13689 36.15352 32.14521
#
# Velocity S-wave (km/s) = 3.55069 4.02486 3.79519
# Velocity P-wave (km/s) = 6.00501 7.31376 6.69146
#
# Compressibility (1/GPa) = 0.02327634
#
# Stress axis : x y z
#
# Youngs Moduli (GPa) = 60.32068 76.02067 82.30598
#
# Poissons Ratio (x) = 0.44523 0.14346
# Poissons Ratio (y) = 0.35328 0.14018
# Poissons Ratio (z) = 0.10514 0.12948
#
# Static dielectric constant tensor:
#      x y z
#    x 3.861500 -0.039480 0.201040 
#    y -0.039480 4.108730 -0.099230 
#    z 0.201040 -0.099230 4.157660 
# 
# 
# High freq. dielectric constant tensor:
#      x y z
#    x 1.871450 0.003140 0.013060 
#    y 0.003140 1.887430 -0.012220 
#    z 0.013060 -0.012220 1.890920 
# 
# From -- ./inp_files/584077.got.cif
#   From: 2010.06.25/outbox.cif.g09.slc.cpg/sg2_293_cif.got.tgz:584077.got - 2010.06.27 13:26:56.
