data_PCOD8022853
_publ_section_title
;
Structure prediction by ZEFSAII (Michael W. Deem and Ramdas Pophale) SiO2 
 PCOD8022853
Probable space group: P -1
;
_chemical_formula_sum "Si O2"
_cell_formula_units_Z 16
_cell_length_a 14.444033
_cell_length_b 9.578676
_cell_length_c 8.361310
_cell_angle_alpha 75.393563
_cell_angle_beta 125.807284
_cell_angle_gamma 71.541763
_cell_volume 732.043835
_symmetry_space_group_name_H-M "P -1"
_symmetry_group_IT_number 2
_symmetry_cell_setting 'triclinic'
loop_
_space_group_symop_operation_xyz
x,y,z
-x,-y,-z
loop_
_atom_site_type_symbol
_atom_site_label
_atom_site_fract_x
_atom_site_fract_y
_atom_site_fract_z
Si Si1 0.621409 0.273960 0.594530
Si Si2 0.373802 0.016553 0.461531
Si Si3 0.149027 0.261353 0.631436
Si Si4 0.581148 0.081030 0.105040
Si Si5 0.594402 0.515399 0.214239
Si Si6 0.702130 0.468812 0.792585
Si Si7 0.829015 0.472023 0.255364
Si Si8 0.151773 0.400624 0.256353
O O1 0.630631 0.388010 0.434860
O O2 0.700203 0.294696 0.817725
O O3 0.458298 0.356075 0.436866
O O4 0.692557 0.067505 0.683879
O O5 0.250978 0.221422 0.306084
O O6 0.500000 0.000000 0.500000
O O7 0.422557 0.906261 0.709677
O O8 0.188714 0.339966 0.795676
O O9 0.148273 0.366808 0.447565
O O10 0.994796 0.306031 0.487477
O O11 0.261838 0.048434 0.777862
O O12 0.499290 0.276225 0.887425
O O13 0.500000 0.000000 0.000000
O O14 0.743236 0.450963 0.308645
O O15 0.500000 0.500000 0.000000
O O16 0.790740 0.479462 0.737737
O O17 0.770743 0.464795 0.028827
O O18 0.000000 0.500000 0.000000
#
# Coordination Sequence:
#
# PCOD8022853 Si02
#       8
#     2   2   2   2   2   2   2   2
#     4  11  24  41  64  98 127 171 214 265 328 377
#     4  11  23  41  65  96 125 161 218 268 310 385
#     4  10  23  39  66  94 129 165 218 262 323 371
#     4  11  23  39  65  98 125 163 214 268 312 375
#     4  12  22  40  67  91 133 171 208 262 325 381
#     4  11  22  38  66  95 127 165 216 263 321 379
#     4  11  21  41  65  93 125 174 213 265 310 388
#     4  11  22  40  67  94 129 167 207 269 326 377
#
# _framework density 21.856615000000001
#
# number of rings (size 3 to 8) (size 9 to 14) (size 15 to 20)
#    0.000    1.000    6.250    0.750    1.750    0.000 
#    0.000    1.250    2.750    0.000    0.000    0.000 
#    0.000    0.000    0.000    0.000    0.000    0.000 
#
# Total GULP energy -198350.947954 kJ/mol
# GULP energy per Si atom -12396.934247 kJ/mol
# Density = 2.180687 g / cm^3
# Si number density = 21.856615 Si / 1000 Ang^3
#
#
#
# Elastic Constant Matrix: (Units=GPa)
#
#
# Indices 1 2 3 4 5 6 
#
# 1 127.4584 32.0576 38.6436 -9.9117 33.0008 -1.7344
# 2 32.0576 147.8863 41.0526 16.5494 16.4977 8.4854
# 3 38.6436 41.0526 70.3790 13.3975 20.3735 1.6031
# 4 -9.9117 16.5494 13.3975 42.8282 0.8939 6.1248
# 5 33.0008 16.4977 20.3735 0.8939 36.1905 1.3952
# 6 -1.7344 8.4854 1.6031 6.1248 1.3952 34.2183
#
#
#
# Elastic Compliance Matrix: (Units=1/GPa)
#
#
# Indices 1 2 3 4 5 6 
#
# 1 0.011909 -0.000978 -0.004553 0.004646 -0.007986 0.000554
# 2 -0.000978 0.008412 -0.003727 -0.002072 -0.000733 -0.001560
# 3 -0.004553 -0.003727 0.021944 -0.006500 -0.006383 0.001089
# 4 0.004646 -0.002072 -0.006500 0.027823 -0.000168 -0.003919
# 5 -0.007986 -0.000733 -0.006383 -0.000168 0.038903 -0.001480
# 6 0.000554 -0.001560 0.001089 -0.003919 -0.001480 0.030350
#
#
# Mechanical properties :
#
#
# Convention : Reuss Voigt Hill
#
# Bulk Modulus (GPa) = 42.11195 63.24795 52.67995
# Shear Modulus (GPa) = 30.16171 38.24537 34.20354
#
# Velocity S-wave (km/s) = 3.71884 4.18764 3.96018
# Velocity P-wave (km/s) = 6.14401 7.23756 6.71309
#
# Compressibility (1/GPa) = 0.02374623
#
# Stress axis : x y z
#
# Youngs Moduli (GPa) = 83.97156 118.87905 45.57113
#
# Poissons Ratio (x) = 0.11629 0.20751
# Poissons Ratio (y) = 0.08215 0.16986
# Poissons Ratio (z) = 0.38236 0.44311
#
# Static dielectric constant tensor:
#      x y z
#    x 4.227890 -0.180350 0.185890 
#    y -0.180350 4.433420 0.314670 
#    z 0.185890 0.314670 3.735190 
# 
# 
# High freq. dielectric constant tensor:
#      x y z
#    x 1.870530 -0.004970 0.006500 
#    y -0.004970 1.868270 0.024830 
#    z 0.006500 0.024830 1.838890 
# 
# From -- ./inp_files/298381.got.cif
#   From: 2010.06.25/outbox.cif.g09.slc.cpg/sg2_150_cif.got.tgz:298381.got - 2010.06.27 13:26:56.
