data_PCOD8022022
_publ_section_title
;
Structure prediction by ZEFSAII (Michael W. Deem and Ramdas Pophale) SiO2 
 PCOD8022022
Probable space group: P -1
;
_chemical_formula_sum "Si O2"
_cell_formula_units_Z 14
_cell_length_a 11.685573
_cell_length_b 19.142178
_cell_length_c 7.802218
_cell_angle_alpha 45.690861
_cell_angle_beta 64.135896
_cell_angle_gamma 30.674222
_cell_volume 568.721677
_symmetry_space_group_name_H-M "P -1"
_symmetry_group_IT_number 2
_symmetry_cell_setting 'triclinic'
loop_
_space_group_symop_operation_xyz
x,y,z
-x,-y,-z
loop_
_atom_site_type_symbol
_atom_site_label
_atom_site_fract_x
_atom_site_fract_y
_atom_site_fract_z
Si Si1 0.575934 0.241896 0.908200
Si Si2 0.336079 0.690845 0.583634
Si Si3 0.999311 0.604565 0.734930
Si Si4 0.200716 0.287379 0.681019
Si Si5 0.767282 0.253002 0.062712
Si Si6 0.252089 0.041605 0.172741
Si Si7 0.844886 0.900560 0.483582
O O1 0.651129 0.226884 0.695142
O O2 0.279461 0.449887 0.766013
O O3 0.718008 0.208734 0.021123
O O4 0.671257 0.067378 0.166758
O O5 0.277945 0.766592 0.685992
O O6 0.125483 0.756657 0.542540
O O7 0.598343 0.460774 0.800781
O O8 0.818777 0.721926 0.489809
O O9 0.870158 0.768661 0.661931
O O10 0.000000 0.500000 0.000000
O O11 0.000000 0.500000 0.500000
O O12 0.480423 0.144301 0.780652
O O13 0.151844 0.219667 0.930132
O O14 0.053210 0.100224 0.115080
O O15 0.286034 0.991801 0.434444
#
# Coordination Sequence:
#
# PCOD8022022 Si02
#       7
#     2   2   2   2   2   2   2
#     4  12  25  45  75 110 148 194 243 302 373 436
#     4  10  22  44  72 111 152 189 242 295 372 441
#     4  12  27  48  73 101 147 194 245 306 363 434
#     4  11  25  48  71 103 139 194 243 297 362 436
#     4  10  22  45  74 108 148 195 236 308 368 433
#     4  10  24  45  71 104 145 186 245 298 357 438
#     4  11  25  46  71 108 144 189 242 304 364 438
#
# _framework density 24.616610000000001
#
# number of rings (size 3 to 8) (size 9 to 14) (size 15 to 20)
#    0.000    1.143    1.429    3.429    2.000    6.857 
#   12.857    0.000    0.000    0.000    0.000    0.000 
#    0.000    0.000    0.000    0.000    0.000    0.000 
#
# Total GULP energy -173667.984901 kJ/mol
# GULP energy per Si atom -12404.856064 kJ/mol
# Density = 2.456058 g / cm^3
# Si number density = 24.616610 Si / 1000 Ang^3
#
#
#
# Elastic Constant Matrix: (Units=GPa)
#
#
# Indices 1 2 3 4 5 6 
#
# 1 69.5259 31.9334 26.9163 -6.2156 -0.1662 -14.6941
# 2 31.9334 94.1958 42.5124 -4.8231 -7.4216 -13.7887
# 3 26.9163 42.5124 143.6087 12.5203 -11.6150 -0.2966
# 4 -6.2156 -4.8231 12.5203 51.9159 1.5018 -5.3489
# 5 -0.1662 -7.4216 -11.6150 1.5018 40.8009 -5.2635
# 6 -14.6941 -13.7887 -0.2966 -5.3489 -5.2635 29.3337
#
#
#
# Elastic Compliance Matrix: (Units=1/GPa)
#
#
# Indices 1 2 3 4 5 6 
#
# 1 0.019350 -0.003935 -0.002788 0.003500 -0.000480 0.008367
# 2 -0.003935 0.014725 -0.003625 0.002296 0.002287 0.005743
# 3 -0.002788 -0.003625 0.008960 -0.003218 0.001571 -0.003315
# 4 0.003500 0.002296 -0.003218 0.021365 -0.000416 0.006621
# 5 -0.000480 0.002287 0.001571 -0.000416 0.026090 0.005456
# 6 0.008367 0.005743 -0.003315 0.006621 0.005456 0.043134
#
#
# Mechanical properties :
#
#
# Convention : Reuss Voigt Hill
#
# Bulk Modulus (GPa) = 44.76752 56.67273 50.72013
# Shear Modulus (GPa) = 30.90892 38.14131 34.52512
#
# Velocity S-wave (km/s) = 3.54731 3.94053 3.74908
# Velocity P-wave (km/s) = 5.91635 6.61633 6.27611
#
# Compressibility (1/GPa) = 0.02233762
#
# Stress axis : x y z
#
# Youngs Moduli (GPa) = 51.67901 67.91365 111.60946
#
# Poissons Ratio (x) = 0.26726 0.31122
# Poissons Ratio (y) = 0.20337 0.40455
# Poissons Ratio (z) = 0.14411 0.24617
#
# Static dielectric constant tensor:
#      x y z
#    x 4.310030 -0.187890 0.263280 
#    y -0.187890 4.436820 0.040360 
#    z 0.263280 0.040360 4.714740 
# 
# 
# High freq. dielectric constant tensor:
#      x y z
#    x 1.976140 -0.006560 0.002660 
#    y -0.006560 1.982550 -0.003760 
#    z 0.002660 -0.003760 2.000320 
# 
# From -- ./inp_files/282704.got.cif
#   From: 2010.06.25/outbox.cif.g09.slc.cpg/sg2_142_cif.got.tgz:282704.got - 2010.06.27 13:26:56.
