data_PCOD8022109
_publ_section_title
;
Structure prediction by ZEFSAII (Michael W. Deem and Ramdas Pophale) SiO2 
 PCOD8022109
Probable space group: P -1
;
_chemical_formula_sum "Si O2"
_cell_formula_units_Z 14
_cell_length_a 6.848069
_cell_length_b 19.016295
_cell_length_c 8.337592
_cell_angle_alpha 36.056364
_cell_angle_beta 109.082048
_cell_angle_gamma 107.030763
_cell_volume 603.145129
_symmetry_space_group_name_H-M "P -1"
_symmetry_group_IT_number 2
_symmetry_cell_setting 'triclinic'
loop_
_space_group_symop_operation_xyz
x,y,z
-x,-y,-z
loop_
_atom_site_type_symbol
_atom_site_label
_atom_site_fract_x
_atom_site_fract_y
_atom_site_fract_z
Si Si1 0.486807 0.691720 0.150838
Si Si2 0.864842 0.039529 0.179072
Si Si3 0.549876 0.209527 0.715084
Si Si4 0.190283 0.168252 0.232010
Si Si5 0.910860 0.801609 0.512997
Si Si6 0.773442 0.500572 0.730604
Si Si7 0.171021 0.618911 0.719012
O O1 0.415316 0.782528 0.098108
O O2 0.629076 0.602148 0.447313
O O3 0.283039 0.621849 0.153901
O O4 0.605502 0.762239 0.909367
O O5 0.021452 0.147895 0.082302
O O6 0.761198 0.963730 0.441692
O O7 0.987091 0.943423 0.280964
O O8 0.686132 0.096256 0.918411
O O9 0.312978 0.194131 0.635915
O O10 0.640109 0.327724 0.431522
O O11 0.108920 0.245828 0.219186
O O12 0.059951 0.723257 0.594817
O O13 0.011786 0.548470 0.684240
O O14 0.741482 0.476505 0.956948
#
# Coordination Sequence:
#
# PCOD8022109 Si02
#       7
#     2   2   2   2   2   2   2
#     4  11  23  43  66  95 132 162 221 268 309 380
#     4   9  22  41  66  99 126 170 212 252 332 371
#     4  12  24  40  68  99 129 169 208 264 323 382
#     4   9  21  44  65  93 131 167 214 260 312 388
#     4  10  22  45  63  95 133 165 207 271 302 393
#     4  10  24  45  62  94 125 176 215 263 321 366
#     4  11  24  45  66  94 131 167 219 259 323 377
#
# _framework density 23.211659999999998
#
# number of rings (size 3 to 8) (size 9 to 14) (size 15 to 20)
#    0.857    0.857    1.429    2.143    2.000    2.286 
#   12.857    0.000    0.000    0.000    0.000    0.000 
#    0.000    0.000    0.000    0.000    0.000    0.000 
#
# Total GULP energy -173461.985724 kJ/mol
# GULP energy per Si atom -12390.141837 kJ/mol
# Density = 2.315883 g / cm^3
# Si number density = 23.211660 Si / 1000 Ang^3
#
#
#
# Elastic Constant Matrix: (Units=GPa)
#
#
# Indices 1 2 3 4 5 6 
#
# 1 27.9769 24.1560 15.4738 4.3022 -14.7769 3.8769
# 2 24.1560 125.4732 -2.8791 2.8627 -11.6278 22.6413
# 3 15.4738 -2.8791 70.1460 -2.2652 -2.2123 9.3575
# 4 4.3022 2.8627 -2.2652 25.4808 0.8168 4.3240
# 5 -14.7769 -11.6278 -2.2123 0.8168 21.3172 12.3933
# 6 3.8769 22.6413 9.3575 4.3240 12.3933 26.6328
#
#
#
# Elastic Compliance Matrix: (Units=1/GPa)
#
#
# Indices 1 2 3 4 5 6 
#
# 1 0.116210 0.000132 -0.013765 -0.013668 0.117239 -0.064530
# 2 0.000132 0.014780 0.004799 0.002328 0.023413 -0.025543
# 3 -0.013765 0.004799 0.018987 0.005125 0.000573 -0.009846
# 4 -0.013668 0.002328 0.005125 0.042963 -0.005789 -0.006072
# 5 0.117239 0.023413 0.000573 -0.005789 0.222488 -0.139765
# 6 -0.064530 -0.025543 -0.009846 -0.006072 -0.139765 0.138140
#
#
# Mechanical properties :
#
#
# Convention : Reuss Voigt Hill
#
# Bulk Modulus (GPa) = 7.55813 33.01084 20.28448
# Shear Modulus (GPa) = 8.12559 27.14252 17.63406
#
# Velocity S-wave (km/s) = 1.87303 3.42328 2.75927
# Velocity P-wave (km/s) = 2.81796 5.46605 4.34848
#
# Compressibility (1/GPa) = 0.13230794
#
# Stress axis : x y z
#
# Youngs Moduli (GPa) = 8.60508 67.65747 52.66892
#
# Poissons Ratio (x) = -0.00894 0.72501
# Poissons Ratio (y) = -0.00114 -0.25274
# Poissons Ratio (z) = 0.11845 -0.32466
#
# Static dielectric constant tensor:
#      x y z
#    x 3.710060 0.189410 -0.023420 
#    y 0.189410 4.494120 0.028160 
#    z -0.023420 0.028160 4.152790 
# 
# 
# High freq. dielectric constant tensor:
#      x y z
#    x 1.884230 0.019140 0.004670 
#    y 0.019140 1.927190 0.001910 
#    z 0.004670 0.001910 1.923130 
# 
# From -- ./inp_files/140481.got.cif
#   From: 2010.06.25/outbox.cif.g09.slc.cpg/sg2_71_cif.got.tgz:140481.got - 2010.06.27 13:26:56.
