data_PCOD8022337
_publ_section_title
;
Structure prediction by ZEFSAII (Michael W. Deem and Ramdas Pophale) SiO2 
 PCOD8022337
Probable space group: P -1
;
_chemical_formula_sum "Si O2"
_cell_formula_units_Z 16
_cell_length_a 8.086509
_cell_length_b 11.830070
_cell_length_c 13.534648
_cell_angle_alpha 101.675824
_cell_angle_beta 92.705815
_cell_angle_gamma 144.849065
_cell_volume 676.093709
_symmetry_space_group_name_H-M "P -1"
_symmetry_group_IT_number 2
_symmetry_cell_setting 'triclinic'
loop_
_space_group_symop_operation_xyz
x,y,z
-x,-y,-z
loop_
_atom_site_type_symbol
_atom_site_label
_atom_site_fract_x
_atom_site_fract_y
_atom_site_fract_z
Si Si1 0.044868 0.733943 0.870804
Si Si2 0.415495 0.073928 0.606795
Si Si3 0.154545 0.305225 0.349212
Si Si4 0.244266 0.940705 0.360773
Si Si5 0.518731 0.632049 0.077035
Si Si6 0.783170 0.904128 0.772476
Si Si7 0.471636 0.174743 0.047662
Si Si8 0.722941 0.769778 0.396089
O O1 0.254534 0.748515 0.902577
O O2 0.029689 0.745994 0.755867
O O3 0.703161 0.504699 0.858984
O O4 0.173718 0.925832 0.960189
O O5 0.439644 0.085350 0.490392
O O6 0.074727 0.825584 0.586480
O O7 0.694623 0.160360 0.675753
O O8 0.448484 0.227375 0.670068
O O9 0.261107 0.240021 0.312766
O O10 0.471806 0.563856 0.426218
O O11 0.880279 0.762077 0.332182
O O12 0.375497 0.088843 0.297171
O O13 0.500000 0.500000 0.000000
O O14 0.410770 0.669722 0.006279
O O15 0.856927 0.856803 0.165667
O O16 0.623544 0.804801 0.856959
O O17 0.000000 0.000000 0.500000
#
# Coordination Sequence:
#
# PCOD8022337 Si02
#       8
#     2   2   2   2   2   2   2   2
#     4  11  24  42  68  97 138 179 229 282 340 403
#     4  10  23  47  68  99 139 174 225 291 343 410
#     4  12  24  43  72 100 135 184 227 287 344 409
#     4  10  22  45  71  98 135 178 226 284 345 410
#     4  12  23  43  66  93 134 183 221 276 341 395
#     4  12  23  43  68 101 137 179 236 278 335 419
#     4  11  24  44  64 100 138 179 228 283 339 405
#     4  10  23  46  68  98 133 175 227 285 345 407
#
# _framework density 23.665361000000001
#
# number of rings (size 3 to 8) (size 9 to 14) (size 15 to 20)
#    0.000    1.000    3.750    3.000    0.000    2.000 
#    6.750    3.125    0.000    0.000    0.000    0.000 
#    0.000    0.000    0.000    0.000    0.000    0.000 
#
# Total GULP energy -198346.774407 kJ/mol
# GULP energy per Si atom -12396.673400 kJ/mol
# Density = 2.361150 g / cm^3
# Si number density = 23.665361 Si / 1000 Ang^3
#
#
#
# Elastic Constant Matrix: (Units=GPa)
#
#
# Indices 1 2 3 4 5 6 
#
# 1 154.5296 34.5741 2.5196 12.4384 1.2096 -21.5077
# 2 34.5741 102.7415 6.6371 6.6353 -4.9880 -4.0839
# 3 2.5196 6.6371 53.1383 0.2582 0.7952 -3.1463
# 4 12.4384 6.6353 0.2582 33.8630 -5.7687 0.8949
# 5 1.2096 -4.9880 0.7952 -5.7687 30.3516 -13.4059
# 6 -21.5077 -4.0839 -3.1463 0.8949 -13.4059 37.6425
#
#
#
# Elastic Compliance Matrix: (Units=1/GPa)
#
#
# Indices 1 2 3 4 5 6 
#
# 1 0.007799 -0.002256 0.000183 -0.002394 0.000891 0.004601
# 2 -0.002256 0.010746 -0.001231 -0.000953 0.001919 0.000480
# 3 0.000183 -0.001231 0.019056 -0.000017 -0.000025 0.001555
# 4 -0.002394 -0.000953 -0.000017 0.031604 0.005890 -0.000126
# 5 0.000891 0.001919 -0.000025 0.005890 0.041060 0.015198
# 6 0.004601 0.000480 0.001555 -0.000126 0.015198 0.034792
#
#
# Mechanical properties :
#
#
# Convention : Reuss Voigt Hill
#
# Bulk Modulus (GPa) = 32.26486 44.20789 38.23638
# Shear Modulus (GPa) = 30.86503 38.14998 34.50751
#
# Velocity S-wave (km/s) = 3.61533 4.01940 3.82271
# Velocity P-wave (km/s) = 5.57592 6.34522 5.97297
#
# Compressibility (1/GPa) = 0.03099347
#
# Stress axis : x y z
#
# Youngs Moduli (GPa) = 128.22151 93.06190 52.47572
#
# Poissons Ratio (x) = 0.20991 -0.00958
# Poissons Ratio (y) = 0.28921 0.06459
# Poissons Ratio (z) = -0.02342 0.11454
#
# Static dielectric constant tensor:
#      x y z
#    x 5.116380 -0.156950 0.071180 
#    y -0.156950 4.432990 -0.310210 
#    z 0.071180 -0.310210 4.051860 
# 
# 
# High freq. dielectric constant tensor:
#      x y z
#    x 1.957670 -0.013650 0.008810 
#    y -0.013650 1.932020 -0.019700 
#    z 0.008810 -0.019700 1.926500 
# 
# From -- ./inp_files/500469.got.cif
#   From: 2010.06.25/outbox.cif.g09.slc.cpg/sg2_251_cif.got.tgz:500469.got - 2010.06.27 13:26:56.
