data_PCOD8022297
_publ_section_title
;
Structure prediction by ZEFSAII (Michael W. Deem and Ramdas Pophale) SiO2 
 PCOD8022297
Probable space group: P -1
;
_chemical_formula_sum "Si O2"
_cell_formula_units_Z 14
_cell_length_a 11.940875
_cell_length_b 11.737208
_cell_length_c 12.745964
_cell_angle_alpha 139.995314
_cell_angle_beta 140.235592
_cell_angle_gamma 37.147775
_cell_volume 633.336249
_symmetry_space_group_name_H-M "P -1"
_symmetry_group_IT_number 2
_symmetry_cell_setting 'triclinic'
loop_
_space_group_symop_operation_xyz
x,y,z
-x,-y,-z
loop_
_atom_site_type_symbol
_atom_site_label
_atom_site_fract_x
_atom_site_fract_y
_atom_site_fract_z
Si Si1 0.161037 0.742222 0.068675
Si Si2 0.386127 0.231253 0.298797
Si Si3 0.793458 0.013665 0.328378
Si Si4 0.247371 0.931630 0.907267
Si Si5 0.451492 0.219598 0.579838
Si Si6 0.969024 0.546512 0.131899
Si Si7 0.698601 0.408095 0.147648
O O1 0.359858 0.745428 0.247999
O O2 0.127184 0.736848 0.913352
O O3 0.982736 0.947431 0.134338
O O4 0.161366 0.545884 0.979085
O O5 0.378333 0.243660 0.426161
O O6 0.195596 0.446352 0.273811
O O7 0.603734 0.187387 0.381344
O O8 0.367441 0.039158 0.111805
O O9 0.829663 0.788794 0.220311
O O10 0.739326 0.080090 0.216225
O O11 0.000000 0.000000 0.500000
O O12 0.334964 0.706962 0.860190
O O13 0.274688 0.405974 0.654220
O O14 0.500000 0.000000 0.500000
O O15 0.000000 0.500000 0.000000
O O16 0.500000 0.500000 0.000000
#
# Coordination Sequence:
#
# PCOD8022297 Si02
#       7
#     2   2   2   2   2   2   2
#     4  10  22  45  70  95 141 177 227 288 336 418
#     4  11  25  43  71  99 142 179 229 289 337 413
#     4  12  27  45  70 103 141 181 230 289 341 414
#     4  11  23  46  67 102 132 184 228 277 353 409
#     4  11  25  44  66 104 137 179 231 287 343 406
#     4  11  25  46  69 104 137 186 232 274 354 409
#     4  10  23  40  68  96 131 180 223 278 343 405
#
# _framework density 22.105160999999999
#
# number of rings (size 3 to 8) (size 9 to 14) (size 15 to 20)
#    0.000    1.143    2.857    3.429    8.000    1.714 
#    0.000    3.571    0.000    0.000    0.000    0.000 
#    0.000    0.000    0.000    0.000    0.000    0.000 
#
# Total GULP energy -173546.003394 kJ/mol
# GULP energy per Si atom -12396.143100 kJ/mol
# Density = 2.205485 g / cm^3
# Si number density = 22.105161 Si / 1000 Ang^3
#
#
#
# Elastic Constant Matrix: (Units=GPa)
#
#
# Indices 1 2 3 4 5 6 
#
# 1 91.8687 33.8148 29.4013 -15.2059 -12.2716 18.2091
# 2 33.8148 107.8038 15.7944 -8.1280 -9.0715 28.8970
# 3 29.4013 15.7944 100.5557 -18.6830 -19.3025 21.3634
# 4 -15.2059 -8.1280 -18.6830 32.9736 3.0282 1.8896
# 5 -12.2716 -9.0715 -19.3025 3.0282 50.1934 -3.2885
# 6 18.2091 28.8970 21.3634 1.8896 -3.2885 44.6690
#
#
#
# Elastic Compliance Matrix: (Units=1/GPa)
#
#
# Indices 1 2 3 4 5 6 
#
# 1 0.014159 -0.002816 -0.001785 0.004844 0.001766 -0.003172
# 2 -0.002816 0.012283 0.001234 0.002728 0.001356 -0.007404
# 3 -0.001785 0.001234 0.013874 0.007337 0.004240 -0.006705
# 4 0.004844 0.002728 0.007337 0.037739 0.001651 -0.008724
# 5 0.001766 0.001356 0.004240 0.001651 0.021995 -0.002076
# 6 -0.003172 -0.007404 -0.006705 -0.008724 -0.002076 0.031892
#
#
# Mechanical properties :
#
#
# Convention : Reuss Voigt Hill
#
# Bulk Modulus (GPa) = 29.77629 50.91658 40.34643
# Shear Modulus (GPa) = 33.36222 40.31504 36.83863
#
# Velocity S-wave (km/s) = 3.88912 4.27521 4.08673
# Velocity P-wave (km/s) = 5.80229 6.88867 6.36868
#
# Compressibility (1/GPa) = 0.03358377
#
# Stress axis : x y z
#
# Youngs Moduli (GPa) = 70.62632 81.41314 72.07543
#
# Poissons Ratio (x) = 0.22924 0.12864
# Poissons Ratio (y) = 0.19887 -0.08896
# Poissons Ratio (z) = 0.12606 -0.10049
#
# Static dielectric constant tensor:
#      x y z
#    x 5.124100 0.060670 -0.633600 
#    y 0.060670 5.398840 0.457070 
#    z -0.633600 0.457070 4.507770 
# 
# 
# High freq. dielectric constant tensor:
#      x y z
#    x 1.880010 0.001300 -0.013590 
#    y 0.001300 1.879690 0.002240 
#    z -0.013590 0.002240 1.870550 
# 
# From -- ./inp_files/274885.got.cif
#   From: 2010.06.25/outbox.cif.g09.slc.cpg/sg2_138_cif.got.tgz:274885.got - 2010.06.27 13:26:56.
