data_PCOD8022199
_publ_section_title
;
Structure prediction by ZEFSAII (Michael W. Deem and Ramdas Pophale) SiO2 
 PCOD8022199
Probable space group: P -1
;
_chemical_formula_sum "Si O2"
_cell_formula_units_Z 16
_cell_length_a 8.531991
_cell_length_b 22.195664
_cell_length_c 8.147149
_cell_angle_alpha 33.976553
_cell_angle_beta 57.863418
_cell_angle_gamma 51.751624
_cell_volume 676.531544
_symmetry_space_group_name_H-M "P -1"
_symmetry_group_IT_number 2
_symmetry_cell_setting 'triclinic'
loop_
_space_group_symop_operation_xyz
x,y,z
-x,-y,-z
loop_
_atom_site_type_symbol
_atom_site_label
_atom_site_fract_x
_atom_site_fract_y
_atom_site_fract_z
Si Si1 0.780993 0.951964 0.381908
Si Si2 0.194567 0.825127 0.278123
Si Si3 0.025597 0.440967 0.441446
Si Si4 0.388279 0.415300 0.711786
Si Si5 0.068325 0.228457 0.720466
Si Si6 0.412385 0.196007 0.374201
Si Si7 0.546974 0.604064 0.663960
Si Si8 0.211007 0.008464 0.344688
O O1 0.654734 0.883160 0.532684
O O2 0.732274 0.953827 0.596530
O O3 0.016593 0.886102 0.366569
O O4 0.715890 0.082571 0.049968
O O5 0.363753 0.726920 0.513337
O O6 0.118502 0.768138 0.295948
O O7 0.991746 0.318392 0.713600
O O8 0.249864 0.409913 0.320512
O O9 0.000000 0.500000 0.500000
O O10 0.847731 0.530584 0.228122
O O11 0.500000 0.500000 0.500000
O O12 0.403900 0.403219 0.536891
O O13 0.478325 0.290763 0.029991
O O14 0.230797 0.260078 0.453552
O O15 0.192422 0.099709 0.006293
O O16 0.616423 0.111890 0.538480
O O17 0.500000 0.500000 0.000000
O O18 0.000000 0.000000 0.500000
#
# Coordination Sequence:
#
# PCOD8022199 Si02
#       8
#     2   2   2   2   2   2   2   2
#     4  10  23  42  71 100 144 184 225 285 348 427
#     4  10  22  45  68 104 139 185 228 282 357 416
#     4  10  26  45  69 101 136 181 238 290 350 411
#     4  11  26  48  69  96 142 185 240 287 355 414
#     4  11  25  45  73  99 145 183 235 289 345 432
#     4  11  27  45  71 101 141 191 230 288 354 425
#     4  11  26  43  71 100 135 178 235 295 351 416
#     4  12  25  42  70 108 141 179 234 286 354 411
#
# _framework density 23.650044000000001
#
# number of rings (size 3 to 8) (size 9 to 14) (size 15 to 20)
#    0.000    1.250    1.250    2.250   12.250    2.500 
#    0.000    0.000    0.000    0.000    0.000    0.000 
#    0.000    0.000    0.000    0.000    0.000    0.000 
#
# Total GULP energy -198278.194464 kJ/mol
# GULP energy per Si atom -12392.387154 kJ/mol
# Density = 2.359622 g / cm^3
# Si number density = 23.650044 Si / 1000 Ang^3
#
#
#
# Elastic Constant Matrix: (Units=GPa)
#
#
# Indices 1 2 3 4 5 6 
#
# 1 74.7549 37.7822 36.9178 -18.0063 -10.7263 -20.3731
# 2 37.7822 74.6094 31.8687 -19.4015 -1.8580 -1.7183
# 3 36.9178 31.8687 148.5422 -15.3336 -5.9206 -10.6950
# 4 -18.0063 -19.4015 -15.3336 40.8607 -3.6874 4.4799
# 5 -10.7263 -1.8580 -5.9206 -3.6874 40.8790 -12.8385
# 6 -20.3731 -1.7183 -10.6950 4.4799 -12.8385 46.1435
#
#
#
# Elastic Compliance Matrix: (Units=1/GPa)
#
#
# Indices 1 2 3 4 5 6 
#
# 1 0.026064 -0.010254 -0.002377 0.005254 0.010589 0.013011
# 2 -0.010254 0.020430 -0.001878 0.004788 -0.003361 -0.005602
# 3 -0.002377 -0.001878 0.007922 0.001014 0.000793 0.000839
# 4 0.005254 0.004788 0.001014 0.029746 0.004797 0.001180
# 5 0.010589 -0.003361 0.000793 0.004797 0.031751 0.013102
# 6 0.013011 -0.005602 0.000839 0.001180 0.013102 0.030933
#
#
# Mechanical properties :
#
#
# Convention : Reuss Voigt Hill
#
# Bulk Modulus (GPa) = 39.37032 56.78265 48.07648
# Shear Modulus (GPa) = 27.12521 38.33249 32.72885
#
# Velocity S-wave (km/s) = 3.39033 4.03031 3.72409
# Velocity P-wave (km/s) = 5.65764 6.76162 6.23412
#
# Compressibility (1/GPa) = 0.02539985
#
# Stress axis : x y z
#
# Youngs Moduli (GPa) = 38.36668 48.94702 126.22561
#
# Poissons Ratio (x) = 0.50191 0.30000
# Poissons Ratio (y) = 0.39342 0.23702
# Poissons Ratio (z) = 0.09119 0.09191
#
# Static dielectric constant tensor:
#      x y z
#    x 4.721390 -0.333930 0.028350 
#    y -0.333930 4.532990 -0.351990 
#    z 0.028350 -0.351990 3.913410 
# 
# 
# High freq. dielectric constant tensor:
#      x y z
#    x 1.952210 -0.011400 -0.003970 
#    y -0.011400 1.946710 -0.015150 
#    z -0.003970 -0.015150 1.923590 
# 
# From -- ./inp_files/225827.got.cif
#   From: 2010.06.25/outbox.cif.g09.slc.cpg/sg2_113_cif.got.tgz:225827.got - 2010.06.27 13:26:56.
