data_PCOD8022162
_publ_section_title
;
Structure prediction by ZEFSAII (Michael W. Deem and Ramdas Pophale) SiO2 
 PCOD8022162
Probable space group: P -1
;
_chemical_formula_sum "Si O2"
_cell_formula_units_Z 16
_cell_length_a 28.898329
_cell_length_b 16.376476
_cell_length_c 5.171036
_cell_angle_alpha 55.782208
_cell_angle_beta 56.603741
_cell_angle_gamma 19.608623
_cell_volume 677.218562
_symmetry_space_group_name_H-M "P -1"
_symmetry_group_IT_number 2
_symmetry_cell_setting 'triclinic'
loop_
_space_group_symop_operation_xyz
x,y,z
-x,-y,-z
loop_
_atom_site_type_symbol
_atom_site_label
_atom_site_fract_x
_atom_site_fract_y
_atom_site_fract_z
Si Si1 0.542076 0.370605 0.850962
Si Si2 0.131709 0.195859 0.156100
Si Si3 0.707164 0.477509 0.121280
Si Si4 0.297964 0.638744 0.151302
Si Si5 0.387475 0.024404 0.133481
Si Si6 0.240751 0.218253 0.728540
Si Si7 0.919651 0.838803 0.122546
Si Si8 0.816442 0.503867 0.872381
O O1 0.500000 0.500000 0.500000
O O2 0.702817 0.084695 0.869394
O O3 0.500000 0.500000 0.000000
O O4 0.459534 0.401135 0.047415
O O5 0.078547 0.245229 0.507076
O O6 0.113632 0.345772 0.912670
O O7 0.061036 0.249966 0.047332
O O8 0.734476 0.355967 0.482131
O O9 0.550838 0.771395 0.075881
O O10 0.748373 0.359780 0.934878
O O11 0.807534 0.406919 0.973745
O O12 0.219100 0.871193 0.959468
O O13 0.337318 0.036817 0.503838
O O14 0.318398 0.246175 0.985118
O O15 0.335282 0.057603 0.976068
O O16 0.174804 0.435141 0.508617
O O17 0.047563 0.705065 0.999092
#
# Coordination Sequence:
#
# PCOD8022162 Si02
#       8
#     2   2   2   2   2   2   2   2
#     4  12  21  40  67  98 131 171 215 268 336 383
#     4  12  23  43  67  98 137 183 206 292 324 409
#     4  12  25  44  74  95 139 170 232 280 343 374
#     4  12  26  43  69 106 130 182 215 282 331 411
#     4  10  22  45  67 102 130 169 218 293 328 400
#     4  10  24  42  70  99 134 166 228 267 354 389
#     4  12  27  45  66  97 144 175 235 257 342 400
#     4  10  29  45  69  98 133 185 225 283 320 410
#
# _framework density 23.626052000000001
#
# number of rings (size 3 to 8) (size 9 to 14) (size 15 to 20)
#    0.750    0.000    2.500    4.875    3.500    2.500 
#    0.000    0.000    0.000    0.000    0.000    0.000 
#    0.000    0.000    0.000    0.000    0.000    0.000 
#
# Total GULP energy -198444.116392 kJ/mol
# GULP energy per Si atom -12402.757275 kJ/mol
# Density = 2.357228 g / cm^3
# Si number density = 23.626052 Si / 1000 Ang^3
#
#
#
# Elastic Constant Matrix: (Units=GPa)
#
#
# Indices 1 2 3 4 5 6 
#
# 1 157.4241 19.2863 46.9396 -3.0590 4.1863 -20.8115
# 2 19.2863 35.5382 15.4021 -0.5241 0.0786 -6.9191
# 3 46.9396 15.4021 98.2361 -7.9196 10.9674 -12.1333
# 4 -3.0590 -0.5241 -7.9196 23.4559 -0.6921 -0.2899
# 5 4.1863 0.0786 10.9674 -0.6921 54.7147 5.0670
# 6 -20.8115 -6.9191 -12.1333 -0.2899 5.0670 41.5338
#
#
#
# Elastic Compliance Matrix: (Units=1/GPa)
#
#
# Indices 1 2 3 4 5 6 
#
# 1 0.007923 -0.002455 -0.003042 -0.000022 -0.000243 0.002702
# 2 -0.002455 0.031561 -0.003540 -0.000757 0.000572 0.002918
# 3 -0.003042 -0.003540 0.013031 0.003875 -0.002513 0.002027
# 4 -0.000022 -0.000757 0.003875 0.043928 -0.000343 0.001343
# 5 -0.000243 0.000572 -0.002513 -0.000343 0.019080 -0.003091
# 6 0.002702 0.002918 0.002027 0.001343 -0.003091 0.026895
#
#
# Mechanical properties :
#
#
# Convention : Reuss Voigt Hill
#
# Bulk Modulus (GPa) = 29.03431 50.49491 39.76461
# Shear Modulus (GPa) = 29.07427 37.91225 33.49326
#
# Velocity S-wave (km/s) = 3.51180 4.01019 3.76924
# Velocity P-wave (km/s) = 5.36278 6.54684 5.98417
#
# Compressibility (1/GPa) = 0.03444201
#
# Stress axis : x y z
#
# Youngs Moduli (GPa) = 126.20952 31.68466 76.73864
#
# Poissons Ratio (x) = 0.07780 0.23343
# Poissons Ratio (y) = 0.30988 0.27162
# Poissons Ratio (z) = 0.38391 0.11215
#
# Static dielectric constant tensor:
#      x y z
#    x 4.283680 -0.097040 0.039190 
#    y -0.097040 4.345020 -0.087230 
#    z 0.039190 -0.087230 4.182380 
# 
# 
# High freq. dielectric constant tensor:
#      x y z
#    x 1.942030 -0.007510 0.007630 
#    y -0.007510 1.947480 -0.004300 
#    z 0.007630 -0.004300 1.934790 
# 
# From -- ./inp_files/128742.got.cif
#   From: 2010.06.25/outbox.cif.g09.slc.cpg/sg2_65_cif.got.tgz:128742.got - 2010.06.27 13:26:56.
