data_PCOD8022342
_publ_section_title
;
Structure prediction by ZEFSAII (Michael W. Deem and Ramdas Pophale) SiO2 
 PCOD8022342
Probable space group: P -1
;
_chemical_formula_sum "Si O2"
_cell_formula_units_Z 16
_cell_length_a 11.634683
_cell_length_b 20.507009
_cell_length_c 8.900872
_cell_angle_alpha 31.913669
_cell_angle_beta 128.993495
_cell_angle_gamma 139.526398
_cell_volume 727.877317
_symmetry_space_group_name_H-M "P -1"
_symmetry_group_IT_number 2
_symmetry_cell_setting 'triclinic'
loop_
_space_group_symop_operation_xyz
x,y,z
-x,-y,-z
loop_
_atom_site_type_symbol
_atom_site_label
_atom_site_fract_x
_atom_site_fract_y
_atom_site_fract_z
Si Si1 0.579478 0.894858 0.316042
Si Si2 0.191160 0.081162 0.926256
Si Si3 0.178842 0.586909 0.882863
Si Si4 0.721104 0.352980 0.652022
Si Si5 0.694281 0.109063 0.737673
Si Si6 0.139442 0.142602 0.425504
Si Si7 0.071343 0.391568 0.909125
Si Si8 0.524690 0.367699 0.742929
O O1 0.411948 0.789115 0.278052
O O2 0.506406 0.925419 0.349288
O O3 0.675629 0.809961 0.597880
O O4 0.714782 0.050505 0.033199
O O5 0.271849 0.978757 0.189307
O O6 0.165056 0.122674 0.658972
O O7 0.326600 0.221501 0.864258
O O8 0.000000 0.000000 0.000000
O O9 0.177634 0.716282 0.535640
O O10 0.178871 0.474163 0.986458
O O11 0.354984 0.649351 0.003902
O O12 0.000000 0.500000 0.000000
O O13 0.842066 0.500230 0.370064
O O14 0.613764 0.385430 0.619995
O O15 0.863909 0.325913 0.897468
O O16 0.091552 0.260350 0.138482
O O17 0.000000 0.000000 0.500000
O O18 0.500000 0.500000 0.500000
#
# Coordination Sequence:
#
# PCOD8022342 Si02
#       8
#     2   2   2   2   2   2   2   2
#     4  10  22  45  71  99 136 177 230 286 349 410
#     4  11  27  47  68 101 144 188 227 288 360 414
#     4  12  26  44  70 107 139 184 232 290 351 423
#     4  11  23  46  71  98 136 188 223 284 360 409
#     4  10  23  42  75  95 137 178 234 281 350 412
#     4  11  26  43  69 103 132 175 231 288 340 409
#     4  11  26  43  71 103 140 177 234 288 349 422
#     4  12  27  47  70 101 145 189 232 288 356 418
#
# _framework density 21.981725000000001
#
# number of rings (size 3 to 8) (size 9 to 14) (size 15 to 20)
#    0.000    1.000    5.000    0.750    8.750    4.000 
#    0.000    0.000    0.000    0.000    0.000    0.000 
#    0.000    0.000    0.000    0.000    0.000    0.000 
#
# Total GULP energy -198218.002798 kJ/mol
# GULP energy per Si atom -12388.625175 kJ/mol
# Density = 2.193169 g / cm^3
# Si number density = 21.981725 Si / 1000 Ang^3
#
#
#
# Elastic Constant Matrix: (Units=GPa)
#
#
# Indices 1 2 3 4 5 6 
#
# 1 185.6375 47.0318 58.1878 -17.6846 30.0901 15.7200
# 2 47.0318 146.0177 41.2791 -3.2448 13.3530 9.5502
# 3 58.1878 41.2791 102.3843 -18.9663 18.8759 4.3747
# 4 -17.6846 -3.2448 -18.9663 31.2501 -1.8823 5.0191
# 5 30.0901 13.3530 18.8759 -1.8823 40.7584 -10.1759
# 6 15.7200 9.5502 4.3747 5.0191 -10.1759 32.4628
#
#
#
# Elastic Compliance Matrix: (Units=1/GPa)
#
#
# Indices 1 2 3 4 5 6 
#
# 1 0.008134 -0.000997 -0.002184 0.003747 -0.005940 -0.005793
# 2 -0.000997 0.008108 -0.002608 -0.001096 -0.001201 -0.001758
# 3 -0.002184 -0.002608 0.014372 0.007372 -0.004514 -0.002667
# 4 0.003747 -0.001096 0.007372 0.039802 -0.006661 -0.010727
# 5 -0.005940 -0.001201 -0.004514 -0.006661 0.035056 0.015857
# 6 -0.005793 -0.001758 -0.002667 -0.010727 0.015857 0.041115
#
#
# Mechanical properties :
#
#
# Convention : Reuss Voigt Hill
#
# Bulk Modulus (GPa) = 52.53680 80.78188 66.65934
# Shear Modulus (GPa) = 30.39295 40.06364 35.22829
#
# Velocity S-wave (km/s) = 3.72243 4.27381 4.00761
# Velocity P-wave (km/s) = 6.51363 7.82197 7.19759
#
# Compressibility (1/GPa) = 0.01903428
#
# Stress axis : x y z
#
# Youngs Moduli (GPa) = 122.93378 123.34134 69.58002
#
# Poissons Ratio (x) = 0.12300 0.15198
# Poissons Ratio (y) = 0.12260 0.18149
# Poissons Ratio (z) = 0.26852 0.32172
#
# Static dielectric constant tensor:
#      x y z
#    x 4.686520 0.106190 0.377860 
#    y 0.106190 4.025080 0.007030 
#    z 0.377860 0.007030 4.177380 
# 
# 
# High freq. dielectric constant tensor:
#      x y z
#    x 1.890170 0.002120 0.015720 
#    y 0.002120 1.858230 -0.010850 
#    z 0.015720 -0.010850 1.854870 
# 
# From -- ./inp_files/282651.got.cif
#   From: 2010.06.25/outbox.cif.g09.slc.cpg/sg2_142_cif.got.tgz:282651.got - 2010.06.27 13:26:56.
