data_PCOD8022407
_publ_section_title
;
Structure prediction by ZEFSAII (Michael W. Deem and Ramdas Pophale) SiO2 
 PCOD8022407
Probable space group: P -1
;
_chemical_formula_sum "Si O2"
_cell_formula_units_Z 14
_cell_length_a 6.680245
_cell_length_b 22.094851
_cell_length_c 16.031333
_cell_angle_alpha 155.228339
_cell_angle_beta 117.027859
_cell_angle_gamma 49.148317
_cell_volume 673.395278
_symmetry_space_group_name_H-M "P -1"
_symmetry_group_IT_number 2
_symmetry_cell_setting 'triclinic'
loop_
_space_group_symop_operation_xyz
x,y,z
-x,-y,-z
loop_
_atom_site_type_symbol
_atom_site_label
_atom_site_fract_x
_atom_site_fract_y
_atom_site_fract_z
Si Si1 0.229196 0.605852 0.643810
Si Si2 0.337552 0.312230 0.422577
Si Si3 0.958973 0.006773 0.098831
Si Si4 0.315503 0.393941 0.710097
Si Si5 0.967216 0.125600 0.539306
Si Si6 0.896673 0.836308 0.209764
Si Si7 0.772481 0.876100 0.585753
O O1 0.500000 0.500000 0.500000
O O2 0.297054 0.480567 0.579120
O O3 0.948174 0.667995 0.616401
O O4 0.159972 0.792081 0.901356
O O5 0.618966 0.113982 0.189132
O O6 0.399779 0.314949 0.533868
O O7 0.058249 0.112430 0.294098
O O8 0.000000 0.000000 0.000000
O O9 0.619681 0.306671 0.704816
O O10 0.166722 0.319824 0.636058
O O11 0.097370 0.619204 0.949741
O O12 0.119880 0.142389 0.666761
O O13 0.108269 0.128110 0.486119
O O14 0.026654 0.928871 0.309822
O O15 0.572309 0.943223 0.246058
#
# Coordination Sequence:
#
# PCOD8022407 Si02
#       7
#     2   2   2   2   2   2   2
#     4  11  25  42  65  93 125 170 221 260 322 384
#     4  11  25  42  62  94 128 169 216 268 317 387
#     4  12  24  43  67  90 134 172 209 269 321 377
#     4  11  24  40  66  96 129 168 216 263 323 383
#     4  10  22  46  63  97 129 169 217 263 328 379
#     4  10  24  41  69  93 132 168 212 273 318 384
#     4  11  25  40  65  98 129 169 219 259 321 389
#
# _framework density 20.790165999999999
#
# number of rings (size 3 to 8) (size 9 to 14) (size 15 to 20)
#    0.000    1.143    2.857    2.143    4.000    1.714 
#    0.000    0.000    0.000    0.000    0.000    0.000 
#    0.000    0.000    0.000    0.000    0.000    0.000 
#
# Total GULP energy -173688.493156 kJ/mol
# GULP energy per Si atom -12406.320940 kJ/mol
# Density = 2.074285 g / cm^3
# Si number density = 20.790166 Si / 1000 Ang^3
#
#
#
# Elastic Constant Matrix: (Units=GPa)
#
#
# Indices 1 2 3 4 5 6 
#
# 1 124.2256 34.7437 47.8734 -1.2365 -8.9736 9.3019
# 2 34.7437 81.9005 11.5198 -1.4591 -7.7681 1.9500
# 3 47.8734 11.5198 111.0791 24.9530 -8.7874 1.4485
# 4 -1.2365 -1.4591 24.9530 35.3667 2.7753 -5.5938
# 5 -8.9736 -7.7681 -8.7874 2.7753 27.0309 1.7145
# 6 9.3019 1.9500 1.4485 -5.5938 1.7145 43.7566
#
#
#
# Elastic Compliance Matrix: (Units=1/GPa)
#
#
# Indices 1 2 3 4 5 6 
#
# 1 0.011369 -0.003920 -0.005230 0.003614 0.000680 -0.001634
# 2 -0.003920 0.014077 0.000485 -0.000117 0.002910 0.000061
# 3 -0.005230 0.000485 0.013874 -0.010404 0.004036 -0.000857
# 4 0.003614 -0.000117 -0.010404 0.036952 -0.006299 0.004552
# 5 0.000680 0.002910 0.004036 -0.006299 0.040192 -0.002788
# 6 -0.001634 0.000061 -0.000857 0.004552 -0.002788 0.023918
#
#
# Mechanical properties :
#
#
# Convention : Reuss Voigt Hill
#
# Bulk Modulus (GPa) = 45.47338 56.16433 50.81886
# Shear Modulus (GPa) = 30.29544 36.10204 33.19874
#
# Velocity S-wave (km/s) = 3.82147 4.17165 4.00039
# Velocity P-wave (km/s) = 6.43363 7.09063 6.77010
#
# Compressibility (1/GPa) = 0.02199089
#
# Stress axis : x y z
#
# Youngs Moduli (GPa) = 87.95755 71.03828 72.07696
#
# Poissons Ratio (x) = 0.27844 0.37698
# Poissons Ratio (y) = 0.34475 -0.03497
# Poissons Ratio (z) = 0.46004 -0.03446
#
# Static dielectric constant tensor:
#      x y z
#    x 2.531950 -0.772800 -1.281870 
#    y -0.772800 3.517900 -0.641570 
#    z -1.281870 -0.641570 2.234520 
# 
# 
# High freq. dielectric constant tensor:
#      x y z
#    x 1.824140 0.001750 0.005320 
#    y 0.001750 1.828520 0.009590 
#    z 0.005320 0.009590 1.811130 
# 
# From -- ./inp_files/39132.got.cif
#   From: 2010.06.25/outbox.cif.g09.slc.cpg/sg2_20_cif.got.tgz:39132.got - 2010.06.27 13:26:56.
