data_PCOD8022622
_publ_section_title
;
Structure prediction by ZEFSAII (Michael W. Deem and Ramdas Pophale) SiO2 
 PCOD8022622
Probable space group: P -1
;
_chemical_formula_sum "Si O2"
_cell_formula_units_Z 14
_cell_length_a 5.437922
_cell_length_b 19.198376
_cell_length_c 12.112575
_cell_angle_alpha 23.672072
_cell_angle_beta 75.304249
_cell_angle_gamma 85.455299
_cell_volume 451.334311
_symmetry_space_group_name_H-M "P -1"
_symmetry_group_IT_number 2
_symmetry_cell_setting 'triclinic'
loop_
_space_group_symop_operation_xyz
x,y,z
-x,-y,-z
loop_
_atom_site_type_symbol
_atom_site_label
_atom_site_fract_x
_atom_site_fract_y
_atom_site_fract_z
Si Si1 0.582580 0.119512 0.632424
Si Si2 0.627806 0.351181 0.932118
Si Si3 0.610048 0.719411 0.155283
Si Si4 0.925940 0.816173 0.386003
Si Si5 0.151754 0.872578 0.625988
Si Si6 0.718417 0.554659 0.999662
Si Si7 0.966848 0.282410 0.724266
O O1 0.249175 0.046264 0.798302
O O2 0.643040 0.027504 0.646166
O O3 0.758148 0.066224 0.783758
O O4 0.728900 0.349817 0.283180
O O5 0.361618 0.253323 0.021796
O O6 0.885387 0.485032 0.631293
O O7 0.684980 0.172191 0.227404
O O8 0.562803 0.458415 0.887748
O O9 0.500000 0.500000 0.500000
O O10 0.900670 0.804708 0.066586
O O11 0.370587 0.790236 0.128169
O O12 0.741349 0.656131 0.729934
O O13 0.919178 0.747408 0.363806
O O14 0.953932 0.673740 0.884763
O O15 0.000000 0.000000 0.500000
#
# Coordination Sequence:
#
# PCOD8022622 Si02
#       7
#     2   2   2   2   2   2   2
#     4  11  21  38  59  94 120 160 204 254 315 372
#     4  11  21  36  60  83 132 164 203 256 314 374
#     4  10  23  35  54  88 127 166 203 252 317 369
#     4  11  20  34  58  89 124 154 198 256 309 369
#     4  11  25  40  59  91 133 173 206 249 318 388
#     4  11  22  36  63  92 124 160 208 258 326 364
#     4  11  21  36  58  91 128 158 207 257 319 362
#
# _framework density 31.019131999999999
#
# number of rings (size 3 to 8) (size 9 to 14) (size 15 to 20)
#    0.000    1.143    2.857    6.429    8.000    0.571 
#    0.000    0.000    0.000    0.000    0.000   14.000 
#    0.000    0.000    0.000    0.000    0.000    0.000 
#
# Total GULP energy -173546.610742 kJ/mol
# GULP energy per Si atom -12396.186482 kJ/mol
# Density = 3.094853 g / cm^3
# Si number density = 31.019132 Si / 1000 Ang^3
#
#
#
# Elastic Constant Matrix: (Units=GPa)
#
#
# Indices 1 2 3 4 5 6 
#
# 1 225.3541 80.9970 62.5066 19.8381 15.0725 12.8233
# 2 80.9970 180.9697 51.1085 13.4437 27.4647 -0.0377
# 3 62.5066 51.1085 88.0396 -0.0174 7.3091 0.9464
# 4 19.8381 13.4437 -0.0174 65.8215 -4.0564 20.1841
# 5 15.0725 27.4647 7.3091 -4.0564 69.7045 7.0853
# 6 12.8233 -0.0377 0.9464 20.1841 7.0853 66.5260
#
#
#
# Elastic Compliance Matrix: (Units=1/GPa)
#
#
# Indices 1 2 3 4 5 6 
#
# 1 0.006143 -0.001650 -0.003369 -0.001321 -0.000331 -0.000701
# 2 -0.001650 0.007628 -0.003059 -0.001557 -0.002531 0.001108
# 3 -0.003369 -0.003059 0.015493 0.001712 0.000423 -0.000137
# 4 -0.001321 -0.001557 0.001712 0.017702 0.002297 -0.005386
# 5 -0.000331 -0.002531 0.000423 0.002297 0.015740 -0.002317
# 6 -0.000701 0.001108 -0.000137 -0.005386 -0.002317 0.017050
#
#
# Mechanical properties :
#
#
# Convention : Reuss Voigt Hill
#
# Bulk Modulus (GPa) = 76.28602 98.17641 87.23122
# Shear Modulus (GPa) = 49.85898 60.39382 55.12640
#
# Velocity S-wave (km/s) = 4.01354 4.41725 4.22023
# Velocity P-wave (km/s) = 6.79151 7.59837 7.20624
#
# Compressibility (1/GPa) = 0.01310856
#
# Stress axis : x y z
#
# Youngs Moduli (GPa) = 162.78065 131.09197 64.54535
#
# Poissons Ratio (x) = 0.21629 0.21746
# Poissons Ratio (y) = 0.26858 0.19744
# Poissons Ratio (z) = 0.54842 0.40101
#
# Static dielectric constant tensor:
#      x y z
#    x 6.803460 0.439780 0.141890 
#    y 0.439780 6.525990 0.276590 
#    z 0.141890 0.276590 6.969770 
# 
# 
# High freq. dielectric constant tensor:
#      x y z
#    x 2.296240 0.005090 -0.016770 
#    y 0.005090 2.304900 -0.023570 
#    z -0.016770 -0.023570 2.317700 
# 
# From -- ./inp_files/369266.got.cif
#   From: 2010.06.25/outbox.cif.g09.slc.cpg/sg2_185_cif.got.tgz:369266.got - 2010.06.27 13:26:56.
