data_PCOD8022764
_publ_section_title
;
Structure prediction by ZEFSAII (Michael W. Deem and Ramdas Pophale) SiO2 
 PCOD8022764
Probable space group: P -1
;
_chemical_formula_sum "Si O2"
_cell_formula_units_Z 14
_cell_length_a 5.161742
_cell_length_b 13.884318
_cell_length_c 8.982191
_cell_angle_alpha 92.294829
_cell_angle_beta 115.106885
_cell_angle_gamma 76.592895
_cell_volume 565.777099
_symmetry_space_group_name_H-M "P -1"
_symmetry_group_IT_number 2
_symmetry_cell_setting 'triclinic'
loop_
_space_group_symop_operation_xyz
x,y,z
-x,-y,-z
loop_
_atom_site_type_symbol
_atom_site_label
_atom_site_fract_x
_atom_site_fract_y
_atom_site_fract_z
Si Si1 0.499492 0.231748 0.199387
Si Si2 0.835984 0.412767 0.455311
Si Si3 0.394389 0.893079 0.258155
Si Si4 0.374884 0.588567 0.283137
Si Si5 0.855878 0.010265 0.304667
Si Si6 0.658251 0.728491 0.520292
Si Si7 0.814480 0.268164 0.999518
O O1 0.521217 0.282167 0.371460
O O2 0.704790 0.122408 0.236313
O O3 0.605146 0.292349 0.095778
O O4 0.158997 0.225974 0.112875
O O5 0.511556 0.469036 0.312672
O O6 0.839818 0.379412 0.626490
O O7 0.000000 0.500000 0.500000
O O8 0.985008 0.316376 0.379400
O O9 0.617795 0.943708 0.227320
O O10 0.562733 0.841381 0.445853
O O11 0.296975 0.813699 0.126452
O O12 0.108140 0.975640 0.241358
O O13 0.611634 0.654909 0.372455
O O14 0.217671 0.627547 0.091378
O O15 0.000000 0.000000 0.500000
#
# Coordination Sequence:
#
# PCOD8022764 Si02
#       7
#     2   2   2   2   2   2   2
#     4  12  27  43  65  99 139 175 220 278 340 388
#     4   9  19  38  72  98 124 165 231 267 318 391
#     4  11  25  43  71  93 131 181 226 273 327 392
#     4   9  21  42  69  97 129 172 222 271 320 405
#     4  12  25  43  68  98 131 172 233 283 320 383
#     4  10  23  38  69  96 128 174 223 272 330 389
#     4  11  27  44  66  99 139 177 217 272 340 399
#
# _framework density 24.744729
#
# number of rings (size 3 to 8) (size 9 to 14) (size 15 to 20)
#    0.000    1.429    1.429    2.143   14.000    3.429 
#    0.000    1.429    0.000    0.000    0.000    0.000 
#    0.000    0.000    0.000    0.000    0.000    0.000 
#
# Total GULP energy -173502.763561 kJ/mol
# GULP energy per Si atom -12393.054540 kJ/mol
# Density = 2.468841 g / cm^3
# Si number density = 24.744729 Si / 1000 Ang^3
#
#
#
# Elastic Constant Matrix: (Units=GPa)
#
#
# Indices 1 2 3 4 5 6 
#
# 1 135.5902 39.3067 33.7216 -10.5450 -20.8280 -31.7197
# 2 39.3067 102.5067 32.5783 -24.2412 -12.9594 -35.3067
# 3 33.7216 32.5783 88.3698 -15.4020 -19.1885 -13.2458
# 4 -10.5450 -24.2412 -15.4020 34.6575 8.3730 0.4986
# 5 -20.8280 -12.9594 -19.1885 8.3730 40.2806 3.2207
# 6 -31.7197 -35.3067 -13.2458 0.4986 3.2207 48.2747
#
#
#
# Elastic Compliance Matrix: (Units=1/GPa)
#
#
# Indices 1 2 3 4 5 6 
#
# 1 0.009846 -0.000834 -0.001820 0.000709 0.003399 0.005126
# 2 -0.000834 0.017286 -0.002344 0.010404 0.000949 0.011280
# 3 -0.001820 -0.002344 0.014514 0.003158 0.004503 0.000739
# 4 0.000709 0.010404 0.003158 0.038464 -0.003479 0.008776
# 5 0.003399 0.000949 0.004503 -0.003479 0.029579 0.002225
# 6 0.005126 0.011280 0.000739 0.008776 0.002225 0.032297
#
#
# Mechanical properties :
#
#
# Convention : Reuss Voigt Hill
#
# Bulk Modulus (GPa) = 31.59663 59.74222 45.66942
# Shear Modulus (GPa) = 30.76331 39.36656 35.06494
#
# Velocity S-wave (km/s) = 3.52977 3.99294 3.76848
# Velocity P-wave (km/s) = 5.42302 6.74196 6.11813
#
# Compressibility (1/GPa) = 0.03164895
#
# Stress axis : x y z
#
# Youngs Moduli (GPa) = 101.56488 57.85044 68.90023
#
# Poissons Ratio (x) = 0.04827 0.12538
# Poissons Ratio (y) = 0.08474 0.16151
# Poissons Ratio (z) = 0.18483 0.13561
#
# Static dielectric constant tensor:
#      x y z
#    x 5.184130 -0.353880 0.408150 
#    y -0.353880 4.871510 -0.407020 
#    z 0.408150 -0.407020 4.807620 
# 
# 
# High freq. dielectric constant tensor:
#      x y z
#    x 2.006700 -0.008060 -0.003580 
#    y -0.008060 1.987350 -0.012370 
#    z -0.003580 -0.012370 1.970080 
# 
# From -- ./inp_files/54867.got.cif
#   From: 2010.06.25/outbox.cif.g09.slc.cpg/sg2_28_cif.got.tgz:54867.got - 2010.06.27 13:26:56.
