data_PCOD8022816
_publ_section_title
;
Structure prediction by ZEFSAII (Michael W. Deem and Ramdas Pophale) SiO2 
 PCOD8022816
Probable space group: P -1
;
_chemical_formula_sum "Si O2"
_cell_formula_units_Z 14
_cell_length_a 10.018312
_cell_length_b 10.133110
_cell_length_c 15.983956
_cell_angle_alpha 83.302094
_cell_angle_beta 115.131692
_cell_angle_gamma 40.829075
_cell_volume 646.055399
_symmetry_space_group_name_H-M "P -1"
_symmetry_group_IT_number 2
_symmetry_cell_setting 'triclinic'
loop_
_space_group_symop_operation_xyz
x,y,z
-x,-y,-z
loop_
_atom_site_type_symbol
_atom_site_label
_atom_site_fract_x
_atom_site_fract_y
_atom_site_fract_z
Si Si1 0.127253 0.785469 0.114729
Si Si2 0.647990 0.248901 0.093750
Si Si3 0.321467 0.617325 0.581628
Si Si4 0.576112 0.835361 0.461116
Si Si5 0.253098 0.412490 0.089675
Si Si6 0.177242 0.191065 0.616048
Si Si7 0.821642 0.094543 0.621242
O O1 0.500155 0.511973 0.270827
O O2 0.092739 0.665631 0.077955
O O3 0.890441 0.977160 0.116949
O O4 0.000000 0.000000 0.000000
O O5 0.354001 0.384398 0.027246
O O6 0.500000 0.500000 0.000000
O O7 0.810418 0.164727 0.230872
O O8 0.573606 0.378291 0.592179
O O9 0.179272 0.870680 0.482949
O O10 0.045061 0.724802 0.509029
O O11 0.596282 0.892031 0.372394
O O12 0.262540 0.990223 0.374657
O O13 0.929822 0.472001 0.592184
O O14 0.500000 0.000000 0.500000
O O15 0.582925 0.092703 0.245050
O O16 0.000000 0.500000 0.000000
#
# Coordination Sequence:
#
# PCOD8022816 Si02
#       7
#     2   2   2   2   2   2   2
#     4  11  25  44  72 104 133 182 236 280 344 420
#     4  11  23  45  69  94 135 182 231 286 343 400
#     4   9  19  39  70  94 129 164 228 278 327 399
#     4  10  23  39  63  98 135 167 211 277 345 408
#     4  12  28  45  66  99 144 184 230 286 343 408
#     4  10  23  44  63  97 134 176 218 283 341 391
#     4   9  19  38  66  98 125 170 219 283 330 396
#
# _framework density 21.669968999999998
#
# number of rings (size 3 to 8) (size 9 to 14) (size 15 to 20)
#    0.000    1.714    2.857    0.000    6.000    4.571 
#    2.571    0.000    0.000    0.000    0.000    0.000 
#    0.000    0.000    0.000    0.000    0.000    0.000 
#
# Total GULP energy -173492.263252 kJ/mol
# GULP energy per Si atom -12392.304518 kJ/mol
# Density = 2.162065 g / cm^3
# Si number density = 21.669969 Si / 1000 Ang^3
#
#
#
# Elastic Constant Matrix: (Units=GPa)
#
#
# Indices 1 2 3 4 5 6 
#
# 1 177.5120 43.1724 63.8934 11.9369 3.2507 17.0444
# 2 43.1724 126.7610 38.8971 6.0488 0.8803 21.3582
# 3 63.8934 38.8971 121.8475 9.3941 -6.5556 15.3291
# 4 11.9369 6.0488 9.3941 29.0123 6.4770 -4.3167
# 5 3.2507 0.8803 -6.5556 6.4770 39.1397 2.5945
# 6 17.0444 21.3582 15.3291 -4.3167 2.5945 35.9757
#
#
#
# Elastic Compliance Matrix: (Units=1/GPa)
#
#
# Indices 1 2 3 4 5 6 
#
# 1 0.007351 -0.001166 -0.003177 -0.001834 -0.000706 -0.001606
# 2 -0.001166 0.009691 -0.001754 -0.001708 0.000177 -0.004672
# 3 -0.003177 -0.001754 0.011166 -0.002993 0.002853 -0.002776
# 4 -0.001834 -0.001708 -0.002993 0.039453 -0.007398 0.008426
# 5 -0.000706 0.000177 0.002853 -0.007398 0.027562 -0.003862
# 6 -0.001606 -0.004672 -0.002776 0.008426 -0.003862 0.033804
#
#
# Mechanical properties :
#
#
# Convention : Reuss Voigt Hill
#
# Bulk Modulus (GPa) = 62.43749 79.78290 71.11020
# Shear Modulus (GPa) = 34.11598 39.50271 36.80934
#
# Velocity S-wave (km/s) = 3.97210 4.27420 4.12592
# Velocity P-wave (km/s) = 7.06486 7.82660 7.45546
#
# Compressibility (1/GPa) = 0.01601602
#
# Stress axis : x y z
#
# Youngs Moduli (GPa) = 136.03682 103.18432 89.55556
#
# Poissons Ratio (x) = 0.12028 0.28453
# Poissons Ratio (y) = 0.15857 0.15704
# Poissons Ratio (z) = 0.43220 0.18094
#
# Static dielectric constant tensor:
#      x y z
#    x 3.048510 0.358650 0.152380 
#    y 0.358650 3.879580 -0.126550 
#    z 0.152380 -0.126550 3.985130 
# 
# 
# High freq. dielectric constant tensor:
#      x y z
#    x 1.868070 -0.002210 -0.004740 
#    y -0.002210 1.860660 -0.013810 
#    z -0.004740 -0.013810 1.837010 
# 
# From -- ./inp_files/557187.got.cif
#   From: 2010.06.25/outbox.cif.g09.slc.cpg/sg2_279_cif.got.tgz:557187.got - 2010.06.27 13:26:56.
