data_PCOD8022876
_publ_section_title
;
Structure prediction by ZEFSAII (Michael W. Deem and Ramdas Pophale) SiO2 
 PCOD8022876
Probable space group: P -1
;
_chemical_formula_sum "Si O2"
_cell_formula_units_Z 14
_cell_length_a 9.440663
_cell_length_b 10.313382
_cell_length_c 8.449666
_cell_angle_alpha 52.818003
_cell_angle_beta 73.342634
_cell_angle_gamma 68.894728
_cell_volume 608.852597
_symmetry_space_group_name_H-M "P -1"
_symmetry_group_IT_number 2
_symmetry_cell_setting 'triclinic'
loop_
_space_group_symop_operation_xyz
x,y,z
-x,-y,-z
loop_
_atom_site_type_symbol
_atom_site_label
_atom_site_fract_x
_atom_site_fract_y
_atom_site_fract_z
Si Si1 0.310828 0.128035 0.853439
Si Si2 0.522839 0.630006 0.021718
Si Si3 0.335630 0.485204 0.621945
Si Si4 0.125353 0.019353 0.570190
Si Si5 0.809084 0.153420 0.009217
Si Si6 0.954915 0.330772 0.583346
Si Si7 0.610751 0.943280 0.755699
O O1 0.274364 0.327096 0.694644
O O2 0.177460 0.037848 0.915014
O O3 0.445131 0.068160 0.725300
O O4 0.340534 0.079389 0.061183
O O5 0.641278 0.529612 0.186946
O O6 0.500000 0.500000 0.000000
O O7 0.358519 0.730964 0.066854
O O8 0.601646 0.764753 0.816692
O O9 0.500000 0.500000 0.500000
O O10 0.199740 0.639190 0.495967
O O11 0.281265 0.985250 0.446234
O O12 0.083633 0.204491 0.529657
O O13 0.150239 0.866983 0.802115
O O14 0.000000 0.000000 0.500000
O O15 0.929738 0.234520 0.822462
O O16 0.000000 0.500000 0.500000
#
# Coordination Sequence:
#
# PCOD8022876 Si02
#       7
#     2   2   2   2   2   2   2
#     4   9  20  43  74  98 136 176 240 287 347 416
#     4  10  23  39  68 102 139 168 230 302 344 401
#     4  11  23  42  74 102 134 185 234 289 346 420
#     4  12  28  43  69 100 145 187 238 284 353 439
#     4  11  24  46  69  98 136 191 234 290 348 425
#     4  12  28  48  72 104 146 193 232 291 366 431
#     4   9  21  41  68 101 132 183 228 289 342 412
#
# _framework density 22.994071999999999
#
# number of rings (size 3 to 8) (size 9 to 14) (size 15 to 20)
#    0.000    1.429    1.429    3.000    6.000    5.714 
#    0.000    3.571    0.000    0.000    0.000    0.000 
#    0.000    0.000    0.000    0.000    0.000    0.000 
#
# Total GULP energy -173454.547263 kJ/mol
# GULP energy per Si atom -12389.610519 kJ/mol
# Density = 2.294174 g / cm^3
# Si number density = 22.994072 Si / 1000 Ang^3
#
#
#
# Elastic Constant Matrix: (Units=GPa)
#
#
# Indices 1 2 3 4 5 6 
#
# 1 88.8561 31.0345 55.7897 -2.4088 9.2650 6.2897
# 2 31.0345 99.5490 51.8192 6.0388 -3.9203 18.9522
# 3 55.7897 51.8192 138.2966 5.9404 -13.6829 -2.0664
# 4 -2.4088 6.0388 5.9404 22.4883 -2.1939 -4.2839
# 5 9.2650 -3.9203 -13.6829 -2.1939 47.3873 -10.1571
# 6 6.2897 18.9522 -2.0664 -4.2839 -10.1571 47.2023
#
#
#
# Elastic Compliance Matrix: (Units=1/GPa)
#
#
# Indices 1 2 3 4 5 6 
#
# 1 0.017189 -0.001471 -0.007155 0.002954 -0.006066 -0.003050
# 2 -0.001471 0.014497 -0.004909 -0.004149 -0.001525 -0.006544
# 3 -0.007155 -0.004909 0.012633 -0.001378 0.005551 0.004547
# 4 0.002954 -0.004149 -0.001378 0.047617 0.002172 0.006001
# 5 -0.006066 -0.001525 0.005551 0.002172 0.025438 0.007335
# 6 -0.003050 -0.006544 0.004547 0.006001 0.007335 0.026541
#
#
# Mechanical properties :
#
#
# Convention : Reuss Voigt Hill
#
# Bulk Modulus (GPa) = 57.97869 67.10983 62.54426
# Shear Modulus (GPa) = 28.29078 35.95280 32.12179
#
# Velocity S-wave (km/s) = 3.51144 3.95849 3.74165
# Velocity P-wave (km/s) = 6.45830 7.08109 6.77686
#
# Compressibility (1/GPa) = 0.01724772
#
# Stress axis : x y z
#
# Youngs Moduli (GPa) = 58.17612 68.98106 79.15745
#
# Poissons Ratio (x) = 0.10150 0.56641
# Poissons Ratio (y) = 0.08560 0.38856
# Poissons Ratio (z) = 0.41628 0.33861
#
# Static dielectric constant tensor:
#      x y z
#    x 4.299550 -0.109180 0.161070 
#    y -0.109180 4.486690 -0.303670 
#    z 0.161070 -0.303670 4.312340 
# 
# 
# High freq. dielectric constant tensor:
#      x y z
#    x 1.921060 0.004500 0.008410 
#    y 0.004500 1.900040 -0.009690 
#    z 0.008410 -0.009690 1.910490 
# 
# From -- ./inp_files/174040.got.cif
#   From: 2010.06.25/outbox.cif.g09.slc.cpg/sg2_88_cif.got.tgz:174040.got - 2010.06.27 13:26:56.
