data_PCOD8022260
_publ_section_title
;
Structure prediction by ZEFSAII (Michael W. Deem and Ramdas Pophale) SiO2 
 PCOD8022260
Probable space group: P -1
;
_chemical_formula_sum "Si O2"
_cell_formula_units_Z 12
_cell_length_a 13.324951
_cell_length_b 13.745944
_cell_length_c 8.358590
_cell_angle_alpha 105.666252
_cell_angle_beta 127.337557
_cell_angle_gamma 31.642150
_cell_volume 515.350894
_symmetry_space_group_name_H-M "P -1"
_symmetry_group_IT_number 2
_symmetry_cell_setting 'triclinic'
loop_
_space_group_symop_operation_xyz
x,y,z
-x,-y,-z
loop_
_atom_site_type_symbol
_atom_site_label
_atom_site_fract_x
_atom_site_fract_y
_atom_site_fract_z
Si Si1 0.854990 0.133697 0.087165
Si Si2 0.769320 0.370256 0.319396
Si Si3 0.344438 0.691537 0.543477
Si Si4 0.648232 0.677734 0.869683
Si Si5 0.714806 0.812464 0.761955
Si Si6 0.291214 0.064075 0.886474
O O1 0.894090 0.226387 0.214266
O O2 0.512020 0.357349 0.856788
O O3 0.014361 0.947849 0.287170
O O4 0.000000 0.000000 0.000000
O O5 0.665990 0.344780 0.305196
O O6 0.998388 0.273381 0.592526
O O7 0.500000 0.500000 0.500000
O O8 0.532653 0.655765 0.684299
O O9 0.595380 0.800908 0.736508
O O10 0.464757 0.835585 0.922207
O O11 0.981097 0.434111 0.133056
O O12 0.500000 0.000000 0.500000
O O13 0.772612 0.867215 0.959252
O O14 0.500000 0.000000 0.000000
#
# Coordination Sequence:
#
# PCOD8022260 Si02
#       6
#     2   2   2   2   2   2
#     4  11  24  43  68 100 134 180 233 288 336 415
#     4  11  24  44  68 101 137 181 231 283 356 407
#     4  12  23  43  67  99 142 186 224 279 353 409
#     4  10  23  44  67  94 141 175 225 291 335 407
#     4  10  23  45  70  99 128 180 237 282 343 408
#     4  10  22  45  69  93 136 180 222 288 346 399
#
# _framework density 23.285107
#
# number of rings (size 3 to 8) (size 9 to 14) (size 15 to 20)
#    0.000    1.333    3.333    1.500    0.000    2.000 
#    6.000    0.000    0.000    0.000    0.000    0.000 
#    0.000    0.000    0.000    0.000    0.000    0.000 
#
# Total GULP energy -148709.466983 kJ/mol
# GULP energy per Si atom -12392.455582 kJ/mol
# Density = 2.323211 g / cm^3
# Si number density = 23.285107 Si / 1000 Ang^3
#
#
#
# Elastic Constant Matrix: (Units=GPa)
#
#
# Indices 1 2 3 4 5 6 
#
# 1 69.9919 23.6735 40.9712 -4.8131 10.4699 12.9374
# 2 23.6735 156.2763 61.6037 -7.1780 10.2873 6.0578
# 3 40.9712 61.6037 182.6293 -15.0974 11.9101 10.0280
# 4 -4.8131 -7.1780 -15.0974 56.7686 7.1996 -1.0773
# 5 10.4699 10.2873 11.9101 7.1996 35.2032 -1.3824
# 6 12.9374 6.0578 10.0280 -1.0773 -1.3824 27.9422
#
#
#
# Elastic Compliance Matrix: (Units=1/GPa)
#
#
# Indices 1 2 3 4 5 6 
#
# 1 0.018552 -0.000965 -0.003025 0.001104 -0.004732 -0.007486
# 2 -0.000965 0.007526 -0.002177 0.000445 -0.001284 -0.000450
# 3 -0.003025 -0.002177 0.007130 0.001505 -0.001211 -0.000688
# 4 0.001104 0.000445 0.001505 0.018766 -0.004832 -0.000663
# 5 -0.004732 -0.001284 -0.001211 -0.004832 0.031755 0.004289
# 6 -0.007486 -0.000450 -0.000688 -0.000663 0.004289 0.039785
#
#
# Mechanical properties :
#
#
# Convention : Reuss Voigt Hill
#
# Bulk Modulus (GPa) = 47.90941 73.48825 60.69883
# Shear Modulus (GPa) = 35.01228 42.82606 38.91917
#
# Velocity S-wave (km/s) = 3.88188 4.29325 4.09273
# Velocity P-wave (km/s) = 6.38058 7.49698 6.96119
#
# Compressibility (1/GPa) = 0.02087272
#
# Stress axis : x y z
#
# Youngs Moduli (GPa) = 53.90115 132.87919 140.25841
#
# Poissons Ratio (x) = 0.12828 0.42435
# Poissons Ratio (y) = 0.05203 0.30530
# Poissons Ratio (z) = 0.16308 0.28924
#
# Static dielectric constant tensor:
#      x y z
#    x 3.877080 -0.494040 -0.089230 
#    y -0.494040 5.046260 0.105290 
#    z -0.089230 0.105290 4.341290 
# 
# 
# High freq. dielectric constant tensor:
#      x y z
#    x 1.885470 -0.008180 0.008840 
#    y -0.008180 1.954740 -0.004360 
#    z 0.008840 -0.004360 1.926320 
# 
# From -- ./inp_files/315681.got.cif
#   From: 2010.06.25/outbox.cif.g09.slc.cpg/sg2_158_cif.got.tgz:315681.got - 2010.06.27 13:26:56.
