data_PCOD8022096
_publ_section_title
;
Structure prediction by ZEFSAII (Michael W. Deem and Ramdas Pophale) SiO2 
 PCOD8022096
Probable space group: P -1
;
_chemical_formula_sum "Si O2"
_cell_formula_units_Z 14
_cell_length_a 8.959592
_cell_length_b 12.858015
_cell_length_c 25.329803
_cell_angle_alpha 19.100314
_cell_angle_beta 135.369216
_cell_angle_gamma 125.478908
_cell_volume 614.673143
_symmetry_space_group_name_H-M "P -1"
_symmetry_group_IT_number 2
_symmetry_cell_setting 'triclinic'
loop_
_space_group_symop_operation_xyz
x,y,z
-x,-y,-z
loop_
_atom_site_type_symbol
_atom_site_label
_atom_site_fract_x
_atom_site_fract_y
_atom_site_fract_z
Si Si1 0.978198 0.144186 0.659846
Si Si2 0.636650 0.629432 0.122308
Si Si3 0.916854 0.262395 0.804630
Si Si4 0.483845 0.594537 0.297322
Si Si5 0.607083 0.497680 0.972032
Si Si6 0.923307 0.864683 0.889983
Si Si7 0.388270 0.390625 0.265295
O O1 0.723096 0.253189 0.517765
O O2 0.000000 0.500000 0.500000
O O3 0.173976 0.865925 0.806903
O O4 0.997417 0.014629 0.786139
O O5 0.544151 0.507696 0.209188
O O6 0.909442 0.537432 0.246781
O O7 0.593218 0.419288 0.162626
O O8 0.494182 0.032545 0.874744
O O9 0.650191 0.485474 0.647895
O O10 0.900739 0.111064 0.815942
O O11 0.000000 0.000000 0.000000
O O12 0.342582 0.631090 0.190150
O O13 0.500000 0.500000 0.000000
O O14 0.690088 0.813188 0.843246
O O15 0.132609 0.484369 0.132495
O O16 0.500000 0.000000 0.500000
#
# Coordination Sequence:
#
# PCOD8022096 Si02
#       7
#     2   2   2   2   2   2   2
#     4  12  26  45  73 108 142 186 239 287 351 427
#     4  11  23  45  72 101 137 190 233 289 353 413
#     4  10  22  44  75  99 138 184 236 286 349 409
#     4  11  23  45  73 101 141 182 239 288 344 422
#     4  12  26  45  72 102 147 185 229 291 363 410
#     4  12  25  46  72 101 144 189 228 291 363 408
#     4  12  25  42  71 101 139 187 240 285 346 423
#
# _framework density 22.776333000000001
#
# number of rings (size 3 to 8) (size 9 to 14) (size 15 to 20)
#    0.000    0.571    5.714    3.429    4.000    0.571 
#    0.000    0.714    0.000    0.000    0.000    0.000 
#    0.000    0.000    0.000    0.000    0.000    0.000 
#
# Total GULP energy -173478.753406 kJ/mol
# GULP energy per Si atom -12391.339529 kJ/mol
# Density = 2.272449 g / cm^3
# Si number density = 22.776333 Si / 1000 Ang^3
#
#
#
# Elastic Constant Matrix: (Units=GPa)
#
#
# Indices 1 2 3 4 5 6 
#
# 1 185.9728 70.4616 55.1029 -13.0915 -2.1657 -13.9227
# 2 70.4616 157.1397 36.5621 -10.6085 -8.6877 3.1077
# 3 55.1029 36.5621 75.5969 12.3830 -4.2017 -3.7105
# 4 -13.0915 -10.6085 12.3830 14.0301 -2.6929 -3.4230
# 5 -2.1657 -8.6877 -4.2017 -2.6929 28.8060 0.9300
# 6 -13.9227 3.1077 -3.7105 -3.4230 0.9300 46.0346
#
#
#
# Elastic Compliance Matrix: (Units=1/GPa)
#
#
# Indices 1 2 3 4 5 6 
#
# 1 0.010266 -0.001149 -0.009708 0.018308 0.000600 0.003749
# 2 -0.001149 0.008952 -0.005099 0.010595 0.002881 -0.000633
# 3 -0.009708 -0.005099 0.029012 -0.039606 -0.001636 -0.003166
# 4 0.018308 0.010595 -0.039606 0.136284 0.011163 0.011538
# 5 0.000600 0.002881 -0.001636 0.011163 0.036435 -0.000051
# 6 0.003749 -0.000633 -0.003166 0.011538 -0.000051 0.023503
#
#
# Mechanical properties :
#
#
# Convention : Reuss Voigt Hill
#
# Bulk Modulus (GPa) = 61.28475 82.55142 71.91809
# Shear Modulus (GPa) = 17.74279 34.87966 26.31122
#
# Velocity S-wave (km/s) = 2.79409 3.91755 3.40251
# Velocity P-wave (km/s) = 6.11350 7.53565 6.86152
#
# Compressibility (1/GPa) = 0.01631727
#
# Stress axis : x y z
#
# Youngs Moduli (GPa) = 97.41318 111.70070 34.46868
#
# Poissons Ratio (x) = 0.12837 0.33464
# Poissons Ratio (y) = 0.11195 0.17575
# Poissons Ratio (z) = 0.94573 0.56953
#
# Static dielectric constant tensor:
#      x y z
#    x 6.752520 1.443540 4.304960 
#    y 1.443540 5.451150 2.681420 
#    z 4.304960 2.681420 12.282600 
# 
# 
# High freq. dielectric constant tensor:
#      x y z
#    x 1.915100 0.004850 0.001790 
#    y 0.004850 1.920720 0.008380 
#    z 0.001790 0.008380 1.876010 
# 
# From -- ./inp_files/607734.got.cif
#   From: 2010.06.25/outbox.cif.g09.slc.cpg/sg2_304_cif.got.tgz:607734.got - 2010.06.27 13:26:56.
