data_PCOD8022148
_publ_section_title
;
Structure prediction by ZEFSAII (Michael W. Deem and Ramdas Pophale) SiO2 
 PCOD8022148
Probable space group: P -1
;
_chemical_formula_sum "Si O2"
_cell_formula_units_Z 16
_cell_length_a 8.429879
_cell_length_b 5.212977
_cell_length_c 27.016593
_cell_angle_alpha 109.108251
_cell_angle_beta 36.229705
_cell_angle_gamma 96.487589
_cell_volume 638.303427
_symmetry_space_group_name_H-M "P -1"
_symmetry_group_IT_number 2
_symmetry_cell_setting 'triclinic'
loop_
_space_group_symop_operation_xyz
x,y,z
-x,-y,-z
loop_
_atom_site_type_symbol
_atom_site_label
_atom_site_fract_x
_atom_site_fract_y
_atom_site_fract_z
Si Si1 0.332668 0.271417 0.683897
Si Si2 0.813413 0.190093 0.927440
Si Si3 0.487917 0.058100 0.086883
Si Si4 0.353830 0.685130 0.787489
Si Si5 0.057612 0.791279 0.718712
Si Si6 0.274238 0.009988 0.514236
Si Si7 0.026459 0.346864 0.375296
Si Si8 0.991948 0.359094 0.045543
O O1 0.395837 0.391357 0.728427
O O2 0.250793 0.532586 0.683339
O O3 0.595258 0.057931 0.577658
O O4 0.109789 0.092231 0.739525
O O5 0.658969 0.170905 0.913725
O O6 0.908433 0.473861 0.923817
O O7 0.079938 0.918157 0.850907
O O8 0.572451 0.236394 0.033156
O O9 0.256693 0.231279 0.193455
O O10 0.777750 0.939716 0.036350
O O11 0.305723 0.651433 0.857370
O O12 0.637539 0.777855 0.716082
O O13 0.109542 0.755806 0.645153
O O14 0.098988 0.784888 0.555498
O O15 0.500000 0.000000 0.500000
O O16 0.059013 0.316118 0.582399
O O17 0.000000 0.500000 0.000000
#
# Coordination Sequence:
#
# PCOD8022148 Si02
#       8
#     2   2   2   2   2   2   2   2
#     4  12  26  46  76 103 146 190 238 310 355 441
#     4  10  22  45  66  95 146 182 239 295 350 428
#     4  10  23  39  69 100 132 192 243 288 346 423
#     4  11  28  45  68 110 145 191 240 300 372 426
#     4  12  24  42  74 108 139 191 250 290 358 431
#     4  12  24  49  74 109 143 185 248 300 375 426
#     4  12  27  44  77 108 147 189 238 309 364 448
#     4  11  26  42  68  99 151 190 236 300 360 424
#
# _framework density 25.066448999999999
#
# number of rings (size 3 to 8) (size 9 to 14) (size 15 to 20)
#    0.000    0.750    3.750    2.250    7.000    2.000 
#    0.000    0.000    0.000    0.000    0.000    0.000 
#    0.000    0.000    0.000    0.000    0.000    0.000 
#
# Total GULP energy -198297.598710 kJ/mol
# GULP energy per Si atom -12393.599919 kJ/mol
# Density = 2.500940 g / cm^3
# Si number density = 25.066449 Si / 1000 Ang^3
#
#
#
# Elastic Constant Matrix: (Units=GPa)
#
#
# Indices 1 2 3 4 5 6 
#
# 1 59.8530 9.5061 23.4680 -5.3340 -2.3114 -3.1825
# 2 9.5061 84.4351 26.5021 -9.4244 -5.2357 4.1028
# 3 23.4680 26.5021 151.6235 -21.5812 1.2482 -6.5088
# 4 -5.3340 -9.4244 -21.5812 34.7256 9.2167 0.7368
# 5 -2.3114 -5.2357 1.2482 9.2167 34.3595 0.0032
# 6 -3.1825 4.1028 -6.5088 0.7368 0.0032 35.5079
#
#
#
# Elastic Compliance Matrix: (Units=1/GPa)
#
#
# Indices 1 2 3 4 5 6 
#
# 1 0.018017 -0.001194 -0.002440 0.000649 0.000944 0.001292
# 2 -0.001194 0.012971 -0.001926 0.001788 0.001487 -0.001996
# 3 -0.002440 -0.001926 0.008039 0.004596 -0.001983 0.001382
# 4 0.000649 0.001788 0.004596 0.034667 -0.009150 -0.000025
# 5 0.000944 0.001487 -0.001983 -0.009150 0.031921 -0.000264
# 6 0.001292 -0.001996 0.001382 -0.000025 -0.000264 0.028763
#
#
# Mechanical properties :
#
#
# Convention : Reuss Voigt Hill
#
# Bulk Modulus (GPa) = 35.83292 46.09599 40.96446
# Shear Modulus (GPa) = 32.29955 36.68095 34.49025
#
# Velocity S-wave (km/s) = 3.59354 3.82952 3.71341
# Velocity P-wave (km/s) = 5.61643 6.16304 5.89607
#
# Compressibility (1/GPa) = 0.02790729
#
# Stress axis : x y z
#
# Youngs Moduli (GPa) = 55.50330 77.09458 124.38878
#
# Poissons Ratio (x) = 0.09208 0.30348
# Poissons Ratio (y) = 0.06629 0.23955
# Poissons Ratio (z) = 0.13542 0.14847
#
# Static dielectric constant tensor:
#      x y z
#    x 4.450360 0.284780 0.107550 
#    y 0.284780 4.442780 -0.029020 
#    z 0.107550 -0.029020 4.785360 
# 
# 
# High freq. dielectric constant tensor:
#      x y z
#    x 1.989950 0.013890 0.010060 
#    y 0.013890 1.997060 -0.010330 
#    z 0.010060 -0.010330 2.019400 
# 
# From -- ./inp_files/289075.got.cif
#   From: 2010.06.25/outbox.cif.g09.slc.cpg/sg2_145_cif.got.tgz:289075.got - 2010.06.27 13:26:56.
