data_PCOD8022166
_publ_section_title
;
Structure prediction by ZEFSAII (Michael W. Deem and Ramdas Pophale) SiO2 
 PCOD8022166
Probable space group: P -1
;
_chemical_formula_sum "Si O2"
_cell_formula_units_Z 14
_cell_length_a 8.511450
_cell_length_b 8.424854
_cell_length_c 10.605994
_cell_angle_alpha 68.192212
_cell_angle_beta 105.517819
_cell_angle_gamma 123.601255
_cell_volume 586.230646
_symmetry_space_group_name_H-M "P -1"
_symmetry_group_IT_number 2
_symmetry_cell_setting 'triclinic'
loop_
_space_group_symop_operation_xyz
x,y,z
-x,-y,-z
loop_
_atom_site_type_symbol
_atom_site_label
_atom_site_fract_x
_atom_site_fract_y
_atom_site_fract_z
Si Si1 0.059886 0.315075 0.886896
Si Si2 0.034721 0.971418 0.835227
Si Si3 0.448254 0.694206 0.809299
Si Si4 0.556905 0.954925 0.393205
Si Si5 0.548684 0.829006 0.060978
Si Si6 0.735853 0.394251 0.734167
Si Si7 0.253120 0.219957 0.371991
O O1 0.275668 0.469412 0.849183
O O2 0.936945 0.417985 0.803929
O O3 0.969691 0.111100 0.848475
O O4 0.043545 0.242434 0.049579
O O5 0.948814 0.930499 0.689160
O O6 0.261041 0.091295 0.841135
O O7 0.581673 0.709664 0.718682
O O8 0.365207 0.843498 0.730896
O O9 0.568893 0.759184 0.946276
O O10 0.371905 0.778683 0.339340
O O11 0.712436 0.890058 0.470716
O O12 0.500000 0.000000 0.500000
O O13 0.380671 0.643183 0.150756
O O14 0.500000 0.000000 0.000000
O O15 0.759578 0.597635 0.624636
#
# Coordination Sequence:
#
# PCOD8022166 Si02
#       7
#     2   2   2   2   2   2   2
#     4  11  23  39  67  95 131 167 212 264 319 384
#     4  11  23  42  62  96 131 170 208 260 327 377
#     4  11  23  44  66  96 130 174 209 261 327 374
#     4  10  22  45  67  88 130 174 214 262 315 376
#     4  12  23  40  69  95 130 163 210 268 319 376
#     4  12  24  42  68  99 127 167 218 265 317 376
#     4  11  25  42  67  94 131 171 216 261 313 383
#
# _framework density 23.881385000000002
#
# number of rings (size 3 to 8) (size 9 to 14) (size 15 to 20)
#    0.000    0.857    2.857    5.571    2.000    2.857 
#    0.000   10.714    0.000    0.000    0.000    0.000 
#    0.000    0.000    0.000    0.000    0.000    0.000 
#
# Total GULP energy -173608.901322 kJ/mol
# GULP energy per Si atom -12400.635809 kJ/mol
# Density = 2.382703 g / cm^3
# Si number density = 23.881385 Si / 1000 Ang^3
#
#
#
# Elastic Constant Matrix: (Units=GPa)
#
#
# Indices 1 2 3 4 5 6 
#
# 1 80.3657 17.2146 14.5646 -5.2758 24.3246 6.7263
# 2 17.2146 118.2444 34.0924 -5.2462 16.2798 0.8348
# 3 14.5646 34.0924 81.2615 2.0476 29.6572 1.7553
# 4 -5.2758 -5.2462 2.0476 34.7506 -10.6630 11.0231
# 5 24.3246 16.2798 29.6572 -10.6630 43.2665 -1.5858
# 6 6.7263 0.8348 1.7553 11.0231 -1.5858 42.2929
#
#
#
# Elastic Compliance Matrix: (Units=1/GPa)
#
#
# Indices 1 2 3 4 5 6 
#
# 1 0.015516 -0.001307 0.001128 0.000230 -0.009054 -0.002888
# 2 -0.001307 0.009852 -0.003995 0.001653 0.000165 -0.000245
# 3 0.001128 -0.003995 0.018824 -0.005694 -0.013434 0.000099
# 4 0.000230 0.001653 -0.005694 0.035730 0.011639 -0.008709
# 5 -0.009054 0.000165 -0.013434 0.011639 0.040234 0.000469
# 6 -0.002888 -0.000245 0.000099 -0.008709 0.000469 0.026392
#
#
# Mechanical properties :
#
#
# Convention : Reuss Voigt Hill
#
# Bulk Modulus (GPa) = 27.89926 45.73497 36.81711
# Shear Modulus (GPa) = 29.96802 38.32866 34.14834
#
# Velocity S-wave (km/s) = 3.54626 4.01054 3.78552
# Velocity P-wave (km/s) = 5.33626 6.37482 5.87852
#
# Compressibility (1/GPa) = 0.03584324
#
# Stress axis : x y z
#
# Youngs Moduli (GPa) = 64.45052 101.50561 53.12329
#
# Poissons Ratio (x) = 0.13268 -0.05994
# Poissons Ratio (y) = 0.08424 0.21225
# Poissons Ratio (z) = -0.07272 0.40556
#
# Static dielectric constant tensor:
#      x y z
#    x 4.510580 0.071150 -0.419450 
#    y 0.071150 4.576690 -0.945790 
#    z -0.419450 -0.945790 6.592020 
# 
# 
# High freq. dielectric constant tensor:
#      x y z
#    x 1.939990 -0.013930 0.023140 
#    y -0.013930 1.953910 -0.002600 
#    z 0.023140 -0.002600 1.946190 
# 
# From -- ./inp_files/242497.got.cif
#   From: 2010.06.25/outbox.cif.g09.slc.cpg/sg2_122_cif.got.tgz:242497.got - 2010.06.27 13:26:56.
