data_PCOD8022746
_publ_section_title
;
Structure prediction by ZEFSAII (Michael W. Deem and Ramdas Pophale) SiO2 
 PCOD8022746
Probable space group: P -1
;
_chemical_formula_sum "Si O2"
_cell_formula_units_Z 16
_cell_length_a 8.821395
_cell_length_b 5.547046
_cell_length_c 17.376236
_cell_angle_alpha 100.013483
_cell_angle_beta 123.673143
_cell_angle_gamma 88.738996
_cell_volume 693.946711
_symmetry_space_group_name_H-M "P -1"
_symmetry_group_IT_number 2
_symmetry_cell_setting 'triclinic'
loop_
_space_group_symop_operation_xyz
x,y,z
-x,-y,-z
loop_
_atom_site_type_symbol
_atom_site_label
_atom_site_fract_x
_atom_site_fract_y
_atom_site_fract_z
Si Si1 0.033079 0.880869 0.751170
Si Si2 0.710480 0.056112 0.037665
Si Si3 0.149610 0.117682 0.652243
Si Si4 0.495339 0.472564 0.757589
Si Si5 0.362143 0.479073 0.031891
Si Si6 0.175109 0.588076 0.406568
Si Si7 0.683131 0.151152 0.685012
Si Si8 0.369409 0.774434 0.607759
O O1 0.955188 0.651408 0.664593
O O2 0.158830 0.810040 0.853063
O O3 0.867102 0.022436 0.744123
O O4 0.170380 0.045815 0.743751
O O5 0.733671 0.261511 0.986250
O O6 0.500000 0.000000 0.000000
O O7 0.771719 0.779216 0.022697
O O8 0.291483 0.347157 0.687099
O O9 0.943357 0.189422 0.589072
O O10 0.190727 0.895821 0.595350
O O11 0.534836 0.548083 0.860194
O O12 0.648078 0.301494 0.761254
O O13 0.490264 0.699770 0.710234
O O14 0.500000 0.500000 0.000000
O O15 0.299547 0.664678 0.372282
O O16 0.300736 0.555647 0.516174
O O17 0.507352 0.961216 0.608218
#
# Coordination Sequence:
#
# PCOD8022746 Si02
#       8
#     2   2   2   2   2   2   2   2
#     4  11  24  42  69  99 139 178 232 287 346 418
#     4  10  23  40  70 102 136 177 229 288 355 420
#     4  10  23  38  66  98 142 172 226 288 349 408
#     4  11  24  42  69  99 139 178 232 287 346 418
#     4  10  23  40  70 102 136 177 229 288 355 420
#     4  11  24  42  67  99 137 183 230 283 349 417
#     4  10  25  44  66  92 142 182 234 278 347 410
#     4  11  24  42  67  99 137 183 230 283 349 417
#
# _framework density 23.056526000000002
#
# number of rings (size 3 to 8) (size 9 to 14) (size 15 to 20)
#    0.000    1.500    0.000    3.750   14.000    8.000 
#    0.000    1.250    0.000    0.000    0.000    0.000 
#    0.000    0.000    0.000    0.000    0.000    0.000 
#
# Total GULP energy -198260.213341 kJ/mol
# GULP energy per Si atom -12391.263334 kJ/mol
# Density = 2.300405 g / cm^3
# Si number density = 23.056526 Si / 1000 Ang^3
#
#
#
# Elastic Constant Matrix: (Units=GPa)
#
#
# Indices 1 2 3 4 5 6 
#
# 1 98.2246 13.2060 23.9222 4.9433 -5.3498 10.5868
# 2 13.2060 118.7277 19.5062 -2.6047 -5.6656 -1.6583
# 3 23.9222 19.5062 120.3328 -1.3433 -21.9062 -2.4239
# 4 4.9433 -2.6047 -1.3433 34.3883 1.9287 -9.4653
# 5 -5.3498 -5.6656 -21.9062 1.9287 21.2381 -0.2858
# 6 10.5868 -1.6583 -2.4239 -9.4653 -0.2858 16.2656
#
#
#
# Elastic Compliance Matrix: (Units=1/GPa)
#
#
# Indices 1 2 3 4 5 6 
#
# 1 0.012501 -0.001234 -0.002471 -0.005231 0.000589 -0.011664
# 2 -0.001234 0.008826 -0.000944 0.001416 0.000974 0.002403
# 3 -0.002471 -0.000944 0.010933 0.001245 0.010344 0.004048
# 4 -0.005231 0.001416 0.001245 0.037094 -0.002684 0.025273
# 5 0.000589 0.000974 0.010344 -0.002684 0.058417 0.000722
# 6 -0.011664 0.002403 0.004048 0.025273 0.000722 0.084639
#
#
# Mechanical properties :
#
#
# Convention : Reuss Voigt Hill
#
# Bulk Modulus (GPa) = 43.55073 50.06154 46.80614
# Shear Modulus (GPa) = 21.79957 33.08844 27.44401
#
# Velocity S-wave (km/s) = 3.07821 3.79238 3.45380
# Velocity P-wave (km/s) = 5.61814 6.39812 6.02077
#
# Compressibility (1/GPa) = 0.02296173
#
# Stress axis : x y z
#
# Youngs Moduli (GPa) = 79.99360 113.30064 91.46491
#
# Poissons Ratio (x) = 0.13982 0.22604
# Poissons Ratio (y) = 0.09871 0.08633
# Poissons Ratio (z) = 0.19769 0.10694
#
# Static dielectric constant tensor:
#      x y z
#    x 4.138460 -0.096790 -0.152190 
#    y -0.096790 5.653590 -0.194850 
#    z -0.152190 -0.194850 3.880440 
# 
# 
# High freq. dielectric constant tensor:
#      x y z
#    x 1.901010 -0.001030 -0.008940 
#    y -0.001030 1.919920 -0.004570 
#    z -0.008940 -0.004570 1.899140 
# 
# From -- ./inp_files/47880.got.cif
#   From: 2010.06.25/outbox.cif.g09.slc.cpg/sg2_24_cif.got.tgz:47880.got - 2010.06.27 13:26:56.
