data_PCOD8022401
_publ_section_title
;
Structure prediction by ZEFSAII (Michael W. Deem and Ramdas Pophale) SiO2 
 PCOD8022401
Probable space group: P -1
;
_chemical_formula_sum "Si O2"
_cell_formula_units_Z 12
_cell_length_a 14.462584
_cell_length_b 9.957742
_cell_length_c 7.534640
_cell_angle_alpha 113.256366
_cell_angle_beta 114.119256
_cell_angle_gamma 28.316144
_cell_volume 468.219716
_symmetry_space_group_name_H-M "P -1"
_symmetry_group_IT_number 2
_symmetry_cell_setting 'triclinic'
loop_
_space_group_symop_operation_xyz
x,y,z
-x,-y,-z
loop_
_atom_site_type_symbol
_atom_site_label
_atom_site_fract_x
_atom_site_fract_y
_atom_site_fract_z
Si Si1 0.020298 0.810619 0.630003
Si Si2 0.991664 0.168323 0.776825
Si Si3 0.440188 0.226206 0.752614
Si Si4 0.589919 0.782762 0.814237
Si Si5 0.569735 0.315594 0.121232
Si Si6 0.411323 0.761118 0.444440
O O1 0.071755 0.770857 0.444718
O O2 0.204590 0.497616 0.695947
O O3 0.000301 0.999484 0.792341
O O4 0.823776 0.962114 0.590493
O O5 0.818365 0.480098 0.886792
O O6 0.196560 0.998260 0.869717
O O7 0.531809 0.212330 0.665324
O O8 0.551731 0.931242 0.684669
O O9 0.472106 0.275278 0.995092
O O10 0.484440 0.755045 0.678519
O O11 0.500000 0.000000 0.000000
O O12 0.517176 0.470325 0.344830
O O13 0.500000 0.500000 0.000000
#
# Coordination Sequence:
#
# PCOD8022401 Si02
#       6
#     2   2   2   2   2   2
#     4  11  24  44  83 104 141 195 250 292 361 428
#     4  11  23  46  71 110 146 190 241 306 352 429
#     4  11  25  51  71 111 151 186 240 308 359 428
#     4  12  29  47  71 110 155 188 238 305 371 429
#     4  10  22  45  76 105 138 190 241 299 354 420
#     4  11  24  47  78 104 141 200 241 291 365 433
#
# _framework density 25.628993000000001
#
# number of rings (size 3 to 8) (size 9 to 14) (size 15 to 20)
#    0.000    1.000    5.000    1.500    4.667    6.000 
#    0.000    0.000    0.000    0.000    0.000    0.000 
#    0.000    0.000    0.000    0.000    0.000    0.000 
#
# Total GULP energy -148819.885394 kJ/mol
# GULP energy per Si atom -12401.657116 kJ/mol
# Density = 2.557066 g / cm^3
# Si number density = 25.628993 Si / 1000 Ang^3
#
#
#
# Elastic Constant Matrix: (Units=GPa)
#
#
# Indices 1 2 3 4 5 6 
#
# 1 106.3350 56.9031 29.1829 10.6414 29.2859 -7.6046
# 2 56.9031 201.9337 29.9121 1.8756 21.7572 -17.3753
# 3 29.1829 29.9121 115.6946 7.0539 16.5247 -12.9166
# 4 10.6414 1.8756 7.0539 40.8152 -5.6823 9.8642
# 5 29.2859 21.7572 16.5247 -5.6823 33.7062 2.7440
# 6 -7.6046 -17.3753 -12.9166 9.8642 2.7440 55.5348
#
#
#
# Elastic Compliance Matrix: (Units=1/GPa)
#
#
# Indices 1 2 3 4 5 6 
#
# 1 0.015219 -0.002535 -0.000704 -0.006158 -0.012511 0.002839
# 2 -0.002535 0.006047 -0.000520 -0.000117 -0.001590 0.001523
# 3 -0.000704 -0.000520 0.010125 -0.002889 -0.004735 0.002843
# 4 -0.006158 -0.000117 -0.002889 0.030177 0.012542 -0.007531
# 5 -0.012511 -0.001590 -0.004735 0.012542 0.046639 -0.007844
# 6 0.002839 0.001523 0.002843 -0.007531 -0.007844 0.021259
#
#
# Mechanical properties :
#
#
# Convention : Reuss Voigt Hill
#
# Bulk Modulus (GPa) = 41.88740 72.88440 57.38590
# Shear Modulus (GPa) = 34.49691 46.54225 40.51958
#
# Velocity S-wave (km/s) = 3.67278 4.26608 3.98050
# Velocity P-wave (km/s) = 5.86217 7.26401 6.60041
#
# Compressibility (1/GPa) = 0.02387353
#
# Stress axis : x y z
#
# Youngs Moduli (GPa) = 65.70827 165.37644 98.76238
#
# Poissons Ratio (x) = 0.41919 0.06954
# Poissons Ratio (y) = 0.16656 0.05133
# Poissons Ratio (z) = 0.04627 0.08596
#
# Static dielectric constant tensor:
#      x y z
#    x 6.193030 1.654360 -0.165500 
#    y 1.654360 6.000510 -0.174670 
#    z -0.165500 -0.174670 5.455570 
# 
# 
# High freq. dielectric constant tensor:
#      x y z
#    x 2.042340 0.016970 -0.014840 
#    y 0.016970 2.024980 -0.005700 
#    z -0.014840 -0.005700 2.049260 
# 
# From -- ./inp_files/160016.got.cif
#   From: 2010.06.25/outbox.cif.g09.slc.cpg/sg2_81_cif.got.tgz:160016.got - 2010.06.27 13:26:56.
