data_PCOD8022808
_publ_section_title
;
Structure prediction by ZEFSAII (Michael W. Deem and Ramdas Pophale) SiO2 
 PCOD8022808
Probable space group: P -1
;
_chemical_formula_sum "Si O2"
_cell_formula_units_Z 16
_cell_length_a 9.302300
_cell_length_b 15.085585
_cell_length_c 9.760229
_cell_angle_alpha 55.382602
_cell_angle_beta 56.199458
_cell_angle_gamma 95.475175
_cell_volume 748.169932
_symmetry_space_group_name_H-M "P -1"
_symmetry_group_IT_number 2
_symmetry_cell_setting 'triclinic'
loop_
_space_group_symop_operation_xyz
x,y,z
-x,-y,-z
loop_
_atom_site_type_symbol
_atom_site_label
_atom_site_fract_x
_atom_site_fract_y
_atom_site_fract_z
Si Si1 0.652370 0.153373 0.316206
Si Si2 0.316483 0.700198 0.099609
Si Si3 0.144608 0.401032 0.460761
Si Si4 0.074885 0.189837 0.146035
Si Si5 0.586129 0.229219 0.568671
Si Si6 0.296452 0.071479 0.111915
Si Si7 0.613562 0.632845 0.404855
Si Si8 0.970361 0.240692 0.431505
O O1 0.552189 0.168873 0.489857
O O2 0.877807 0.178569 0.195552
O O3 0.500000 0.000000 0.500000
O O4 0.669306 0.249291 0.105767
O O5 0.301297 0.563852 0.220288
O O6 0.100489 0.660002 0.322336
O O7 0.521761 0.820115 0.970771
O O8 0.233418 0.354250 0.569356
O O9 0.134392 0.325620 0.393863
O O10 0.075088 0.058906 0.269828
O O11 0.122408 0.263379 0.203147
O O12 0.266576 0.263417 0.871950
O O13 0.562753 0.349343 0.459151
O O14 0.831044 0.297095 0.429498
O O15 0.399281 0.112030 0.869765
O O16 0.217255 0.919944 0.309507
O O17 0.500000 0.500000 0.500000
#
# Coordination Sequence:
#
# PCOD8022808 Si02
#       8
#     2   2   2   2   2   2   2   2
#     4  11  24  42  67  96 135 173 219 272 330 388
#     4  11  23  42  64  95 132 171 217 268 328 390
#     4  11  24  40  65  96 128 171 219 271 323 388
#     4  10  23  41  62  96 129 172 219 274 327 387
#     4  10  23  39  63  93 125 172 218 267 325 388
#     4  11  22  42  68  92 134 175 221 267 330 392
#     4  11  24  44  66  91 132 176 218 269 335 392
#     4  11  23  40  67  97 130 173 222 270 326 390
#
# _framework density 21.385515000000002
#
# number of rings (size 3 to 8) (size 9 to 14) (size 15 to 20)
#    0.000    1.250    2.500    3.750    3.500    3.000 
#    0.000    6.875    0.000    0.000    0.000    0.000 
#    0.000    0.000    0.000    0.000    0.000    0.000 
#
# Total GULP energy -198250.638275 kJ/mol
# GULP energy per Si atom -12390.664892 kJ/mol
# Density = 2.133684 g / cm^3
# Si number density = 21.385515 Si / 1000 Ang^3
#
#
#
# Elastic Constant Matrix: (Units=GPa)
#
#
# Indices 1 2 3 4 5 6 
#
# 1 61.0929 45.0449 36.4100 8.6229 14.0913 -10.6153
# 2 45.0449 137.9742 44.0821 7.4421 0.3499 6.6327
# 3 36.4100 44.0821 64.2639 14.4152 13.8831 6.3611
# 4 8.6229 7.4421 14.4152 44.2044 4.0499 -2.5533
# 5 14.0913 0.3499 13.8831 4.0499 22.1614 12.0854
# 6 -10.6153 6.6327 6.3611 -2.5533 12.0854 43.3431
#
#
#
# Elastic Compliance Matrix: (Units=1/GPa)
#
#
# Indices 1 2 3 4 5 6 
#
# 1 0.043700 -0.011399 -0.012582 0.001877 -0.032930 0.023586
# 2 -0.011399 0.012794 -0.004569 -0.000224 0.014365 -0.008098
# 3 -0.012582 -0.004569 0.029012 -0.005981 -0.006128 -0.005284
# 4 0.001877 -0.000224 -0.005981 0.024857 -0.004165 0.003998
# 5 -0.032930 0.014365 -0.006128 -0.004165 0.089246 -0.034494
# 6 0.023586 -0.008098 -0.005284 0.003998 -0.034494 0.040716
#
#
# Mechanical properties :
#
#
# Convention : Reuss Voigt Hill
#
# Bulk Modulus (GPa) = 35.20334 57.15610 46.17972
# Shear Modulus (GPa) = 16.29220 31.12805 23.71012
#
# Velocity S-wave (km/s) = 2.76313 3.81933 3.33333
# Velocity P-wave (km/s) = 5.16496 6.79958 6.03784
#
# Compressibility (1/GPa) = 0.02840640
#
# Stress axis : x y z
#
# Youngs Moduli (GPa) = 22.88304 78.16196 34.46806
#
# Poissons Ratio (x) = 0.89095 0.43368
# Poissons Ratio (y) = 0.26084 0.15750
# Poissons Ratio (z) = 0.28792 0.35716
#
# Static dielectric constant tensor:
#      x y z
#    x 3.829950 -0.067120 0.158000 
#    y -0.067120 4.007630 0.227510 
#    z 0.158000 0.227510 3.820880 
# 
# 
# High freq. dielectric constant tensor:
#      x y z
#    x 1.851710 -0.011600 0.012490 
#    y -0.011600 1.850550 0.015080 
#    z 0.012490 0.015080 1.835110 
# 
# From -- ./inp_files/205860.got.cif
#   From: 2010.06.25/outbox.cif.g09.slc.cpg/sg2_103_cif.got.tgz:205860.got - 2010.06.27 13:26:56.
