data_PCOD8022878
_publ_section_title
;
Structure prediction by ZEFSAII (Michael W. Deem and Ramdas Pophale) SiO2 
 PCOD8022878
Probable space group: P -1
;
_chemical_formula_sum "Si O2"
_cell_formula_units_Z 16
_cell_length_a 16.493542
_cell_length_b 12.136895
_cell_length_c 8.847192
_cell_angle_alpha 103.005418
_cell_angle_beta 106.727995
_cell_angle_gamma 140.248986
_cell_volume 742.588916
_symmetry_space_group_name_H-M "P -1"
_symmetry_group_IT_number 2
_symmetry_cell_setting 'triclinic'
loop_
_space_group_symop_operation_xyz
x,y,z
-x,-y,-z
loop_
_atom_site_type_symbol
_atom_site_label
_atom_site_fract_x
_atom_site_fract_y
_atom_site_fract_z
Si Si1 0.215486 0.985712 0.087128
Si Si2 0.948806 0.552057 0.576690
Si Si3 0.864319 0.572729 0.961968
Si Si4 0.491539 0.243927 0.546381
Si Si5 0.255500 0.272297 0.719900
Si Si6 0.936901 0.731505 0.379560
Si Si7 0.305518 0.813939 0.405585
Si Si8 0.393064 0.394599 0.139097
O O1 0.402743 0.144427 0.298710
O O2 0.264249 0.167083 0.107119
O O3 0.122014 0.793863 0.851757
O O4 0.071375 0.850569 0.100901
O O5 0.914134 0.608948 0.455012
O O6 0.759328 0.304999 0.498857
O O7 0.000000 0.500000 0.500000
O O8 0.702200 0.442646 0.733143
O O9 0.843779 0.412843 0.867933
O O10 0.839691 0.569730 0.124390
O O11 0.492827 0.374111 0.639990
O O12 0.334756 0.984504 0.477756
O O13 0.158640 0.269478 0.603320
O O14 0.462237 0.517377 0.837124
O O15 0.262436 0.297154 0.912707
O O16 0.149827 0.027272 0.550194
O O17 0.500000 0.000000 0.500000
#
# Coordination Sequence:
#
# PCOD8022878 Si02
#       8
#     2   2   2   2   2   2   2   2
#     4  11  25  43  66 100 136 178 227 288 341 407
#     4  11  26  42  73 104 137 179 234 287 345 417
#     4  10  23  43  70  95 136 181 226 279 341 418
#     4  11  23  42  68  96 136 181 232 274 347 403
#     4  10  23  39  68  93 143 176 222 285 348 406
#     4  11  22  45  67 101 135 183 226 281 352 402
#     4   9  23  45  65  96 136 179 227 280 339 414
#     4  11  22  42  62 102 131 177 232 285 334 410
#
# _framework density 21.546243
#
# number of rings (size 3 to 8) (size 9 to 14) (size 15 to 20)
#    0.000    1.500    2.500    1.125    5.250    4.500 
#    0.000    2.500    0.000    0.000    0.000    0.000 
#    0.000    0.000    0.000    0.000    0.000    0.000 
#
# Total GULP energy -198249.114702 kJ/mol
# GULP energy per Si atom -12390.569669 kJ/mol
# Density = 2.149720 g / cm^3
# Si number density = 21.546243 Si / 1000 Ang^3
#
#
#
# Elastic Constant Matrix: (Units=GPa)
#
#
# Indices 1 2 3 4 5 6 
#
# 1 81.0078 61.5636 45.2182 -2.1354 -11.1950 -9.5745
# 2 61.5636 143.4536 52.3236 9.5383 -14.2491 -15.7617
# 3 45.2182 52.3236 127.3910 -6.3622 -5.5519 -5.9926
# 4 -2.1354 9.5383 -6.3622 32.5215 -5.7971 -2.2614
# 5 -11.1950 -14.2491 -5.5519 -5.7971 37.8346 4.0535
# 6 -9.5745 -15.7617 -5.9926 -2.2614 4.0535 34.5071
#
#
#
# Elastic Compliance Matrix: (Units=1/GPa)
#
#
# Indices 1 2 3 4 5 6 
#
# 1 0.020771 -0.007165 -0.004046 0.003356 0.003193 0.001633
# 2 -0.007165 0.011487 -0.002209 -0.003917 0.001014 0.002500
# 3 -0.004046 -0.002209 0.010297 0.002360 -0.000138 -0.000173
# 4 0.003356 -0.003917 0.002360 0.033531 0.004876 0.001177
# 5 0.003193 0.001014 -0.000138 0.004876 0.028669 -0.001723
# 6 0.001633 0.002500 -0.000173 0.001177 -0.001723 0.030824
#
#
# Mechanical properties :
#
#
# Convention : Reuss Voigt Hill
#
# Bulk Modulus (GPa) = 63.63206 74.45145 69.04176
# Shear Modulus (GPa) = 29.82288 33.82245 31.82266
#
# Velocity S-wave (km/s) = 3.72443 3.96632 3.84728
# Velocity P-wave (km/s) = 6.93485 7.45687 7.20059
#
# Compressibility (1/GPa) = 0.01571535
#
# Stress axis : x y z
#
# Youngs Moduli (GPa) = 48.14468 87.05450 97.11460
#
# Poissons Ratio (x) = 0.62370 0.39296
# Poissons Ratio (y) = 0.34493 0.21451
# Poissons Ratio (z) = 0.19481 0.19229
#
# Static dielectric constant tensor:
#      x y z
#    x 3.805420 -0.252510 -0.131860 
#    y -0.252510 4.135770 0.214920 
#    z -0.131860 0.214920 4.137460 
# 
# 
# High freq. dielectric constant tensor:
#      x y z
#    x 1.836480 -0.010620 -0.007160 
#    y -0.010620 1.847150 0.013390 
#    z -0.007160 0.013390 1.856410 
# 
# From -- ./inp_files/332194.got.cif
#   From: 2010.06.25/outbox.cif.g09.slc.cpg/sg2_167_cif.got.tgz:332194.got - 2010.06.27 13:26:56.
