data_PCOD8022649
_publ_section_title
;
Structure prediction by ZEFSAII (Michael W. Deem and Ramdas Pophale) SiO2 
 PCOD8022649
Probable space group: P -1
;
_chemical_formula_sum "Si O2"
_cell_formula_units_Z 16
_cell_length_a 10.314547
_cell_length_b 6.919282
_cell_length_c 16.377086
_cell_angle_alpha 49.401149
_cell_angle_beta 52.141490
_cell_angle_gamma 67.161829
_cell_volume 700.557374
_symmetry_space_group_name_H-M "P -1"
_symmetry_group_IT_number 2
_symmetry_cell_setting 'triclinic'
loop_
_space_group_symop_operation_xyz
x,y,z
-x,-y,-z
loop_
_atom_site_type_symbol
_atom_site_label
_atom_site_fract_x
_atom_site_fract_y
_atom_site_fract_z
Si Si1 0.191986 0.666457 0.138297
Si Si2 0.232412 0.558589 0.403370
Si Si3 0.406240 0.382092 0.782370
Si Si4 0.746308 0.105706 0.107751
Si Si5 0.104650 0.707859 0.851183
Si Si6 0.173090 0.037592 0.190358
Si Si7 0.447440 0.411105 0.940678
Si Si8 0.027545 0.298469 0.420267
O O1 0.996542 0.174539 0.217080
O O2 0.383027 0.592174 0.075066
O O3 0.084497 0.424275 0.277685
O O4 0.189862 0.902367 0.134581
O O5 0.425763 0.517681 0.353820
O O6 0.168030 0.347560 0.421351
O O7 0.135389 0.549541 0.529584
O O8 0.185994 0.841533 0.312849
O O9 0.269562 0.596625 0.779225
O O10 0.461114 0.288562 0.877559
O O11 0.333705 0.155030 0.819127
O O12 0.850510 0.070827 0.160186
O O13 0.602041 0.298513 0.133185
O O14 0.864137 0.234289 0.956330
O O15 0.000000 0.500000 0.000000
O O16 0.311730 0.255244 0.088126
O O17 0.000000 0.000000 0.500000
#
# Coordination Sequence:
#
# PCOD8022649 Si02
#       8
#     2   2   2   2   2   2   2   2
#     4  11  21  37  60  90 121 154 196 249 297 351
#     4  10  23  41  62  88 115 157 197 252 303 336
#     4  11  21  39  62  86 127 156 196 244 295 360
#     4  11  23  34  59  89 123 162 192 230 301 365
#     4  11  23  38  53  90 130 162 192 234 294 366
#     4  11  20  38  61  82 130 155 191 239 296 355
#     4  11  20  36  57  92 122 154 190 239 301 358
#     4  10  23  37  60  89 118 148 202 253 298 343
#
# _framework density 22.838956
#
# number of rings (size 3 to 8) (size 9 to 14) (size 15 to 20)
#    0.000    1.250    6.250    1.500    3.500    2.000 
#    0.000    0.000    0.000    6.750    0.000   14.875 
#    0.000    0.000    0.000    0.000    0.000    0.000 
#
# Total GULP energy -198377.126713 kJ/mol
# GULP energy per Si atom -12398.570420 kJ/mol
# Density = 2.278697 g / cm^3
# Si number density = 22.838956 Si / 1000 Ang^3
#
#
#
# Elastic Constant Matrix: (Units=GPa)
#
#
# Indices 1 2 3 4 5 6 
#
# 1 79.8952 32.4166 49.7280 5.0033 -19.0673 -6.3401
# 2 32.4166 97.4308 34.0438 -13.1381 -19.9486 14.6745
# 3 49.7280 34.0438 108.9465 5.1003 -32.3666 -3.6020
# 4 5.0033 -13.1381 5.1003 31.3763 -4.0258 -11.4092
# 5 -19.0673 -19.9486 -32.3666 -4.0258 28.4311 1.1166
# 6 -6.3401 14.6745 -3.6020 -11.4092 1.1166 38.2255
#
#
#
# Elastic Compliance Matrix: (Units=1/GPa)
#
#
# Indices 1 2 3 4 5 6 
#
# 1 0.019389 -0.004650 -0.006671 -0.002433 0.001661 0.003598
# 2 -0.004650 0.015326 -0.000811 0.006466 0.007824 -0.005030
# 3 -0.006671 -0.000811 0.016601 -0.000075 0.013833 0.000343
# 4 -0.002433 0.006466 -0.000075 0.039116 0.008022 0.008548
# 5 0.001661 0.007824 0.013833 0.008022 0.058689 -0.000745
# 6 0.003598 -0.005030 0.000343 0.008548 -0.000745 0.031294
#
#
# Mechanical properties :
#
#
# Convention : Reuss Voigt Hill
#
# Bulk Modulus (GPa) = 36.96509 57.62772 47.29640
# Shear Modulus (GPa) = 23.39764 30.94551 27.17158
#
# Velocity S-wave (km/s) = 3.20419 3.68495 3.45295
# Velocity P-wave (km/s) = 5.46895 6.58727 6.05399
#
# Compressibility (1/GPa) = 0.02705255
#
# Stress axis : x y z
#
# Youngs Moduli (GPa) = 51.57447 65.24998 60.23584
#
# Poissons Ratio (x) = 0.30343 0.40183
# Poissons Ratio (y) = 0.23983 0.04884
# Poissons Ratio (z) = 0.34405 0.05291
#
# Static dielectric constant tensor:
#      x y z
#    x 4.165790 0.100890 -0.216070 
#    y 0.100890 4.330390 0.148230 
#    z -0.216070 0.148230 3.978400 
# 
# 
# High freq. dielectric constant tensor:
#      x y z
#    x 1.884340 0.011220 -0.022930 
#    y 0.011220 1.926490 0.008480 
#    z -0.022930 0.008480 1.870940 
# 
# From -- ./inp_files/472635.got.cif
#   From: 2010.06.25/outbox.cif.g09.slc.cpg/sg2_237_cif.got.tgz:472635.got - 2010.06.27 13:26:56.
