data_PCOD8022953
_publ_section_title
;
Structure prediction by ZEFSAII (Michael W. Deem and Ramdas Pophale) SiO2 
 PCOD8022953
Probable space group: P -1
;
_chemical_formula_sum "Si O2"
_cell_formula_units_Z 16
_cell_length_a 11.911164
_cell_length_b 12.652699
_cell_length_c 8.859355
_cell_angle_alpha 122.643789
_cell_angle_beta 91.540812
_cell_angle_gamma 48.103794
_cell_volume 708.709663
_symmetry_space_group_name_H-M "P -1"
_symmetry_group_IT_number 2
_symmetry_cell_setting 'triclinic'
loop_
_space_group_symop_operation_xyz
x,y,z
-x,-y,-z
loop_
_atom_site_type_symbol
_atom_site_label
_atom_site_fract_x
_atom_site_fract_y
_atom_site_fract_z
Si Si1 0.386500 0.018165 0.394182
Si Si2 0.638341 0.673771 0.903887
Si Si3 0.689243 0.383109 0.868897
Si Si4 0.701614 0.126671 0.506420
Si Si5 0.996258 0.899200 0.134771
Si Si6 0.557971 0.593040 0.549317
Si Si7 0.043983 0.796641 0.731826
Si Si8 0.015099 0.399116 0.566709
O O1 0.204609 0.258673 0.549302
O O2 0.500000 0.000000 0.500000
O O3 0.341959 0.921959 0.390938
O O4 0.505282 0.888783 0.146956
O O5 0.688989 0.518465 0.898394
O O6 0.532280 0.704765 0.781722
O O7 0.829870 0.572166 0.788570
O O8 0.760198 0.215525 0.628763
O O9 0.800393 0.297122 0.961712
O O10 0.500000 0.500000 0.000000
O O11 0.540559 0.264049 0.487781
O O12 0.875110 0.926858 0.269179
O O13 0.943281 0.901844 0.967334
O O14 0.949610 0.086912 0.282403
O O15 0.500000 0.500000 0.500000
O O16 0.763166 0.419591 0.382199
O O17 0.945801 0.777299 0.617027
O O18 0.000000 0.500000 0.500000
#
# Coordination Sequence:
#
# PCOD8022953 Si02
#       8
#     2   2   2   2   2   2   2   2
#     4  12  30  48  72 103 137 185 243 292 348 414
#     4  11  26  46  73 104 143 179 234 289 347 422
#     4  12  22  38  67 100 138 182 214 283 359 416
#     4  12  23  41  67 101 142 176 225 288 346 423
#     4  11  23  36  66 102 138 177 218 283 356 414
#     4  11  21  40  67 104 137 178 223 272 351 420
#     4  10  23  40  63 100 136 173 229 282 339 423
#     4  11  27  50  73  98 137 186 239 296 344 410
#
# _framework density 22.576239000000001
#
# number of rings (size 3 to 8) (size 9 to 14) (size 15 to 20)
#    0.000    0.750    3.750    3.375    5.250    2.000 
#    0.000    0.000    0.000    0.000    0.000    0.000 
#    0.000    0.000    0.000    0.000    0.000    0.000 
#
# Total GULP energy -198317.919508 kJ/mol
# GULP energy per Si atom -12394.869969 kJ/mol
# Density = 2.252485 g / cm^3
# Si number density = 22.576239 Si / 1000 Ang^3
#
#
#
# Elastic Constant Matrix: (Units=GPa)
#
#
# Indices 1 2 3 4 5 6 
#
# 1 74.7854 17.4952 33.4832 0.1935 -20.5782 -9.0229
# 2 17.4952 116.9953 12.7429 -3.8768 -17.5631 -16.1069
# 3 33.4832 12.7429 92.4348 -6.8617 -17.5749 9.7429
# 4 0.1935 -3.8768 -6.8617 27.1984 -2.6820 -4.0213
# 5 -20.5782 -17.5631 -17.5749 -2.6820 45.6825 -5.1721
# 6 -9.0229 -16.1069 9.7429 -4.0213 -5.1721 35.4024
#
#
#
# Elastic Compliance Matrix: (Units=1/GPa)
#
#
# Indices 1 2 3 4 5 6 
#
# 1 0.019080 -0.000059 -0.006373 0.000063 0.006986 0.007618
# 2 -0.000059 0.010194 -0.000991 0.002488 0.004315 0.005808
# 3 -0.006373 -0.000991 0.014404 0.002916 0.001845 -0.005439
# 4 0.000063 0.002488 0.002916 0.039170 0.005032 0.005530
# 5 0.006986 0.004315 0.001845 0.005032 0.028606 0.007987
# 6 0.007618 0.005808 -0.005439 0.005530 0.007987 0.036122
#
#
# Mechanical properties :
#
#
# Convention : Reuss Voigt Hill
#
# Bulk Modulus (GPa) = 34.68481 45.73980 40.21230
# Shear Modulus (GPa) = 29.06388 36.35628 32.71008
#
# Velocity S-wave (km/s) = 3.59188 4.01730 3.81053
# Velocity P-wave (km/s) = 5.70955 6.46703 6.10006
#
# Compressibility (1/GPa) = 0.02883107
#
# Stress axis : x y z
#
# Youngs Moduli (GPa) = 52.41021 98.09689 69.42428
#
# Poissons Ratio (x) = 0.00583 0.44246
# Poissons Ratio (y) = 0.00312 0.06880
# Poissons Ratio (z) = 0.33402 0.09721
#
# Static dielectric constant tensor:
#      x y z
#    x 4.457620 -0.620880 0.206910 
#    y -0.620880 4.491430 -0.422200 
#    z 0.206910 -0.422200 4.902750 
# 
# 
# High freq. dielectric constant tensor:
#      x y z
#    x 1.884720 -0.012870 -0.013670 
#    y -0.012870 1.896590 -0.008300 
#    z -0.013670 -0.008300 1.892870 
# 
# From -- ./inp_files/209231.got.cif
#   From: 2010.06.25/outbox.cif.g09.slc.cpg/sg2_105_cif.got.tgz:209231.got - 2010.06.27 13:26:56.
