data_PCOD8022653
_publ_section_title
;
Structure prediction by ZEFSAII (Michael W. Deem and Ramdas Pophale) SiO2 
 PCOD8022653
Probable space group: P -1
;
_chemical_formula_sum "Si O2"
_cell_formula_units_Z 16
_cell_length_a 8.829079
_cell_length_b 9.210874
_cell_length_c 10.401014
_cell_angle_alpha 77.244976
_cell_angle_beta 70.509501
_cell_angle_gamma 115.453891
_cell_volume 650.751660
_symmetry_space_group_name_H-M "P -1"
_symmetry_group_IT_number 2
_symmetry_cell_setting 'triclinic'
loop_
_space_group_symop_operation_xyz
x,y,z
-x,-y,-z
loop_
_atom_site_type_symbol
_atom_site_label
_atom_site_fract_x
_atom_site_fract_y
_atom_site_fract_z
Si Si1 0.266378 0.967908 0.317394
Si Si2 0.741676 0.720824 0.635631
Si Si3 0.365014 0.858300 0.958940
Si Si4 0.062568 0.822656 0.873489
Si Si5 0.702334 0.520997 0.920912
Si Si6 0.298694 0.815598 0.579407
Si Si7 0.623277 0.480788 0.361618
Si Si8 0.064009 0.163900 0.720738
O O1 0.193532 0.824144 0.479764
O O2 0.152606 0.880586 0.230660
O O3 0.198364 0.098863 0.345398
O O4 0.495450 0.071365 0.219141
O O5 0.796479 0.615527 0.738025
O O6 0.507883 0.597760 0.712729
O O7 0.841300 0.767381 0.460368
O O8 0.171975 0.852187 0.974094
O O9 0.312820 0.663604 0.046343
O O10 0.500000 0.000000 0.000000
O O11 0.170220 0.778199 0.746597
O O12 0.844847 0.648442 0.970399
O O13 0.068637 0.999881 0.805181
O O14 0.500000 0.500000 0.000000
O O15 0.324134 0.655212 0.577359
O O16 0.500000 0.000000 0.500000
O O17 0.500000 0.500000 0.500000
O O18 0.818108 0.674570 0.243401
#
# Coordination Sequence:
#
# PCOD8022653 Si02
#       8
#     2   2   2   2   2   2   2   2
#     4  12  22  43  70 102 137 173 232 278 344 412
#     4  11  20  41  71  98 133 173 225 280 338 414
#     4  12  29  46  64  98 141 186 228 284 333 397
#     4  12  24  46  75  99 135 180 236 286 338 411
#     4  12  26  47  69  97 133 188 237 271 329 419
#     4  12  21  39  74 104 134 176 224 291 347 404
#     4  10  23  37  61 103 140 173 209 273 354 409
#     4  11  23  41  70 110 132 168 220 293 363 397
#
# _framework density 24.586953000000001
#
# number of rings (size 3 to 8) (size 9 to 14) (size 15 to 20)
#    0.000    0.500    6.250    2.250    1.750    2.500 
#    2.250    1.250    0.000    0.000    0.000    0.000 
#    0.000    0.000    0.000    0.000    0.000    0.000 
#
# Total GULP energy -198361.272453 kJ/mol
# GULP energy per Si atom -12397.579528 kJ/mol
# Density = 2.453099 g / cm^3
# Si number density = 24.586953 Si / 1000 Ang^3
#
#
#
# Elastic Constant Matrix: (Units=GPa)
#
#
# Indices 1 2 3 4 5 6 
#
# 1 166.6909 66.9634 23.6210 -26.0606 22.8990 24.5607
# 2 66.9634 154.7215 18.2255 -44.1107 20.6372 8.1866
# 3 23.6210 18.2255 35.7360 -17.7184 16.3407 6.8957
# 4 -26.0606 -44.1107 -17.7184 33.9358 3.6856 5.7368
# 5 22.8990 20.6372 16.3407 3.6856 49.9264 -5.6794
# 6 24.5607 8.1866 6.8957 5.7368 -5.6794 46.0967
#
#
#
# Elastic Compliance Matrix: (Units=1/GPa)
#
#
# Indices 1 2 3 4 5 6 
#
# 1 0.009494 0.000666 0.005633 0.013495 -0.008464 -0.008742
# 2 0.000666 0.018791 0.022576 0.041404 -0.020192 -0.014710
# 3 0.005633 0.022576 0.090628 0.093270 -0.052864 -0.038688
# 4 0.013495 0.041404 0.093270 0.159864 -0.072148 -0.057280
# 5 -0.008464 -0.020192 -0.052864 -0.072148 0.058548 0.032196
# 6 -0.008742 -0.014710 -0.038688 -0.057280 0.032196 0.045846
#
#
# Mechanical properties :
#
#
# Convention : Reuss Voigt Hill
#
# Bulk Modulus (GPa) = 5.66049 63.86314 34.76181
# Shear Modulus (GPa) = 13.01032 42.54769 27.77901
#
# Velocity S-wave (km/s) = 2.30283 4.16444 3.36494
# Velocity P-wave (km/s) = 3.06234 7.01101 5.40981
#
# Compressibility (1/GPa) = 0.17666320
#
# Stress axis : x y z
#
# Youngs Moduli (GPa) = 105.33244 53.21658 11.03407
#
# Poissons Ratio (x) = -0.03546 -0.06215
# Poissons Ratio (y) = -0.07019 -0.24910
# Poissons Ratio (z) = -0.59332 -1.20141
#
# Static dielectric constant tensor:
#      x y z
#    x 14.027000 2.063800 10.534600 
#    y 2.063800 4.844260 1.476990 
#    z 10.534600 1.476990 17.496010 
# 
# 
# High freq. dielectric constant tensor:
#      x y z
#    x 2.000440 0.020590 -0.000120 
#    y 0.020590 1.975650 -0.007020 
#    z -0.000120 -0.007020 1.981260 
# 
# From -- ./inp_files/381662.got.cif
#   From: 2010.06.25/outbox.cif.g09.slc.cpg/sg2_191_cif.got.tgz:381662.got - 2010.06.27 13:26:56.
