data_PCOD8022721
_publ_section_title
;
Structure prediction by ZEFSAII (Michael W. Deem and Ramdas Pophale) SiO2 
 PCOD8022721
Probable space group: P -1
;
_chemical_formula_sum "Si O2"
_cell_formula_units_Z 16
_cell_length_a 13.625876
_cell_length_b 11.519498
_cell_length_c 19.002054
_cell_angle_alpha 150.521677
_cell_angle_beta 35.620608
_cell_angle_gamma 125.378329
_cell_volume 763.820113
_symmetry_space_group_name_H-M "P -1"
_symmetry_group_IT_number 2
_symmetry_cell_setting 'triclinic'
loop_
_space_group_symop_operation_xyz
x,y,z
-x,-y,-z
loop_
_atom_site_type_symbol
_atom_site_label
_atom_site_fract_x
_atom_site_fract_y
_atom_site_fract_z
Si Si1 0.785229 0.363536 0.257344
Si Si2 0.920675 0.587812 0.982656
Si Si3 0.006423 0.218347 0.334923
Si Si4 0.168780 0.081602 0.648949
Si Si5 0.732463 0.304637 0.413462
Si Si6 0.559134 0.101840 0.088019
Si Si7 0.469062 0.913720 0.753687
Si Si8 0.414104 0.119896 0.749880
O O1 0.832201 0.298761 0.277938
O O2 0.656272 0.676711 0.487668
O O3 0.681526 0.198135 0.201476
O O4 0.971982 0.286561 0.062111
O O5 0.048092 0.281539 0.763418
O O6 0.851283 0.758351 0.183492
O O7 0.741077 0.611262 0.053770
O O8 0.000000 0.500000 0.500000
O O9 0.900315 0.229039 0.330330
O O10 0.902302 0.142009 0.417947
O O11 0.218593 0.987934 0.089313
O O12 0.384183 0.928547 0.420428
O O13 0.554856 0.583436 0.679486
O O14 0.638003 0.108363 0.367040
O O15 0.504652 0.989212 0.132413
O O16 0.500000 0.000000 0.000000
O O17 0.401700 0.142947 0.854889
#
# Coordination Sequence:
#
# PCOD8022721 Si02
#       8
#     2   2   2   2   2   2   2   2
#     4   9  18  36  58  94 127 158 197 258 321 366
#     4  11  22  35  61  94 129 166 193 253 326 371
#     4  12  25  43  64  90 118 170 219 256 295 376
#     4  11  25  39  58  94 135 160 204 255 319 378
#     4  10  23  38  63  94 130 158 207 259 313 368
#     4  11  23  40  62  91 123 165 210 261 302 352
#     4   9  19  34  61  90 129 160 202 257 309 370
#     4  11  22  38  62  98 130 164 195 259 323 379
#
# _framework density 20.947341999999999
#
# number of rings (size 3 to 8) (size 9 to 14) (size 15 to 20)
#    0.000    1.500    3.750    1.875    5.250    1.000 
#    0.000    0.000    0.000    3.750    0.000    0.000 
#    0.000    0.000    0.000    0.000    0.000    0.000 
#
# Total GULP energy -198355.345621 kJ/mol
# GULP energy per Si atom -12397.209101 kJ/mol
# Density = 2.089966 g / cm^3
# Si number density = 20.947342 Si / 1000 Ang^3
#
#
#
# Elastic Constant Matrix: (Units=GPa)
#
#
# Indices 1 2 3 4 5 6 
#
# 1 129.3513 47.4886 53.9737 -9.5145 -16.1366 -20.1566
# 2 47.4886 103.1196 34.8329 -12.8840 -9.9752 -14.9891
# 3 53.9737 34.8329 90.7515 -22.5802 -26.2511 -8.4565
# 4 -9.5145 -12.8840 -22.5802 29.5456 0.0862 1.3375
# 5 -16.1366 -9.9752 -26.2511 0.0862 41.8284 2.8176
# 6 -20.1566 -14.9891 -8.4565 1.3375 2.8176 27.9988
#
#
#
# Elastic Compliance Matrix: (Units=1/GPa)
#
#
# Indices 1 2 3 4 5 6 
#
# 1 0.012035 -0.003006 -0.006200 -0.002414 -0.000319 0.005330
# 2 -0.003006 0.012686 -0.001856 0.002969 0.000434 0.003881
# 3 -0.006200 -0.001856 0.022041 0.014033 0.011008 -0.000578
# 4 -0.002414 0.002969 0.014033 0.045014 0.008417 0.001092
# 5 -0.000319 0.000434 0.011008 0.008417 0.030790 -0.000174
# 6 0.005330 0.003881 -0.000578 0.001092 -0.000174 0.041421
#
#
# Mechanical properties :
#
#
# Convention : Reuss Voigt Hill
#
# Bulk Modulus (GPa) = 40.58796 66.20143 53.39470
# Shear Modulus (GPa) = 25.73046 32.33638 29.03342
#
# Velocity S-wave (km/s) = 3.50857 3.93326 3.72697
# Velocity P-wave (km/s) = 5.98596 7.23185 6.63820
#
# Compressibility (1/GPa) = 0.02463785
#
# Stress axis : x y z
#
# Youngs Moduli (GPa) = 83.09412 78.83011 45.37014
#
# Poissons Ratio (x) = 0.23693 0.28130
# Poissons Ratio (y) = 0.24975 0.08420
# Poissons Ratio (z) = 0.51520 0.14629
#
# Static dielectric constant tensor:
#      x y z
#    x 4.124790 -0.384160 -0.379740 
#    y -0.384160 3.732670 0.006760 
#    z -0.379740 0.006760 4.064540 
# 
# 
# High freq. dielectric constant tensor:
#      x y z
#    x 1.821880 -0.033820 -0.024920 
#    y -0.033820 1.799890 -0.014780 
#    z -0.024920 -0.014780 1.824130 
# 
# From -- ./inp_files/457715.got.cif
#   From: 2010.06.25/outbox.cif.g09.slc.cpg/sg2_229_cif.got.tgz:457715.got - 2010.06.27 13:26:56.
