data_PCOD8022729
_publ_section_title
;
Structure prediction by ZEFSAII (Michael W. Deem and Ramdas Pophale) SiO2 
 PCOD8022729
Probable space group: P -1
;
_chemical_formula_sum "Si O2"
_cell_formula_units_Z 16
_cell_length_a 16.932198
_cell_length_b 8.274160
_cell_length_c 9.211644
_cell_angle_alpha 47.713673
_cell_angle_beta 58.761332
_cell_angle_gamma 49.606528
_cell_volume 719.286254
_symmetry_space_group_name_H-M "P -1"
_symmetry_group_IT_number 2
_symmetry_cell_setting 'triclinic'
loop_
_space_group_symop_operation_xyz
x,y,z
-x,-y,-z
loop_
_atom_site_type_symbol
_atom_site_label
_atom_site_fract_x
_atom_site_fract_y
_atom_site_fract_z
Si Si1 0.019756 0.761536 0.436812
Si Si2 0.215179 0.569892 0.890772
Si Si3 0.012878 0.670999 0.187493
Si Si4 0.390294 0.174209 0.572984
Si Si5 0.153239 0.776174 0.531698
Si Si6 0.599826 0.921118 0.049781
Si Si7 0.691728 0.268180 0.790856
Si Si8 0.772614 0.039561 0.153986
O O1 0.035769 0.801497 0.226722
O O2 0.125239 0.644431 0.503430
O O3 0.962061 0.596859 0.612713
O O4 0.947741 0.031917 0.403357
O O5 0.221578 0.571347 0.708300
O O6 0.241301 0.777875 0.808249
O O7 0.303490 0.289643 0.008559
O O8 0.098268 0.625603 0.011772
O O9 0.893567 0.826107 0.153005
O O10 0.353387 0.442965 0.375368
O O11 0.500000 0.000000 0.500000
O O12 0.410856 0.179711 0.721840
O O13 0.304150 0.081456 0.677715
O O14 0.220983 0.888729 0.320624
O O15 0.606457 0.173812 0.916281
O O16 0.500000 0.000000 0.000000
O O17 0.743703 0.207308 0.936675
#
# Coordination Sequence:
#
# PCOD8022729 Si02
#       8
#     2   2   2   2   2   2   2   2
#     4  10  23  38  64  93 144 186 237 271 341 407
#     4  12  25  43  69 104 146 181 233 287 347 411
#     4  11  23  43  64 103 142 191 228 280 341 424
#     4  11  27  50  74 102 136 186 236 291 350 412
#     4  11  22  41  63  99 138 186 230 286 339 407
#     4  11  28  49  73 106 137 178 235 296 350 411
#     4  11  25  47  71  99 141 182 232 285 353 410
#     4  11  26  44  72 104 145 184 235 281 344 423
#
# _framework density 22.244273
#
# number of rings (size 3 to 8) (size 9 to 14) (size 15 to 20)
#    0.000    1.000    2.500    2.625    8.750    4.000 
#    0.000    0.000    0.000    0.000    0.000    0.000 
#    0.000    0.000    0.000    0.000    0.000    0.000 
#
# Total GULP energy -198306.438470 kJ/mol
# GULP energy per Si atom -12394.152404 kJ/mol
# Density = 2.219364 g / cm^3
# Si number density = 22.244273 Si / 1000 Ang^3
#
#
#
# Elastic Constant Matrix: (Units=GPa)
#
#
# Indices 1 2 3 4 5 6 
#
# 1 152.8552 54.8090 62.0325 2.5352 17.7001 -15.4021
# 2 54.8090 111.1672 46.2159 -2.0269 -2.3781 -21.5678
# 3 62.0325 46.2159 128.0964 0.1863 11.8891 -9.9824
# 4 2.5352 -2.0269 0.1863 39.2774 3.1186 -1.8165
# 5 17.7001 -2.3781 11.8891 3.1186 33.8459 2.3866
# 6 -15.4021 -21.5678 -9.9824 -1.8165 2.3866 25.1627
#
#
#
# Elastic Compliance Matrix: (Units=1/GPa)
#
#
# Indices 1 2 3 4 5 6 
#
# 1 0.009614 -0.003156 -0.002924 -0.000312 -0.004364 0.002411
# 2 -0.003156 0.013462 -0.002964 0.001058 0.002960 0.008227
# 3 -0.002924 -0.002964 0.010521 0.000180 -0.002397 0.000084
# 4 -0.000312 0.001058 0.000180 0.025859 -0.002412 0.002883
# 5 -0.004364 0.002960 -0.002397 -0.002412 0.033412 -0.004428
# 6 0.002411 0.008227 0.000084 0.002883 -0.004428 0.048931
#
#
# Mechanical properties :
#
#
# Convention : Reuss Voigt Hill
#
# Bulk Modulus (GPa) = 64.47459 79.80375 72.13917
# Shear Modulus (GPa) = 30.29309 34.92798 32.61054
#
# Velocity S-wave (km/s) = 3.69431 3.96688 3.83302
# Velocity P-wave (km/s) = 6.87350 7.54556 7.21735
#
# Compressibility (1/GPa) = 0.01550999
#
# Stress axis : x y z
#
# Youngs Moduli (GPa) = 104.02030 74.28173 95.05140
#
# Poissons Ratio (x) = 0.23440 0.27790
# Poissons Ratio (y) = 0.32824 0.28174
# Poissons Ratio (z) = 0.30412 0.22017
#
# Static dielectric constant tensor:
#      x y z
#    x 4.235940 0.019580 0.158540 
#    y 0.019580 4.015480 0.051610 
#    z 0.158540 0.051610 4.160260 
# 
# 
# High freq. dielectric constant tensor:
#      x y z
#    x 1.878670 0.000630 0.008130 
#    y 0.000630 1.879200 -0.001390 
#    z 0.008130 -0.001390 1.887060 
# 
# From -- ./inp_files/328374.got.cif
#   From: 2010.06.25/outbox.cif.g09.slc.cpg/sg2_165_cif.got.tgz:328374.got - 2010.06.27 13:26:56.
