data_PCOD8022587
_publ_section_title
;
Structure prediction by ZEFSAII (Michael W. Deem and Ramdas Pophale) SiO2 
 PCOD8022587
Probable space group: P -1
;
_chemical_formula_sum "Si O2"
_cell_formula_units_Z 14
_cell_length_a 5.396718
_cell_length_b 6.846758
_cell_length_c 24.088659
_cell_angle_alpha 128.201670
_cell_angle_beta 59.454020
_cell_angle_gamma 105.747031
_cell_volume 601.174944
_symmetry_space_group_name_H-M "P -1"
_symmetry_group_IT_number 2
_symmetry_cell_setting 'triclinic'
loop_
_space_group_symop_operation_xyz
x,y,z
-x,-y,-z
loop_
_atom_site_type_symbol
_atom_site_label
_atom_site_fract_x
_atom_site_fract_y
_atom_site_fract_z
Si Si1 0.875761 0.583847 0.749558
Si Si2 0.559341 0.278074 0.350157
Si Si3 0.797139 0.562399 0.085449
Si Si4 0.284160 0.791274 0.478259
Si Si5 0.260751 0.904048 0.376321
Si Si6 0.154892 0.534716 0.148363
Si Si7 0.413372 0.023725 0.213722
O O1 0.978015 0.588363 0.802910
O O2 0.613506 0.788769 0.803102
O O3 0.124161 0.652424 0.690833
O O4 0.773535 0.306126 0.703147
O O5 0.402593 0.522913 0.439548
O O6 0.550330 0.049806 0.355635
O O7 0.381491 0.189180 0.301749
O O8 0.963312 0.464960 0.105177
O O9 0.494191 0.429941 0.087940
O O10 0.722331 0.862507 0.149361
O O11 0.000000 0.500000 0.000000
O O12 0.991289 0.874968 0.557866
O O13 0.500000 0.000000 0.500000
O O14 0.256949 0.763581 0.410220
O O15 0.153740 0.835257 0.206628
#
# Coordination Sequence:
#
# PCOD8022587 Si02
#       7
#     2   2   2   2   2   2   2
#     4  12  24  42  70 103 140 184 241 299 356 429
#     4  12  24  41  69  94 140 184 237 297 360 424
#     4  10  22  47  75 106 150 191 231 293 361 429
#     4  11  24  43  64  93 133 185 237 296 357 432
#     4  11  24  44  62  96 133 183 239 295 362 417
#     4  10  24  44  74 105 144 189 239 291 360 425
#     4  10  24  41  70 104 137 186 238 291 354 430
#
# _framework density 23.28773
#
# number of rings (size 3 to 8) (size 9 to 14) (size 15 to 20)
#    0.857    0.286    4.286    1.714    2.000    4.000 
#    0.000    1.429    0.000    0.000    0.000    0.000 
#    0.000    0.000    0.000    0.000    0.000    0.000 
#
# Total GULP energy -173499.531714 kJ/mol
# GULP energy per Si atom -12392.823694 kJ/mol
# Density = 2.323473 g / cm^3
# Si number density = 23.287730 Si / 1000 Ang^3
#
#
#
# Elastic Constant Matrix: (Units=GPa)
#
#
# Indices 1 2 3 4 5 6 
#
# 1 99.5753 20.5685 17.6633 -2.4121 -5.5971 -11.1869
# 2 20.5685 109.4747 28.8741 -5.6319 -12.8095 -0.5545
# 3 17.6633 28.8741 75.7083 -5.6470 -11.5633 -12.7957
# 4 -2.4121 -5.6319 -5.6470 18.6545 1.4504 3.5200
# 5 -5.5971 -12.8095 -11.5633 1.4504 30.5390 -7.3946
# 6 -11.1869 -0.5545 -12.7957 3.5200 -7.3946 43.0282
#
#
#
# Elastic Compliance Matrix: (Units=1/GPa)
#
#
# Indices 1 2 3 4 5 6 
#
# 1 0.010978 -0.001532 -0.001286 -0.000066 0.001545 0.002723
# 2 -0.001532 0.010708 -0.003341 0.002003 0.002616 -0.000968
# 3 -0.001286 -0.003341 0.016786 0.002421 0.005919 0.005434
# 4 -0.000066 0.002003 0.002421 0.055872 -0.001919 -0.004172
# 5 0.001545 0.002616 0.005919 -0.001919 0.038635 0.008992
# 6 0.002723 -0.000968 0.005434 -0.004172 0.008992 0.027439
#
#
# Mechanical properties :
#
#
# Convention : Reuss Voigt Hill
#
# Bulk Modulus (GPa) = 38.23515 46.55225 42.39370
# Shear Modulus (GPa) = 27.55521 32.95449 30.25485
#
# Velocity S-wave (km/s) = 3.44357 3.76586 3.60832
# Velocity P-wave (km/s) = 5.68024 6.24038 5.96689
#
# Compressibility (1/GPa) = 0.02615395
#
# Stress axis : x y z
#
# Youngs Moduli (GPa) = 91.08779 93.38942 59.57413
#
# Poissons Ratio (x) = 0.14311 0.07659
# Poissons Ratio (y) = 0.13958 0.19904
# Poissons Ratio (z) = 0.11710 0.31202
#
# Static dielectric constant tensor:
#      x y z
#    x 4.174980 -0.238380 0.042000 
#    y -0.238380 4.364050 -0.171430 
#    z 0.042000 -0.171430 4.138640 
# 
# 
# High freq. dielectric constant tensor:
#      x y z
#    x 1.913490 -0.002730 -0.000990 
#    y -0.002730 1.922800 -0.000320 
#    z -0.000990 -0.000320 1.902910 
# 
# From -- ./inp_files/603405.got.cif
#   From: 2010.06.25/outbox.cif.g09.slc.cpg/sg2_302_cif.got.tgz:603405.got - 2010.06.27 13:26:56.
