data_PCOD8022061
_publ_section_title
;
Structure prediction by ZEFSAII (Michael W. Deem and Ramdas Pophale) SiO2 
 PCOD8022061
Probable space group: P -1
;
_chemical_formula_sum "Si O2"
_cell_formula_units_Z 14
_cell_length_a 8.191439
_cell_length_b 8.613303
_cell_length_c 20.347010
_cell_angle_alpha 147.901842
_cell_angle_beta 134.016491
_cell_angle_gamma 56.430047
_cell_volume 546.184268
_symmetry_space_group_name_H-M "P -1"
_symmetry_group_IT_number 2
_symmetry_cell_setting 'triclinic'
loop_
_space_group_symop_operation_xyz
x,y,z
-x,-y,-z
loop_
_atom_site_type_symbol
_atom_site_label
_atom_site_fract_x
_atom_site_fract_y
_atom_site_fract_z
Si Si1 0.630372 0.214063 0.939206
Si Si2 0.416253 0.429324 0.310915
Si Si3 0.998086 0.903985 0.577261
Si Si4 0.163145 0.306300 0.406296
Si Si5 0.899613 0.469566 0.218418
Si Si6 0.410240 0.350055 0.697348
Si Si7 0.184448 0.766989 0.137731
O O1 0.810280 0.229114 0.936924
O O2 0.487014 0.895275 0.776417
O O3 0.500000 0.500000 0.000000
O O4 0.766005 0.217686 0.046891
O O5 0.577211 0.654876 0.480927
O O6 0.430014 0.504063 0.263767
O O7 0.166652 0.424239 0.271521
O O8 0.990571 0.841090 0.630459
O O9 0.747115 0.916925 0.477835
O O10 0.102963 0.619694 0.474400
O O11 0.141646 0.208404 0.708738
O O12 0.112047 0.082645 0.252055
O O13 0.774273 0.450238 0.247952
O O14 0.575957 0.261554 0.769211
O O15 0.000000 0.500000 0.000000
#
# Coordination Sequence:
#
# PCOD8022061 Si02
#       7
#     2   2   2   2   2   2   2
#     4  12  26  48  68 103 147 191 234 294 361 419
#     4  11  26  47  75 105 146 186 240 300 351 436
#     4  10  22  44  73 109 143 185 236 303 353 430
#     4  10  23  44  74 106 144 187 239 293 366 419
#     4  12  24  46  74 104 146 187 242 295 360 425
#     4  11  25  46  72 107 137 190 238 294 361 417
#     4  12  26  46  74 105 142 190 241 294 355 432
#
# _framework density 25.632377999999999
#
# number of rings (size 3 to 8) (size 9 to 14) (size 15 to 20)
#    0.000    0.857    1.429    5.143    2.000    5.714 
#    0.000    0.000    0.000    0.000    0.000    0.000 
#    0.000    0.000    0.000    0.000    0.000    0.000 
#
# Total GULP energy -173445.082679 kJ/mol
# GULP energy per Si atom -12388.934477 kJ/mol
# Density = 2.557404 g / cm^3
# Si number density = 25.632378 Si / 1000 Ang^3
#
#
#
# Elastic Constant Matrix: (Units=GPa)
#
#
# Indices 1 2 3 4 5 6 
#
# 1 112.3319 -11.0462 16.8672 2.9092 -13.0547 -6.1773
# 2 -11.0462 39.5761 -10.3135 13.1322 -1.7061 -13.9689
# 3 16.8672 -10.3135 121.7556 12.0047 -12.0887 -1.5747
# 4 2.9092 13.1322 12.0047 45.6850 -1.8004 -5.7691
# 5 -13.0547 -1.7061 -12.0887 -1.8004 38.3377 0.4898
# 6 -6.1773 -13.9689 -1.5747 -5.7691 0.4898 35.7966
#
#
#
# Elastic Compliance Matrix: (Units=1/GPa)
#
#
# Indices 1 2 3 4 5 6 
#
# 1 0.009996 0.004305 -0.000530 -0.001207 0.003332 0.003142
# 2 0.004305 0.035506 0.003900 -0.009700 0.003652 0.013157
# 3 -0.000530 0.003900 0.009225 -0.003242 0.002733 0.001276
# 4 -0.001207 -0.009700 -0.003242 0.025579 -0.000664 -0.000005
# 5 0.003332 0.003652 0.002733 -0.000664 0.028191 0.001628
# 6 0.003142 0.013157 0.001276 -0.000005 0.001628 0.033645
#
#
# Mechanical properties :
#
#
# Convention : Reuss Voigt Hill
#
# Bulk Modulus (GPa) = 14.26992 29.40876 21.83934
# Shear Modulus (GPa) = 33.30007 42.50759 37.90383
#
# Velocity S-wave (km/s) = 3.60827 4.07671 3.84962
# Velocity P-wave (km/s) = 4.78944 5.80152 5.31960
#
# Compressibility (1/GPa) = 0.07007747
#
# Stress axis : x y z
#
# Youngs Moduli (GPa) = 100.03742 28.16455 108.40660
#
# Poissons Ratio (x) = -0.12125 0.05743
# Poissons Ratio (y) = -0.43066 -0.42282
# Poissons Ratio (z) = 0.05300 -0.10985
#
# Static dielectric constant tensor:
#      x y z
#    x 4.628060 0.167420 -0.114400 
#    y 0.167420 4.381860 -0.305900 
#    z -0.114400 -0.305900 4.603300 
# 
# 
# High freq. dielectric constant tensor:
#      x y z
#    x 2.025890 -0.000020 -0.010080 
#    y -0.000020 2.023480 -0.006380 
#    z -0.010080 -0.006380 2.033180 
# 
# From -- ./inp_files/588297.got.cif
#   From: 2010.06.25/outbox.cif.g09.slc.cpg/sg2_295_cif.got.tgz:588297.got - 2010.06.27 13:26:56.
