data_PCOD8022609
_publ_section_title
;
Structure prediction by ZEFSAII (Michael W. Deem and Ramdas Pophale) SiO2 
 PCOD8022609
Probable space group: P -1
;
_chemical_formula_sum "Si O2"
_cell_formula_units_Z 16
_cell_length_a 25.895203
_cell_length_b 8.038673
_cell_length_c 6.506105
_cell_angle_alpha 74.847260
_cell_angle_beta 53.112474
_cell_angle_gamma 42.867499
_cell_volume 696.113943
_symmetry_space_group_name_H-M "P -1"
_symmetry_group_IT_number 2
_symmetry_cell_setting 'triclinic'
loop_
_space_group_symop_operation_xyz
x,y,z
-x,-y,-z
loop_
_atom_site_type_symbol
_atom_site_label
_atom_site_fract_x
_atom_site_fract_y
_atom_site_fract_z
Si Si1 0.524237 0.625975 0.292475
Si Si2 0.602376 0.865296 0.722902
Si Si3 0.898573 0.862821 0.552745
Si Si4 0.645321 0.549535 0.351615
Si Si5 0.198869 0.245901 0.447212
Si Si6 0.931845 0.585657 0.947537
Si Si7 0.613878 0.316364 0.806376
Si Si8 0.776752 0.425682 0.747209
O O1 0.500000 0.500000 0.500000
O O2 0.556532 0.705639 0.353636
O O3 0.423065 0.881829 0.337582
O O4 0.615113 0.423569 0.982389
O O5 0.625555 0.745631 0.483816
O O6 0.687888 0.659378 0.740312
O O7 0.500000 0.000000 0.000000
O O8 0.846182 0.811939 0.571211
O O9 0.902396 0.807522 0.803786
O O10 0.007666 0.665851 0.263381
O O11 0.846814 0.150810 0.552467
O O12 0.657437 0.347100 0.511697
O O13 0.743335 0.399069 0.043841
O O14 0.171760 0.492731 0.351067
O O15 0.316008 0.988592 0.243974
O O16 0.162995 0.307074 0.752101
O O17 0.000000 0.500000 0.000000
O O18 0.500000 0.500000 0.000000
#
# Coordination Sequence:
#
# PCOD8022609 Si02
#       8
#     2   2   2   2   2   2   2   2
#     4  12  25  39  62  87 122 185 243 293 343 391
#     4  12  25  43  60  92 134 186 244 285 340 400
#     4  10  22  48  74 106 139 177 226 286 365 416
#     4  12  24  41  63  87 133 186 231 304 341 396
#     4  11  25  42  69 105 140 183 235 283 347 416
#     4   9  21  47  81 102 138 179 221 290 354 433
#     4  12  24  41  64  97 138 188 242 285 336 408
#     4  12  27  43  68 105 144 182 233 293 348 419
#
# _framework density 22.984743000000002
#
# number of rings (size 3 to 8) (size 9 to 14) (size 15 to 20)
#    0.000    0.750    3.750    3.375    1.750    2.500 
#    0.000    5.625    0.000    0.000    0.000    0.000 
#    0.000    0.000    0.000    0.000    0.000    0.000 
#
# Total GULP energy -198275.273484 kJ/mol
# GULP energy per Si atom -12392.204593 kJ/mol
# Density = 2.293243 g / cm^3
# Si number density = 22.984743 Si / 1000 Ang^3
#
#
#
# Elastic Constant Matrix: (Units=GPa)
#
#
# Indices 1 2 3 4 5 6 
#
# 1 66.7263 34.7639 30.6899 3.0563 5.9016 12.7634
# 2 34.7639 166.6718 53.4123 5.4335 -0.7055 24.0506
# 3 30.6899 53.4123 137.4040 -1.8771 11.2577 9.8097
# 4 3.0563 5.4335 -1.8771 43.4616 -1.3267 2.0226
# 5 5.9016 -0.7055 11.2577 -1.3267 27.5593 -4.6443
# 6 12.7634 24.0506 9.8097 2.0226 -4.6443 37.3437
#
#
#
# Elastic Compliance Matrix: (Units=1/GPa)
#
#
# Indices 1 2 3 4 5 6 
#
# 1 0.018695 -0.002379 -0.002625 -0.001034 -0.003815 -0.004587
# 2 -0.002379 0.007765 -0.002340 -0.000714 0.001056 -0.003403
# 3 -0.002625 -0.002340 0.009081 0.000790 -0.003241 -0.000427
# 4 -0.001034 -0.000714 0.000790 0.023258 0.000909 -0.000541
# 5 -0.003815 0.001056 -0.003241 0.000909 0.039566 0.006346
# 6 -0.004587 -0.003403 -0.000427 -0.000541 0.006346 0.031468
#
#
# Mechanical properties :
#
#
# Convention : Reuss Voigt Hill
#
# Bulk Modulus (GPa) = 47.95651 67.61492 57.78572
# Shear Modulus (GPa) = 33.00926 38.46866 35.73896
#
# Velocity S-wave (km/s) = 3.79375 4.09548 3.94750
# Velocity P-wave (km/s) = 6.33245 7.20035 6.78030
#
# Compressibility (1/GPa) = 0.02085222
#
# Stress axis : x y z
#
# Youngs Moduli (GPa) = 53.48919 128.78685 110.12338
#
# Poissons Ratio (x) = 0.30635 0.28909
# Poissons Ratio (y) = 0.12724 0.25773
# Poissons Ratio (z) = 0.14042 0.30141
#
# Static dielectric constant tensor:
#      x y z
#    x 1.538680 5.783780 1.053200 
#    y 5.783780 -7.857820 -1.711710 
#    z 1.053200 -1.711710 4.549220 
# 
# 
# High freq. dielectric constant tensor:
#      x y z
#    x 1.893110 0.004450 0.016880 
#    y 0.004450 1.913140 -0.000140 
#    z 0.016880 -0.000140 1.920340 
# 
# From -- ./inp_files/126416.got.cif
#   From: 2010.06.25/outbox.cif.g09.slc.cpg/sg2_64_cif.got.tgz:126416.got - 2010.06.27 13:26:56.
