data_PCOD8022252
_publ_section_title
;
Structure prediction by ZEFSAII (Michael W. Deem and Ramdas Pophale) SiO2 
 PCOD8022252
Probable space group: P -1
;
_chemical_formula_sum "Si O2"
_cell_formula_units_Z 14
_cell_length_a 9.161129
_cell_length_b 15.649250
_cell_length_c 9.621251
_cell_angle_alpha 67.266582
_cell_angle_beta 150.516049
_cell_angle_gamma 119.271793
_cell_volume 589.728527
_symmetry_space_group_name_H-M "P -1"
_symmetry_group_IT_number 2
_symmetry_cell_setting 'triclinic'
loop_
_space_group_symop_operation_xyz
x,y,z
-x,-y,-z
loop_
_atom_site_type_symbol
_atom_site_label
_atom_site_fract_x
_atom_site_fract_y
_atom_site_fract_z
Si Si1 0.455317 0.811699 0.535008
Si Si2 0.779458 0.586747 0.352208
Si Si3 0.713405 0.104207 0.397634
Si Si4 0.923746 0.029873 0.149468
Si Si5 0.709287 0.198744 0.905893
Si Si6 0.870576 0.740097 0.550369
Si Si7 0.459575 0.622096 0.808181
O O1 0.240244 0.848476 0.439442
O O2 0.262400 0.787626 0.245350
O O3 0.519715 0.714660 0.700757
O O4 0.796061 0.894884 0.753713
O O5 0.703746 0.638002 0.395773
O O6 0.553463 0.472869 0.236385
O O7 0.141522 0.594797 0.651927
O O8 0.733662 0.642506 0.138128
O O9 0.824593 0.193239 0.324928
O O10 0.917042 0.032740 0.585129
O O11 0.341541 0.045958 0.116600
O O12 0.748679 0.094062 0.049721
O O13 0.373188 0.201391 0.673030
O O14 0.996052 0.279607 0.175895
#
# Coordination Sequence:
#
# PCOD8022252 Si02
#       7
#     2   2   2   2   2   2   2
#     4  12  26  46  69 103 137 181 220 288 338 404
#     4  10  22  45  69 110 128 167 226 288 327 401
#     4  12  27  41  74  96 129 183 243 276 326 385
#     4  12  26  45  64 100 138 179 232 281 327 401
#     4  12  27  45  65  96 150 181 218 276 346 401
#     4  12  25  46  69 100 138 180 227 279 333 404
#     4  10  23  41  77 101 134 166 224 285 343 384
#
# _framework density 23.739736000000001
#
# number of rings (size 3 to 8) (size 9 to 14) (size 15 to 20)
#    0.000    0.571    4.286    2.571    6.000    3.429 
#    0.000    1.429    0.000    0.000    0.000    0.000 
#    0.000    0.000    0.000    0.000    0.000    0.000 
#
# Total GULP energy -173571.766363 kJ/mol
# GULP energy per Si atom -12397.983312 kJ/mol
# Density = 2.368570 g / cm^3
# Si number density = 23.739736 Si / 1000 Ang^3
#
#
#
# Elastic Constant Matrix: (Units=GPa)
#
#
# Indices 1 2 3 4 5 6 
#
# 1 40.5729 -21.0294 -4.5692 11.2865 18.9091 -18.1505
# 2 -21.0294 47.6657 3.4293 -5.5986 4.6326 -6.1735
# 3 -4.5692 3.4293 110.3178 2.9226 11.5054 -5.8615
# 4 11.2865 -5.5986 2.9226 31.3105 -8.4602 -4.2431
# 5 18.9091 4.6326 11.5054 -8.4602 24.7984 -2.4733
# 6 -18.1505 -6.1735 -5.8615 -4.2431 -2.4733 20.5795
#
#
#
# Elastic Compliance Matrix: (Units=1/GPa)
#
#
# Indices 1 2 3 4 5 6 
#
# 1 -0.075996 -0.045117 -0.014294 0.032190 0.077136 -0.068725
# 2 -0.045117 -0.004105 -0.008728 0.023711 0.043983 -0.033335
# 3 -0.014294 -0.008728 0.007051 0.003973 0.009492 -0.011257
# 4 0.032190 0.023711 0.003973 0.024553 -0.018505 0.039474
# 5 0.077136 0.043983 0.009492 -0.018505 -0.029793 0.076534
# 6 -0.068725 -0.033335 -0.011257 0.039474 0.076534 -0.007891
#
#
# Mechanical properties :
#
#
# Convention : Reuss Voigt Hill
#
# Bulk Modulus (GPa) = -4.77718 17.13530 6.17906
# Shear Modulus (GPa) = -254.06987 30.05274 -112.00857
#
# Velocity S-wave (km/s) = -10.35642 3.56184 -6.87636
# Velocity P-wave (km/s) = 12.04258 4.91419 7.77414
#
# Compressibility (1/GPa) = -0.20932853
#
# Stress axis : x y z
#
# Youngs Moduli (GPa) = -13.15854 -243.61518 141.83048
#
# Poissons Ratio (x) = -10.99122 2.02737
# Poissons Ratio (y) = -0.59368 1.23783
# Poissons Ratio (z) = -0.18809 -2.12616
#
# Static dielectric constant tensor:
#      x y z
#    x 4.084690 -0.438870 0.037140 
#    y -0.438870 4.313930 0.045110 
#    z 0.037140 0.045110 4.446790 
# 
# 
# High freq. dielectric constant tensor:
#      x y z
#    x 1.921930 -0.028410 0.006560 
#    y -0.028410 1.928630 0.005180 
#    z 0.006560 0.005180 1.959840 
# 
# From -- ./inp_files/217216.got.cif
#   From: 2010.06.25/outbox.cif.g09.slc.cpg/sg2_109_cif.got.tgz:217216.got - 2010.06.27 13:26:56.
