data_PCOD8022039
_publ_section_title
;
Structure prediction by ZEFSAII (Michael W. Deem and Ramdas Pophale) SiO2 
 PCOD8022039
Probable space group: P -1
;
_chemical_formula_sum "Si O2"
_cell_formula_units_Z 16
_cell_length_a 14.966914
_cell_length_b 11.831052
_cell_length_c 9.026389
_cell_angle_alpha 112.290736
_cell_angle_beta 57.835469
_cell_angle_gamma 63.695738
_cell_volume 710.130444
_symmetry_space_group_name_H-M "P -1"
_symmetry_group_IT_number 2
_symmetry_cell_setting 'triclinic'
loop_
_space_group_symop_operation_xyz
x,y,z
-x,-y,-z
loop_
_atom_site_type_symbol
_atom_site_label
_atom_site_fract_x
_atom_site_fract_y
_atom_site_fract_z
Si Si1 0.801611 0.400725 0.854001
Si Si2 0.392986 0.876415 0.381622
Si Si3 0.303065 0.449413 0.656728
Si Si4 0.299281 0.964633 0.838160
Si Si5 0.922416 0.198765 0.222760
Si Si6 0.907557 0.694118 0.585926
Si Si7 0.286474 0.724207 0.305156
Si Si8 0.353801 0.137531 0.330115
O O1 0.601907 0.631533 0.085342
O O2 0.817821 0.411557 0.019952
O O3 0.814654 0.239453 0.733107
O O4 0.955703 0.324766 0.584599
O O5 0.253874 0.900417 0.453181
O O6 0.322561 0.989203 0.660957
O O7 0.396356 0.985813 0.324505
O O8 0.186545 0.619250 0.712802
O O9 0.335846 0.274938 0.513932
O O10 0.518588 0.292966 0.408550
O O11 0.274669 0.092397 0.049032
O O12 0.099072 0.093005 0.088946
O O13 0.769716 0.313566 0.534080
O O14 0.000000 0.000000 0.000000
O O15 0.845494 0.695400 0.486134
O O16 0.000000 0.500000 0.500000
O O17 0.500000 0.500000 0.000000
O O18 0.500000 0.000000 0.000000
#
# Coordination Sequence:
#
# PCOD8022039 Si02
#       8
#     2   2   2   2   2   2   2   2
#     4  10  24  44  69 107 141 186 238 301 350 427
#     4  10  24  45  71 103 144 186 239 290 368 419
#     4  11  28  48  70 108 144 188 244 290 366 427
#     4  11  24  46  72 108 140 194 235 296 357 424
#     4  12  25  48  75 104 146 188 240 298 358 424
#     4  12  25  41  69 103 144 189 244 291 355 429
#     4  10  22  44  73 100 142 190 231 299 356 419
#     4  12  26  45  72 101 142 190 235 297 356 427
#
# _framework density 22.531071000000001
#
# number of rings (size 3 to 8) (size 9 to 14) (size 15 to 20)
#    0.000    1.000    3.750    1.500    7.000    2.000 
#    2.250    1.250    0.000    0.000    0.000    0.000 
#    0.000    0.000    0.000    0.000    0.000    0.000 
#
# Total GULP energy -198211.514678 kJ/mol
# GULP energy per Si atom -12388.219667 kJ/mol
# Density = 2.247979 g / cm^3
# Si number density = 22.531071 Si / 1000 Ang^3
#
#
#
# Elastic Constant Matrix: (Units=GPa)
#
#
# Indices 1 2 3 4 5 6 
#
# 1 117.9186 48.0864 36.3722 -14.7007 10.5775 -5.3892
# 2 48.0864 77.5175 24.0244 -0.3115 1.5546 16.8460
# 3 36.3722 24.0244 105.8826 -21.3903 2.7032 -1.1304
# 4 -14.7007 -0.3115 -21.3903 37.6341 -5.6705 -4.3476
# 5 10.5775 1.5546 2.7032 -5.6705 45.3468 -4.2385
# 6 -5.3892 16.8460 -1.1304 -4.3476 -4.2385 21.8892
#
#
#
# Elastic Compliance Matrix: (Units=1/GPa)
#
#
# Indices 1 2 3 4 5 6 
#
# 1 0.015420 -0.012387 -0.000906 0.006945 -0.000895 0.014489
# 2 -0.012387 0.027841 -0.004432 -0.010508 -0.001649 -0.027111
# 3 -0.000906 -0.004432 0.012285 0.007388 0.001068 0.005496
# 4 0.006945 -0.010508 0.007388 0.036187 0.004530 0.018243
# 5 -0.000895 -0.001649 0.001068 0.004530 0.023432 0.006541
# 6 0.014489 -0.027111 0.005496 0.018243 0.006541 0.075290
#
#
# Mechanical properties :
#
#
# Convention : Reuss Voigt Hill
#
# Bulk Modulus (GPa) = 49.76216 57.58717 53.67467
# Shear Modulus (GPa) = 21.49593 33.82975 27.66284
#
# Velocity S-wave (km/s) = 3.09213 3.87909 3.50775
# Velocity P-wave (km/s) = 5.90613 6.75852 6.34665
#
# Compressibility (1/GPa) = 0.02009559
#
# Stress axis : x y z
#
# Youngs Moduli (GPa) = 64.85270 35.91864 81.40002
#
# Poissons Ratio (x) = 0.44494 0.07372
# Poissons Ratio (y) = 0.80335 0.36075
# Poissons Ratio (z) = 0.05873 0.15918
#
# Static dielectric constant tensor:
#      x y z
#    x 4.936860 -0.124580 0.152280 
#    y -0.124580 3.659340 -0.092030 
#    z 0.152280 -0.092030 4.518140 
# 
# 
# High freq. dielectric constant tensor:
#      x y z
#    x 1.913630 -0.011080 0.001950 
#    y -0.011080 1.864240 -0.009100 
#    z 0.001950 -0.009100 1.908630 
# 
# From -- ./inp_files/307936.got.cif
#   From: 2010.06.25/outbox.cif.g09.slc.cpg/sg2_154_cif.got.tgz:307936.got - 2010.06.27 13:26:56.
