data_PCOD8023528
_publ_section_title
;
Structure prediction by ZEFSAII (Michael W. Deem and Ramdas Pophale) SiO2 
 PCOD8023528
Probable space group: P -1
;
_chemical_formula_sum "Si O2"
_cell_formula_units_Z 16
_cell_length_a 9.087059
_cell_length_b 21.500156
_cell_length_c 9.247902
_cell_angle_alpha 28.436305
_cell_angle_beta 120.780526
_cell_angle_gamma 121.361945
_cell_volume 728.127288
_symmetry_space_group_name_H-M "P -1"
_symmetry_group_IT_number 2
_symmetry_cell_setting 'triclinic'
loop_
_space_group_symop_operation_xyz
x,y,z
-x,-y,-z
loop_
_atom_site_type_symbol
_atom_site_label
_atom_site_fract_x
_atom_site_fract_y
_atom_site_fract_z
Si Si1 0.619130 0.917586 0.310232
Si Si2 0.141585 0.921584 0.680126
Si Si3 0.681844 0.027997 0.617076
Si Si4 0.444910 0.594330 0.602197
Si Si5 0.115100 0.624912 0.222851
Si Si6 0.228188 0.181310 0.680043
Si Si7 0.123582 0.711021 0.732150
Si Si8 0.615478 0.354471 0.213198
O O1 0.768842 0.879478 0.356607
O O2 0.498288 0.789211 0.575022
O O3 0.686616 0.018667 0.266208
O O4 0.500000 0.000000 0.000000
O O5 0.164912 0.958839 0.449135
O O6 0.081470 0.763180 0.994161
O O7 0.000000 0.000000 0.500000
O O8 0.500000 0.000000 0.500000
O O9 0.708281 0.173309 0.403611
O O10 0.719804 0.920242 0.970139
O O11 0.318997 0.620928 0.354797
O O12 0.626788 0.690706 0.495274
O O13 0.344537 0.608914 0.673143
O O14 0.489439 0.449739 0.893382
O O15 0.000000 0.500000 0.500000
O O16 0.078844 0.624103 0.033661
O O17 0.043081 0.224579 0.531868
O O18 0.196055 0.625644 0.815135
#
# Coordination Sequence:
#
# PCOD8023528 Si02
#       8
#     2   2   2   2   2   2   2   2
#     4  11  21  39  67  95 127 172 221 269 329 399
#     4  11  24  41  65  98 129 168 220 271 330 390
#     4  11  22  41  65  95 137 170 211 274 335 394
#     4  10  24  44  67  91 133 180 222 268 345 405
#     4  11  26  45  67  95 139 180 220 280 338 397
#     4  11  23  41  68  98 133 173 217 282 335 398
#     4  11  24  42  65  99 131 171 227 278 334 394
#     4  10  23  41  69  94 131 173 227 275 332 407
#
# _framework density 21.97418
#
# number of rings (size 3 to 8) (size 9 to 14) (size 15 to 20)
#    0.000    1.250    0.000    7.125    7.000    3.000 
#    2.250    0.000    0.000    0.000    0.000    0.000 
#    0.000    0.000    0.000    0.000    0.000    0.000 
#
# Total GULP energy -198316.398019 kJ/mol
# GULP energy per Si atom -12394.774876 kJ/mol
# Density = 2.192417 g / cm^3
# Si number density = 21.974180 Si / 1000 Ang^3
#
#
#
# Elastic Constant Matrix: (Units=GPa)
#
#
# Indices 1 2 3 4 5 6 
#
# 1 133.2745 31.5625 50.6580 -4.3265 6.9876 -17.1315
# 2 31.5625 62.1798 30.8645 -5.0714 -11.3243 -3.5200
# 3 50.6580 30.8645 135.3738 -5.1306 -19.5499 -9.8227
# 4 -4.3265 -5.0714 -5.1306 41.0315 6.3965 2.2142
# 5 6.9876 -11.3243 -19.5499 6.3965 25.3690 -0.7537
# 6 -17.1315 -3.5200 -9.8227 2.2142 -0.7537 31.5873
#
#
#
# Elastic Compliance Matrix: (Units=1/GPa)
#
#
# Indices 1 2 3 4 5 6 
#
# 1 0.011171 -0.004936 -0.003948 0.001184 -0.008502 0.003995
# 2 -0.004936 0.021112 -0.001640 0.000455 0.009386 -0.000643
# 3 -0.003948 -0.001640 0.010557 -0.000722 0.008709 0.001217
# 4 0.001184 0.000455 -0.000722 0.025665 -0.007195 -0.001502
# 5 -0.008502 0.009386 0.008709 -0.007195 0.054503 0.000948
# 6 0.003995 -0.000643 0.001217 -0.001502 0.000948 0.034260
#
#
# Mechanical properties :
#
#
# Convention : Reuss Voigt Hill
#
# Bulk Modulus (GPa) = 45.89020 61.88868 53.88944
# Shear Modulus (GPa) = 26.94244 34.11377 30.52810
#
# Velocity S-wave (km/s) = 3.50536 3.94439 3.73134
# Velocity P-wave (km/s) = 6.10839 6.99783 6.56818
#
# Compressibility (1/GPa) = 0.02179115
#
# Stress axis : x y z
#
# Youngs Moduli (GPa) = 89.52012 47.36553 94.72517
#
# Poissons Ratio (x) = 0.23382 0.37396
# Poissons Ratio (y) = 0.44191 0.15536
# Poissons Ratio (z) = 0.35341 0.07769
#
# Static dielectric constant tensor:
#      x y z
#    x 4.255310 -0.143680 -0.069490 
#    y -0.143680 3.869280 0.044230 
#    z -0.069490 0.044230 4.045180 
# 
# 
# High freq. dielectric constant tensor:
#      x y z
#    x 1.870970 -0.000970 0.002190 
#    y -0.000970 1.863330 -0.002970 
#    z 0.002190 -0.002970 1.874820 
# 
# From -- ./inp_files/222894.got.cif
#   From: 2010.06.25/outbox.cif.g09.slc.cpg/sg2_112_cif.got.tgz:222894.got - 2010.06.27 13:26:56.
