data_PCOD8023190
_publ_section_title
;
Structure prediction by ZEFSAII (Michael W. Deem and Ramdas Pophale) SiO2 
 PCOD8023190
Probable space group: P -1
;
_chemical_formula_sum "Si O2"
_cell_formula_units_Z 14
_cell_length_a 11.330887
_cell_length_b 8.745730
_cell_length_c 11.043699
_cell_angle_alpha 99.656490
_cell_angle_beta 143.338330
_cell_angle_gamma 81.532851
_cell_volume 644.043212
_symmetry_space_group_name_H-M "P -1"
_symmetry_group_IT_number 2
_symmetry_cell_setting 'triclinic'
loop_
_space_group_symop_operation_xyz
x,y,z
-x,-y,-z
loop_
_atom_site_type_symbol
_atom_site_label
_atom_site_fract_x
_atom_site_fract_y
_atom_site_fract_z
Si Si1 0.549183 0.671394 0.520652
Si Si2 0.872649 0.716724 0.175562
Si Si3 0.450930 0.125269 0.221250
Si Si4 0.041733 0.394054 0.266109
Si Si5 0.761053 0.698892 0.360461
Si Si6 0.643238 0.225963 0.869414
Si Si7 0.132842 0.972400 0.490026
O O1 0.500000 0.500000 0.500000
O O2 0.508203 0.798705 0.606034
O O3 0.780761 0.675752 0.677885
O O4 0.404614 0.722740 0.299787
O O5 0.828537 0.688897 0.277014
O O6 0.973125 0.562572 0.182037
O O7 0.016693 0.860510 0.289197
O O8 0.673465 0.753867 0.945444
O O9 0.656462 0.107708 0.314529
O O10 0.350360 0.959683 0.134238
O O11 0.122923 0.424486 0.474771
O O12 0.856370 0.281570 0.094409
O O13 0.522715 0.690399 0.169700
O O14 0.820828 0.858513 0.501944
O O15 0.000000 0.000000 0.500000
#
# Coordination Sequence:
#
# PCOD8023190 Si02
#       7
#     2   2   2   2   2   2   2
#     4  11  24  42  62  86 118 154 200 249 291 346
#     4  11  22  36  61  91 121 158 195 238 293 350
#     4  11  23  39  62  90 119 155 197 242 294 348
#     4  11  23  39  60  87 120 159 197 240 294 348
#     4   9  21  39  59  87 120 155 197 243 289 347
#     4  10  23  41  61  86 118 155 198 246 294 346
#     4   9  20  38  60  85 117 153 194 239 287 345
#
# _framework density 21.737673000000001
#
# number of rings (size 3 to 8) (size 9 to 14) (size 15 to 20)
#    0.000    1.714    0.000    3.429    0.000   13.143 
#    0.000    0.000    0.000    0.000    0.000    0.000 
#    0.000    0.000    0.000    0.000    0.000    0.000 
#
# Total GULP energy -173553.737054 kJ/mol
# GULP energy per Si atom -12396.695504 kJ/mol
# Density = 2.168820 g / cm^3
# Si number density = 21.737673 Si / 1000 Ang^3
#
#
#
# Elastic Constant Matrix: (Units=GPa)
#
#
# Indices 1 2 3 4 5 6 
#
# 1 82.7838 18.2018 37.7485 -4.0919 12.3756 1.3717
# 2 18.2018 61.7942 9.8864 -10.4208 0.8355 -7.4607
# 3 37.7485 9.8864 94.5189 -14.7609 16.3717 -1.9682
# 4 -4.0919 -10.4208 -14.7609 45.2733 6.3090 0.5560
# 5 12.3756 0.8355 16.3717 6.3090 35.4996 0.5665
# 6 1.3717 -7.4607 -1.9682 0.5560 0.5665 25.2515
#
#
#
# Elastic Compliance Matrix: (Units=1/GPa)
#
#
# Indices 1 2 3 4 5 6 
#
# 1 0.015992 -0.004230 -0.005694 -0.000987 -0.002635 -0.002482
# 2 -0.004230 0.018718 0.000474 0.004009 0.000012 0.005709
# 3 -0.005694 0.000474 0.014630 0.005141 -0.005713 0.001605
# 4 -0.000987 0.004009 0.005141 0.025513 -0.006675 0.001227
# 5 -0.002635 0.000012 -0.005713 -0.006675 0.032923 -0.000890
# 6 -0.002482 0.005709 0.001605 0.001227 -0.000890 0.041541
#
#
# Mechanical properties :
#
#
# Convention : Reuss Voigt Hill
#
# Bulk Modulus (GPa) = 32.85024 41.19669 37.02346
# Shear Modulus (GPa) = 28.03273 32.75556 30.39414
#
# Velocity S-wave (km/s) = 3.59498 3.88604 3.74334
# Velocity P-wave (km/s) = 5.69006 6.25523 5.97933
#
# Compressibility (1/GPa) = 0.03044118
#
# Stress axis : x y z
#
# Youngs Moduli (GPa) = 62.53011 53.42457 68.35262
#
# Poissons Ratio (x) = 0.22599 0.38920
# Poissons Ratio (y) = 0.26451 -0.03243
# Poissons Ratio (z) = 0.35604 -0.02535
#
# Static dielectric constant tensor:
#      x y z
#    x 3.850750 0.073480 0.260070 
#    y 0.073480 4.282340 0.099480 
#    z 0.260070 0.099480 3.979890 
# 
# 
# High freq. dielectric constant tensor:
#      x y z
#    x 1.845480 0.000520 0.016630 
#    y 0.000520 1.865540 -0.007030 
#    z 0.016630 -0.007030 1.858430 
# 
# From -- ./inp_files/26966.got.cif
#   From: 2010.06.25/outbox.cif.g09.slc.cpg/sg2_14_cif.got.tgz:26966.got - 2010.06.27 13:26:56.
