data_PCOD8023509
_publ_section_title
;
Structure prediction by ZEFSAII (Michael W. Deem and Ramdas Pophale) SiO2 
 PCOD8023509
Probable space group: P -1
;
_chemical_formula_sum "Si O2"
_cell_formula_units_Z 16
_cell_length_a 10.318770
_cell_length_b 8.398422
_cell_length_c 13.074674
_cell_angle_alpha 59.588124
_cell_angle_beta 49.234075
_cell_angle_gamma 69.197282
_cell_volume 739.566173
_symmetry_space_group_name_H-M "P -1"
_symmetry_group_IT_number 2
_symmetry_cell_setting 'triclinic'
loop_
_space_group_symop_operation_xyz
x,y,z
-x,-y,-z
loop_
_atom_site_type_symbol
_atom_site_label
_atom_site_fract_x
_atom_site_fract_y
_atom_site_fract_z
Si Si1 0.913474 0.838492 0.038180
Si Si2 0.656599 0.375496 0.919006
Si Si3 0.637296 0.034112 0.505794
Si Si4 0.672858 0.182317 0.762164
Si Si5 0.989803 0.519482 0.783822
Si Si6 0.569079 0.013641 0.172855
Si Si7 0.334270 0.607977 0.515109
Si Si8 0.988816 0.929868 0.738276
O O1 0.997927 0.633608 0.081768
O O2 0.711354 0.847389 0.171562
O O3 0.934758 0.889179 0.893532
O O4 0.000000 0.000000 0.000000
O O5 0.628070 0.317573 0.835344
O O6 0.831007 0.483608 0.803329
O O7 0.500000 0.500000 0.000000
O O8 0.672567 0.197493 0.041639
O O9 0.675923 0.246410 0.434323
O O10 0.830075 0.964086 0.397667
O O11 0.500000 0.000000 0.500000
O O12 0.561772 0.951882 0.676348
O O13 0.651343 0.303482 0.631808
O O14 0.533357 0.025476 0.867246
O O15 0.858071 0.081803 0.707375
O O16 0.975099 0.733181 0.753646
O O17 0.165508 0.487083 0.640180
O O18 0.500000 0.500000 0.500000
#
# Coordination Sequence:
#
# PCOD8023509 Si02
#       8
#     2   2   2   2   2   2   2   2
#     4  12  22  42  68  95 137 180 228 273 336 406
#     4  12  26  41  64  99 133 178 228 284 337 408
#     4  10  23  41  68  99 132 176 228 275 337 397
#     4  11  24  45  69  95 133 183 230 276 352 404
#     4  11  24  42  65 104 137 173 229 280 340 403
#     4  11  23  42  67  94 136 177 224 279 333 408
#     4  10  24  46  69  97 136 177 224 286 347 408
#     4  11  24  42  69  99 137 180 225 284 341 403
#
# _framework density 21.634305999999999
#
# number of rings (size 3 to 8) (size 9 to 14) (size 15 to 20)
#    0.000    1.000    2.500    3.750    1.750    8.000 
#    2.250    0.000    0.000    0.000    0.000    0.000 
#    0.000    0.000    0.000    0.000    0.000    0.000 
#
# Total GULP energy -198258.544999 kJ/mol
# GULP energy per Si atom -12391.159062 kJ/mol
# Density = 2.158507 g / cm^3
# Si number density = 21.634306 Si / 1000 Ang^3
#
#
#
# Elastic Constant Matrix: (Units=GPa)
#
#
# Indices 1 2 3 4 5 6 
#
# 1 159.7707 66.2652 51.4383 7.7365 -12.7346 3.4847
# 2 66.2652 99.3615 40.8774 11.7651 2.6832 -7.4075
# 3 51.4383 40.8774 93.8020 6.0503 -3.4042 3.3168
# 4 7.7365 11.7651 6.0503 24.8222 -4.3328 -3.2776
# 5 -12.7346 2.6832 -3.4042 -4.3328 44.9538 -2.8333
# 6 3.4847 -7.4075 3.3168 -3.2776 -2.8333 41.9425
#
#
#
# Elastic Compliance Matrix: (Units=1/GPa)
#
#
# Indices 1 2 3 4 5 6 
#
# 1 0.009687 -0.005567 -0.002776 0.000617 0.002842 -0.001328
# 2 -0.005567 0.016329 -0.003950 -0.005192 -0.003160 0.003040
# 3 -0.002776 -0.003950 0.014028 -0.000838 0.000329 -0.001620
# 4 0.000617 -0.005192 -0.000838 0.043982 0.004841 0.002862
# 5 0.002842 -0.003160 0.000329 0.004841 0.023804 0.001166
# 6 -0.001328 0.003040 -0.001620 0.002862 0.001166 0.024920
#
#
# Mechanical properties :
#
#
# Convention : Reuss Voigt Hill
#
# Bulk Modulus (GPa) = 64.69470 74.45513 69.57492
# Shear Modulus (GPa) = 30.77130 35.30057 33.03594
#
# Velocity S-wave (km/s) = 3.77548 4.04381 3.91194
# Velocity P-wave (km/s) = 6.99817 7.50288 7.25491
#
# Compressibility (1/GPa) = 0.01545722
#
# Stress axis : x y z
#
# Youngs Moduli (GPa) = 103.22698 61.24056 71.28816
#
# Poissons Ratio (x) = 0.34096 0.19788
# Poissons Ratio (y) = 0.57472 0.28160
# Poissons Ratio (z) = 0.28653 0.24191
#
# Static dielectric constant tensor:
#      x y z
#    x 4.070230 0.075750 -0.152130 
#    y 0.075750 3.944390 -0.163650 
#    z -0.152130 -0.163650 3.510740 
# 
# 
# High freq. dielectric constant tensor:
#      x y z
#    x 1.869260 -0.002460 -0.016040 
#    y -0.002460 1.846990 0.002970 
#    z -0.016040 0.002970 1.852750 
# 
# From -- ./inp_files/381243.got.cif
#   From: 2010.06.25/outbox.cif.g09.slc.cpg/sg2_191_cif.got.tgz:381243.got - 2010.06.27 13:26:56.
