data_PCOD8023239
_publ_section_title
;
Structure prediction by ZEFSAII (Michael W. Deem and Ramdas Pophale) SiO2 
 PCOD8023239
Probable space group: P -1
;
_chemical_formula_sum "Si O2"
_cell_formula_units_Z 16
_cell_length_a 12.533038
_cell_length_b 16.299545
_cell_length_c 22.514968
_cell_angle_alpha 28.060558
_cell_angle_beta 153.895641
_cell_angle_gamma 151.168834
_cell_volume 870.869929
_symmetry_space_group_name_H-M "P -1"
_symmetry_group_IT_number 2
_symmetry_cell_setting 'triclinic'
loop_
_space_group_symop_operation_xyz
x,y,z
-x,-y,-z
loop_
_atom_site_type_symbol
_atom_site_label
_atom_site_fract_x
_atom_site_fract_y
_atom_site_fract_z
Si Si1 0.546503 0.514906 0.862086
Si Si2 0.842049 0.061557 0.798702
Si Si3 0.717074 0.748540 0.300168
Si Si4 0.530901 0.964618 0.149886
Si Si5 0.992485 0.905775 0.863957
Si Si6 0.590144 0.860898 0.913042
Si Si7 0.704134 0.354399 0.935730
Si Si8 0.006779 0.518006 0.420838
O O1 0.810675 0.706850 0.869333
O O2 0.514255 0.394255 0.862711
O O3 0.285657 0.558835 0.705358
O O4 0.561464 0.371032 0.013545
O O5 0.822605 0.262598 0.650850
O O6 0.805584 0.953658 0.786709
O O7 0.607450 0.934354 0.807354
O O8 0.122750 0.090703 0.947255
O O9 0.670420 0.818792 0.297841
O O10 0.421135 0.638287 0.195404
O O11 0.856759 0.603298 0.467127
O O12 0.896359 0.925580 0.235707
O O13 0.307888 0.855616 0.926417
O O14 0.554157 0.030903 0.188119
O O15 0.225474 0.872403 0.035757
O O16 0.000000 0.500000 0.000000
O O17 0.000000 0.500000 0.500000
#
# Coordination Sequence:
#
# PCOD8023239 Si02
#       8
#     2   2   2   2   2   2   2   2
#     4  10  19  30  49  76 101 127 165 202 245 294
#     4   9  17  33  52  69  96 133 166 202 247 284
#     4  11  19  31  48  71 107 132 158 199 248 296
#     4   9  18  31  48  73 100 128 163 205 248 284
#     4  10  18  30  50  77 101 124 163 210 247 285
#     4   8  17  33  52  70  94 129 169 209 239 283
#     4  10  17  29  49  72 100 128 164 203 247 290
#     4  11  19  35  48  71 103 136 163 192 248 304
#
# _framework density 18.372433999999998
#
# number of rings (size 3 to 8) (size 9 to 14) (size 15 to 20)
#    0.000    2.250    2.500    4.500    0.000    1.000 
#    0.000    0.625    0.000    0.000    0.000    8.750 
#    0.000    0.000    0.000    0.000    0.000    0.000 
#
# Total GULP energy -198300.741506 kJ/mol
# GULP energy per Si atom -12393.796344 kJ/mol
# Density = 1.833062 g / cm^3
# Si number density = 18.372434 Si / 1000 Ang^3
#
#
#
# Elastic Constant Matrix: (Units=GPa)
#
#
# Indices 1 2 3 4 5 6 
#
# 1 99.8327 18.7331 48.6443 -17.2726 14.9020 -8.0913
# 2 18.7331 91.7559 29.9238 -7.3835 3.2014 4.1710
# 3 48.6443 29.9238 68.4239 -21.6507 16.7874 -2.3913
# 4 -17.2726 -7.3835 -21.6507 23.7461 -3.6652 6.0435
# 5 14.9020 3.2014 16.7874 -3.6652 31.7276 -10.7197
# 6 -8.0913 4.1710 -2.3913 6.0435 -10.7197 23.9553
#
#
#
# Elastic Compliance Matrix: (Units=1/GPa)
#
#
# Indices 1 2 3 4 5 6 
#
# 1 0.015747 0.000220 -0.010932 0.000512 -0.000239 0.003953
# 2 0.000220 0.012945 -0.006531 -0.001067 0.001245 -0.002005
# 3 -0.010932 -0.006531 0.035673 0.023203 -0.014183 -0.011195
# 4 0.000512 -0.001067 0.023203 0.066441 -0.011185 -0.019092
# 5 -0.000239 0.001245 -0.014183 -0.011185 0.044877 0.021190
# 6 0.003953 -0.002005 -0.011195 -0.019092 0.021190 0.056610
#
#
# Mechanical properties :
#
#
# Convention : Reuss Voigt Hill
#
# Bulk Modulus (GPa) = 33.46814 50.51276 41.99045
# Shear Modulus (GPa) = 18.06753 26.73323 22.40038
#
# Velocity S-wave (km/s) = 3.13933 3.81868 3.49555
# Velocity P-wave (km/s) = 5.60326 6.85540 6.26072
#
# Compressibility (1/GPa) = 0.02987917
#
# Stress axis : x y z
#
# Youngs Moduli (GPa) = 63.50411 77.24795 28.03205
#
# Poissons Ratio (x) = -0.01701 0.30646
# Poissons Ratio (y) = -0.01398 0.18308
# Poissons Ratio (z) = 0.69425 0.50452
#
# Static dielectric constant tensor:
#      x y z
#    x 3.681110 -0.018480 0.116870 
#    y -0.018480 3.297770 -0.250470 
#    z 0.116870 -0.250470 3.115310 
# 
# 
# High freq. dielectric constant tensor:
#      x y z
#    x 1.713630 -0.004870 0.021750 
#    y -0.004870 1.706030 -0.021070 
#    z 0.021750 -0.021070 1.671180 
# 
# From -- ./inp_files/595632.got.cif
#   From: 2010.06.25/outbox.cif.g09.slc.cpg/sg2_298_cif.got.tgz:595632.got - 2010.06.27 13:26:56.
