data_PCOD8023186
_publ_section_title
;
Structure prediction by ZEFSAII (Michael W. Deem and Ramdas Pophale) SiO2 
 PCOD8023186
Probable space group: P -1
;
_chemical_formula_sum "Si O2"
_cell_formula_units_Z 16
_cell_length_a 11.431920
_cell_length_b 8.775775
_cell_length_c 11.138714
_cell_angle_alpha 71.193679
_cell_angle_beta 127.435617
_cell_angle_gamma 80.579774
_cell_volume 737.567175
_symmetry_space_group_name_H-M "P -1"
_symmetry_group_IT_number 2
_symmetry_cell_setting 'triclinic'
loop_
_space_group_symop_operation_xyz
x,y,z
-x,-y,-z
loop_
_atom_site_type_symbol
_atom_site_label
_atom_site_fract_x
_atom_site_fract_y
_atom_site_fract_z
Si Si1 0.478503 0.035825 0.664295
Si Si2 0.863286 0.367322 0.967867
Si Si3 0.185542 0.646683 0.785740
Si Si4 0.766073 0.769804 0.749029
Si Si5 0.602866 0.637913 0.213173
Si Si6 0.320634 0.925797 0.813545
Si Si7 0.890056 0.689401 0.447439
Si Si8 0.571845 0.353166 0.686570
O O1 0.321198 0.126297 0.453431
O O2 0.548445 0.176966 0.697411
O O3 0.637510 0.857945 0.755477
O O4 0.414179 0.962988 0.752693
O O5 0.788541 0.410946 0.045400
O O6 0.060879 0.220710 0.126303
O O7 0.822025 0.555730 0.828421
O O8 0.768712 0.282331 0.850952
O O9 0.305386 0.479336 0.816404
O O10 0.232618 0.806201 0.748374
O O11 0.990962 0.706233 0.619953
O O12 0.717875 0.682483 0.366927
O O13 0.526324 0.542457 0.277801
O O14 0.452137 0.831665 0.026188
O O15 0.170201 0.123556 0.716028
O O16 0.000000 0.500000 0.500000
O O17 0.500000 0.500000 0.500000
#
# Coordination Sequence:
#
# PCOD8023186 Si02
#       8
#     2   2   2   2   2   2   2   2
#     4  11  24  42  67  96 134 172 224 265 335 391
#     4  11  23  44  69  95 134 171 224 271 331 386
#     4  11  24  41  68 102 132 172 224 273 334 397
#     4  10  24  43  67  97 130 178 215 275 324 396
#     4  11  24  41  67 100 134 176 217 275 333 393
#     4  12  22  40  67  96 133 172 219 278 321 399
#     4  10  23  41  60  95 136 172 213 268 340 385
#     4  12  25  43  68  95 134 177 220 272 332 397
#
# _framework density 21.692941000000001
#
# number of rings (size 3 to 8) (size 9 to 14) (size 15 to 20)
#    0.000    1.000    3.750    2.625    1.750    0.500 
#    0.000    2.500    0.000    0.000    0.000    0.000 
#    0.000    0.000    0.000    0.000    0.000    0.000 
#
# Total GULP energy -198229.586936 kJ/mol
# GULP energy per Si atom -12389.349183 kJ/mol
# Density = 2.164357 g / cm^3
# Si number density = 21.692941 Si / 1000 Ang^3
#
#
#
# Elastic Constant Matrix: (Units=GPa)
#
#
# Indices 1 2 3 4 5 6 
#
# 1 100.0396 30.8692 70.8674 6.7598 0.2780 13.5984
# 2 30.8692 82.9311 51.6139 5.0487 20.4344 24.3393
# 3 70.8674 51.6139 156.3644 9.8621 15.8623 9.1842
# 4 6.7598 5.0487 9.8621 38.5082 8.4398 11.3856
# 5 0.2780 20.4344 15.8623 8.4398 47.7433 3.1098
# 6 13.5984 24.3393 9.1842 11.3856 3.1098 36.6631
#
#
#
# Elastic Compliance Matrix: (Units=1/GPa)
#
#
# Indices 1 2 3 4 5 6 
#
# 1 0.015663 -0.001404 -0.006718 -0.000543 0.003051 -0.003285
# 2 -0.001404 0.021042 -0.005086 0.004172 -0.007208 -0.012858
# 3 -0.006718 -0.005086 0.011156 -0.001811 -0.001415 0.003756
# 4 -0.000543 0.004172 -0.001811 0.030548 -0.005857 -0.011104
# 5 0.003051 -0.007208 -0.001415 -0.005857 0.025278 0.003683
# 6 -0.003285 -0.012858 0.003756 -0.011104 0.003683 0.039225
#
#
# Mechanical properties :
#
#
# Convention : Reuss Voigt Hill
#
# Bulk Modulus (GPa) = 46.63018 71.78178 59.20598
# Shear Modulus (GPa) = 28.33254 36.98187 32.65721
#
# Velocity S-wave (km/s) = 3.61788 4.13339 3.88420
# Velocity P-wave (km/s) = 6.24454 7.47941 6.88970
#
# Compressibility (1/GPa) = 0.02144534
#
# Stress axis : x y z
#
# Youngs Moduli (GPa) = 63.84621 47.52359 89.63909
#
# Poissons Ratio (x) = 0.06673 0.60215
# Poissons Ratio (y) = 0.08964 0.45591
# Poissons Ratio (z) = 0.42889 0.24171
#
# Static dielectric constant tensor:
#      x y z
#    x 4.363970 0.192290 0.473670 
#    y 0.192290 4.064900 0.094430 
#    z 0.473670 0.094430 4.314530 
# 
# 
# High freq. dielectric constant tensor:
#      x y z
#    x 1.855610 0.014810 0.016020 
#    y 0.014810 1.849390 0.008670 
#    z 0.016020 0.008670 1.867450 
# 
# From -- ./inp_files/419207.got.cif
#   From: 2010.06.25/outbox.cif.g09.slc.cpg/sg2_210_cif.got.tgz:419207.got - 2010.06.27 13:26:56.
