data_PCOD8023062
_publ_section_title
;
Structure prediction by ZEFSAII (Michael W. Deem and Ramdas Pophale) SiO2 
 PCOD8023062
Probable space group: P -1
;
_chemical_formula_sum "Si O2"
_cell_formula_units_Z 16
_cell_length_a 9.704261
_cell_length_b 24.204459
_cell_length_c 18.288944
_cell_angle_alpha 19.117621
_cell_angle_beta 39.694086
_cell_angle_gamma 36.798836
_cell_volume 840.935191
_symmetry_space_group_name_H-M "P -1"
_symmetry_group_IT_number 2
_symmetry_cell_setting 'triclinic'
loop_
_space_group_symop_operation_xyz
x,y,z
-x,-y,-z
loop_
_atom_site_type_symbol
_atom_site_label
_atom_site_fract_x
_atom_site_fract_y
_atom_site_fract_z
Si Si1 0.220309 0.322619 0.632927
Si Si2 0.347430 0.321546 0.420324
Si Si3 0.596311 0.694189 0.152379
Si Si4 0.377517 0.980471 0.763773
Si Si5 0.971809 0.945686 0.885725
Si Si6 0.600480 0.314512 0.600760
Si Si7 0.058401 0.719011 0.988342
Si Si8 0.757293 0.119053 0.416933
O O1 0.362361 0.305000 0.522362
O O2 0.369984 0.339310 0.619400
O O3 0.000000 0.500000 0.500000
O O4 0.143907 0.149942 0.889549
O O5 0.610261 0.269211 0.348679
O O6 0.241865 0.175516 0.613436
O O7 0.186691 0.517952 0.215498
O O8 0.666161 0.492104 0.345965
O O9 0.442227 0.724273 0.249838
O O10 0.438093 0.826875 0.991694
O O11 0.826692 0.736918 0.017764
O O12 0.222968 0.934176 0.823919
O O13 0.611932 0.988927 0.620116
O O14 0.995009 0.853664 0.913269
O O15 0.810541 0.152229 0.684245
O O16 0.221375 0.777020 0.794685
O O17 0.000000 0.000000 0.500000
#
# Coordination Sequence:
#
# PCOD8023062 Si02
#       8
#     2   2   2   2   2   2   2   2
#     4  12  22  40  65  99 133 167 208 261 327 382
#     4  10  23  40  66  95 127 169 215 255 324 376
#     4  11  22  42  65  91 132 172 215 258 320 388
#     4  10  24  42  63  95 127 169 213 266 317 376
#     4  12  25  38  66  99 134 164 211 270 322 380
#     4  11  25  38  63  98 134 170 211 261 325 385
#     4  12  22  42  69  91 129 170 215 264 315 381
#     4  10  23  43  69  91 122 174 222 261 314 377
#
# _framework density 19.026437000000001
#
# number of rings (size 3 to 8) (size 9 to 14) (size 15 to 20)
#    0.750    0.250    3.750    3.000    3.500    4.500 
#    0.000    0.000    0.000    2.250    0.000    0.000 
#    0.000    0.000    0.000    0.000    0.000    0.000 
#
# Total GULP energy -198420.005107 kJ/mol
# GULP energy per Si atom -12401.250319 kJ/mol
# Density = 1.898313 g / cm^3
# Si number density = 19.026437 Si / 1000 Ang^3
#
#
#
# Elastic Constant Matrix: (Units=GPa)
#
#
# Indices 1 2 3 4 5 6 
#
# 1 102.1618 40.8992 57.3167 -5.6903 -19.1862 -19.1244
# 2 40.8992 115.8137 51.3686 -12.2169 1.7790 1.5464
# 3 57.3167 51.3686 125.3639 -1.8603 3.3042 9.9113
# 4 -5.6903 -12.2169 -1.8603 37.6399 1.7547 0.0782
# 5 -19.1862 1.7790 3.3042 1.7547 28.2895 4.5848
# 6 -19.1244 1.5464 9.9113 0.0782 4.5848 25.8810
#
#
#
# Elastic Compliance Matrix: (Units=1/GPa)
#
#
# Indices 1 2 3 4 5 6 
#
# 1 0.024416 -0.003884 -0.011531 0.001127 0.014829 0.020059
# 2 -0.003884 0.011611 -0.002697 0.003188 -0.002919 -0.002024
# 3 -0.011531 -0.002697 0.015553 -0.001484 -0.007265 -0.013025
# 4 0.001127 0.003188 -0.001484 0.027753 -0.001201 0.001340
# 5 0.014829 -0.002919 -0.007265 -0.001201 0.045565 0.005846
# 6 0.020059 -0.002024 -0.013025 0.001340 0.005846 0.057530
#
#
# Mechanical properties :
#
#
# Convention : Reuss Voigt Hill
#
# Bulk Modulus (GPa) = 65.13051 71.38981 68.26016
# Shear Modulus (GPa) = 22.34410 31.27907 26.81159
#
# Velocity S-wave (km/s) = 3.43063 4.05900 3.75797
# Velocity P-wave (km/s) = 7.07094 7.71817 7.40163
#
# Compressibility (1/GPa) = 0.01535379
#
# Stress axis : x y z
#
# Youngs Moduli (GPa) = 40.95707 86.12554 64.29449
#
# Poissons Ratio (x) = 0.33454 0.74140
# Poissons Ratio (y) = 0.15909 0.17343
# Poissons Ratio (z) = 0.47229 0.23232
#
# Static dielectric constant tensor:
#      x y z
#    x 3.226120 0.083860 0.058170 
#    y 0.083860 3.462610 -0.038360 
#    z 0.058170 -0.038360 3.663720 
# 
# 
# High freq. dielectric constant tensor:
#      x y z
#    x 1.739880 -0.004680 0.005860 
#    y -0.004680 1.736860 -0.007940 
#    z 0.005860 -0.007940 1.751970 
# 
# From -- ./inp_files/215741.got.cif
#   From: 2010.06.25/outbox.cif.g09.slc.cpg/sg2_108_cif.got.tgz:215741.got - 2010.06.27 13:26:56.
