data_PCOD8023787
_publ_section_title
;
Structure prediction by ZEFSAII (Michael W. Deem and Ramdas Pophale) SiO2 
 PCOD8023787
Probable space group: P -1
;
_chemical_formula_sum "Si O2"
_cell_formula_units_Z 16
_cell_length_a 13.372136
_cell_length_b 14.004851
_cell_length_c 13.709799
_cell_angle_alpha 33.748143
_cell_angle_beta 148.962875
_cell_angle_gamma 138.617825
_cell_volume 728.964233
_symmetry_space_group_name_H-M "P -1"
_symmetry_group_IT_number 2
_symmetry_cell_setting 'triclinic'
loop_
_space_group_symop_operation_xyz
x,y,z
-x,-y,-z
loop_
_atom_site_type_symbol
_atom_site_label
_atom_site_fract_x
_atom_site_fract_y
_atom_site_fract_z
Si Si1 0.622089 0.273754 0.254243
Si Si2 0.145795 0.049568 0.285323
Si Si3 0.205868 0.794458 0.184417
Si Si4 0.005849 0.583480 0.654372
Si Si5 0.347502 0.315886 0.822333
Si Si6 0.906386 0.080755 0.445498
Si Si7 0.469907 0.017301 0.073791
Si Si8 0.506393 0.314490 0.338148
O O1 0.560950 0.347982 0.242237
O O2 0.775971 0.418522 0.205472
O O3 0.731559 0.105450 0.508133
O O4 0.424210 0.233666 0.056560
O O5 0.286659 0.228122 0.240864
O O6 0.052607 0.031286 0.330898
O O7 0.951338 0.069867 0.041637
O O8 0.089028 0.603689 0.228092
O O9 0.343100 0.848882 0.158785
O O10 0.341005 0.800924 0.387595
O O11 0.879885 0.650544 0.401090
O O12 0.014793 0.716468 0.641172
O O13 0.478273 0.499721 0.754197
O O14 0.363892 0.187027 0.855628
O O15 0.674102 0.057705 0.264765
O O16 0.000000 0.000000 0.500000
O O17 0.500000 0.000000 0.000000
#
# Coordination Sequence:
#
# PCOD8023787 Si02
#       8
#     2   2   2   2   2   2   2   2
#     4  11  22  41  66  96 135 180 216 265 332 380
#     4  11  22  39  64  92 137 169 219 270 319 387
#     4  11  24  43  63  98 136 167 222 272 318 389
#     4  10  23  42  65  96 136 172 216 274 317 387
#     4  11  22  41  65  94 134 169 222 268 322 387
#     4  11  22  43  67  94 126 171 218 264 333 390
#     4  12  23  44  69  94 129 174 218 269 334 388
#     4  11  24  40  65  99 135 176 217 273 324 378
#
# _framework density 21.948948999999999
#
# number of rings (size 3 to 8) (size 9 to 14) (size 15 to 20)
#    0.000    1.000    3.750    4.500    0.000    3.500 
#    2.250    3.125    0.000    0.000    0.000    0.000 
#    0.000    0.000    0.000    0.000    0.000    0.000 
#
# Total GULP energy -198306.059378 kJ/mol
# GULP energy per Si atom -12394.128711 kJ/mol
# Density = 2.189899 g / cm^3
# Si number density = 21.948949 Si / 1000 Ang^3
#
#
#
# Elastic Constant Matrix: (Units=GPa)
#
#
# Indices 1 2 3 4 5 6 
#
# 1 99.1984 42.8067 7.2032 -14.1325 -8.7939 -0.5845
# 2 42.8067 93.0775 17.7240 -2.3436 -5.6906 12.8569
# 3 7.2032 17.7240 105.4845 14.8594 -4.6936 2.8452
# 4 -14.1325 -2.3436 14.8594 39.9534 3.9832 0.0363
# 5 -8.7939 -5.6906 -4.6936 3.9832 22.7844 3.3007
# 6 -0.5845 12.8569 2.8452 0.0363 3.3007 28.5429
#
#
#
# Elastic Compliance Matrix: (Units=1/GPa)
#
#
# Indices 1 2 3 4 5 6 
#
# 1 0.013720 -0.006366 -0.000459 0.004407 0.002419 0.002909
# 2 -0.006366 0.015064 -0.001679 -0.000951 0.002139 -0.006995
# 3 -0.000459 -0.001679 0.010540 -0.004423 0.002432 -0.000580
# 4 0.004407 -0.000951 -0.004423 0.028641 -0.004667 0.001463
# 5 0.002419 0.002139 0.002432 -0.004667 0.047639 -0.006660
# 6 0.002909 -0.006995 -0.000580 0.001463 -0.006660 0.039071
#
#
# Mechanical properties :
#
#
# Convention : Reuss Voigt Hill
#
# Bulk Modulus (GPa) = 44.80599 48.13644 46.47122
# Shear Modulus (GPa) = 27.91387 33.59123 30.75255
#
# Velocity S-wave (km/s) = 3.57005 3.91631 3.74718
# Velocity P-wave (km/s) = 6.11978 6.51373 6.31983
#
# Compressibility (1/GPa) = 0.02231844
#
# Stress axis : x y z
#
# Youngs Moduli (GPa) = 72.88371 66.38355 94.87348
#
# Poissons Ratio (x) = 0.42257 0.04354
# Poissons Ratio (y) = 0.46395 0.15926
# Poissons Ratio (z) = 0.03345 0.11144
#
# Static dielectric constant tensor:
#      x y z
#    x 3.811300 0.080190 -0.008520 
#    y 0.080190 4.288240 0.241480 
#    z -0.008520 0.241480 4.438640 
# 
# 
# High freq. dielectric constant tensor:
#      x y z
#    x 1.828540 0.015220 0.007810 
#    y 0.015220 1.877450 0.012630 
#    z 0.007810 0.012630 1.889620 
# 
# From -- ./inp_files/534171.got.cif
#   From: 2010.06.25/outbox.cif.g09.slc.cpg/sg2_268_cif.got.tgz:534171.got - 2010.06.27 13:26:56.
