data_PCOD8023859
_publ_section_title
;
Structure prediction by ZEFSAII (Michael W. Deem and Ramdas Pophale) SiO2 
 PCOD8023859
Probable space group: P -1
;
_chemical_formula_sum "Si O2"
_cell_formula_units_Z 12
_cell_length_a 5.073061
_cell_length_b 9.025297
_cell_length_c 19.315260
_cell_angle_alpha 38.355983
_cell_angle_beta 76.925699
_cell_angle_gamma 82.843630
_cell_volume 532.519215
_symmetry_space_group_name_H-M "P -1"
_symmetry_group_IT_number 2
_symmetry_cell_setting 'triclinic'
loop_
_space_group_symop_operation_xyz
x,y,z
-x,-y,-z
loop_
_atom_site_type_symbol
_atom_site_label
_atom_site_fract_x
_atom_site_fract_y
_atom_site_fract_z
Si Si1 0.242823 0.637122 0.977892
Si Si2 0.517754 0.859330 0.272427
Si Si3 0.938805 0.768592 0.393068
Si Si4 0.636028 0.555719 0.250925
Si Si5 0.805015 0.438986 0.831669
Si Si6 0.096134 0.899575 0.603034
O O1 0.304417 0.905648 0.849721
O O2 0.500000 0.500000 0.000000
O O3 0.187353 0.646586 0.059012
O O4 0.000000 0.500000 0.000000
O O5 0.211684 0.911214 0.292931
O O6 0.493804 0.654781 0.289985
O O7 0.679230 0.759892 0.362695
O O8 0.000000 0.500000 0.500000
O O9 0.839037 0.881642 0.428741
O O10 0.945267 0.676002 0.180315
O O11 0.646229 0.263576 0.363210
O O12 0.523033 0.364370 0.837222
O O13 0.854347 0.728042 0.716323
O O14 0.000000 0.000000 0.500000
#
# Coordination Sequence:
#
# PCOD8023859 Si02
#       6
#     2   2   2   2   2   2
#     4  12  25  43  72 103 141 182 230 285 349 412
#     4  12  26  47  70 103 141 181 231 289 346 410
#     4  12  27  45  71 104 140 181 232 286 347 414
#     4  10  24  42  69  97 139 177 231 277 350 404
#     4  10  23  42  66  99 136 176 233 274 346 408
#     4  10  24  43  69  96 136 181 229 283 340 405
#
# _framework density 22.534397999999999
#
# number of rings (size 3 to 8) (size 9 to 14) (size 15 to 20)
#    1.000    0.000    0.000    6.500    7.000    2.000 
#    0.000    0.000    0.000    0.000    0.000    0.000 
#    0.000    0.000    0.000    0.000    0.000    0.000 
#
# Total GULP energy -148753.851242 kJ/mol
# GULP energy per Si atom -12396.154270 kJ/mol
# Density = 2.248311 g / cm^3
# Si number density = 22.534398 Si / 1000 Ang^3
#
#
#
# Elastic Constant Matrix: (Units=GPa)
#
#
# Indices 1 2 3 4 5 6 
#
# 1 117.7147 26.2866 3.3509 7.2417 25.6857 9.5588
# 2 26.2866 150.6817 24.3383 6.0162 18.7895 8.0964
# 3 3.3509 24.3383 89.0812 5.0817 10.2013 16.6499
# 4 7.2417 6.0162 5.0817 38.3736 10.4698 5.8549
# 5 25.6857 18.7895 10.2013 10.4698 37.3786 5.6500
# 6 9.5588 8.0964 16.6499 5.8549 5.6500 35.8618
#
#
#
# Elastic Compliance Matrix: (Units=1/GPa)
#
#
# Indices 1 2 3 4 5 6 
#
# 1 0.010281 -0.001038 0.001007 0.000182 -0.006571 -0.001968
# 2 -0.001038 0.007412 -0.001653 -0.000025 -0.002520 -0.000228
# 3 0.001007 -0.001653 0.012964 -0.000117 -0.002535 -0.005495
# 4 0.000182 -0.000025 -0.000117 0.028642 -0.007579 -0.003471
# 5 -0.006571 -0.002520 -0.002535 -0.007579 0.035480 -0.000855
# 6 -0.001968 -0.000228 -0.005495 -0.003471 -0.000855 0.031713
#
#
# Mechanical properties :
#
#
# Convention : Reuss Voigt Hill
#
# Bulk Modulus (GPa) = 36.64763 51.71435 44.18099
# Shear Modulus (GPa) = 35.98237 42.55626 39.26931
#
# Velocity S-wave (km/s) = 4.00030 4.35040 4.17902
# Velocity P-wave (km/s) = 6.13472 6.94504 6.55242
#
# Compressibility (1/GPa) = 0.02728689
#
# Stress axis : x y z
#
# Youngs Moduli (GPa) = 97.26929 134.91359 77.13828
#
# Poissons Ratio (x) = 0.14008 -0.07767
# Poissons Ratio (y) = 0.10099 0.12755
# Poissons Ratio (z) = -0.09794 0.22308
#
# Static dielectric constant tensor:
#      x y z
#    x 4.108620 -0.109700 0.012590 
#    y -0.109700 3.968820 -0.031040 
#    z 0.012590 -0.031040 3.862910 
# 
# 
# High freq. dielectric constant tensor:
#      x y z
#    x 1.896100 -0.002520 0.009730 
#    y -0.002520 1.890620 0.007080 
#    z 0.009730 0.007080 1.889620 
# 
# From -- ./inp_files/547656.got.cif
#   From: 2010.06.25/outbox.cif.g09.slc.cpg/sg2_274_cif.got.tgz:547656.got - 2010.06.27 13:26:56.
