data_PCOD8023784
_publ_section_title
;
Structure prediction by ZEFSAII (Michael W. Deem and Ramdas Pophale) SiO2 
 PCOD8023784
Probable space group: P -1
;
_chemical_formula_sum "Si O2"
_cell_formula_units_Z 14
_cell_length_a 11.268051
_cell_length_b 9.337995
_cell_length_c 9.971250
_cell_angle_alpha 122.610913
_cell_angle_beta 100.616160
_cell_angle_gamma 50.084358
_cell_volume 656.309272
_symmetry_space_group_name_H-M "P -1"
_symmetry_group_IT_number 2
_symmetry_cell_setting 'triclinic'
loop_
_space_group_symop_operation_xyz
x,y,z
-x,-y,-z
loop_
_atom_site_type_symbol
_atom_site_label
_atom_site_fract_x
_atom_site_fract_y
_atom_site_fract_z
Si Si1 0.631184 0.433633 0.889254
Si Si2 0.780190 0.963748 0.135575
Si Si3 0.833054 0.534463 0.001107
Si Si4 0.034319 0.289567 0.182184
Si Si5 0.106859 0.596128 0.350360
Si Si6 0.017412 0.046161 0.286845
Si Si7 0.549017 0.586150 0.664557
O O1 0.566469 0.459994 0.740261
O O2 0.802320 0.182682 0.815788
O O3 0.500000 0.500000 0.000000
O O4 0.656343 0.614721 0.007365
O O5 0.841182 0.729954 0.096918
O O6 0.593870 0.147064 0.219437
O O7 0.799453 0.931211 0.960861
O O8 0.883022 0.024562 0.246349
O O9 0.918108 0.387378 0.077853
O O10 0.912507 0.380686 0.803265
O O11 0.054235 0.461401 0.330056
O O12 0.971391 0.223657 0.250630
O O13 0.290604 0.460317 0.362759
O O14 0.994572 0.844715 0.517930
O O15 0.500000 0.500000 0.500000
#
# Coordination Sequence:
#
# PCOD8023784 Si02
#       7
#     2   2   2   2   2   2   2
#     4  11  26  42  65  99 132 166 220 271 322 383
#     4  11  22  41  70  94 128 179 216 255 334 383
#     4  10  24  42  67  98 131 170 217 274 313 391
#     4  11  23  41  67 100 129 171 221 268 316 390
#     4  10  23  42  65  96 134 168 220 265 325 381
#     4  12  24  41  72  94 132 176 215 265 330 385
#     4  11  24  41  64  98 133 166 214 275 313 384
#
# _framework density 21.331405
#
# number of rings (size 3 to 8) (size 9 to 14) (size 15 to 20)
#    0.000    1.143    2.857    3.429    4.000   10.857 
#    0.000    0.000    0.000    3.429    0.000    0.000 
#    0.000    0.000    0.000    0.000    0.000    0.000 
#
# Total GULP energy -173490.816539 kJ/mol
# GULP energy per Si atom -12392.201181 kJ/mol
# Density = 2.128285 g / cm^3
# Si number density = 21.331405 Si / 1000 Ang^3
#
#
#
# Elastic Constant Matrix: (Units=GPa)
#
#
# Indices 1 2 3 4 5 6 
#
# 1 146.7520 46.2757 67.1048 -4.7185 9.7189 9.3358
# 2 46.2757 94.2062 47.1277 -14.3422 -0.1478 3.7443
# 3 67.1048 47.1277 113.2635 4.0162 15.8231 4.8654
# 4 -4.7185 -14.3422 4.0162 38.9402 -3.2456 -5.8896
# 5 9.7189 -0.1478 15.8231 -3.2456 37.6190 5.1418
# 6 9.3358 3.7443 4.8654 -5.8896 5.1418 41.0618
#
#
#
# Elastic Compliance Matrix: (Units=1/GPa)
#
#
# Indices 1 2 3 4 5 6 
#
# 1 0.009862 -0.002289 -0.004814 0.000622 -0.000296 -0.001337
# 2 -0.002289 0.015678 -0.005919 0.006452 0.003664 0.000259
# 3 -0.004814 -0.005919 0.015092 -0.004803 -0.005521 -0.000152
# 4 0.000622 0.006452 -0.004803 0.029497 0.003941 0.003577
# 5 -0.000296 0.003664 -0.005521 0.003941 0.029714 -0.002768
# 6 -0.001337 0.000259 -0.000152 0.003577 -0.002768 0.025512
#
#
# Mechanical properties :
#
#
# Convention : Reuss Voigt Hill
#
# Bulk Modulus (GPa) = 68.54742 75.02644 71.78693
# Shear Modulus (GPa) = 31.99784 36.43844 34.21814
#
# Velocity S-wave (km/s) = 3.87723 4.13753 4.00949
# Velocity P-wave (km/s) = 7.22829 7.62061 7.42704
#
# Compressibility (1/GPa) = 0.01458844
#
# Stress axis : x y z
#
# Youngs Moduli (GPa) = 101.40222 63.78257 66.26033
#
# Poissons Ratio (x) = 0.14599 0.31896
# Poissons Ratio (y) = 0.23209 0.39221
# Poissons Ratio (z) = 0.48812 0.37754
#
# Static dielectric constant tensor:
#      x y z
#    x 4.246350 0.003690 0.098020 
#    y 0.003690 3.907160 0.155120 
#    z 0.098020 0.155120 4.069660 
# 
# 
# High freq. dielectric constant tensor:
#      x y z
#    x 1.847770 0.003250 0.012320 
#    y 0.003250 1.828960 -0.003230 
#    z 0.012320 -0.003230 1.840240 
# 
# From -- ./inp_files/245537.got.cif
#   From: 2010.06.25/outbox.cif.g09.slc.cpg/sg2_123_cif.got.tgz:245537.got - 2010.06.27 13:26:56.
