data_PCOD8023195
_publ_section_title
;
Structure prediction by ZEFSAII (Michael W. Deem and Ramdas Pophale) SiO2 
 PCOD8023195
Probable space group: P -1
;
_chemical_formula_sum "Si O2"
_cell_formula_units_Z 16
_cell_length_a 28.371970
_cell_length_b 11.359058
_cell_length_c 16.845604
_cell_angle_alpha 146.934435
_cell_angle_beta 21.112635
_cell_angle_gamma 157.358663
_cell_volume 742.437418
_symmetry_space_group_name_H-M "P -1"
_symmetry_group_IT_number 2
_symmetry_cell_setting 'triclinic'
loop_
_space_group_symop_operation_xyz
x,y,z
-x,-y,-z
loop_
_atom_site_type_symbol
_atom_site_label
_atom_site_fract_x
_atom_site_fract_y
_atom_site_fract_z
Si Si1 0.355780 0.642391 0.399015
Si Si2 0.098835 0.710471 0.887998
Si Si3 0.273886 0.212963 0.420351
Si Si4 0.119507 0.716443 0.264396
Si Si5 0.220392 0.855828 0.018539
Si Si6 0.200547 0.315432 0.289956
Si Si7 0.957472 0.668733 0.705912
Si Si8 0.320722 0.387686 0.969066
O O1 0.273326 0.782707 0.618558
O O2 0.263736 0.393943 0.474362
O O3 0.318129 0.504529 0.292015
O O4 0.582369 0.918366 0.211200
O O5 0.927327 0.504507 0.978220
O O6 0.000000 0.500000 0.000000
O O7 0.172093 0.028348 0.977102
O O8 0.248060 0.961118 0.270566
O O9 0.471136 0.438926 0.284595
O O10 0.110715 0.031621 0.642017
O O11 0.257033 0.844005 0.046231
O O12 0.037913 0.388303 0.239401
O O13 0.958639 0.696349 0.481162
O O14 0.120702 0.975441 0.233393
O O15 0.327533 0.457357 0.091291
O O16 0.748607 0.494528 0.908749
O O17 0.000000 0.500000 0.500000
#
# Coordination Sequence:
#
# PCOD8023195 Si02
#       8
#     2   2   2   2   2   2   2   2
#     4  12  24  39  67  99 127 165 206 257 325 380
#     4  12  25  40  61  95 137 166 201 255 322 385
#     4  11  21  38  64  92 130 159 208 258 313 369
#     4  11  22  40  67  93 125 167 209 267 311 361
#     4  12  23  41  65  96 130 165 206 261 318 377
#     4  12  20  41  66  97 130 155 212 261 317 371
#     4  10  23  41  61  92 123 168 214 257 312 360
#     4  12  24  41  63  95 128 166 209 260 312 375
#
# _framework density 21.550637999999999
#
# number of rings (size 3 to 8) (size 9 to 14) (size 15 to 20)
#    0.000    0.500    7.500    3.000    0.000    5.000 
#    2.250    0.625    0.000    1.500    0.000    0.000 
#    0.000    0.000    0.000    0.000    0.000    0.000 
#
# Total GULP energy -198239.198246 kJ/mol
# GULP energy per Si atom -12389.949890 kJ/mol
# Density = 2.150159 g / cm^3
# Si number density = 21.550638 Si / 1000 Ang^3
#
#
#
# Elastic Constant Matrix: (Units=GPa)
#
#
# Indices 1 2 3 4 5 6 
#
# 1 93.0278 31.6130 31.8350 -12.4675 -5.5789 -21.9752
# 2 31.6130 64.8366 25.0264 -14.3588 -10.3483 -1.7669
# 3 31.8350 25.0264 67.8144 -7.3806 -8.4050 -1.2975
# 4 -12.4675 -14.3588 -7.3806 27.4243 1.3210 6.6739
# 5 -5.5789 -10.3483 -8.4050 1.3210 34.1386 -10.9989
# 6 -21.9752 -1.7669 -1.2975 6.6739 -10.9989 35.7359
#
#
#
# Elastic Compliance Matrix: (Units=1/GPa)
#
#
# Indices 1 2 3 4 5 6 
#
# 1 0.017372 -0.005343 -0.005463 0.000755 0.003433 0.011136
# 2 -0.005343 0.022059 -0.004330 0.008483 0.003498 -0.002860
# 3 -0.005463 -0.004330 0.019169 0.000947 0.001658 -0.002544
# 4 0.000755 0.008483 0.000947 0.043398 -0.001184 -0.007552
# 5 0.003433 0.003498 0.001658 -0.001184 0.035738 0.013565
# 6 0.011136 -0.002860 -0.002544 -0.007552 0.013565 0.040183
#
#
# Mechanical properties :
#
#
# Convention : Reuss Voigt Hill
#
# Bulk Modulus (GPa) = 35.30189 44.73639 40.01914
# Shear Modulus (GPa) = 22.97443 28.60672 25.79058
#
# Velocity S-wave (km/s) = 3.26861 3.64733 3.46315
# Velocity P-wave (km/s) = 5.53729 6.20815 5.88229
#
# Compressibility (1/GPa) = 0.02832709
#
# Stress axis : x y z
#
# Youngs Moduli (GPa) = 57.56337 45.33296 52.16890
#
# Poissons Ratio (x) = 0.24223 0.28498
# Poissons Ratio (y) = 0.30758 0.22591
# Poissons Ratio (z) = 0.31445 0.19631
#
# Static dielectric constant tensor:
#      x y z
#    x 6.618370 -1.066540 0.325110 
#    y -1.066540 4.218430 -0.243990 
#    z 0.325110 -0.243990 3.928660 
# 
# 
# High freq. dielectric constant tensor:
#      x y z
#    x 1.843220 -0.005000 -0.003350 
#    y -0.005000 1.826570 -0.013620 
#    z -0.003350 -0.013620 1.843620 
# 
# From -- ./inp_files/580120.got.cif
#   From: 2010.06.25/outbox.cif.g09.slc.cpg/sg2_291_cif.got.tgz:580120.got - 2010.06.27 13:26:56.
