data_PCOD8023425
_publ_section_title
;
Structure prediction by ZEFSAII (Michael W. Deem and Ramdas Pophale) SiO2 
 PCOD8023425
Probable space group: P -1
;
_chemical_formula_sum "Si O2"
_cell_formula_units_Z 16
_cell_length_a 24.751958
_cell_length_b 19.577225
_cell_length_c 8.872975
_cell_angle_alpha 141.472565
_cell_angle_beta 149.379076
_cell_angle_gamma 18.796233
_cell_volume 691.789829
_symmetry_space_group_name_H-M "P -1"
_symmetry_group_IT_number 2
_symmetry_cell_setting 'triclinic'
loop_
_space_group_symop_operation_xyz
x,y,z
-x,-y,-z
loop_
_atom_site_type_symbol
_atom_site_label
_atom_site_fract_x
_atom_site_fract_y
_atom_site_fract_z
Si Si1 0.283867 0.997915 0.282369
Si Si2 0.243566 0.410704 0.289204
Si Si3 0.921101 0.814470 0.416813
Si Si4 0.332671 0.782600 0.668440
Si Si5 0.889261 0.292932 0.722329
Si Si6 0.276227 0.163243 0.802231
Si Si7 0.780276 0.355545 0.911242
Si Si8 0.316083 0.733129 0.887328
O O1 0.516840 0.822822 0.482310
O O2 0.182495 0.178326 0.462965
O O3 0.271499 0.885083 0.135521
O O4 0.125827 0.130003 0.987947
O O5 0.270694 0.487447 0.371023
O O6 0.086980 0.581317 0.340519
O O7 0.155838 0.381800 0.939337
O O8 0.732101 0.911253 0.202686
O O9 0.830411 0.975630 0.349599
O O10 0.041224 0.772685 0.763029
O O11 0.561662 0.611265 0.862173
O O12 0.249608 0.748164 0.326835
O O13 0.369374 0.729208 0.841761
O O14 0.839296 0.340269 0.859606
O O15 0.881248 0.175287 0.434317
O O16 0.500000 0.000000 0.000000
O O17 0.500000 0.500000 0.000000
#
# Coordination Sequence:
#
# PCOD8023425 Si02
#       8
#     2   2   2   2   2   2   2   2
#     4  11  22  43  65 101 137 181 236 277 347 413
#     4  11  25  43  70  99 143 179 240 293 344 404
#     4  12  23  46  71 101 140 187 228 296 349 408
#     4  10  24  41  67 104 147 182 230 280 356 422
#     4  11  23  41  68 105 138 188 229 284 351 423
#     4  10  25  45  72 101 134 189 242 292 344 407
#     4  10  23  41  67 105 145 182 231 280 348 427
#     4  11  22  41  68 104 144 182 224 288 351 423
#
# _framework density 23.128412000000001
#
# number of rings (size 3 to 8) (size 9 to 14) (size 15 to 20)
#    0.000    1.250    2.500    2.625    3.500    2.500 
#    0.000    0.000    0.000    5.250    0.000    0.000 
#    0.000    0.000    0.000    0.000    0.000    0.000 
#
# Total GULP energy -198217.317533 kJ/mol
# GULP energy per Si atom -12388.582346 kJ/mol
# Density = 2.307577 g / cm^3
# Si number density = 23.128412 Si / 1000 Ang^3
#
#
#
# Elastic Constant Matrix: (Units=GPa)
#
#
# Indices 1 2 3 4 5 6 
#
# 1 105.8290 22.5356 41.4835 -6.6106 3.4476 -0.6744
# 2 22.5356 72.0640 35.8404 9.8017 6.0659 -11.6053
# 3 41.4835 35.8404 121.2461 16.1128 12.7433 -7.5000
# 4 -6.6106 9.8017 16.1128 44.2979 2.8010 4.4841
# 5 3.4476 6.0659 12.7433 2.8010 29.5112 0.7991
# 6 -0.6744 -11.6053 -7.5000 4.4841 0.7991 23.8229
#
#
#
# Elastic Compliance Matrix: (Units=1/GPa)
#
#
# Indices 1 2 3 4 5 6 
#
# 1 0.011845 -0.002815 -0.004027 0.004130 0.000626 -0.003102
# 2 -0.002815 0.018484 -0.003211 -0.004106 -0.001931 0.008752
# 3 -0.004027 -0.003211 0.011693 -0.004211 -0.003598 0.002916
# 4 0.004130 -0.004106 -0.004211 0.026467 -0.000110 -0.008187
# 5 0.000626 -0.001931 -0.003598 -0.000110 0.035861 -0.003238
# 6 -0.003102 0.008752 0.002916 -0.008187 -0.003238 0.048720
#
#
# Mechanical properties :
#
#
# Convention : Reuss Voigt Hill
#
# Bulk Modulus (GPa) = 45.62871 55.42869 50.52870
# Shear Modulus (GPa) = 27.70372 32.81170 30.25771
#
# Velocity S-wave (km/s) = 3.46471 3.77062 3.62090
# Velocity P-wave (km/s) = 5.98138 6.55549 6.27500
#
# Compressibility (1/GPa) = 0.02191603
#
# Stress axis : x y z
#
# Youngs Moduli (GPa) = 84.42338 54.10022 85.52277
#
# Poissons Ratio (x) = 0.15231 0.34440
# Poissons Ratio (y) = 0.23768 0.27459
# Poissons Ratio (z) = 0.33997 0.17370
#
# Static dielectric constant tensor:
#      x y z
#    x 4.003460 -0.075430 0.174340 
#    y -0.075430 4.499060 0.427180 
#    z 0.174340 0.427180 4.808190 
# 
# 
# High freq. dielectric constant tensor:
#      x y z
#    x 1.896900 -0.014850 0.006640 
#    y -0.014850 1.913260 0.012660 
#    z 0.006640 0.012660 1.930760 
# 
# From -- ./inp_files/357752.got.cif
#   From: 2010.06.25/outbox.cif.g09.slc.cpg/sg2_179_cif.got.tgz:357752.got - 2010.06.27 13:26:56.
