data_PCOD8023265
_publ_section_title
;
Structure prediction by ZEFSAII (Michael W. Deem and Ramdas Pophale) SiO2 
 PCOD8023265
Probable space group: P -1
;
_chemical_formula_sum "Si O2"
_cell_formula_units_Z 12
_cell_length_a 10.584996
_cell_length_b 4.881685
_cell_length_c 18.064029
_cell_angle_alpha 65.434295
_cell_angle_beta 141.115079
_cell_angle_gamma 93.184909
_cell_volume 470.533799
_symmetry_space_group_name_H-M "P -1"
_symmetry_group_IT_number 2
_symmetry_cell_setting 'triclinic'
loop_
_space_group_symop_operation_xyz
x,y,z
-x,-y,-z
loop_
_atom_site_type_symbol
_atom_site_label
_atom_site_fract_x
_atom_site_fract_y
_atom_site_fract_z
Si Si1 0.959244 0.109689 0.153550
Si Si2 0.211081 0.850460 0.668406
Si Si3 0.333044 0.711752 0.463323
Si Si4 0.263152 0.638567 0.218486
Si Si5 0.691056 0.712904 0.863599
Si Si6 0.112093 0.271525 0.718028
O O1 0.799722 0.999840 0.142861
O O2 0.815087 0.492844 0.017292
O O3 0.164978 0.083882 0.306629
O O4 0.067910 0.828465 0.169026
O O5 0.442658 0.735317 0.741418
O O6 0.201070 0.543468 0.742916
O O7 0.202876 0.114432 0.696606
O O8 0.000000 0.000000 0.500000
O O9 0.500000 0.500000 0.500000
O O10 0.501103 0.687852 0.609111
O O11 0.166860 0.553689 0.430606
O O12 0.172827 0.485201 0.127751
O O13 0.323821 0.919240 0.178426
#
# Coordination Sequence:
#
# PCOD8023265 Si02
#       6
#     2   2   2   2   2   2
#     4   9  23  43  64  99 125 166 209 269 317 368
#     4  12  24  41  63  91 128 168 210 255 309 381
#     4   8  18  42  62  93 120 162 204 258 311 370
#     4  11  22  43  66  94 128 166 212 261 314 378
#     4  12  25  40  66  94 130 170 210 258 317 371
#     4  10  23  41  64  90 126 161 213 255 311 371
#
# _framework density 25.502949999999998
#
# number of rings (size 3 to 8) (size 9 to 14) (size 15 to 20)
#    1.000    0.667    0.000    4.500    0.000    4.000 
#    0.000    3.333    0.000    0.000    0.000    0.000 
#    0.000    0.000    0.000    0.000    0.000    0.000 
#
# Total GULP energy -148673.595882 kJ/mol
# GULP energy per Si atom -12389.466324 kJ/mol
# Density = 2.544490 g / cm^3
# Si number density = 25.502950 Si / 1000 Ang^3
#
#
#
# Elastic Constant Matrix: (Units=GPa)
#
#
# Indices 1 2 3 4 5 6 
#
# 1 82.4564 7.2856 -0.4182 -0.2527 -1.5931 -15.0527
# 2 7.2856 74.5220 19.6709 -3.1254 -12.0824 5.2896
# 3 -0.4182 19.6709 149.5508 8.4433 -36.9796 -11.6767
# 4 -0.2527 -3.1254 8.4433 7.5579 -17.2426 9.0866
# 5 -1.5931 -12.0824 -36.9796 -17.2426 34.6375 9.2043
# 6 -15.0527 5.2896 -11.6767 9.0866 9.2043 23.3275
#
#
#
# Elastic Compliance Matrix: (Units=1/GPa)
#
#
# Indices 1 2 3 4 5 6 
#
# 1 0.012760 -0.000301 0.001235 0.010273 0.006265 0.002447
# 2 -0.000301 0.011775 -0.002074 -0.015798 -0.007354 0.005154
# 3 0.001235 -0.002074 0.008979 -0.003768 0.005723 0.004971
# 4 0.010273 -0.015798 -0.003768 -0.064887 -0.056181 0.055767
# 5 0.006265 -0.007354 0.005723 -0.056181 -0.003751 0.031938
# 6 0.002447 0.005154 0.004971 0.055767 0.031938 0.011442
#
#
# Mechanical properties :
#
#
# Convention : Reuss Voigt Hill
#
# Bulk Modulus (GPa) = 32.01525 39.95620 35.98572
# Shear Modulus (GPa) = -454.86760 31.77064 -211.54848
#
# Velocity S-wave (km/s) = -13.36959 3.53337 -9.11760
# Velocity P-wave (km/s) = 15.02489 5.68749 9.83361
#
# Compressibility (1/GPa) = 0.03123512
#
# Stress axis : x y z
#
# Youngs Moduli (GPa) = 78.37231 84.92623 111.37237
#
# Poissons Ratio (x) = 0.02553 -0.13758
# Poissons Ratio (y) = 0.02356 0.23097
# Poissons Ratio (z) = -0.09682 0.17612
#
# Static dielectric constant tensor:
#      x y z
#    x 4.342490 -0.183180 0.042380 
#    y -0.183180 4.061470 0.341970 
#    z 0.042380 0.341970 5.215870 
# 
# 
# High freq. dielectric constant tensor:
#      x y z
#    x 2.037830 -0.001510 -0.010770 
#    y -0.001510 1.989160 0.010120 
#    z -0.010770 0.010120 2.017120 
# 
# From -- ./inp_files/95760.got.cif
#   From: 2010.06.25/outbox.cif.g09.slc.cpg/sg2_48_cif.got.tgz:95760.got - 2010.06.27 13:26:56.
