data_PCOD8023271
_publ_section_title
;
Structure prediction by ZEFSAII (Michael W. Deem and Ramdas Pophale) SiO2 
 PCOD8023271
Probable space group: P -1
;
_chemical_formula_sum "Si O2"
_cell_formula_units_Z 16
_cell_length_a 11.453854
_cell_length_b 11.068354
_cell_length_c 12.010403
_cell_angle_alpha 34.241483
_cell_angle_beta 74.178693
_cell_angle_gamma 62.460600
_cell_volume 741.126837
_symmetry_space_group_name_H-M "P -1"
_symmetry_group_IT_number 2
_symmetry_cell_setting 'triclinic'
loop_
_space_group_symop_operation_xyz
x,y,z
-x,-y,-z
loop_
_atom_site_type_symbol
_atom_site_label
_atom_site_fract_x
_atom_site_fract_y
_atom_site_fract_z
Si Si1 0.190112 0.818079 0.320894
Si Si2 0.659122 0.729175 0.277151
Si Si3 0.227662 0.290234 0.508011
Si Si4 0.345541 0.504946 0.924058
Si Si5 0.861379 0.220920 0.874901
Si Si6 0.359379 0.069763 0.106708
Si Si7 0.547291 0.720205 0.695272
Si Si8 0.868641 0.085947 0.217878
O O1 0.269107 0.553288 0.553461
O O2 0.226125 0.793413 0.197712
O O3 0.245594 0.988653 0.237246
O O4 0.029444 0.939598 0.293132
O O5 0.734288 0.789667 0.313715
O O6 0.500974 0.838699 0.266942
O O7 0.669959 0.872173 0.059484
O O8 0.102805 0.553059 0.329488
O O9 0.337798 0.364746 0.364228
O O10 0.197472 0.094933 0.600762
O O11 0.433920 0.634541 0.753439
O O12 0.191407 0.707992 0.829562
O O13 0.345672 0.307236 0.990408
O O14 0.404759 0.376279 0.121544
O O15 0.805391 0.213860 0.018558
O O16 0.000000 0.000000 0.000000
O O17 0.500000 0.000000 0.500000
#
# Coordination Sequence:
#
# PCOD8023271 Si02
#       8
#     2   2   2   2   2   2   2   2
#     4  10  23  41  64  92 127 170 212 253 309 375
#     4  10  24  42  65  93 121 168 217 259 311 365
#     4  11  21  38  68  95 122 158 205 269 316 362
#     4  11  25  40  63  95 126 167 209 252 318 381
#     4   9  20  37  62  92 124 160 204 258 310 364
#     4  11  24  43  64  89 131 169 209 261 303 371
#     4  11  22  40  62  93 124 158 207 262 314 362
#     4  11  22  40  63  97 130 162 207 255 321 382
#
# _framework density 21.588747000000001
#
# number of rings (size 3 to 8) (size 9 to 14) (size 15 to 20)
#    0.000    1.500    2.500    1.875    1.750   13.000 
#    0.000    0.625    0.000    0.000    0.000    0.000 
#    0.000    0.000    0.000    0.000    0.000    0.000 
#
# Total GULP energy -198238.070550 kJ/mol
# GULP energy per Si atom -12389.879409 kJ/mol
# Density = 2.153961 g / cm^3
# Si number density = 21.588747 Si / 1000 Ang^3
#
#
#
# Elastic Constant Matrix: (Units=GPa)
#
#
# Indices 1 2 3 4 5 6 
#
# 1 100.4488 48.5035 49.9576 -21.5345 -19.7058 -7.8664
# 2 48.5035 90.6742 34.2759 -20.4744 -7.1178 -8.9430
# 3 49.9576 34.2759 100.2404 -29.2634 2.7601 -6.5914
# 4 -21.5345 -20.4744 -29.2634 38.4147 1.4731 -2.6253
# 5 -19.7058 -7.1178 2.7601 1.4731 35.4519 -7.6901
# 6 -7.8664 -8.9430 -6.5914 -2.6253 -7.6901 26.9705
#
#
#
# Elastic Compliance Matrix: (Units=1/GPa)
#
#
# Indices 1 2 3 4 5 6 
#
# 1 0.019312 -0.005752 -0.006889 0.002457 0.011201 0.005475
# 2 -0.005752 0.016024 -0.000951 0.004841 0.000781 0.004097
# 3 -0.006889 -0.000951 0.016398 0.008396 -0.005440 0.000949
# 4 0.002457 0.004841 0.008396 0.036892 0.002003 0.008536
# 5 0.011201 0.000781 -0.005440 0.002003 0.037787 0.013166
# 6 0.005475 0.004097 0.000949 0.008536 0.013166 0.044850
#
#
# Mechanical properties :
#
#
# Convention : Reuss Voigt Hill
#
# Bulk Modulus (GPa) = 40.73506 61.87081 51.30293
# Shear Modulus (GPa) = 24.19792 30.74249 27.47021
#
# Velocity S-wave (km/s) = 3.35155 3.77769 3.57099
# Velocity P-wave (km/s) = 5.82124 6.91006 6.38889
#
# Compressibility (1/GPa) = 0.02454888
#
# Stress axis : x y z
#
# Youngs Moduli (GPa) = 51.78117 62.40797 60.98355
#
# Poissons Ratio (x) = 0.35899 0.42011
# Poissons Ratio (y) = 0.29786 0.05800
# Poissons Ratio (z) = 0.35672 0.05935
#
# Static dielectric constant tensor:
#      x y z
#    x 4.372450 0.847050 1.377390 
#    y 0.847050 6.002740 2.280350 
#    z 1.377390 2.280350 7.093860 
# 
# 
# High freq. dielectric constant tensor:
#      x y z
#    x 1.822800 -0.007060 -0.000170 
#    y -0.007060 1.848800 -0.020710 
#    z -0.000170 -0.020710 1.869590 
# 
# From -- ./inp_files/84511.got.cif
#   From: 2010.06.25/outbox.cif.g09.slc.cpg/sg2_43_cif.got.tgz:84511.got - 2010.06.27 13:26:56.
