data_PCOD8023858
_publ_section_title
;
Structure prediction by ZEFSAII (Michael W. Deem and Ramdas Pophale) SiO2 
 PCOD8023858
Probable space group: P -1
;
_chemical_formula_sum "Si O2"
_cell_formula_units_Z 16
_cell_length_a 13.866337
_cell_length_b 9.326318
_cell_length_c 10.738054
_cell_angle_alpha 112.902068
_cell_angle_beta 148.001804
_cell_angle_gamma 71.428476
_cell_volume 677.648300
_symmetry_space_group_name_H-M "P -1"
_symmetry_group_IT_number 2
_symmetry_cell_setting 'triclinic'
loop_
_space_group_symop_operation_xyz
x,y,z
-x,-y,-z
loop_
_atom_site_type_symbol
_atom_site_label
_atom_site_fract_x
_atom_site_fract_y
_atom_site_fract_z
Si Si1 0.082202 0.119899 0.293814
Si Si2 0.607276 0.827978 0.920922
Si Si3 0.569785 0.864986 0.181692
Si Si4 0.489352 0.499468 0.249602
Si Si5 0.973119 0.808183 0.186011
Si Si6 0.169981 0.321977 0.252158
Si Si7 0.772080 0.312524 0.136062
Si Si8 0.161993 0.592352 0.503856
O O1 0.896055 0.196646 0.157277
O O2 0.260813 0.201569 0.579299
O O3 0.124128 0.149661 0.202181
O O4 0.079788 0.940537 0.269441
O O5 0.566313 0.647944 0.772690
O O6 0.455361 0.950050 0.754760
O O7 0.625226 0.836270 0.091417
O O8 0.798370 0.879794 0.085356
O O9 0.385948 0.780016 0.995515
O O10 0.612327 0.631536 0.502263
O O11 0.618560 0.421404 0.260670
O O12 0.310411 0.566437 0.011851
O O13 0.105638 0.743770 0.415192
O O14 0.913695 0.673423 0.975990
O O15 0.072646 0.441671 0.283242
O O16 0.893214 0.397242 0.407529
#
# Coordination Sequence:
#
# PCOD8023858 Si02
#       8
#     2   2   2   2   2   2   2   2
#     4  12  26  42  72 100 132 185 217 281 334 391
#     4  11  24  39  70  99 137 176 215 286 334 399
#     4  11  22  45  66 103 139 166 224 281 345 388
#     4  10  23  42  66  99 133 178 217 278 340 383
#     4  12  25  45  66 100 136 181 233 259 330 411
#     4  10  25  46  65  95 138 184 221 274 325 394
#     4  12  23  44  70 105 136 166 230 275 343 402
#     4  10  23  43  69  97 131 177 213 284 336 384
#
# _framework density 23.611070000000002
#
# number of rings (size 3 to 8) (size 9 to 14) (size 15 to 20)
#    0.750    0.250    3.750    2.625    5.250    2.000 
#    0.000    3.750    0.000    0.000    0.000    0.000 
#    0.000    0.000    0.000    0.000    0.000    0.000 
#
# Total GULP energy -198237.298852 kJ/mol
# GULP energy per Si atom -12389.831178 kJ/mol
# Density = 2.355733 g / cm^3
# Si number density = 23.611070 Si / 1000 Ang^3
#
#
#
# Elastic Constant Matrix: (Units=GPa)
#
#
# Indices 1 2 3 4 5 6 
#
# 1 50.4005 7.9478 26.7366 9.3032 7.6950 4.7979
# 2 7.9478 91.9367 21.4305 -4.2734 8.5608 10.1504
# 3 26.7366 21.4305 83.4213 -17.2587 -3.7684 -11.1260
# 4 9.3032 -4.2734 -17.2587 25.0769 -1.7942 3.9206
# 5 7.6950 8.5608 -3.7684 -1.7942 24.1141 3.0241
# 6 4.7979 10.1504 -11.1260 3.9206 3.0241 30.5055
#
#
#
# Elastic Compliance Matrix: (Units=1/GPa)
#
#
# Indices 1 2 3 4 5 6 
#
# 1 0.039895 0.003007 -0.021662 -0.028984 -0.018130 -0.009653
# 2 0.003007 0.013110 -0.005915 -0.002426 -0.005955 -0.006090
# 3 -0.021662 -0.005915 0.027791 0.025450 0.013887 0.010864
# 4 -0.028984 -0.002426 0.025450 0.068443 0.018679 0.004000
# 5 -0.018130 -0.005955 0.013887 0.018679 0.052643 0.002278
# 6 -0.009653 -0.006090 0.010864 0.004000 0.002278 0.039548
#
#
# Mechanical properties :
#
#
# Convention : Reuss Voigt Hill
#
# Bulk Modulus (GPa) = 31.58870 37.55424 34.57147
# Shear Modulus (GPa) = 16.60458 27.24888 21.92673
#
# Velocity S-wave (km/s) = 2.65477 3.40085 3.05070
# Velocity P-wave (km/s) = 4.77545 5.60008 5.20412
#
# Compressibility (1/GPa) = 0.03165689
#
# Stress axis : x y z
#
# Youngs Moduli (GPa) = 25.06573 76.27770 35.98298
#
# Poissons Ratio (x) = -0.22939 0.77946
# Poissons Ratio (y) = -0.07538 0.21284
# Poissons Ratio (z) = 0.54297 0.45118
#
# Static dielectric constant tensor:
#      x y z
#    x 3.981460 0.220430 0.081080 
#    y 0.220430 4.333600 0.023330 
#    z 0.081080 0.023330 4.078420 
# 
# 
# High freq. dielectric constant tensor:
#      x y z
#    x 1.922790 0.017820 0.009490 
#    y 0.017820 1.939030 -0.001050 
#    z 0.009490 -0.001050 1.926420 
# 
# From -- ./inp_files/447952.got.cif
#   From: 2010.06.25/outbox.cif.g09.slc.cpg/sg2_224_cif.got.tgz:447952.got - 2010.06.27 13:26:56.
