data_PCOD8023055
_publ_section_title
;
Structure prediction by ZEFSAII (Michael W. Deem and Ramdas Pophale) SiO2 
 PCOD8023055
Probable space group: P -1
;
_chemical_formula_sum "Si O2"
_cell_formula_units_Z 14
_cell_length_a 12.307662
_cell_length_b 10.620647
_cell_length_c 12.268483
_cell_angle_alpha 106.289377
_cell_angle_beta 109.528340
_cell_angle_gamma 24.607900
_cell_volume 628.246284
_symmetry_space_group_name_H-M "P -1"
_symmetry_group_IT_number 2
_symmetry_cell_setting 'triclinic'
loop_
_space_group_symop_operation_xyz
x,y,z
-x,-y,-z
loop_
_atom_site_type_symbol
_atom_site_label
_atom_site_fract_x
_atom_site_fract_y
_atom_site_fract_z
Si Si1 0.585530 0.352051 0.833975
Si Si2 0.983986 0.650838 0.464642
Si Si3 0.425868 0.171358 0.315831
Si Si4 0.412409 0.789756 0.976935
Si Si5 0.989893 0.617098 0.119559
Si Si6 0.963103 0.221810 0.289448
Si Si7 0.277895 0.324138 0.822902
O O1 0.576726 0.515906 0.895509
O O2 0.296210 0.601578 0.761887
O O3 0.682558 0.175940 0.932240
O O4 0.786913 0.122607 0.746407
O O5 0.000000 0.500000 0.500000
O O6 0.237335 0.386433 0.407141
O O7 0.005485 0.756864 0.573222
O O8 0.705444 0.956771 0.381928
O O9 0.276191 0.372709 0.202891
O O10 0.496536 0.944681 0.257936
O O11 0.157933 0.100265 0.900123
O O12 0.601362 0.721688 0.045077
O O13 0.843257 0.691851 0.187453
O O14 0.000000 0.500000 0.000000
O O15 0.947775 0.358983 0.233792
#
# Coordination Sequence:
#
# PCOD8023055 Si02
#       7
#     2   2   2   2   2   2   2
#     4  10  24  44  62  98 120 173 212 260 303 378
#     4  12  24  38  66  92 127 168 206 266 324 361
#     4  12  24  39  57 100 130 159 207 249 330 385
#     4  10  23  40  66  91 133 168 209 254 317 380
#     4  12  23  38  64  96 135 171 200 259 325 378
#     4  11  23  41  67  88 131 158 218 264 311 367
#     4  11  23  38  63  99 132 162 207 261 321 386
#
# _framework density 22.284254000000001
#
# number of rings (size 3 to 8) (size 9 to 14) (size 15 to 20)
#    0.000    0.857    4.286    2.571    6.000    6.286 
#    0.000    0.000    0.000    5.143    0.000    0.000 
#    0.000    0.000    0.000    0.000    0.000    0.000 
#
# Total GULP energy -173555.545224 kJ/mol
# GULP energy per Si atom -12396.824659 kJ/mol
# Density = 2.223353 g / cm^3
# Si number density = 22.284254 Si / 1000 Ang^3
#
#
#
# Elastic Constant Matrix: (Units=GPa)
#
#
# Indices 1 2 3 4 5 6 
#
# 1 47.4625 43.6537 31.0536 3.5630 17.7339 -8.6619
# 2 43.6537 134.1425 65.2026 16.7714 12.1970 -16.3163
# 3 31.0536 65.2026 153.3213 21.8948 23.4888 -11.1973
# 4 3.5630 16.7714 21.8948 58.6214 -3.1282 -1.7484
# 5 17.7339 12.1970 23.4888 -3.1282 25.4595 3.1150
# 6 -8.6619 -16.3163 -11.1973 -1.7484 3.1150 32.9084
#
#
#
# Elastic Compliance Matrix: (Units=1/GPa)
#
#
# Indices 1 2 3 4 5 6 
#
# 1 0.041234 -0.010296 0.000685 -0.000931 -0.025558 0.008352
# 2 -0.010296 0.012558 -0.003540 -0.001375 0.004025 0.001858
# 3 0.000685 -0.003540 0.009805 -0.003073 -0.008499 0.002403
# 4 -0.000931 -0.001375 -0.003073 0.018964 0.006668 -0.001596
# 5 -0.025558 0.004025 -0.008499 0.006668 0.065461 -0.013466
# 6 0.008352 0.001858 0.002403 -0.001596 -0.013466 0.035514
#
#
# Mechanical properties :
#
#
# Convention : Reuss Voigt Hill
#
# Bulk Modulus (GPa) = 26.81211 68.30512 47.55861
# Shear Modulus (GPa) = 22.49536 36.39896 29.44716
#
# Velocity S-wave (km/s) = 3.18067 4.04591 3.63910
# Velocity P-wave (km/s) = 5.05439 7.24873 6.24864
#
# Compressibility (1/GPa) = 0.03729658
#
# Stress axis : x y z
#
# Youngs Moduli (GPa) = 24.25197 79.63265 101.98653
#
# Poissons Ratio (x) = 0.81986 -0.06989
# Poissons Ratio (y) = 0.24969 0.36100
# Poissons Ratio (z) = -0.01662 0.28188
#
# Static dielectric constant tensor:
#      x y z
#    x 3.961480 0.118900 -0.081470 
#    y 0.118900 4.363270 -0.078770 
#    z -0.081470 -0.078770 4.459350 
# 
# 
# High freq. dielectric constant tensor:
#      x y z
#    x 1.832130 -0.015880 0.011390 
#    y -0.015880 1.889490 0.008020 
#    z 0.011390 0.008020 1.896220 
# 
# From -- ./inp_files/452585.got.cif
#   From: 2010.06.25/outbox.cif.g09.slc.cpg/sg2_227_cif.got.tgz:452585.got - 2010.06.27 13:26:56.
