data_PCOD8023577
_publ_section_title
;
Structure prediction by ZEFSAII (Michael W. Deem and Ramdas Pophale) SiO2 
 PCOD8023577
Probable space group: P -1
;
_chemical_formula_sum "Si O2"
_cell_formula_units_Z 14
_cell_length_a 13.038907
_cell_length_b 13.594831
_cell_length_c 15.841640
_cell_angle_alpha 36.374704
_cell_angle_beta 154.442024
_cell_angle_gamma 126.007317
_cell_volume 604.156697
_symmetry_space_group_name_H-M "P -1"
_symmetry_group_IT_number 2
_symmetry_cell_setting 'triclinic'
loop_
_space_group_symop_operation_xyz
x,y,z
-x,-y,-z
loop_
_atom_site_type_symbol
_atom_site_label
_atom_site_fract_x
_atom_site_fract_y
_atom_site_fract_z
Si Si1 0.353358 0.771924 0.079467
Si Si2 0.959499 0.163404 0.614428
Si Si3 0.813845 0.008137 0.932178
Si Si4 0.441397 0.124274 0.285661
Si Si5 0.403107 0.399841 0.415741
Si Si6 0.910750 0.377873 0.125820
Si Si7 0.005482 0.565856 0.669474
O O1 0.392506 0.602073 0.293990
O O2 0.663725 0.693397 0.327756
O O3 0.140806 0.789158 0.834419
O O4 0.214920 0.980712 0.877665
O O5 0.680684 0.160181 0.411993
O O6 0.897391 0.363138 0.387757
O O7 0.034115 0.166788 0.765604
O O8 0.716494 0.206915 0.775521
O O9 0.559369 0.001220 0.706870
O O10 0.000000 0.000000 0.000000
O O11 0.500000 0.000000 0.500000
O O12 0.136927 0.332005 0.921971
O O13 0.226203 0.338685 0.384197
O O14 0.287404 0.429180 0.212008
O O15 0.847393 0.403546 0.160493
#
# Coordination Sequence:
#
# PCOD8023577 Si02
#       7
#     2   2   2   2   2   2   2
#     4  10  23  41  70  99 133 176 218 269 341 389
#     4  12  28  44  66 102 139 174 222 273 340 399
#     4  12  24  42  67  97 132 170 229 278 319 396
#     4  12  27  45  72  95 131 183 227 270 333 389
#     4   9  20  41  64 101 130 168 220 286 317 382
#     4   9  21  39  69  94 136 165 221 274 330 384
#     4  12  26  44  67 102 138 176 219 276 334 402
#
# _framework density 23.172795000000001
#
# number of rings (size 3 to 8) (size 9 to 14) (size 15 to 20)
#    0.857    0.286    1.429    4.286    2.000    3.429 
#    0.000    0.000    0.000    0.000    0.000    0.000 
#    0.000    0.000    0.000    0.000    0.000    0.000 
#
# Total GULP energy -173490.618561 kJ/mol
# GULP energy per Si atom -12392.187040 kJ/mol
# Density = 2.312005 g / cm^3
# Si number density = 23.172795 Si / 1000 Ang^3
#
#
#
# Elastic Constant Matrix: (Units=GPa)
#
#
# Indices 1 2 3 4 5 6 
#
# 1 116.9357 29.0127 33.4326 -5.5310 -21.8691 20.8603
# 2 29.0127 90.2466 23.1591 -0.0867 -8.1099 8.1421
# 3 33.4326 23.1591 67.2086 -15.3152 3.7345 15.3683
# 4 -5.5310 -0.0867 -15.3152 35.8606 2.2596 7.0805
# 5 -21.8691 -8.1099 3.7345 2.2596 47.5844 2.9238
# 6 20.8603 8.1421 15.3683 7.0805 2.9238 38.1961
#
#
#
# Elastic Compliance Matrix: (Units=1/GPa)
#
#
# Indices 1 2 3 4 5 6 
#
# 1 0.012368 -0.001802 -0.004567 0.000581 0.006021 -0.005102
# 2 -0.001802 0.012874 -0.004179 -0.002182 0.001786 0.000189
# 3 -0.004567 -0.004179 0.023071 0.010927 -0.004676 -0.007565
# 4 0.000581 -0.002182 0.010927 0.034845 -0.001969 -0.010557
# 5 0.006021 0.001786 -0.004676 -0.001969 0.024751 -0.003318
# 6 -0.005102 0.000189 -0.007565 -0.010557 -0.003318 0.034181
#
#
# Mechanical properties :
#
#
# Convention : Reuss Voigt Hill
#
# Bulk Modulus (GPa) = 36.74393 49.51107 43.12750
# Shear Modulus (GPa) = 29.02592 36.91399 32.96995
#
# Velocity S-wave (km/s) = 3.54303 3.99556 3.77608
# Velocity P-wave (km/s) = 5.71212 6.53440 6.13705
#
# Compressibility (1/GPa) = 0.02721538
#
# Stress axis : x y z
#
# Youngs Moduli (GPa) = 80.85167 77.67636 43.34499
#
# Poissons Ratio (x) = 0.13999 0.19797
# Poissons Ratio (y) = 0.14571 0.18115
# Poissons Ratio (z) = 0.36927 0.32463
#
# Static dielectric constant tensor:
#      x y z
#    x 3.906310 -0.164290 -0.369410 
#    y -0.164290 4.475940 0.259180 
#    z -0.369410 0.259180 4.070600 
# 
# 
# High freq. dielectric constant tensor:
#      x y z
#    x 1.918370 -0.004630 -0.011730 
#    y -0.004630 1.912450 0.015840 
#    z -0.011730 0.015840 1.916310 
# 
# From -- ./inp_files/522293.got.cif
#   From: 2010.06.25/outbox.cif.g09.slc.cpg/sg2_262_cif.got.tgz:522293.got - 2010.06.27 13:26:56.
