data_PCOD8023306
_publ_section_title
;
Structure prediction by ZEFSAII (Michael W. Deem and Ramdas Pophale) SiO2 
 PCOD8023306
Probable space group: P -1
;
_chemical_formula_sum "Si O2"
_cell_formula_units_Z 16
_cell_length_a 6.869404
_cell_length_b 23.472164
_cell_length_c 7.855936
_cell_angle_alpha 148.009633
_cell_angle_beta 94.592185
_cell_angle_gamma 83.988557
_cell_volume 667.280060
_symmetry_space_group_name_H-M "P -1"
_symmetry_group_IT_number 2
_symmetry_cell_setting 'triclinic'
loop_
_space_group_symop_operation_xyz
x,y,z
-x,-y,-z
loop_
_atom_site_type_symbol
_atom_site_label
_atom_site_fract_x
_atom_site_fract_y
_atom_site_fract_z
Si Si1 0.330117 0.191455 0.772965
Si Si2 0.631933 0.508119 0.274198
Si Si3 0.628742 0.356038 0.194919
Si Si4 0.658099 0.795582 0.803257
Si Si5 0.719133 0.308001 0.562984
Si Si6 0.936128 0.611552 0.365055
Si Si7 0.625356 0.022094 0.226678
Si Si8 0.096474 0.796853 0.351227
O O1 0.475995 0.083802 0.504068
O O2 0.136680 0.181812 0.621942
O O3 0.446906 0.288729 0.948545
O O4 0.272824 0.209023 0.008719
O O5 0.660509 0.455118 0.325096
O O6 0.435924 0.593460 0.493631
O O7 0.824885 0.576850 0.440436
O O8 0.606102 0.422278 0.903123
O O9 0.825363 0.276325 0.992419
O O10 0.427851 0.780019 0.726372
O O11 0.780420 0.694580 0.464179
O O12 0.713335 0.908905 0.020376
O O13 0.844540 0.264608 0.625329
O O14 0.863668 0.325486 0.455438
O O15 0.000000 0.500000 0.000000
O O16 0.810024 0.088524 0.359481
O O17 0.500000 0.000000 0.000000
#
# Coordination Sequence:
#
# PCOD8023306 Si02
#       8
#     2   2   2   2   2   2   2   2
#     4  11  25  44  70 103 144 177 234 288 353 418
#     4   9  18  41  66  99 133 189 230 288 336 412
#     4   9  19  41  68  96 142 180 232 285 353 404
#     4  12  25  46  68 105 144 187 226 294 354 407
#     4  10  23  41  69  99 141 187 236 281 348 414
#     4  10  23  41  65 104 140 181 236 283 338 411
#     4  11  25  46  76 103 138 183 234 291 355 418
#     4  10  23  44  71 104 133 183 235 289 350 417
#
# _framework density 23.977941000000001
#
# number of rings (size 3 to 8) (size 9 to 14) (size 15 to 20)
#    0.000    1.750    2.500    0.375    1.750    6.000 
#    2.250    8.125    0.000    0.000    0.000    0.000 
#    0.000    0.000    0.000    0.000    0.000    0.000 
#
# Total GULP energy -198212.883414 kJ/mol
# GULP energy per Si atom -12388.305213 kJ/mol
# Density = 2.392337 g / cm^3
# Si number density = 23.977941 Si / 1000 Ang^3
#
#
#
# Elastic Constant Matrix: (Units=GPa)
#
#
# Indices 1 2 3 4 5 6 
#
# 1 124.5186 44.5475 34.8337 23.4813 2.6851 7.9230
# 2 44.5475 85.7396 45.3661 30.9140 -4.6770 13.8777
# 3 34.8337 45.3661 96.3601 27.9641 -6.0658 6.2350
# 4 23.4813 30.9140 27.9641 45.2839 -1.5631 1.7925
# 5 2.6851 -4.6770 -6.0658 -1.5631 37.3480 -0.4609
# 6 7.9230 13.8777 6.2350 1.7925 -0.4609 43.8294
#
#
#
# Elastic Compliance Matrix: (Units=1/GPa)
#
#
# Indices 1 2 3 4 5 6 
#
# 1 0.010229 -0.003968 -0.001389 -0.001777 -0.001536 -0.000339
# 2 -0.003968 0.020390 -0.005354 -0.008319 0.001564 -0.004621
# 3 -0.001389 -0.005354 0.014883 -0.004761 0.001648 0.000041
# 4 -0.001777 -0.008319 -0.004761 0.031519 -0.000339 0.002340
# 5 -0.001536 0.001564 0.001648 -0.000339 0.027333 -0.000151
# 6 -0.000339 -0.004621 0.000041 0.002340 -0.000151 0.024237
#
#
# Mechanical properties :
#
#
# Convention : Reuss Voigt Hill
#
# Bulk Modulus (GPa) = 41.52535 61.79030 51.65783
# Shear Modulus (GPa) = 31.63783 37.41699 34.52741
#
# Velocity S-wave (km/s) = 3.63637 3.95457 3.79880
# Velocity P-wave (km/s) = 5.91495 6.83206 6.38998
#
# Compressibility (1/GPa) = 0.02408167
#
# Stress axis : x y z
#
# Youngs Moduli (GPa) = 97.76323 49.04282 67.19202
#
# Poissons Ratio (x) = 0.19460 0.09330
# Poissons Ratio (y) = 0.38793 0.35971
# Poissons Ratio (z) = 0.13575 0.26255
#
# Static dielectric constant tensor:
#      x y z
#    x 4.570830 0.769270 -0.187360 
#    y 0.769270 3.022560 -1.042860 
#    z -0.187360 -1.042860 3.336810 
# 
# 
# High freq. dielectric constant tensor:
#      x y z
#    x 1.953350 0.021580 -0.017070 
#    y 0.021580 1.943800 0.019770 
#    z -0.017070 0.019770 1.954310 
# 
# From -- ./inp_files/143186.got.cif
#   From: 2010.06.25/outbox.cif.g09.slc.cpg/sg2_72_cif.got.tgz:143186.got - 2010.06.27 13:26:56.
