data_PCOD8023082
_publ_section_title
;
Structure prediction by ZEFSAII (Michael W. Deem and Ramdas Pophale) SiO2 
 PCOD8023082
Probable space group: P -1
;
_chemical_formula_sum "Si O2"
_cell_formula_units_Z 16
_cell_length_a 14.952702
_cell_length_b 11.788300
_cell_length_c 9.354727
_cell_angle_alpha 53.473300
_cell_angle_beta 141.376708
_cell_angle_gamma 129.183307
_cell_volume 780.021764
_symmetry_space_group_name_H-M "P -1"
_symmetry_group_IT_number 2
_symmetry_cell_setting 'triclinic'
loop_
_space_group_symop_operation_xyz
x,y,z
-x,-y,-z
loop_
_atom_site_type_symbol
_atom_site_label
_atom_site_fract_x
_atom_site_fract_y
_atom_site_fract_z
Si Si1 0.645007 0.925988 0.590145
Si Si2 0.789690 0.082202 0.948595
Si Si3 0.940925 0.546358 0.246800
Si Si4 0.527520 0.931261 0.935188
Si Si5 0.928962 0.865889 0.906882
Si Si6 0.451472 0.619415 0.516325
Si Si7 0.861481 0.423083 0.782619
Si Si8 0.396711 0.616554 0.123281
O O1 0.758574 0.869629 0.672111
O O2 0.505949 0.772942 0.561195
O O3 0.586304 0.040654 0.343998
O O4 0.709046 0.004550 0.760214
O O5 0.970428 0.101746 0.139282
O O6 0.784947 0.246598 0.846040
O O7 0.701918 0.991126 0.046464
O O8 0.000000 0.500000 0.500000
O O9 0.078655 0.538348 0.329106
O O10 0.929349 0.712628 0.098628
O O11 0.784120 0.424825 0.089716
O O12 0.482983 0.753736 0.026158
O O13 0.500000 0.000000 0.000000
O O14 0.000000 0.000000 0.000000
O O15 0.278782 0.515664 0.416113
O O16 0.453779 0.662478 0.320332
O O17 0.560395 0.526708 0.763034
O O18 0.000000 0.500000 0.000000
#
# Coordination Sequence:
#
# PCOD8023082 Si02
#       8
#     2   2   2   2   2   2   2   2
#     4  11  21  42  69  91 127 173 218 262 324 386
#     4  10  23  40  67  94 125 169 219 261 318 396
#     4  11  24  40  63  96 131 164 215 271 321 374
#     4  12  24  41  63  95 128 163 214 270 321 375
#     4   9  21  42  64  90 125 175 209 255 327 388
#     4  11  22  43  67  94 130 177 214 261 326 396
#     4  11  22  42  66  92 125 176 215 258 325 394
#     4  11  24  40  64  97 134 167 215 268 327 383
#
# _framework density 20.512248
#
# number of rings (size 3 to 8) (size 9 to 14) (size 15 to 20)
#    0.000    1.250    5.000    0.375    5.250    0.000 
#    4.500    1.875    0.000    0.000    0.000    0.000 
#    0.000    0.000    0.000    0.000    0.000    0.000 
#
# Total GULP energy -198242.956633 kJ/mol
# GULP energy per Si atom -12390.184790 kJ/mol
# Density = 2.046556 g / cm^3
# Si number density = 20.512248 Si / 1000 Ang^3
#
#
#
# Elastic Constant Matrix: (Units=GPa)
#
#
# Indices 1 2 3 4 5 6 
#
# 1 120.4580 35.5884 27.0763 -12.8652 6.4464 23.0381
# 2 35.5884 121.5232 38.2903 -1.0686 -11.6035 13.1223
# 3 27.0763 38.2903 73.9478 -11.1063 7.4561 8.6554
# 4 -12.8652 -1.0686 -11.1063 29.0569 7.2273 -5.1889
# 5 6.4464 -11.6035 7.4561 7.2273 31.7866 5.8191
# 6 23.0381 13.1223 8.6554 -5.1889 5.8191 38.6689
#
#
#
# Elastic Compliance Matrix: (Units=1/GPa)
#
#
# Indices 1 2 3 4 5 6 
#
# 1 0.010749 -0.002572 -0.001169 0.004211 -0.003024 -0.004249
# 2 -0.002572 0.012216 -0.006764 -0.005958 0.008504 -0.003178
# 3 -0.001169 -0.006764 0.019620 0.009227 -0.009155 0.001216
# 4 0.004211 -0.005958 0.009227 0.044737 -0.016450 0.005926
# 5 -0.003024 0.008504 -0.009155 -0.016450 0.042463 -0.007632
# 6 -0.004249 -0.003178 0.001216 0.005926 -0.007632 0.031142
#
#
# Mechanical properties :
#
#
# Convention : Reuss Voigt Hill
#
# Bulk Modulus (GPa) = 46.35135 57.53768 51.94451
# Shear Modulus (GPa) = 26.43694 34.23408 30.33551
#
# Velocity S-wave (km/s) = 3.59393 4.08972 3.84982
# Velocity P-wave (km/s) = 6.31409 7.10017 6.71864
#
# Compressibility (1/GPa) = 0.02157435
#
# Stress axis : x y z
#
# Youngs Moduli (GPa) = 93.03494 81.85793 50.96823
#
# Poissons Ratio (x) = 0.21057 0.05958
# Poissons Ratio (y) = 0.23932 0.34475
# Poissons Ratio (z) = 0.10875 0.55369
#
# Static dielectric constant tensor:
#      x y z
#    x 4.223760 0.256360 0.607030 
#    y 0.256360 3.877980 0.172080 
#    z 0.607030 0.172080 4.594680 
# 
# 
# High freq. dielectric constant tensor:
#      x y z
#    x 1.814390 0.005790 0.022290 
#    y 0.005790 1.817320 0.010110 
#    z 0.022290 0.010110 1.777040 
# 
# From -- ./inp_files/306629.got.cif
#   From: 2010.06.25/outbox.cif.g09.slc.cpg/sg2_154_cif.got.tgz:306629.got - 2010.06.27 13:26:56.
