data_PCOD8023547
_publ_section_title
;
Structure prediction by ZEFSAII (Michael W. Deem and Ramdas Pophale) SiO2 
 PCOD8023547
Probable space group: P -1
;
_chemical_formula_sum "Si O2"
_cell_formula_units_Z 14
_cell_length_a 6.528316
_cell_length_b 12.692154
_cell_length_c 11.554487
_cell_angle_alpha 43.653878
_cell_angle_beta 111.538726
_cell_angle_gamma 97.171729
_cell_volume 599.776070
_symmetry_space_group_name_H-M "P -1"
_symmetry_group_IT_number 2
_symmetry_cell_setting 'triclinic'
loop_
_space_group_symop_operation_xyz
x,y,z
-x,-y,-z
loop_
_atom_site_type_symbol
_atom_site_label
_atom_site_fract_x
_atom_site_fract_y
_atom_site_fract_z
Si Si1 0.861733 0.988418 0.647348
Si Si2 0.262970 0.718182 0.966661
Si Si3 0.738851 0.393475 0.506658
Si Si4 0.331250 0.361609 0.304670
Si Si5 0.861379 0.770521 0.411184
Si Si6 0.498168 0.827793 0.730506
Si Si7 0.460189 0.733269 0.230833
O O1 0.650098 0.949515 0.708249
O O2 0.033295 0.824535 0.785782
O O3 0.748418 0.073251 0.439541
O O4 0.000092 0.093700 0.662973
O O5 0.460486 0.713631 0.916490
O O6 0.223404 0.545494 0.117794
O O7 0.340575 0.797604 0.035553
O O8 0.584603 0.335016 0.424781
O O9 0.637081 0.571356 0.373850
O O10 0.737610 0.290249 0.704467
O O11 0.988354 0.369567 0.523337
O O12 0.175140 0.294769 0.416955
O O13 0.351222 0.271260 0.259855
O O14 0.621502 0.836395 0.242918
#
# Coordination Sequence:
#
# PCOD8023547 Si02
#       7
#     2   2   2   2   2   2   2
#     4  11  27  42  67  94 128 180 215 257 331 383
#     4  11  25  44  65 100 134 164 211 279 318 374
#     4   9  18  39  65  96 130 170 207 267 316 384
#     4  10  23  41  70 100 124 167 226 261 316 383
#     4  11  22  40  72  94 129 173 215 260 324 387
#     4  11  25  45  67  90 133 176 218 259 319 393
#     4   9  21  38  65  98 130 163 218 259 323 382
#
# _framework density 23.342044000000001
#
# number of rings (size 3 to 8) (size 9 to 14) (size 15 to 20)
#    0.000    1.714    1.429    2.143    6.000    4.571 
#    0.000    1.429    0.000    0.000    0.000    0.000 
#    0.000    0.000    0.000    0.000    0.000    0.000 
#
# Total GULP energy -173526.178281 kJ/mol
# GULP energy per Si atom -12394.727020 kJ/mol
# Density = 2.328892 g / cm^3
# Si number density = 23.342044 Si / 1000 Ang^3
#
#
#
# Elastic Constant Matrix: (Units=GPa)
#
#
# Indices 1 2 3 4 5 6 
#
# 1 118.0490 40.1638 52.9349 14.6558 -11.8710 -2.8476
# 2 40.1638 79.6722 48.9071 7.0411 -10.7132 15.3244
# 3 52.9349 48.9071 79.3912 6.3593 -0.1383 -9.2608
# 4 14.6558 7.0411 6.3593 27.3881 -9.2684 -2.5104
# 5 -11.8710 -10.7132 -0.1383 -9.2684 23.7340 5.4728
# 6 -2.8476 15.3244 -9.2608 -2.5104 5.4728 43.6303
#
#
#
# Elastic Compliance Matrix: (Units=1/GPa)
#
#
# Indices 1 2 3 4 5 6 
#
# 1 0.013410 0.000362 -0.009138 -0.003306 0.006019 -0.002137
# 2 0.000362 0.031879 -0.022095 0.001591 0.019257 -0.018187
# 3 -0.009138 -0.022095 0.034407 -0.002356 -0.019121 0.016730
# 4 -0.003306 0.001591 -0.002356 0.043887 0.016374 -0.000803
# 5 0.006019 0.019257 -0.019121 0.016374 0.064163 -0.017536
# 6 -0.002137 -0.018187 0.016730 -0.000803 -0.017536 0.034873
#
#
# Mechanical properties :
#
#
# Convention : Reuss Voigt Hill
#
# Bulk Modulus (GPa) = 55.69985 62.34713 59.02349
# Shear Modulus (GPa) = 17.22088 27.95757 22.58923
#
# Velocity S-wave (km/s) = 2.71912 3.46458 3.11424
# Velocity P-wave (km/s) = 5.81141 6.54008 6.18648
#
# Compressibility (1/GPa) = 0.01795337
#
# Stress axis : x y z
#
# Youngs Moduli (GPa) = 74.57314 31.36836 29.06409
#
# Poissons Ratio (x) = -0.01135 0.26558
# Poissons Ratio (y) = -0.02698 0.64217
# Poissons Ratio (z) = 0.68144 0.69309
#
# Static dielectric constant tensor:
#      x y z
#    x 4.226560 0.215230 -0.026400 
#    y 0.215230 4.281550 0.123580 
#    z -0.026400 0.123580 4.009560 
# 
# 
# High freq. dielectric constant tensor:
#      x y z
#    x 1.931160 0.012040 -0.003280 
#    y 0.012040 1.926110 0.004050 
#    z -0.003280 0.004050 1.901000 
# 
# From -- ./inp_files/68864.got.cif
#   From: 2010.06.25/outbox.cif.g09.slc.cpg/sg2_35_cif.got.tgz:68864.got - 2010.06.27 13:26:56.
