data_PCOD8023162
_publ_section_title
;
Structure prediction by ZEFSAII (Michael W. Deem and Ramdas Pophale) SiO2 
 PCOD8023162
Probable space group: P -1
;
_chemical_formula_sum "Si O2"
_cell_formula_units_Z 10
_cell_length_a 5.337402
_cell_length_b 9.841188
_cell_length_c 9.579671
_cell_angle_alpha 63.271129
_cell_angle_beta 107.700334
_cell_angle_gamma 94.461591
_cell_volume 427.112892
_symmetry_space_group_name_H-M "P -1"
_symmetry_group_IT_number 2
_symmetry_cell_setting 'triclinic'
loop_
_space_group_symop_operation_xyz
x,y,z
-x,-y,-z
loop_
_atom_site_type_symbol
_atom_site_label
_atom_site_fract_x
_atom_site_fract_y
_atom_site_fract_z
Si Si1 0.474243 0.167116 0.584314
Si Si2 0.759677 0.121917 0.388972
Si Si3 0.076484 0.354816 0.244107
Si Si4 0.116906 0.308238 0.966483
Si Si5 0.574251 0.171059 0.913345
O O1 0.702458 0.193528 0.499610
O O2 0.223042 0.271405 0.437971
O O3 0.534603 0.223637 0.722112
O O4 0.461725 0.980610 0.667748
O O5 0.808043 0.263982 0.229287
O O6 0.000000 0.000000 0.500000
O O7 0.021755 0.532022 0.184784
O O8 0.227671 0.329115 0.133442
O O9 0.367457 0.270034 0.928629
O O10 0.885466 0.189174 0.986448
O O11 0.500000 0.000000 0.000000
#
# Coordination Sequence:
#
# PCOD8023162 Si02
#       5
#     2   2   2   2   2
#     4  10  23  40  71  97 131 179 226 272 330 397
#     4   9  20  38  67  98 129 173 227 271 320 399
#     4  10  24  44  70  95 134 178 228 268 328 410
#     4  11  28  45  69 100 137 179 218 279 340 389
#     4  12  28  46  68 101 139 173 221 284 339 391
#
# _framework density 23.413011999999998
#
# number of rings (size 3 to 8) (size 9 to 14) (size 15 to 20)
#    0.000    1.600    0.000    1.800   19.600    3.200 
#    0.000    0.000    0.000    0.000    0.000    0.000 
#    0.000    0.000    0.000    0.000    0.000    0.000 
#
# Total GULP energy -123893.977526 kJ/mol
# GULP energy per Si atom -12389.397753 kJ/mol
# Density = 2.335972 g / cm^3
# Si number density = 23.413012 Si / 1000 Ang^3
#
#
#
# Elastic Constant Matrix: (Units=GPa)
#
#
# Indices 1 2 3 4 5 6 
#
# 1 83.2713 2.8850 -2.6793 19.3017 -21.5546 -12.4699
# 2 2.8850 70.7623 12.3451 -2.3892 -13.2219 -9.7032
# 3 -2.6793 12.3451 87.1420 21.9064 -9.0768 -7.1617
# 4 19.3017 -2.3892 21.9064 45.2922 -0.5969 -19.4034
# 5 -21.5546 -13.2219 -9.0768 -0.5969 34.8124 8.2173
# 6 -12.4699 -9.7032 -7.1617 -19.4034 8.2173 39.3229
#
#
#
# Elastic Compliance Matrix: (Units=1/GPa)
#
#
# Indices 1 2 3 4 5 6 
#
# 1 0.017297 0.000379 0.004046 -0.009530 0.011954 -0.000885
# 2 0.000379 0.016180 -0.002384 0.003879 0.004739 0.004602
# 3 0.004046 -0.002384 0.014890 -0.010207 0.005987 -0.002881
# 4 -0.009530 0.003879 -0.010207 0.038553 -0.010510 0.017296
# 5 0.011954 0.004739 0.005987 -0.010510 0.041132 -0.007731
# 6 -0.000885 0.004602 -0.002881 0.017296 -0.007731 0.035911
#
#
# Mechanical properties :
#
#
# Convention : Reuss Voigt Hill
#
# Bulk Modulus (GPa) = 19.06557 29.58634 24.32596
# Shear Modulus (GPa) = 28.19082 39.12714 33.65898
#
# Velocity S-wave (km/s) = 3.47373 4.09243 3.79571
# Velocity P-wave (km/s) = 4.92442 5.91564 5.44264
#
# Compressibility (1/GPa) = 0.05245056
#
# Stress axis : x y z
#
# Youngs Moduli (GPa) = 57.81468 61.80589 67.15696
#
# Poissons Ratio (x) = -0.02345 -0.27172
# Poissons Ratio (y) = -0.02194 0.16008
# Poissons Ratio (z) = -0.23392 0.14733
#
# Static dielectric constant tensor:
#      x y z
#    x 4.844800 0.469490 -0.234400 
#    y 0.469490 4.606430 -0.033970 
#    z -0.234400 -0.033970 4.308380 
# 
# 
# High freq. dielectric constant tensor:
#      x y z
#    x 1.931880 -0.006370 -0.019900 
#    y -0.006370 1.917200 -0.006970 
#    z -0.019900 -0.006970 1.929060 
# 
# From -- ./inp_files/15517.got.cif
#   From: 2010.06.25/outbox.cif.g09.slc.cpg/sg2_8_cif.got.tgz:15517.got - 2010.06.27 13:26:56.
