data_PCOD8023422
_publ_section_title
;
Structure prediction by ZEFSAII (Michael W. Deem and Ramdas Pophale) SiO2 
 PCOD8023422
Probable space group: P -1
;
_chemical_formula_sum "Si O2"
_cell_formula_units_Z 16
_cell_length_a 18.644108
_cell_length_b 12.243531
_cell_length_c 9.681932
_cell_angle_alpha 140.307346
_cell_angle_beta 40.162527
_cell_angle_gamma 152.826854
_cell_volume 620.102875
_symmetry_space_group_name_H-M "P -1"
_symmetry_group_IT_number 2
_symmetry_cell_setting 'triclinic'
loop_
_space_group_symop_operation_xyz
x,y,z
-x,-y,-z
loop_
_atom_site_type_symbol
_atom_site_label
_atom_site_fract_x
_atom_site_fract_y
_atom_site_fract_z
Si Si1 0.660033 0.791787 0.258608
Si Si2 0.149999 0.442877 0.960163
Si Si3 0.144299 0.048341 0.615496
Si Si4 0.323628 0.670232 0.643251
Si Si5 0.216330 0.885126 0.850300
Si Si6 0.391354 0.797657 0.175187
Si Si7 0.634720 0.757773 0.783019
Si Si8 0.227438 0.411825 0.269239
O O1 0.767816 0.951555 0.389641
O O2 0.473857 0.538945 0.333340
O O3 0.675203 0.972515 0.310339
O O4 0.735911 0.720207 0.992109
O O5 0.143317 0.248027 0.847802
O O6 0.202235 0.489201 0.769373
O O7 0.276616 0.696619 0.111950
O O8 0.973711 0.330788 0.118651
O O9 0.237155 0.118205 0.405882
O O10 0.962621 0.773742 0.601466
O O11 0.260283 0.764844 0.748802
O O12 0.320943 0.517750 0.382876
O O13 0.506236 0.910504 0.668634
O O14 0.262296 0.097163 0.087882
O O15 0.286123 0.638955 0.312017
O O16 0.515998 0.782350 0.947757
#
# Coordination Sequence:
#
# PCOD8023422 Si02
#       8
#     2   2   2   2   2   2   2   2
#     4  11  22  43  71  98 138 175 224 283 335 396
#     4  12  23  42  72  98 139 177 226 280 334 401
#     4  12  23  41  72 108 131 173 232 281 341 390
#     4  11  26  44  65 101 140 182 223 272 338 408
#     4  11  24  44  67 101 138 179 223 278 341 395
#     4  10  23  47  69  97 138 180 226 273 340 401
#     4  10  23  41  67 103 139 170 220 283 339 398
#     4  11  22  43  71 101 135 174 227 282 329 402
#
# _framework density 25.802171000000001
#
# number of rings (size 3 to 8) (size 9 to 14) (size 15 to 20)
#    0.000    1.000    3.750    3.750    1.750    2.000 
#    2.250    5.000    0.000    0.000    0.000    0.000 
#    0.000    0.000    0.000    0.000    0.000    0.000 
#
# Total GULP energy -198508.036616 kJ/mol
# GULP energy per Si atom -12406.752288 kJ/mol
# Density = 2.574344 g / cm^3
# Si number density = 25.802171 Si / 1000 Ang^3
#
#
#
# Elastic Constant Matrix: (Units=GPa)
#
#
# Indices 1 2 3 4 5 6 
#
# 1 95.3906 14.0715 -1.6021 -1.2172 16.0310 12.1532
# 2 14.0715 121.6942 20.1795 -18.8368 -11.9469 15.1094
# 3 -1.6021 20.1795 38.0165 -24.0026 9.2305 6.8082
# 4 -1.2172 -18.8368 -24.0026 48.1915 -1.4854 6.0486
# 5 16.0310 -11.9469 9.2305 -1.4854 25.9070 -5.1938
# 6 12.1532 15.1094 6.8082 6.0486 -5.1938 52.8843
#
#
#
# Elastic Compliance Matrix: (Units=1/GPa)
#
#
# Indices 1 2 3 4 5 6 
#
# 1 0.014347 -0.003372 0.009440 0.003978 -0.014659 -0.005444
# 2 -0.003372 0.011059 -0.007940 0.000647 0.009960 -0.000458
# 3 0.009440 -0.007940 0.057698 0.026596 -0.031229 -0.013438
# 4 0.003978 0.000647 0.026596 0.035210 -0.011562 -0.009686
# 5 -0.014659 0.009960 -0.031229 -0.011562 0.065187 0.012268
# 6 -0.005444 -0.000458 -0.013438 -0.009686 0.012268 0.024334
#
#
# Mechanical properties :
#
#
# Convention : Reuss Voigt Hill
#
# Bulk Modulus (GPa) = 12.60073 35.59989 24.10031
# Shear Modulus (GPa) = 21.00561 40.22672 30.61617
#
# Velocity S-wave (km/s) = 2.85634 3.95276 3.44840
# Velocity P-wave (km/s) = 3.97146 5.88724 5.02156
#
# Compressibility (1/GPa) = 0.07936050
#
# Stress axis : x y z
#
# Youngs Moduli (GPa) = 69.70057 90.42630 17.33167
#
# Poissons Ratio (x) = 0.30491 -0.16361
# Poissons Ratio (y) = 0.23502 0.13761
# Poissons Ratio (z) = -0.65797 0.71795
#
# Static dielectric constant tensor:
#      x y z
#    x 4.706510 -0.027410 0.154510 
#    y -0.027410 5.082670 0.242880 
#    z 0.154510 0.242880 4.704780 
# 
# 
# High freq. dielectric constant tensor:
#      x y z
#    x 2.045720 -0.000460 0.004730 
#    y -0.000460 2.044370 -0.001030 
#    z 0.004730 -0.001030 2.040270 
# 
# From -- ./inp_files/332968.got.cif
#   From: 2010.06.25/outbox.cif.g09.slc.cpg/sg2_167_cif.got.tgz:332968.got - 2010.06.27 13:26:56.
