data_PCOD8023377
_publ_section_title
;
Structure prediction by ZEFSAII (Michael W. Deem and Ramdas Pophale) SiO2 
 PCOD8023377
Probable space group: P -1
;
_chemical_formula_sum "Si O2"
_cell_formula_units_Z 14
_cell_length_a 12.790760
_cell_length_b 17.855207
_cell_length_c 8.728212
_cell_angle_alpha 137.337200
_cell_angle_beta 74.201340
_cell_angle_gamma 139.480152
_cell_volume 666.033056
_symmetry_space_group_name_H-M "P -1"
_symmetry_group_IT_number 2
_symmetry_cell_setting 'triclinic'
loop_
_space_group_symop_operation_xyz
x,y,z
-x,-y,-z
loop_
_atom_site_type_symbol
_atom_site_label
_atom_site_fract_x
_atom_site_fract_y
_atom_site_fract_z
Si Si1 0.919103 0.588056 0.764651
Si Si2 0.770810 0.036776 0.235616
Si Si3 0.926669 0.106433 0.594524
Si Si4 0.456196 0.607495 0.534271
Si Si5 0.202984 0.146225 0.470387
Si Si6 0.078569 0.177823 0.154162
Si Si7 0.268858 0.810699 0.737118
O O1 0.729180 0.473096 0.568586
O O2 0.841844 0.401658 0.575259
O O3 0.128517 0.759603 0.834660
O O4 0.973042 0.705632 0.069505
O O5 0.782421 0.034405 0.410373
O O6 0.705704 0.102124 0.304109
O O7 0.004256 0.216706 0.343697
O O8 0.612358 0.806766 0.884867
O O9 0.118951 0.198467 0.591956
O O10 0.771138 0.889559 0.428377
O O11 0.577499 0.661070 0.421023
O O12 0.333250 0.403254 0.370747
O O13 0.029446 0.914985 0.110140
O O14 0.000000 0.000000 0.000000
O O15 0.500000 0.000000 0.000000
#
# Coordination Sequence:
#
# PCOD8023377 Si02
#       7
#     2   2   2   2   2   2   2
#     4  11  23  42  71  93 129 171 228 266 338 387
#     4  11  23  41  67  97 136 166 224 276 326 380
#     4  11  23  45  60 101 143 173 206 285 323 390
#     4  11  22  42  71  98 124 188 218 258 321 409
#     4  10  23  41  66  92 144 177 216 254 334 395
#     4  11  21  43  64  97 131 173 216 265 310 407
#     4  11  23  44  72  93 121 177 227 279 321 394
#
# _framework density 21.019977000000001
#
# number of rings (size 3 to 8) (size 9 to 14) (size 15 to 20)
#    0.000    1.143    5.714    0.857    0.000    3.429 
#    2.571    0.714    0.000    0.000    0.000    0.000 
#    0.000    0.000    0.000    0.000    0.000    0.000 
#
# Total GULP energy -173573.700563 kJ/mol
# GULP energy per Si atom -12398.121469 kJ/mol
# Density = 2.097213 g / cm^3
# Si number density = 21.019977 Si / 1000 Ang^3
#
#
#
# Elastic Constant Matrix: (Units=GPa)
#
#
# Indices 1 2 3 4 5 6 
#
# 1 110.6636 51.7758 47.8292 0.4175 13.3917 -17.3436
# 2 51.7758 126.2092 56.4456 20.1690 12.9423 -6.6637
# 3 47.8292 56.4456 90.7682 -5.3208 3.8266 -4.8131
# 4 0.4175 20.1690 -5.3208 41.0848 -2.9677 2.2042
# 5 13.3917 12.9423 3.8266 -2.9677 35.2139 -0.6210
# 6 -17.3436 -6.6637 -4.8131 2.2042 -0.6210 48.5392
#
#
#
# Elastic Compliance Matrix: (Units=1/GPa)
#
#
# Indices 1 2 3 4 5 6 
#
# 1 0.013549 -0.002732 -0.005080 0.000081 -0.003521 0.003914
# 2 -0.002732 0.014267 -0.007719 -0.008298 -0.004056 0.000542
# 3 -0.005080 -0.007719 0.018674 0.006564 0.003271 -0.001280
# 4 0.000081 -0.008298 0.006564 0.029702 0.004778 -0.001747
# 5 -0.003521 -0.004056 0.003271 0.004778 0.031252 -0.001308
# 6 0.003914 0.000542 -0.001280 -0.001747 -0.001308 0.022011
#
#
# Mechanical properties :
#
#
# Convention : Reuss Voigt Hill
#
# Bulk Modulus (GPa) = 64.82027 71.08245 67.95136
# Shear Modulus (GPa) = 30.18258 36.40692 33.29475
#
# Velocity S-wave (km/s) = 3.79344 4.16626 3.98421
# Velocity P-wave (km/s) = 7.07752 7.55207 7.31864
#
# Compressibility (1/GPa) = 0.01542727
#
# Stress axis : x y z
#
# Youngs Moduli (GPa) = 73.80478 70.09207 53.55171
#
# Poissons Ratio (x) = 0.19146 0.27205
# Poissons Ratio (y) = 0.20161 0.41339
# Poissons Ratio (z) = 0.37494 0.54107
#
# Static dielectric constant tensor:
#      x y z
#    x 4.197560 -0.006150 0.128220 
#    y -0.006150 4.033980 0.119050 
#    z 0.128220 0.119050 3.891310 
# 
# 
# High freq. dielectric constant tensor:
#      x y z
#    x 1.835480 -0.009440 -0.001300 
#    y -0.009440 1.824960 0.008550 
#    z -0.001300 0.008550 1.810740 
# 
# From -- ./inp_files/37888.got.cif
#   From: 2010.06.25/outbox.cif.g09.slc.cpg/sg2_19_cif.got.tgz:37888.got - 2010.06.27 13:26:56.
