data_PCOD8023773
_publ_section_title
;
Structure prediction by ZEFSAII (Michael W. Deem and Ramdas Pophale) SiO2 
 PCOD8023773
Probable space group: P -1
;
_chemical_formula_sum "Si O2"
_cell_formula_units_Z 16
_cell_length_a 8.782745
_cell_length_b 8.488864
_cell_length_c 14.969648
_cell_angle_alpha 79.198397
_cell_angle_beta 68.192733
_cell_angle_gamma 123.927895
_cell_volume 738.320265
_symmetry_space_group_name_H-M "P -1"
_symmetry_group_IT_number 2
_symmetry_cell_setting 'triclinic'
loop_
_space_group_symop_operation_xyz
x,y,z
-x,-y,-z
loop_
_atom_site_type_symbol
_atom_site_label
_atom_site_fract_x
_atom_site_fract_y
_atom_site_fract_z
Si Si1 0.571913 0.731026 0.470971
Si Si2 0.429342 0.044400 0.922879
Si Si3 0.029128 0.186775 0.019919
Si Si4 0.489829 0.529121 0.103222
Si Si5 0.808660 0.142024 0.728006
Si Si6 0.131011 0.609415 0.550234
Si Si7 0.039284 0.080308 0.228603
Si Si8 0.814757 0.011630 0.541679
O O1 0.500000 0.500000 0.500000
O O2 0.388350 0.724570 0.468162
O O3 0.813408 0.928175 0.352221
O O4 0.593415 0.785012 0.566765
O O5 0.483579 0.267484 0.899395
O O6 0.573143 0.067400 0.808620
O O7 0.167311 0.831798 0.975585
O O8 0.500000 0.000000 0.000000
O O9 0.996492 0.142127 0.138473
O O10 0.286488 0.417067 0.914888
O O11 0.000000 0.000000 0.000000
O O12 0.247347 0.303347 0.215624
O O13 0.500000 0.500000 0.000000
O O14 0.778077 0.046102 0.646418
O O15 0.005057 0.408537 0.669126
O O16 0.878030 0.047840 0.792054
O O17 0.121925 0.791992 0.556114
O O18 0.000000 0.500000 0.500000
O O19 0.000000 0.000000 0.500000
#
# Coordination Sequence:
#
# PCOD8023773 Si02
#       8
#     2   2   2   2   2   2   2   2
#     4  12  23  44  68  98 136 182 228 285 339 410
#     4  11  23  42  71  97 138 172 223 289 340 406
#     4   9  20  41  66  96 124 170 220 273 341 405
#     4   9  20  42  66  94 131 173 221 277 339 411
#     4  11  23  42  64  99 138 176 224 281 348 397
#     4  10  23  42  65  94 136 173 226 283 338 401
#     4  11  22  41  69  94 133 177 229 272 349 408
#     4  11  23  44  65  96 137 181 229 283 333 405
#
# _framework density 21.670812999999999
#
# number of rings (size 3 to 8) (size 9 to 14) (size 15 to 20)
#    0.000    1.500    2.500    3.375    5.250    0.000 
#    4.500    5.625    0.000    0.000    0.000    0.000 
#    0.000    0.000    0.000    0.000    0.000    0.000 
#
# Total GULP energy -198211.874869 kJ/mol
# GULP energy per Si atom -12388.242179 kJ/mol
# Density = 2.162149 g / cm^3
# Si number density = 21.670813 Si / 1000 Ang^3
#
#
#
# Elastic Constant Matrix: (Units=GPa)
#
#
# Indices 1 2 3 4 5 6 
#
# 1 187.7623 67.9053 54.4804 -18.0841 -26.1108 12.4340
# 2 67.9053 126.2267 46.1221 -9.7840 -13.8770 5.4855
# 3 54.4804 46.1221 93.8924 -13.5596 -26.1468 10.6733
# 4 -18.0841 -9.7840 -13.5596 43.4785 1.6735 -6.4602
# 5 -26.1108 -13.8770 -26.1468 1.6735 44.1593 -7.0557
# 6 12.4340 5.4855 10.6733 -6.4602 -7.0557 47.4648
#
#
#
# Elastic Compliance Matrix: (Units=1/GPa)
#
#
# Indices 1 2 3 4 5 6 
#
# 1 0.007448 -0.002886 -0.001995 0.001651 0.002154 -0.000624
# 2 -0.002886 0.010799 -0.003791 0.000112 -0.000514 0.000299
# 3 -0.001995 -0.003791 0.016148 0.002902 0.006880 -0.001253
# 4 0.001651 0.000112 0.002902 0.024921 0.002204 0.002622
# 5 0.002154 -0.000514 0.006880 0.002204 0.028136 0.002431
# 6 -0.000624 0.000299 -0.001253 0.002622 0.002431 0.022197
#
#
# Mechanical properties :
#
#
# Convention : Reuss Voigt Hill
#
# Bulk Modulus (GPa) = 58.64881 82.76634 70.70757
# Shear Modulus (GPa) = 37.68522 42.97876 40.33199
#
# Velocity S-wave (km/s) = 4.17464 4.45821 4.31875
# Velocity P-wave (km/s) = 7.09641 8.04837 7.58734
#
# Compressibility (1/GPa) = 0.01705065
#
# Stress axis : x y z
#
# Youngs Moduli (GPa) = 134.25794 92.59849 61.92756
#
# Poissons Ratio (x) = 0.26725 0.12355
# Poissons Ratio (y) = 0.38749 0.23478
# Poissons Ratio (z) = 0.26785 0.35107
#
# Static dielectric constant tensor:
#      x y z
#    x 3.757100 0.236550 -0.528910 
#    y 0.236550 4.996440 -0.411170 
#    z -0.528910 -0.411170 4.039490 
# 
# 
# High freq. dielectric constant tensor:
#      x y z
#    x 1.864130 0.006200 -0.014380 
#    y 0.006200 1.861950 -0.003820 
#    z -0.014380 -0.003820 1.830400 
# 
# From -- ./inp_files/494870.got.cif
#   From: 2010.06.25/outbox.cif.g09.slc.cpg/sg2_248_cif.got.tgz:494870.got - 2010.06.27 13:26:56.
