data_PCOD8023694
_publ_section_title
;
Structure prediction by ZEFSAII (Michael W. Deem and Ramdas Pophale) SiO2 
 PCOD8023694
Probable space group: P -1
;
_chemical_formula_sum "Si O2"
_cell_formula_units_Z 14
_cell_length_a 13.964359
_cell_length_b 9.265447
_cell_length_c 11.846581
_cell_angle_alpha 123.946265
_cell_angle_beta 146.538993
_cell_angle_gamma 70.585347
_cell_volume 670.577736
_symmetry_space_group_name_H-M "P -1"
_symmetry_group_IT_number 2
_symmetry_cell_setting 'triclinic'
loop_
_space_group_symop_operation_xyz
x,y,z
-x,-y,-z
loop_
_atom_site_type_symbol
_atom_site_label
_atom_site_fract_x
_atom_site_fract_y
_atom_site_fract_z
Si Si1 0.899104 0.297649 0.851641
Si Si2 0.723462 0.157582 0.180141
Si Si3 0.334729 0.839957 0.218944
Si Si4 0.337430 0.562257 0.919870
Si Si5 0.340639 0.912191 0.667712
Si Si6 0.048034 0.992902 0.915629
Si Si7 0.111580 0.175787 0.523377
O O1 0.801950 0.272166 0.867750
O O2 0.739055 0.219553 0.571028
O O3 0.000000 0.500000 0.000000
O O4 0.051505 0.188681 0.950683
O O5 0.752229 0.343884 0.222410
O O6 0.684959 0.200044 0.290230
O O7 0.903004 0.089531 0.320142
O O8 0.553340 0.003042 0.893040
O O9 0.500000 0.000000 0.500000
O O10 0.234542 0.937985 0.072401
O O11 0.403686 0.693609 0.151073
O O12 0.181398 0.382499 0.724923
O O13 0.500000 0.500000 0.000000
O O14 0.242232 0.068883 0.656786
O O15 0.000000 0.000000 0.000000
O O16 0.893248 0.842847 0.627142
#
# Coordination Sequence:
#
# PCOD8023694 Si02
#       7
#     2   2   2   2   2   2   2
#     4  10  23  43  66  95 133 171 223 277 328 405
#     4  11  22  40  64  93 129 172 209 275 336 392
#     4  11  24  44  68  95 133 179 222 269 340 406
#     4  12  25  41  66 101 133 168 231 284 325 387
#     4  10  23  42  63  93 132 171 216 268 340 399
#     4   9  21  39  66  90 126 174 215 264 339 394
#     4  11  22  40  65  95 128 171 222 272 329 400
#
# _framework density 20.877521000000002
#
# number of rings (size 3 to 8) (size 9 to 14) (size 15 to 20)
#    0.000    1.429    2.857    1.714    6.000    1.143 
#    0.000    0.714    0.000    0.000    0.000    0.000 
#    0.000    0.000    0.000    0.000    0.000    0.000 
#
# Total GULP energy -173520.860365 kJ/mol
# GULP energy per Si atom -12394.347169 kJ/mol
# Density = 2.083000 g / cm^3
# Si number density = 20.877521 Si / 1000 Ang^3
#
#
#
# Elastic Constant Matrix: (Units=GPa)
#
#
# Indices 1 2 3 4 5 6 
#
# 1 94.6509 45.8710 43.5882 9.4305 6.1605 -10.4593
# 2 45.8710 99.3835 57.2688 18.0109 2.1099 -1.6017
# 3 43.5882 57.2688 129.8166 10.6581 1.2149 -5.5806
# 4 9.4305 18.0109 10.6581 33.2379 -4.0948 -1.1581
# 5 6.1605 2.1099 1.2149 -4.0948 42.3515 0.5887
# 6 -10.4593 -1.6017 -5.5806 -1.1581 0.5887 37.4563
#
#
#
# Elastic Compliance Matrix: (Units=1/GPa)
#
#
# Indices 1 2 3 4 5 6 
#
# 1 0.014799 -0.005191 -0.002449 -0.000716 -0.001943 0.003554
# 2 -0.005191 0.016451 -0.005096 -0.005924 -0.000468 -0.001681
# 3 -0.002449 -0.005096 0.010797 0.000055 0.000296 0.000704
# 4 -0.000716 -0.005924 0.000055 0.033953 0.003673 0.000547
# 5 -0.001943 -0.000468 0.000296 0.003673 0.024275 -0.000786
# 6 0.003554 -0.001681 0.000704 0.000547 -0.000786 0.027752
#
#
# Mechanical properties :
#
#
# Convention : Reuss Voigt Hill
#
# Bulk Modulus (GPa) = 60.33455 68.58965 64.46210
# Shear Modulus (GPa) = 31.44164 34.41734 32.92949
#
# Velocity S-wave (km/s) = 3.88494 4.06462 3.97579
# Velocity P-wave (km/s) = 7.00612 7.41302 7.21244
#
# Compressibility (1/GPa) = 0.01657425
#
# Stress axis : x y z
#
# Youngs Moduli (GPa) = 67.57044 60.78742 92.62185
#
# Poissons Ratio (x) = 0.31555 0.22687
# Poissons Ratio (y) = 0.35076 0.47199
# Poissons Ratio (z) = 0.16551 0.30976
#
# Static dielectric constant tensor:
#      x y z
#    x 3.945660 -0.196090 -0.095780 
#    y -0.196090 4.113640 -0.277130 
#    z -0.095780 -0.277130 3.988870 
# 
# 
# High freq. dielectric constant tensor:
#      x y z
#    x 1.818790 -0.003650 -0.011940 
#    y -0.003650 1.811400 -0.014800 
#    z -0.011940 -0.014800 1.823410 
# 
# From -- ./inp_files/201371.got.cif
#   From: 2010.06.25/outbox.cif.g09.slc.cpg/sg2_101_cif.got.tgz:201371.got - 2010.06.27 13:26:56.
