data_PCOD8023656
_publ_section_title
;
Structure prediction by ZEFSAII (Michael W. Deem and Ramdas Pophale) SiO2 
 PCOD8023656
Probable space group: P -1
;
_chemical_formula_sum "Si O2"
_cell_formula_units_Z 14
_cell_length_a 7.316635
_cell_length_b 9.328371
_cell_length_c 12.792203
_cell_angle_alpha 48.721295
_cell_angle_beta 83.401369
_cell_angle_gamma 110.439411
_cell_volume 535.842723
_symmetry_space_group_name_H-M "P -1"
_symmetry_group_IT_number 2
_symmetry_cell_setting 'triclinic'
loop_
_space_group_symop_operation_xyz
x,y,z
-x,-y,-z
loop_
_atom_site_type_symbol
_atom_site_label
_atom_site_fract_x
_atom_site_fract_y
_atom_site_fract_z
Si Si1 0.666962 0.405763 0.220915
Si Si2 0.118713 0.722349 0.588812
Si Si3 0.675515 0.589735 0.614809
Si Si4 0.971820 0.236928 0.852408
Si Si5 0.559519 0.950938 0.146051
Si Si6 0.657110 0.886401 0.779378
Si Si7 0.895972 0.948967 0.247487
O O1 0.755118 0.242572 0.325017
O O2 0.489872 0.360574 0.343627
O O3 0.882599 0.674528 0.089200
O O4 0.556194 0.355519 0.137207
O O5 0.287271 0.923182 0.402780
O O6 0.889355 0.706417 0.623542
O O7 0.042422 0.468298 0.671229
O O8 0.569363 0.321090 0.731996
O O9 0.756638 0.714927 0.437355
O O10 0.051511 0.102332 0.847332
O O11 0.704332 0.090591 0.965239
O O12 0.399710 0.033823 0.148371
O O13 0.736875 0.034599 0.191557
O O14 0.866226 0.869344 0.797788
#
# Coordination Sequence:
#
# PCOD8023656 Si02
#       7
#     2   2   2   2   2   2   2
#     4  10  23  42  61  94 126 161 197 262 302 366
#     4   9  21  40  61  93 121 157 205 253 294 379
#     4  11  22  38  70  91 121 161 209 248 317 345
#     4  10  23  42  62  90 131 156 211 247 306 363
#     4  12  23  40  66  90 124 170 197 257 304 363
#     4  11  24  40  67  91 125 158 209 251 315 346
#     4  11  23  40  63  99 118 156 214 259 287 380
#
# _framework density 26.127068999999999
#
# number of rings (size 3 to 8) (size 9 to 14) (size 15 to 20)
#    0.857    0.571    1.429    3.857    0.000    8.571 
#    0.000    0.714    0.000    0.000    0.000    0.000 
#    0.000    0.000    0.000    0.000    0.000    0.000 
#
# Total GULP energy -173463.598882 kJ/mol
# GULP energy per Si atom -12390.257063 kJ/mol
# Density = 2.606760 g / cm^3
# Si number density = 26.127069 Si / 1000 Ang^3
#
#
#
# Elastic Constant Matrix: (Units=GPa)
#
#
# Indices 1 2 3 4 5 6 
#
# 1 84.6890 -13.6379 -10.8099 -0.1909 -11.3062 20.8080
# 2 -13.6379 61.6744 14.8399 1.6950 -5.0505 19.2614
# 3 -10.8099 14.8399 39.1100 3.8300 -15.4249 8.1206
# 4 -0.1909 1.6950 3.8300 27.4951 8.5692 1.1969
# 5 -11.3062 -5.0505 -15.4249 8.5692 38.5624 1.9625
# 6 20.8080 19.2614 8.1206 1.1969 1.9625 30.3029
#
#
#
# Elastic Compliance Matrix: (Units=1/GPa)
#
#
# Indices 1 2 3 4 5 6 
#
# 1 0.027443 0.014146 0.018195 -0.008204 0.020716 -0.033729
# 2 0.014146 0.028690 0.004535 -0.004843 0.012310 -0.029771
# 3 0.018195 0.004535 0.048396 -0.014992 0.030130 -0.029704
# 4 -0.008204 -0.004843 -0.014992 0.044242 -0.019491 0.012244
# 5 0.020716 0.012310 0.030130 -0.019491 0.051666 -0.032700
# 6 -0.033729 -0.029771 -0.029704 0.012244 -0.032700 0.084678
#
#
# Mechanical properties :
#
#
# Convention : Reuss Voigt Hill
#
# Bulk Modulus (GPa) = 5.60915 18.47307 12.04111
# Shear Modulus (GPa) = 18.46447 32.27750 25.37098
#
# Velocity S-wave (km/s) = 2.66130 3.51865 3.11957
# Velocity P-wave (km/s) = 3.40513 4.85733 4.19455
#
# Compressibility (1/GPa) = 0.17828023
#
# Stress axis : x y z
#
# Youngs Moduli (GPa) = 36.43950 34.85528 20.66275
#
# Poissons Ratio (x) = -0.49307 -0.37595
# Poissons Ratio (y) = -0.51548 -0.09370
# Poissons Ratio (z) = -0.66301 -0.15806
#
# Static dielectric constant tensor:
#      x y z
#    x 5.139010 0.553510 -0.017930 
#    y 0.553510 4.439350 -0.106330 
#    z -0.017930 -0.106330 4.515910 
# 
# 
# High freq. dielectric constant tensor:
#      x y z
#    x 2.073530 0.035960 0.001190 
#    y 0.035960 2.017390 -0.011940 
#    z 0.001190 -0.011940 2.041740 
# 
# From -- ./inp_files/378293.got.cif
#   From: 2010.06.25/outbox.cif.g09.slc.cpg/sg2_190_cif.got.tgz:378293.got - 2010.06.27 13:26:56.
