data_PCOD8023900
_publ_section_title
;
Structure prediction by ZEFSAII (Michael W. Deem and Ramdas Pophale) SiO2 
 PCOD8023900
Probable space group: P -1
;
_chemical_formula_sum "Si O2"
_cell_formula_units_Z 16
_cell_length_a 11.135255
_cell_length_b 10.189587
_cell_length_c 18.576478
_cell_angle_alpha 50.790961
_cell_angle_beta 150.077876
_cell_angle_gamma 137.707739
_cell_volume 707.244692
_symmetry_space_group_name_H-M "P -1"
_symmetry_group_IT_number 2
_symmetry_cell_setting 'triclinic'
loop_
_space_group_symop_operation_xyz
x,y,z
-x,-y,-z
loop_
_atom_site_type_symbol
_atom_site_label
_atom_site_fract_x
_atom_site_fract_y
_atom_site_fract_z
Si Si1 0.853738 0.923259 0.374765
Si Si2 0.532846 0.294814 0.326344
Si Si3 0.260563 0.669661 0.203540
Si Si4 0.742233 0.821759 0.090761
Si Si5 0.028999 0.752760 0.922331
Si Si6 0.032959 0.270556 0.626506
Si Si7 0.843836 0.065413 0.843057
Si Si8 0.158508 0.732736 0.838731
O O1 0.556184 0.736056 0.299808
O O2 0.998415 0.831319 0.432209
O O3 0.839184 0.098041 0.266239
O O4 0.000000 0.000000 0.500000
O O5 0.292923 0.311615 0.239658
O O6 0.734221 0.503122 0.322652
O O7 0.731052 0.246943 0.496342
O O8 0.394884 0.125312 0.254130
O O9 0.299568 0.835780 0.221605
O O10 0.134195 0.467759 0.252845
O O11 0.053501 0.616623 0.044386
O O12 0.879672 0.841848 0.233003
O O13 0.917361 0.769744 0.142846
O O14 0.408747 0.691207 0.960149
O O15 0.814606 0.038431 0.029652
O O16 0.198920 0.783947 0.926642
O O17 0.000000 0.000000 0.000000
#
# Coordination Sequence:
#
# PCOD8023900 Si02
#       8
#     2   2   2   2   2   2   2   2
#     4  12  26  47  69  97 138 176 221 284 337 400
#     4  10  23  42  67  95 133 179 221 277 331 394
#     4  12  24  43  68 101 135 176 217 280 337 396
#     4  11  22  39  68  96 130 174 221 278 329 397
#     4  11  20  41  69  98 133 172 222 277 334 394
#     4  11  23  44  66  99 130 176 231 271 336 399
#     4  11  22  42  61  97 136 172 219 271 335 392
#     4  12  24  43  70 101 132 175 227 274 339 402
#
# _framework density 22.623004999999999
#
# number of rings (size 3 to 8) (size 9 to 14) (size 15 to 20)
#    0.000    0.750    5.000    3.750    0.000    3.000 
#    9.000    0.000    0.000    0.000    0.000    0.000 
#    0.000    0.000    0.000    0.000    0.000    0.000 
#
# Total GULP energy -198283.939284 kJ/mol
# GULP energy per Si atom -12392.746205 kJ/mol
# Density = 2.257151 g / cm^3
# Si number density = 22.623005 Si / 1000 Ang^3
#
#
#
# Elastic Constant Matrix: (Units=GPa)
#
#
# Indices 1 2 3 4 5 6 
#
# 1 97.1980 8.9976 38.5939 9.6244 -2.7334 14.2933
# 2 8.9976 75.8879 38.1382 21.0774 -2.0409 23.4149
# 3 38.5939 38.1382 108.0485 5.2377 9.9252 15.5736
# 4 9.6244 21.0774 5.2377 22.5319 0.5752 -1.8798
# 5 -2.7334 -2.0409 9.9252 0.5752 37.7892 8.9198
# 6 14.2933 23.4149 15.5736 -1.8798 8.9198 30.5462
#
#
#
# Elastic Compliance Matrix: (Units=1/GPa)
#
#
# Indices 1 2 3 4 5 6 
#
# 1 0.016921 0.012853 -0.007926 -0.019070 0.008386 -0.017351
# 2 0.012853 0.045773 -0.013918 -0.049048 0.017767 -0.042212
# 3 -0.007926 -0.013918 0.015683 0.013756 -0.007904 0.009536
# 4 -0.019070 -0.049048 0.013756 0.100090 -0.021421 0.051922
# 5 0.008386 0.017767 -0.007904 -0.021421 0.036444 -0.025473
# 6 -0.017351 -0.042212 0.009536 0.051922 -0.025473 0.078985
#
#
# Mechanical properties :
#
#
# Convention : Reuss Voigt Hill
#
# Bulk Modulus (GPa) = 16.55736 50.28820 33.42278
# Shear Modulus (GPa) = 15.05980 31.20045 23.13012
#
# Velocity S-wave (km/s) = 2.58289 3.71772 3.20099
# Velocity P-wave (km/s) = 4.02862 6.38009 5.33551
#
# Compressibility (1/GPa) = 0.06039611
#
# Stress axis : x y z
#
# Youngs Moduli (GPa) = 59.09743 21.84703 63.76142
#
# Poissons Ratio (x) = -0.28079 0.50535
# Poissons Ratio (y) = -0.75956 0.88741
# Poissons Ratio (z) = 0.46839 0.30406
#
# Static dielectric constant tensor:
#      x y z
#    x 4.785560 -0.003850 0.175300 
#    y -0.003850 2.536950 -1.611720 
#    z 0.175300 -1.611720 2.312750 
# 
# 
# High freq. dielectric constant tensor:
#      x y z
#    x 1.900070 0.004950 0.011130 
#    y 0.004950 1.897460 0.003730 
#    z 0.011130 0.003730 1.878730 
# 
# From -- ./inp_files/568692.got.cif
#   From: 2010.06.25/outbox.cif.g09.slc.cpg/sg2_285_cif.got.tgz:568692.got - 2010.06.27 13:26:56.
