data_PCOD8023930
_publ_section_title
;
Structure prediction by ZEFSAII (Michael W. Deem and Ramdas Pophale) SiO2 
 PCOD8023930
Probable space group: P -1
;
_chemical_formula_sum "Si O2"
_cell_formula_units_Z 16
_cell_length_a 23.028414
_cell_length_b 14.600651
_cell_length_c 6.254737
_cell_angle_alpha 103.243067
_cell_angle_beta 76.429978
_cell_angle_gamma 159.971031
_cell_volume 699.934295
_symmetry_space_group_name_H-M "P -1"
_symmetry_group_IT_number 2
_symmetry_cell_setting 'triclinic'
loop_
_space_group_symop_operation_xyz
x,y,z
-x,-y,-z
loop_
_atom_site_type_symbol
_atom_site_label
_atom_site_fract_x
_atom_site_fract_y
_atom_site_fract_z
Si Si1 0.689249 0.363738 0.657981
Si Si2 0.438156 0.017723 0.331008
Si Si3 0.873419 0.326413 0.710071
Si Si4 0.592389 0.689452 0.213814
Si Si5 0.012803 0.186792 0.675232
Si Si6 0.690022 0.667529 0.419098
Si Si7 0.265973 0.462996 0.889425
Si Si8 0.108480 0.798816 0.029573
O O1 0.517620 0.142617 0.567130
O O2 0.838412 0.556764 0.469208
O O3 0.652812 0.216732 0.749314
O O4 0.752150 0.543674 0.845967
O O5 0.588716 0.249945 0.155607
O O6 0.305019 0.904941 0.355146
O O7 0.842463 0.182963 0.784969
O O8 0.000000 0.500000 0.500000
O O9 0.945232 0.509908 0.909843
O O10 0.685612 0.753529 0.323695
O O11 0.460005 0.554973 0.395066
O O12 0.500000 0.500000 0.000000
O O13 0.732146 0.966858 0.145536
O O14 0.087738 0.222116 0.798023
O O15 0.933874 0.156673 0.856628
O O16 0.867573 0.921581 0.524311
O O17 0.673840 0.553983 0.217482
#
# Coordination Sequence:
#
# PCOD8023930 Si02
#       8
#     2   2   2   2   2   2   2   2
#     4  10  23  43  70  99 136 186 222 284 353 405
#     4  10  23  42  67  99 139 176 232 280 344 416
#     4  11  26  43  72 106 139 178 230 288 342 414
#     4  11  26  47  73  98 140 188 228 285 348 406
#     4  11  24  45  69 100 138 182 231 280 345 417
#     4  11  27  45  71 104 135 184 238 284 340 412
#     4  11  25  43  70 102 137 176 233 288 339 410
#     4  11  26  45  71 105 138 185 229 281 351 412
#
# _framework density 22.859286999999998
#
# number of rings (size 3 to 8) (size 9 to 14) (size 15 to 20)
#    0.000    1.250    1.250    2.250    8.750    6.500 
#    0.000    0.000    0.000    0.000    0.000    0.000 
#    0.000    0.000    0.000    0.000    0.000    0.000 
#
# Total GULP energy -198491.738285 kJ/mol
# GULP energy per Si atom -12405.733643 kJ/mol
# Density = 2.280726 g / cm^3
# Si number density = 22.859287 Si / 1000 Ang^3
#
#
#
# Elastic Constant Matrix: (Units=GPa)
#
#
# Indices 1 2 3 4 5 6 
#
# 1 106.9125 36.1983 38.6381 -3.3358 4.7091 18.6457
# 2 36.1983 96.1764 27.6181 -7.6494 7.1344 13.9512
# 3 38.6381 27.6181 97.2992 -0.2733 -2.2598 9.0619
# 4 -3.3358 -7.6494 -0.2733 38.3569 -7.1750 5.3079
# 5 4.7091 7.1344 -2.2598 -7.1750 38.8686 5.8180
# 6 18.6457 13.9512 9.0619 5.3079 5.8180 39.5518
#
#
#
# Elastic Compliance Matrix: (Units=1/GPa)
#
#
# Indices 1 2 3 4 5 6 
#
# 1 0.012448 -0.002916 -0.003745 0.000959 -0.000407 -0.004051
# 2 -0.002916 0.012831 -0.002248 0.002437 -0.001267 -0.002777
# 3 -0.003745 -0.002248 0.012486 -0.000316 0.001608 -0.000496
# 4 0.000959 0.002437 -0.000316 0.028491 0.005558 -0.005880
# 5 -0.000407 -0.001267 0.001608 0.005558 0.027813 -0.004567
# 6 -0.004051 -0.002777 -0.000496 -0.005880 -0.004567 0.029747
#
#
# Mechanical properties :
#
#
# Convention : Reuss Voigt Hill
#
# Bulk Modulus (GPa) = 50.13297 56.14412 53.13855
# Shear Modulus (GPa) = 33.71916 36.55104 35.13510
#
# Velocity S-wave (km/s) = 3.84484 4.00304 3.92473
# Velocity P-wave (km/s) = 6.45671 6.78084 6.62076
#
# Compressibility (1/GPa) = 0.01994695
#
# Stress axis : x y z
#
# Youngs Moduli (GPa) = 80.33110 77.93525 80.09183
#
# Poissons Ratio (x) = 0.22724 0.29996
# Poissons Ratio (y) = 0.23422 0.18006
# Poissons Ratio (z) = 0.30086 0.17521
#
# Static dielectric constant tensor:
#      x y z
#    x 4.008560 0.125430 0.164180 
#    y 0.125430 4.301600 -0.000470 
#    z 0.164180 -0.000470 4.176450 
# 
# 
# High freq. dielectric constant tensor:
#      x y z
#    x 1.900040 0.006990 0.003520 
#    y 0.006990 1.909070 0.002520 
#    z 0.003520 0.002520 1.910180 
# 
# From -- ./inp_files/124313.got.cif
#   From: 2010.06.25/outbox.cif.g09.slc.cpg/sg2_63_cif.got.tgz:124313.got - 2010.06.27 13:26:56.
