data_PCOD8023402
_publ_section_title
;
Structure prediction by ZEFSAII (Michael W. Deem and Ramdas Pophale) SiO2 
 PCOD8023402
Probable space group: P -1
;
_chemical_formula_sum "Si O2"
_cell_formula_units_Z 16
_cell_length_a 8.722300
_cell_length_b 21.039222
_cell_length_c 12.125183
_cell_angle_alpha 159.693884
_cell_angle_beta 67.283309
_cell_angle_gamma 111.345477
_cell_volume 712.274844
_symmetry_space_group_name_H-M "P -1"
_symmetry_group_IT_number 2
_symmetry_cell_setting 'triclinic'
loop_
_space_group_symop_operation_xyz
x,y,z
-x,-y,-z
loop_
_atom_site_type_symbol
_atom_site_label
_atom_site_fract_x
_atom_site_fract_y
_atom_site_fract_z
Si Si1 0.941970 0.005158 0.242763
Si Si2 0.695621 0.091942 0.978783
Si Si3 0.331846 0.473422 0.795726
Si Si4 0.352932 0.856514 0.307715
Si Si5 0.130562 0.653788 0.310872
Si Si6 0.561318 0.206777 0.425467
Si Si7 0.134719 0.349316 0.449330
Si Si8 0.659984 0.375712 0.273535
O O1 0.113018 0.955269 0.174509
O O2 0.810018 0.044891 0.439729
O O3 0.974034 0.180924 0.443202
O O4 0.875514 0.847771 0.923492
O O5 0.573256 0.931549 0.707260
O O6 0.671773 0.102579 0.134236
O O7 0.655796 0.288939 0.255423
O O8 0.473477 0.377959 0.670825
O O9 0.282389 0.353818 0.507268
O O10 0.396254 0.674925 0.070352
O O11 0.162611 0.493762 0.950790
O O12 0.500000 0.000000 0.500000
O O13 0.325177 0.797190 0.093095
O O14 0.318034 0.722671 0.397830
O O15 0.036355 0.588122 0.341002
O O16 0.176810 0.496775 0.582104
O O17 0.500000 0.500000 0.500000
#
# Coordination Sequence:
#
# PCOD8023402 Si02
#       8
#     2   2   2   2   2   2   2   2
#     4  11  24  41  66  97 131 171 219 271 324 385
#     4  11  25  42  65 100 131 171 222 267 323 390
#     4  10  23  41  66  97 130 170 219 269 324 384
#     4  10  23  43  67  96 130 175 216 266 327 393
#     4  11  23  41  67  97 130 170 217 271 332 376
#     4  11  24  40  67  98 132 169 220 272 322 385
#     4  11  22  41  66  94 130 169 216 264 326 390
#     4  11  25  43  68  93 130 178 215 265 331 389
#
# _framework density 22.463239000000002
#
# number of rings (size 3 to 8) (size 9 to 14) (size 15 to 20)
#    0.000    1.250    1.250    4.125    8.750    3.000 
#    2.250    0.000    0.000    0.000    0.000    0.000 
#    0.000    0.000    0.000    0.000    0.000    0.000 
#
# Total GULP energy -198435.401354 kJ/mol
# GULP energy per Si atom -12402.212585 kJ/mol
# Density = 2.241211 g / cm^3
# Si number density = 22.463239 Si / 1000 Ang^3
#
#
#
# Elastic Constant Matrix: (Units=GPa)
#
#
# Indices 1 2 3 4 5 6 
#
# 1 90.8549 35.9217 25.3561 18.2433 -21.1046 8.6278
# 2 35.9217 108.0076 34.1869 10.1835 -2.7718 19.1878
# 3 25.3561 34.1869 94.3429 -2.4638 -3.9199 10.3820
# 4 18.2433 10.1835 -2.4638 42.6981 -0.0714 -2.1729
# 5 -21.1046 -2.7718 -3.9199 -0.0714 31.0311 2.4050
# 6 8.6278 19.1878 10.3820 -2.1729 2.4050 40.5722
#
#
#
# Elastic Compliance Matrix: (Units=1/GPa)
#
#
# Indices 1 2 3 4 5 6 
#
# 1 0.017443 -0.003542 -0.002854 -0.006873 0.011352 -0.002345
# 2 -0.003542 0.012333 -0.003150 -0.001830 -0.001377 -0.004290
# 3 -0.002854 -0.003150 0.012662 0.002651 -0.000542 -0.000969
# 4 -0.006873 -0.001830 0.002651 0.027111 -0.004703 0.003380
# 5 0.011352 -0.001377 -0.000542 -0.004703 0.040074 -0.004252
# 6 -0.002345 -0.004290 -0.000969 0.003380 -0.004252 0.027856
#
#
# Mechanical properties :
#
#
# Convention : Reuss Voigt Hill
#
# Bulk Modulus (GPa) = 42.83559 53.79278 48.31418
# Shear Modulus (GPa) = 30.42230 36.04298 33.23264
#
# Velocity S-wave (km/s) = 3.68409 4.01001 3.85050
# Velocity P-wave (km/s) = 6.09978 6.74086 6.42832
#
# Compressibility (1/GPa) = 0.02334507
#
# Stress axis : x y z
#
# Youngs Moduli (GPa) = 57.32821 81.08307 78.97860
#
# Poissons Ratio (x) = 0.28719 0.22544
# Poissons Ratio (y) = 0.20305 0.24879
# Poissons Ratio (z) = 0.16364 0.25542
#
# Static dielectric constant tensor:
#      x y z
#    x 3.846820 0.243240 0.086910 
#    y 0.243240 4.223900 -0.096210 
#    z 0.086910 -0.096210 4.169140 
# 
# 
# High freq. dielectric constant tensor:
#      x y z
#    x 1.875080 0.018790 0.004460 
#    y 0.018790 1.891060 -0.005590 
#    z 0.004460 -0.005590 1.893050 
# 
# From -- ./inp_files/405762.got.cif
#   From: 2010.06.25/outbox.cif.g09.slc.cpg/sg2_203_cif.got.tgz:405762.got - 2010.06.27 13:26:56.
