data_PCOD8023452
_publ_section_title
;
Structure prediction by ZEFSAII (Michael W. Deem and Ramdas Pophale) SiO2 
 PCOD8023452
Probable space group: P -1
;
_chemical_formula_sum "Si O2"
_cell_formula_units_Z 16
_cell_length_a 13.648914
_cell_length_b 9.229379
_cell_length_c 8.959313
_cell_angle_alpha 133.555667
_cell_angle_beta 79.523800
_cell_angle_gamma 90.865582
_cell_volume 794.606357
_symmetry_space_group_name_H-M "P -1"
_symmetry_group_IT_number 2
_symmetry_cell_setting 'triclinic'
loop_
_space_group_symop_operation_xyz
x,y,z
-x,-y,-z
loop_
_atom_site_type_symbol
_atom_site_label
_atom_site_fract_x
_atom_site_fract_y
_atom_site_fract_z
Si Si1 0.460646 0.212324 0.085706
Si Si2 0.206312 0.021653 0.288206
Si Si3 0.171168 0.043207 0.655824
Si Si4 0.181784 0.627691 0.473930
Si Si5 0.001248 0.075321 0.220031
Si Si6 0.679776 0.611064 0.511830
Si Si7 0.711314 0.662010 0.994475
Si Si8 0.348547 0.612741 0.936660
O O1 0.417373 0.371446 0.340073
O O2 0.548548 0.295617 0.031132
O O3 0.372092 0.193557 0.977141
O O4 0.500000 0.000000 0.000000
O O5 0.114669 0.080509 0.241597
O O6 0.163521 0.051592 0.486936
O O7 0.288240 0.167307 0.341475
O O8 0.254453 0.791882 0.078789
O O9 0.233492 0.211958 0.815619
O O10 0.055503 0.077334 0.772920
O O11 0.228089 0.824518 0.541711
O O12 0.232233 0.556879 0.567115
O O13 0.203169 0.451229 0.220081
O O14 0.061788 0.696529 0.583692
O O15 0.000000 0.000000 0.000000
O O16 0.652977 0.545557 0.308953
O O17 0.656514 0.502893 0.988049
#
# Coordination Sequence:
#
# PCOD8023452 Si02
#       8
#     2   2   2   2   2   2   2   2
#     4  11  25  42  66  95 130 165 212 273 317 375
#     4  12  23  43  66  94 136 163 217 260 316 376
#     4  10  23  44  63  94 130 167 212 262 317 375
#     4   9  23  41  63  92 130 166 209 265 311 374
#     4  10  23  41  67  97 130 169 208 267 314 376
#     4  11  24  41  67  94 126 174 208 266 318 382
#     4  11  23  44  68  91 128 173 212 259 323 380
#     4  12  23  44  64  96 127 171 215 261 320 378
#
# _framework density 20.135757999999999
#
# number of rings (size 3 to 8) (size 9 to 14) (size 15 to 20)
#    0.750    0.500    3.750    1.875    5.250    0.500 
#    2.250    2.500    0.000    0.000    0.000    0.000 
#    0.000    0.000    0.000    0.000    0.000    0.000 
#
# Total GULP energy -198382.474435 kJ/mol
# GULP energy per Si atom -12398.904652 kJ/mol
# Density = 2.008993 g / cm^3
# Si number density = 20.135758 Si / 1000 Ang^3
#
#
#
# Elastic Constant Matrix: (Units=GPa)
#
#
# Indices 1 2 3 4 5 6 
#
# 1 77.7029 1.3575 39.1695 0.7368 -7.8164 -5.5075
# 2 1.3575 64.6753 13.4077 0.9408 -3.6051 -7.4474
# 3 39.1695 13.4077 97.1170 -11.9461 -0.6818 -10.2627
# 4 0.7368 0.9408 -11.9461 40.2746 0.2868 -2.3302
# 5 -7.8164 -3.6051 -0.6818 0.2868 33.6754 3.3899
# 6 -5.5075 -7.4474 -10.2627 -2.3302 3.3899 35.5719
#
#
#
# Elastic Compliance Matrix: (Units=1/GPa)
#
#
# Indices 1 2 3 4 5 6 
#
# 1 0.016960 0.001444 -0.007292 -0.002519 0.003936 0.000284
# 2 0.001444 0.016408 -0.002687 -0.001066 0.001780 0.002644
# 3 -0.007292 -0.002687 0.014486 0.004680 -0.002028 0.002988
# 4 -0.002519 -0.001066 0.004680 0.026445 -0.001088 0.002573
# 5 0.003936 0.001780 -0.002028 -0.001088 0.031033 -0.002631
# 6 0.000284 0.002644 0.002988 0.002573 -0.002631 0.029991
#
#
# Mechanical properties :
#
#
# Convention : Reuss Voigt Hill
#
# Bulk Modulus (GPa) = 32.48346 38.59606 35.53976
# Shear Modulus (GPa) = 30.74016 34.27507 32.50761
#
# Velocity S-wave (km/s) = 3.91147 4.13025 4.02235
# Velocity P-wave (km/s) = 6.04704 6.47725 6.26584
#
# Compressibility (1/GPa) = 0.03078490
#
# Stress axis : x y z
#
# Youngs Moduli (GPa) = 58.96178 60.94661 69.03213
#
# Poissons Ratio (x) = -0.08804 0.50338
# Poissons Ratio (y) = -0.08517 0.18549
# Poissons Ratio (z) = 0.42995 0.16377
#
# Static dielectric constant tensor:
#      x y z
#    x 3.490490 0.067310 -0.179700 
#    y 0.067310 3.732630 -0.058360 
#    z -0.179700 -0.058360 3.581510 
# 
# 
# High freq. dielectric constant tensor:
#      x y z
#    x 1.775880 0.002150 -0.008750 
#    y 0.002150 1.796420 -0.010680 
#    z -0.008750 -0.010680 1.789440 
# 
# From -- ./inp_files/299821.got.cif
#   From: 2010.06.25/outbox.cif.g09.slc.cpg/sg2_150_cif.got.tgz:299821.got - 2010.06.27 13:26:56.
