data_PCOD8023409
_publ_section_title
;
Structure prediction by ZEFSAII (Michael W. Deem and Ramdas Pophale) SiO2 
 PCOD8023409
Probable space group: P -1
;
_chemical_formula_sum "Si O2"
_cell_formula_units_Z 16
_cell_length_a 9.548391
_cell_length_b 15.164022
_cell_length_c 8.802049
_cell_angle_alpha 127.313116
_cell_angle_beta 104.874789
_cell_angle_gamma 107.770860
_cell_volume 784.100284
_symmetry_space_group_name_H-M "P -1"
_symmetry_group_IT_number 2
_symmetry_cell_setting 'triclinic'
loop_
_space_group_symop_operation_xyz
x,y,z
-x,-y,-z
loop_
_atom_site_type_symbol
_atom_site_label
_atom_site_fract_x
_atom_site_fract_y
_atom_site_fract_z
Si Si1 0.654044 0.873564 0.150290
Si Si2 0.708056 0.696104 0.180797
Si Si3 0.732013 0.807458 0.793398
Si Si4 0.355716 0.859875 0.225439
Si Si5 0.820021 0.348645 0.769237
Si Si6 0.455323 0.589905 0.275544
Si Si7 0.088093 0.820637 0.557182
Si Si8 0.122097 0.908873 0.000024
O O1 0.744287 0.825382 0.236149
O O2 0.458365 0.824117 0.101994
O O3 0.792206 0.038900 0.358670
O O4 0.625853 0.807508 0.907934
O O5 0.537021 0.636853 0.179319
O O6 0.879153 0.742667 0.378518
O O7 0.662269 0.576860 0.923332
O O8 0.608536 0.659257 0.520927
O O9 0.919112 0.836488 0.929227
O O10 0.775081 0.926036 0.809602
O O11 0.233404 0.733046 0.172796
O O12 0.500000 0.000000 0.500000
O O13 0.223324 0.878986 0.116314
O O14 0.665300 0.357867 0.673901
O O15 0.849388 0.273142 0.566274
O O16 0.000000 0.500000 0.000000
O O17 0.117462 0.847916 0.772176
#
# Coordination Sequence:
#
# PCOD8023409 Si02
#       8
#     2   2   2   2   2   2   2   2
#     4  11  25  39  67 101 127 172 224 275 331 387
#     4  11  23  42  66  95 130 178 222 272 321 392
#     4  10  23  41  66  98 132 176 218 275 330 391
#     4  12  25  44  67 100 133 172 221 278 326 400
#     4  12  25  43  68  99 134 177 221 270 337 392
#     4  11  23  42  68  89 134 179 222 264 330 396
#     4  11  23  42  67  99 134 172 218 276 330 393
#     4  10  24  42  65  98 136 169 219 277 332 383
#
# _framework density 20.405552
#
# number of rings (size 3 to 8) (size 9 to 14) (size 15 to 20)
#    0.000    1.000    5.000    1.125    3.500    1.500 
#    0.000    0.625    0.000    0.000    0.000    0.000 
#    0.000    0.000    0.000    0.000    0.000    0.000 
#
# Total GULP energy -198492.347196 kJ/mol
# GULP energy per Si atom -12405.771700 kJ/mol
# Density = 2.035911 g / cm^3
# Si number density = 20.405552 Si / 1000 Ang^3
#
#
#
# Elastic Constant Matrix: (Units=GPa)
#
#
# Indices 1 2 3 4 5 6 
#
# 1 124.8095 43.0335 36.3352 -2.6757 -2.8061 -14.3740
# 2 43.0335 78.1078 38.8147 7.4726 4.7866 -0.7509
# 3 36.3352 38.8147 127.1439 7.3646 0.9856 -6.7109
# 4 -2.6757 7.4726 7.3646 27.0937 -3.3855 2.4369
# 5 -2.8061 4.7866 0.9856 -3.3855 37.1018 -1.5075
# 6 -14.3740 -0.7509 -6.7109 2.4369 -1.5075 33.3406
#
#
#
# Elastic Compliance Matrix: (Units=1/GPa)
#
#
# Indices 1 2 3 4 5 6 
#
# 1 0.010977 -0.005742 -0.001346 0.002910 0.002044 0.004212
# 2 -0.005742 0.018512 -0.003846 -0.004799 -0.003265 -0.002630
# 3 -0.001346 -0.003846 0.009602 -0.001804 0.000031 0.001399
# 4 0.002910 -0.004799 -0.001804 0.039737 0.004435 -0.001920
# 5 0.002044 -0.003265 0.000031 0.004435 0.028004 0.001756
# 6 0.004212 -0.002630 0.001399 -0.001920 0.001756 0.032251
#
#
# Mechanical properties :
#
#
# Convention : Reuss Voigt Hill
#
# Bulk Modulus (GPa) = 58.06343 62.93644 60.49993
# Shear Modulus (GPa) = 29.99531 33.63240 31.81385
#
# Velocity S-wave (km/s) = 3.83816 4.06421 3.95280
# Velocity P-wave (km/s) = 6.93963 7.27554 7.10957
#
# Compressibility (1/GPa) = 0.01722255
#
# Stress axis : x y z
#
# Youngs Moduli (GPa) = 91.09596 54.02047 104.14531
#
# Poissons Ratio (x) = 0.31020 0.14020
# Poissons Ratio (y) = 0.52309 0.40052
# Poissons Ratio (z) = 0.12264 0.20775
#
# Static dielectric constant tensor:
#      x y z
#    x 3.963770 0.073740 -0.168720 
#    y 0.073740 3.654040 0.131770 
#    z -0.168720 0.131770 3.677950 
# 
# 
# High freq. dielectric constant tensor:
#      x y z
#    x 1.815860 0.003970 -0.008140 
#    y 0.003970 1.786060 0.004450 
#    z -0.008140 0.004450 1.801010 
# 
# From -- ./inp_files/184344.got.cif
#   From: 2010.06.25/outbox.cif.g09.slc.cpg/sg2_93_cif.got.tgz:184344.got - 2010.06.27 13:26:56.
