data_PCOD8023160
_publ_section_title
;
Structure prediction by ZEFSAII (Michael W. Deem and Ramdas Pophale) SiO2 
 PCOD8023160
Probable space group: P -1
;
_chemical_formula_sum "Si O2"
_cell_formula_units_Z 14
_cell_length_a 13.173624
_cell_length_b 11.294259
_cell_length_c 14.006864
_cell_angle_alpha 139.216475
_cell_angle_beta 30.555615
_cell_angle_gamma 119.972014
_cell_volume 614.797144
_symmetry_space_group_name_H-M "P -1"
_symmetry_group_IT_number 2
_symmetry_cell_setting 'triclinic'
loop_
_space_group_symop_operation_xyz
x,y,z
-x,-y,-z
loop_
_atom_site_type_symbol
_atom_site_label
_atom_site_fract_x
_atom_site_fract_y
_atom_site_fract_z
Si Si1 0.339725 0.099515 0.051559
Si Si2 0.068991 0.543159 0.335613
Si Si3 0.478173 0.715557 0.817020
Si Si4 0.859283 0.301787 0.274129
Si Si5 0.285041 0.958607 0.636245
Si Si6 0.546391 0.230416 0.813630
Si Si7 0.153104 0.765838 0.256385
O O1 0.451143 0.178240 0.090556
O O2 0.079559 0.272178 0.358785
O O3 0.458817 0.079076 0.840388
O O4 0.369848 0.874965 0.915455
O O5 0.022515 0.641687 0.324215
O O6 0.983155 0.371386 0.297463
O O7 0.328138 0.445012 0.098719
O O8 0.676828 0.502931 0.489524
O O9 0.291832 0.663500 0.985928
O O10 0.726596 0.192175 0.365376
O O11 0.047150 0.162539 0.960493
O O12 0.500000 0.000000 0.500000
O O13 0.305058 0.866217 0.458888
O O14 0.698624 0.265146 0.788393
O O15 0.000000 0.000000 0.500000
#
# Coordination Sequence:
#
# PCOD8023160 Si02
#       7
#     2   2   2   2   2   2   2
#     4   9  19  34  58  90 130 159 203 261 330 386
#     4  11  20  38  63  99 129 167 211 269 330 392
#     4   9  18  37  58  91 127 170 206 257 326 394
#     4  10  23  40  71  90 129 173 222 268 327 370
#     4  11  23  46  63  95 127 176 226 275 310 376
#     4  11  23  37  63  94 133 170 218 268 320 385
#     4  11  22  38  63  98 137 171 204 266 336 395
#
# _framework density 22.771739
#
# number of rings (size 3 to 8) (size 9 to 14) (size 15 to 20)
#    0.000    1.714    2.857    1.714    2.000    3.429 
#    0.000    0.714    0.000    1.714    0.000    0.000 
#    0.000    0.000    0.000    0.000    0.000    0.000 
#
# Total GULP energy -173470.239839 kJ/mol
# GULP energy per Si atom -12390.731417 kJ/mol
# Density = 2.271991 g / cm^3
# Si number density = 22.771739 Si / 1000 Ang^3
#
#
#
# Elastic Constant Matrix: (Units=GPa)
#
#
# Indices 1 2 3 4 5 6 
#
# 1 38.8225 24.0688 29.8791 6.5311 -12.0792 -11.9324
# 2 24.0688 121.5182 51.7010 -11.2921 2.4424 -11.5077
# 3 29.8791 51.7010 187.9347 1.3567 -2.4854 -18.6758
# 4 6.5311 -11.2921 1.3567 44.1287 -9.4591 0.4275
# 5 -12.0792 2.4424 -2.4854 -9.4591 23.6696 -10.3649
# 6 -11.9324 -11.5077 -18.6758 0.4275 -10.3649 25.4526
#
#
#
# Elastic Compliance Matrix: (Units=1/GPa)
#
#
# Indices 1 2 3 4 5 6 
#
# 1 0.063255 -0.008239 -0.002576 -0.000571 0.052531 0.045441
# 2 -0.008239 0.010848 -0.002047 0.002883 -0.005609 -0.002792
# 3 -0.002576 -0.002047 0.006612 -0.000191 0.000859 0.003071
# 4 -0.000571 0.002883 -0.000191 0.026045 0.012170 0.005414
# 5 0.052531 -0.005609 0.000859 0.012170 0.102777 0.064370
# 6 0.045441 -0.002792 0.003071 0.005414 0.064370 0.087705
#
#
# Mechanical properties :
#
#
# Convention : Reuss Voigt Hill
#
# Bulk Modulus (GPa) = 18.18430 62.17479 40.17955
# Shear Modulus (GPa) = 14.65006 34.82529 24.73768
#
# Velocity S-wave (km/s) = 2.53917 3.91490 3.29953
# Velocity P-wave (km/s) = 4.07423 6.91361 5.67439
#
# Compressibility (1/GPa) = 0.05499249
#
# Stress axis : x y z
#
# Youngs Moduli (GPa) = 15.80891 92.18186 151.24910
#
# Poissons Ratio (x) = 0.75944 0.38959
# Poissons Ratio (y) = 0.13024 0.30960
# Poissons Ratio (z) = 0.04072 0.18869
#
# Static dielectric constant tensor:
#      x y z
#    x 3.582700 -0.213910 -0.231340 
#    y -0.213910 4.857530 -0.294670 
#    z -0.231340 -0.294670 4.376100 
# 
# 
# High freq. dielectric constant tensor:
#      x y z
#    x 1.842130 -0.017640 -0.026200 
#    y -0.017640 1.925540 -0.015530 
#    z -0.026200 -0.015530 1.907080 
# 
# From -- ./inp_files/518679.got.cif
#   From: 2010.06.25/outbox.cif.g09.slc.cpg/sg2_260_cif.got.tgz:518679.got - 2010.06.27 13:26:56.
