data_PCOD8023961
_publ_section_title
;
Structure prediction by ZEFSAII (Michael W. Deem and Ramdas Pophale) SiO2 
 PCOD8023961
Probable space group: P -1
;
_chemical_formula_sum "Si O2"
_cell_formula_units_Z 16
_cell_length_a 6.211702
_cell_length_b 11.468333
_cell_length_c 13.304367
_cell_angle_alpha 124.390796
_cell_angle_beta 66.496009
_cell_angle_gamma 91.820306
_cell_volume 693.374939
_symmetry_space_group_name_H-M "P -1"
_symmetry_group_IT_number 2
_symmetry_cell_setting 'triclinic'
loop_
_space_group_symop_operation_xyz
x,y,z
-x,-y,-z
loop_
_atom_site_type_symbol
_atom_site_label
_atom_site_fract_x
_atom_site_fract_y
_atom_site_fract_z
Si Si1 0.778841 0.586342 0.745987
Si Si2 0.430662 0.755907 0.744621
Si Si3 0.615635 0.586794 0.243270
Si Si4 0.987961 0.076532 0.400832
Si Si5 0.768604 0.661674 0.464940
Si Si6 0.219603 0.018509 0.788534
Si Si7 0.614093 0.126780 0.662132
Si Si8 0.978704 0.314714 0.080455
O O1 0.663289 0.722581 0.760144
O O2 0.615397 0.472867 0.718686
O O3 0.045378 0.493141 0.617229
O O4 0.791831 0.653731 0.887964
O O5 0.525850 0.674866 0.582505
O O6 0.213133 0.699105 0.803701
O O7 0.333392 0.928955 0.823340
O O8 0.693939 0.666742 0.364729
O O9 0.538508 0.702555 0.222602
O O10 0.843988 0.452783 0.103357
O O11 0.729654 0.096933 0.515011
O O12 0.113507 0.204503 0.467714
O O13 0.944898 0.068236 0.284988
O O14 0.162677 0.917890 0.322545
O O15 0.427566 0.032011 0.678487
O O16 0.054947 0.174156 0.928758
#
# Coordination Sequence:
#
# PCOD8023961 Si02
#       8
#     2   2   2   2   2   2   2   2
#     4  10  23  42  68  91 131 166 212 263 316 369
#     4  11  24  41  65  97 127 169 212 263 310 377
#     4  10  23  43  67  95 130 163 212 266 312 378
#     4  11  25  40  67 101 128 161 206 266 327 374
#     4  11  22  41  67 100 128 161 211 261 329 371
#     4  12  26  44  64  94 132 169 213 258 312 381
#     4  11  24  41  70  97 125 163 210 266 322 377
#     4  10  26  45  63  91 130 174 215 256 307 372
#
# _framework density 23.075538999999999
#
# number of rings (size 3 to 8) (size 9 to 14) (size 15 to 20)
#    0.000    1.250    2.500    1.875    5.250    7.500 
#    0.000    1.250    0.000    0.000    0.000    0.000 
#    0.000    0.000    0.000    0.000    0.000    0.000 
#
# Total GULP energy -198307.812583 kJ/mol
# GULP energy per Si atom -12394.238286 kJ/mol
# Density = 2.302302 g / cm^3
# Si number density = 23.075539 Si / 1000 Ang^3
#
#
#
# Elastic Constant Matrix: (Units=GPa)
#
#
# Indices 1 2 3 4 5 6 
#
# 1 101.4708 47.7755 56.9952 17.3563 -2.3545 -7.0422
# 2 47.7755 105.1346 24.5847 23.4991 -6.0688 -22.1598
# 3 56.9952 24.5847 82.5767 26.3614 6.1057 -8.6337
# 4 17.3563 23.4991 26.3614 32.7293 -4.8405 -16.8081
# 5 -2.3545 -6.0688 6.1057 -4.8405 26.4826 14.1557
# 6 -7.0422 -22.1598 -8.6337 -16.8081 14.1557 44.7126
#
#
#
# Elastic Compliance Matrix: (Units=1/GPa)
#
#
# Indices 1 2 3 4 5 6 
#
# 1 0.020446 -0.007440 -0.014394 0.005373 0.006102 -0.003158
# 2 -0.007440 0.014524 0.003844 -0.007526 -0.002047 0.004588
# 3 -0.014394 0.003844 0.027702 -0.018238 -0.010978 0.001607
# 4 0.005373 -0.007526 -0.018238 0.055038 0.006479 0.012233
# 5 0.006102 -0.002047 -0.010978 0.006479 0.049844 -0.015518
# 6 -0.003158 0.004588 0.001607 0.012233 -0.015518 0.033963
#
#
# Mechanical properties :
#
#
# Convention : Reuss Voigt Hill
#
# Bulk Modulus (GPa) = 37.46084 60.87699 49.16891
# Shear Modulus (GPa) = 20.29275 31.44003 25.86639
#
# Velocity S-wave (km/s) = 2.96869 3.69519 3.35168
# Velocity P-wave (km/s) = 5.29340 6.68167 6.02764
#
# Compressibility (1/GPa) = 0.02669454
#
# Stress axis : x y z
#
# Youngs Moduli (GPa) = 48.90928 68.84941 36.09877
#
# Poissons Ratio (x) = 0.51222 0.51959
# Poissons Ratio (y) = 0.36387 -0.13878
# Poissons Ratio (z) = 0.70398 -0.26468
#
# Static dielectric constant tensor:
#      x y z
#    x 4.340450 -0.345260 -0.349740 
#    y -0.345260 4.331170 0.283910 
#    z -0.349740 0.283910 3.916510 
# 
# 
# High freq. dielectric constant tensor:
#      x y z
#    x 1.921360 -0.015220 -0.018970 
#    y -0.015220 1.910700 0.019250 
#    z -0.018970 0.019250 1.889010 
# 
# From -- ./inp_files/483013.got.cif
#   From: 2010.06.25/outbox.cif.g09.slc.cpg/sg2_242_cif.got.tgz:483013.got - 2010.06.27 13:26:56.
