data_PCOD8023671
_publ_section_title
;
Structure prediction by ZEFSAII (Michael W. Deem and Ramdas Pophale) SiO2 
 PCOD8023671
Probable space group: P -1
;
_chemical_formula_sum "Si O2"
_cell_formula_units_Z 16
_cell_length_a 11.586641
_cell_length_b 11.663123
_cell_length_c 8.578322
_cell_angle_alpha 81.257086
_cell_angle_beta 48.715651
_cell_angle_gamma 63.091470
_cell_volume 757.974167
_symmetry_space_group_name_H-M "P -1"
_symmetry_group_IT_number 2
_symmetry_cell_setting 'triclinic'
loop_
_space_group_symop_operation_xyz
x,y,z
-x,-y,-z
loop_
_atom_site_type_symbol
_atom_site_label
_atom_site_fract_x
_atom_site_fract_y
_atom_site_fract_z
Si Si1 0.376460 0.267834 0.035976
Si Si2 0.524659 0.137392 0.225581
Si Si3 0.112022 0.376890 0.817174
Si Si4 0.404447 0.633222 0.347272
Si Si5 0.527792 0.639115 0.566825
Si Si6 0.215339 0.146875 0.983585
Si Si7 0.142178 0.272796 0.495965
Si Si8 0.969058 0.147094 0.469321
O O1 0.428526 0.370625 0.888971
O O2 0.535191 0.165139 0.025532
O O3 0.349067 0.184566 0.942564
O O4 0.198699 0.338437 0.287240
O O5 0.572648 0.234632 0.260358
O O6 0.326220 0.163796 0.432865
O O7 0.666498 0.992062 0.175463
O O8 0.299728 0.366985 0.655138
O O9 0.043088 0.381909 0.698510
O O10 0.110045 0.250990 0.922529
O O11 0.000000 0.500000 0.000000
O O12 0.402476 0.654636 0.530867
O O13 0.421297 0.488799 0.342612
O O14 0.231693 0.749358 0.402443
O O15 0.077219 0.140184 0.222716
O O16 0.032435 0.201675 0.549394
O O17 0.000000 0.000000 0.500000
#
# Coordination Sequence:
#
# PCOD8023671 Si02
#       8
#     2   2   2   2   2   2   2   2
#     4   9  19  38  64  92 121 160 210 257 309 372
#     4   9  20  39  64  93 123 158 227 255 306 375
#     4  11  22  43  66  92 127 166 219 261 315 378
#     4  11  22  41  65  92 133 172 206 262 323 375
#     4  10  23  42  62  96 127 169 215 264 313 378
#     4  11  21  39  67  92 121 173 209 258 317 374
#     4   8  22  41  63  93 126 163 215 265 300 386
#     4  11  24  40  64  98 136 164 206 266 326 377
#
# _framework density 21.108899000000001
#
# number of rings (size 3 to 8) (size 9 to 14) (size 15 to 20)
#    0.750    1.250    1.250    1.875    1.750    3.500 
#    2.250   11.250    0.000    0.000    0.000    0.000 
#    0.000    0.000    0.000    0.000    0.000    0.000 
#
# Total GULP energy -198260.986684 kJ/mol
# GULP energy per Si atom -12391.311668 kJ/mol
# Density = 2.106085 g / cm^3
# Si number density = 21.108899 Si / 1000 Ang^3
#
#
#
# Elastic Constant Matrix: (Units=GPa)
#
#
# Indices 1 2 3 4 5 6 
#
# 1 97.7561 52.2057 34.6660 7.8244 12.8437 16.6015
# 2 52.2057 146.7141 65.5738 -5.6280 10.9306 8.9238
# 3 34.6660 65.5738 96.5074 -0.9886 6.7938 17.2793
# 4 7.8244 -5.6280 -0.9886 37.1980 11.1325 2.2942
# 5 12.8437 10.9306 6.7938 11.1325 26.2981 -0.2083
# 6 16.6015 8.9238 17.2793 2.2942 -0.2083 27.5477
#
#
#
# Elastic Compliance Matrix: (Units=1/GPa)
#
#
# Indices 1 2 3 4 5 6 
#
# 1 0.014660 -0.004123 -0.000965 -0.001998 -0.004405 -0.006761
# 2 -0.004123 0.011295 -0.006479 0.002905 -0.002216 0.002631
# 3 -0.000965 -0.006479 0.016614 0.000574 -0.001433 -0.007800
# 4 -0.001998 0.002905 0.000574 0.032126 -0.014003 -0.002878
# 5 -0.004405 -0.002216 -0.001433 -0.014003 0.047442 0.005796
# 6 -0.006761 0.002631 -0.007800 -0.002878 0.005796 0.044699
#
#
# Mechanical properties :
#
#
# Convention : Reuss Voigt Hill
#
# Bulk Modulus (GPa) = 51.44926 71.76318 61.60622
# Shear Modulus (GPa) = 25.45196 30.77755 28.11476
#
# Velocity S-wave (km/s) = 3.47615 3.82257 3.65347
# Velocity P-wave (km/s) = 6.36692 7.31800 6.85897
#
# Compressibility (1/GPa) = 0.01943663
#
# Stress axis : x y z
#
# Youngs Moduli (GPa) = 68.21209 88.53157 60.19002
#
# Poissons Ratio (x) = 0.36498 0.05806
# Poissons Ratio (y) = 0.28121 0.38999
# Poissons Ratio (z) = 0.06580 0.57362
#
# Static dielectric constant tensor:
#      x y z
#    x 3.796660 0.117420 0.162330 
#    y 0.117420 3.732070 -0.138710 
#    z 0.162330 -0.138710 3.827060 
# 
# 
# High freq. dielectric constant tensor:
#      x y z
#    x 1.822670 0.008390 0.012670 
#    y 0.008390 1.816390 -0.009590 
#    z 0.012670 -0.009590 1.823360 
# 
# From -- ./inp_files/257899.got.cif
#   From: 2010.06.25/outbox.cif.g09.slc.cpg/sg2_129_cif.got.tgz:257899.got - 2010.06.27 13:26:56.
