data_PCOD8023379
_publ_section_title
;
Structure prediction by ZEFSAII (Michael W. Deem and Ramdas Pophale) SiO2 
 PCOD8023379
Probable space group: P -1
;
_chemical_formula_sum "Si O2"
_cell_formula_units_Z 16
_cell_length_a 18.917690
_cell_length_b 7.941979
_cell_length_c 6.451549
_cell_angle_alpha 113.521417
_cell_angle_beta 107.941597
_cell_angle_gamma 58.513382
_cell_volume 751.732774
_symmetry_space_group_name_H-M "P -1"
_symmetry_group_IT_number 2
_symmetry_cell_setting 'triclinic'
loop_
_space_group_symop_operation_xyz
x,y,z
-x,-y,-z
loop_
_atom_site_type_symbol
_atom_site_label
_atom_site_fract_x
_atom_site_fract_y
_atom_site_fract_z
Si Si1 0.094187 0.848967 0.940084
Si Si2 0.246675 0.816970 0.350284
Si Si3 0.430576 0.449440 0.315163
Si Si4 0.906926 0.567399 0.395006
Si Si5 0.838792 0.960077 0.233422
Si Si6 0.222277 0.192615 0.278756
Si Si7 0.483658 0.153972 0.874241
Si Si8 0.389067 0.163029 0.413029
O O1 0.105964 0.617482 0.808655
O O2 0.103021 0.956034 0.788413
O O3 0.166634 0.824923 0.156479
O O4 0.000000 0.000000 0.000000
O O5 0.334214 0.619036 0.299918
O O6 0.224751 0.848261 0.590074
O O7 0.263098 0.005756 0.385730
O O8 0.500000 0.500000 0.500000
O O9 0.433193 0.273787 0.381761
O O10 0.459421 0.374678 0.067714
O O11 0.886554 0.759436 0.319789
O O12 0.859019 0.627234 0.601265
O O13 0.000000 0.500000 0.500000
O O14 0.791711 0.890954 0.990439
O O15 0.290073 0.274562 0.340162
O O16 0.405468 0.169408 0.675266
O O17 0.565155 0.072792 0.755358
O O18 0.500000 0.000000 0.000000
#
# Coordination Sequence:
#
# PCOD8023379 Si02
#       8
#     2   2   2   2   2   2   2   2
#     4  11  25  45  71 101 136 176 224 277 333 407
#     4  10  25  42  64  98 135 173 222 275 336 396
#     4  11  26  40  63  97 135 171 220 277 333 394
#     4  11  25  43  69 101 135 175 223 274 336 406
#     4  10  24  45  66  98 138 178 215 279 337 390
#     4  10  24  41  68  94 128 173 225 274 325 403
#     4   9  22  41  62  87 125 164 218 268 324 389
#     4  10  23  41  66  93 123 176 224 266 340 390
#
# _framework density 21.284161000000001
#
# number of rings (size 3 to 8) (size 9 to 14) (size 15 to 20)
#    0.000    1.750    0.000    2.250   12.250    7.500 
#    0.000    0.000    0.000    0.000    0.000    0.000 
#    0.000    0.000    0.000    0.000    0.000    0.000 
#
# Total GULP energy -198243.591740 kJ/mol
# GULP energy per Si atom -12390.224484 kJ/mol
# Density = 2.123572 g / cm^3
# Si number density = 21.284161 Si / 1000 Ang^3
#
#
#
# Elastic Constant Matrix: (Units=GPa)
#
#
# Indices 1 2 3 4 5 6 
#
# 1 147.0892 45.8212 75.5174 6.1982 3.8692 -23.7114
# 2 45.8212 85.6566 48.4632 13.4857 -4.9189 -19.4970
# 3 75.5174 48.4632 169.4802 18.4896 -12.6209 -21.9764
# 4 6.1982 13.4857 18.4896 36.5619 -2.6761 -3.3072
# 5 3.8692 -4.9189 -12.6209 -2.6761 32.7245 -1.0387
# 6 -23.7114 -19.4970 -21.9764 -3.3072 -1.0387 43.5620
#
#
#
# Elastic Compliance Matrix: (Units=1/GPa)
#
#
# Indices 1 2 3 4 5 6 
#
# 1 0.010033 -0.003174 -0.003629 0.001296 -0.002886 0.002239
# 2 -0.003174 0.016250 -0.002128 -0.003865 0.001815 0.004222
# 3 -0.003629 -0.002128 0.008853 -0.002704 0.003347 0.001413
# 4 0.001296 -0.003865 -0.002704 0.029964 0.000670 -0.000098
# 5 -0.002886 0.001815 0.003347 0.000670 0.032574 0.001758
# 6 0.002239 0.004222 0.001413 -0.000098 0.001758 0.026812
#
#
# Mechanical properties :
#
#
# Convention : Reuss Voigt Hill
#
# Bulk Modulus (GPa) = 57.88937 82.42550 70.15743
# Shear Modulus (GPa) = 33.75962 38.06463 35.91212
#
# Velocity S-wave (km/s) = 3.98696 4.23354 4.11210
# Velocity P-wave (km/s) = 6.96073 7.91880 7.45517
#
# Compressibility (1/GPa) = 0.01727433
#
# Stress axis : x y z
#
# Youngs Moduli (GPa) = 99.67474 61.53790 112.95049
#
# Poissons Ratio (x) = 0.19531 0.40987
# Poissons Ratio (y) = 0.31636 0.24040
# Poissons Ratio (z) = 0.36169 0.13097
#
# Static dielectric constant tensor:
#      x y z
#    x 3.958270 0.119220 -0.413970 
#    y 0.119220 4.257000 0.084770 
#    z -0.413970 0.084770 4.532500 
# 
# 
# High freq. dielectric constant tensor:
#      x y z
#    x 1.837980 -0.005310 -0.007910 
#    y -0.005310 1.835630 0.004950 
#    z -0.007910 0.004950 1.851530 
# 
# From -- ./inp_files/107666.got.cif
#   From: 2010.06.25/outbox.cif.g09.slc.cpg/sg2_54_cif.got.tgz:107666.got - 2010.06.27 13:26:56.
