data_PCOD8023944
_publ_section_title
;
Structure prediction by ZEFSAII (Michael W. Deem and Ramdas Pophale) SiO2 
 PCOD8023944
Probable space group: P -1
;
_chemical_formula_sum "Si O2"
_cell_formula_units_Z 16
_cell_length_a 5.179422
_cell_length_b 20.404254
_cell_length_c 7.386231
_cell_angle_alpha 66.948896
_cell_angle_beta 111.379195
_cell_angle_gamma 78.635651
_cell_volume 614.004847
_symmetry_space_group_name_H-M "P -1"
_symmetry_group_IT_number 2
_symmetry_cell_setting 'triclinic'
loop_
_space_group_symop_operation_xyz
x,y,z
-x,-y,-z
loop_
_atom_site_type_symbol
_atom_site_label
_atom_site_fract_x
_atom_site_fract_y
_atom_site_fract_z
Si Si1 0.743234 0.916303 0.697925
Si Si2 0.359550 0.460737 0.647491
Si Si3 0.598248 0.130251 0.018409
Si Si4 0.151377 0.560822 0.932319
Si Si5 0.252248 0.178678 0.536390
Si Si6 0.617329 0.698810 0.738543
Si Si7 0.577926 0.700981 0.127345
Si Si8 0.870726 0.330711 0.490792
O O1 0.597447 0.878341 0.851944
O O2 0.850563 0.867031 0.592667
O O3 0.047247 0.926271 0.831200
O O4 0.500000 0.000000 0.500000
O O5 0.500000 0.500000 0.500000
O O6 0.477468 0.370228 0.719271
O O7 0.000000 0.500000 0.500000
O O8 0.496984 0.468178 0.875640
O O9 0.446546 0.117835 0.806548
O O10 0.603253 0.216620 0.913598
O O11 0.118421 0.591789 0.682697
O O12 0.965894 0.639534 0.913735
O O13 0.000000 0.500000 0.000000
O O14 0.454947 0.214326 0.438972
O O15 0.989678 0.252904 0.478679
O O16 0.477495 0.658066 0.595521
O O17 0.471467 0.705952 0.889822
O O18 0.937627 0.684258 0.259954
#
# Coordination Sequence:
#
# PCOD8023944 Si02
#       8
#     2   2   2   2   2   2   2   2
#     4  12  27  48  76 112 154 195 241 305 372 440
#     4  12  27  44  67 101 142 191 243 310 375 439
#     4  11  27  46  78 110 147 197 247 302 365 449
#     4  11  25  43  62  95 141 189 243 308 379 440
#     4  10  25  43  72 110 146 189 250 300 366 441
#     4  11  22  43  71  97 139 188 245 310 365 435
#     4  11  23  45  73 104 138 192 252 300 374 442
#     4  10  23  42  68 102 133 186 245 311 358 443
#
# _framework density 26.058426000000001
#
# number of rings (size 3 to 8) (size 9 to 14) (size 15 to 20)
#    0.000    1.000    2.500    2.625    7.000    2.500 
#    4.500    0.000    0.000    0.000    0.000    0.000 
#    0.000    0.000    0.000    0.000    0.000    0.000 
#
# Total GULP energy -198209.971459 kJ/mol
# GULP energy per Si atom -12388.123216 kJ/mol
# Density = 2.599912 g / cm^3
# Si number density = 26.058426 Si / 1000 Ang^3
#
#
#
# Elastic Constant Matrix: (Units=GPa)
#
#
# Indices 1 2 3 4 5 6 
#
# 1 86.2740 2.2386 35.4224 -3.6335 16.5781 7.9233
# 2 2.2386 53.6793 24.4151 -5.3556 -4.4733 6.1255
# 3 35.4224 24.4151 156.3809 11.9439 15.3533 4.1655
# 4 -3.6335 -5.3556 11.9439 39.9407 7.8407 5.6229
# 5 16.5781 -4.4733 15.3533 7.8407 47.6151 -0.3010
# 6 7.9233 6.1255 4.1655 5.6229 -0.3010 28.7140
#
#
#
# Elastic Compliance Matrix: (Units=1/GPa)
#
#
# Indices 1 2 3 4 5 6 
#
# 1 0.014328 0.001409 -0.003204 0.003986 -0.004509 -0.004617
# 2 0.001409 0.021681 -0.004119 0.004604 0.002083 -0.005296
# 3 -0.003204 -0.004119 0.008107 -0.003170 -0.001356 0.001193
# 4 0.003986 0.004604 -0.003170 0.028929 -0.004743 -0.007337
# 5 -0.004509 0.002083 -0.001356 -0.004743 0.023999 0.002177
# 6 -0.004617 -0.005296 0.001193 -0.007337 0.002177 0.038516
#
#
# Mechanical properties :
#
#
# Convention : Reuss Voigt Hill
#
# Bulk Modulus (GPa) = 30.97222 46.72072 38.84647
# Shear Modulus (GPa) = 31.61498 38.87115 35.24307
#
# Velocity S-wave (km/s) = 3.48693 3.86643 3.68158
# Velocity P-wave (km/s) = 5.30312 6.15634 5.74559
#
# Compressibility (1/GPa) = 0.03228700
#
# Stress axis : x y z
#
# Youngs Moduli (GPa) = 69.79207 46.12294 123.35016
#
# Poissons Ratio (x) = -0.06497 0.39525
# Poissons Ratio (y) = -0.09831 0.50810
# Poissons Ratio (z) = 0.22363 0.18999
#
# Static dielectric constant tensor:
#      x y z
#    x 4.550170 0.141500 0.200990 
#    y 0.141500 4.634290 0.046890 
#    z 0.200990 0.046890 5.136220 
# 
# 
# High freq. dielectric constant tensor:
#      x y z
#    x 2.034100 0.005030 0.012750 
#    y 0.005030 2.029600 0.004480 
#    z 0.012750 0.004480 2.067960 
# 
# From -- ./inp_files/140625.got.cif
#   From: 2010.06.25/outbox.cif.g09.slc.cpg/sg2_71_cif.got.tgz:140625.got - 2010.06.27 13:26:56.
