data_PCOD8023661
_publ_section_title
;
Structure prediction by ZEFSAII (Michael W. Deem and Ramdas Pophale) SiO2 
 PCOD8023661
Probable space group: P -1
;
_chemical_formula_sum "Si O2"
_cell_formula_units_Z 16
_cell_length_a 9.481389
_cell_length_b 21.078982
_cell_length_c 20.697862
_cell_angle_alpha 19.232892
_cell_angle_beta 141.570679
_cell_angle_gamma 131.720400
_cell_volume 789.443357
_symmetry_space_group_name_H-M "P -1"
_symmetry_group_IT_number 2
_symmetry_cell_setting 'triclinic'
loop_
_space_group_symop_operation_xyz
x,y,z
-x,-y,-z
loop_
_atom_site_type_symbol
_atom_site_label
_atom_site_fract_x
_atom_site_fract_y
_atom_site_fract_z
Si Si1 0.953586 0.195802 0.249746
Si Si2 0.360521 0.352762 0.265817
Si Si3 0.508850 0.197980 0.610226
Si Si4 0.297652 0.799616 0.098047
Si Si5 0.906962 0.229839 0.555788
Si Si6 0.276522 0.367547 0.494300
Si Si7 0.401963 0.807266 0.978133
Si Si8 0.170705 0.591295 0.509963
O O1 0.857691 0.139883 0.200843
O O2 0.198915 0.240773 0.279476
O O3 0.763738 0.398860 0.021667
O O4 0.000000 0.000000 0.500000
O O5 0.383780 0.277108 0.420774
O O6 0.621488 0.278832 0.394313
O O7 0.345903 0.344268 0.466678
O O8 0.777863 0.216544 0.690197
O O9 0.537438 0.962532 0.857677
O O10 0.232622 0.597487 0.280557
O O11 0.516140 0.794177 0.230254
O O12 0.377584 0.816362 0.037485
O O13 0.050773 0.985574 0.848731
O O14 0.945466 0.342785 0.525556
O O15 0.027780 0.321081 0.455077
O O16 0.562321 0.584778 0.221412
O O17 0.000000 0.500000 0.500000
#
# Coordination Sequence:
#
# PCOD8023661 Si02
#       8
#     2   2   2   2   2   2   2   2
#     4  11  21  40  71  91 124 170 217 261 333 385
#     4  10  23  42  62 100 128 157 215 279 320 378
#     4  11  22  40  65  91 127 172 213 254 321 386
#     4  11  24  40  65  91 132 176 217 256 317 388
#     4  11  23  40  62  96 131 161 213 277 314 370
#     4  11  23  40  65  90 129 184 217 249 319 393
#     4  12  22  42  66  94 127 171 218 261 324 385
#     4  11  25  41  60  97 135 164 214 274 313 375
#
# _framework density 20.267444999999999
#
# number of rings (size 3 to 8) (size 9 to 14) (size 15 to 20)
#    0.000    1.000    6.250    1.125    3.500    3.500 
#    0.000    0.625    0.000    7.500    0.000    0.000 
#    0.000    0.000    0.000    0.000    0.000    0.000 
#
# Total GULP energy -198385.365988 kJ/mol
# GULP energy per Si atom -12399.085374 kJ/mol
# Density = 2.022131 g / cm^3
# Si number density = 20.267445 Si / 1000 Ang^3
#
#
#
# Elastic Constant Matrix: (Units=GPa)
#
#
# Indices 1 2 3 4 5 6 
#
# 1 86.1235 32.6122 26.4738 11.7561 0.0391 11.9526
# 2 32.6122 111.9907 16.7232 6.2003 -7.1522 25.5801
# 3 26.4738 16.7232 99.4013 -2.5588 -0.1312 9.7011
# 4 11.7561 6.2003 -2.5588 29.3908 1.2441 2.7764
# 5 0.0391 -7.1522 -0.1312 1.2441 33.3849 -2.8168
# 6 11.9526 25.5801 9.7011 2.7764 -2.8168 43.7833
#
#
#
# Elastic Compliance Matrix: (Units=1/GPa)
#
#
# Indices 1 2 3 4 5 6 
#
# 1 0.014795 -0.003298 -0.003422 -0.005394 -0.000625 -0.001052
# 2 -0.003298 0.011381 -0.000519 -0.000696 0.002005 -0.005461
# 3 -0.003422 -0.000519 0.011267 0.002607 -0.000282 -0.001442
# 4 -0.005394 -0.000696 0.002607 0.036730 -0.001597 -0.001130
# 5 -0.000625 0.002005 -0.000282 -0.001597 0.030538 0.001127
# 6 -0.001052 -0.005461 -0.001442 -0.001130 0.001127 0.026781
#
#
# Mechanical properties :
#
#
# Convention : Reuss Voigt Hill
#
# Bulk Modulus (GPa) = 43.54698 49.90379 46.72539
# Shear Modulus (GPa) = 32.54687 36.09222 34.31954
#
# Velocity S-wave (km/s) = 4.01168 4.22453 4.11948
# Velocity P-wave (km/s) = 6.55674 6.96216 6.76249
#
# Compressibility (1/GPa) = 0.02296370
#
# Stress axis : x y z
#
# Youngs Moduli (GPa) = 67.59129 87.86439 88.75853
#
# Poissons Ratio (x) = 0.28980 0.30377
# Poissons Ratio (y) = 0.22294 0.04603
# Poissons Ratio (z) = 0.23133 0.04557
#
# Static dielectric constant tensor:
#      x y z
#    x 3.630930 0.230980 0.004840 
#    y 0.230980 3.929950 -0.101500 
#    z 0.004840 -0.101500 3.848530 
# 
# 
# High freq. dielectric constant tensor:
#      x y z
#    x 1.781290 0.013220 -0.006740 
#    y 0.013220 1.803830 -0.019290 
#    z -0.006740 -0.019290 1.791150 
# 
# From -- ./inp_files/555920.got.cif
#   From: 2010.06.25/outbox.cif.g09.slc.cpg/sg2_278_cif.got.tgz:555920.got - 2010.06.27 13:26:56.
