data_PCOD8023835
_publ_section_title
;
Structure prediction by ZEFSAII (Michael W. Deem and Ramdas Pophale) SiO2 
 PCOD8023835
Probable space group: P -1
;
_chemical_formula_sum "Si O2"
_cell_formula_units_Z 16
_cell_length_a 15.261649
_cell_length_b 11.878482
_cell_length_c 9.980792
_cell_angle_alpha 41.490781
_cell_angle_beta 44.496035
_cell_angle_gamma 40.443907
_cell_volume 733.148266
_symmetry_space_group_name_H-M "P -1"
_symmetry_group_IT_number 2
_symmetry_cell_setting 'triclinic'
loop_
_space_group_symop_operation_xyz
x,y,z
-x,-y,-z
loop_
_atom_site_type_symbol
_atom_site_label
_atom_site_fract_x
_atom_site_fract_y
_atom_site_fract_z
Si Si1 0.804929 0.996229 0.167836
Si Si2 0.614816 0.996488 0.981131
Si Si3 0.129988 0.586736 0.911723
Si Si4 0.930263 0.744344 0.741284
Si Si5 0.475004 0.632107 0.784848
Si Si6 0.966767 0.995105 0.247258
Si Si7 0.551579 0.570672 0.256998
Si Si8 0.619953 0.855875 0.395612
O O1 0.648616 0.158709 0.228054
O O2 0.901484 0.932710 0.250950
O O3 0.777690 0.821874 0.297189
O O4 0.869427 0.071459 0.911653
O O5 0.585739 0.933030 0.212631
O O6 0.575795 0.220367 0.834741
O O7 0.500000 0.000000 0.000000
O O8 0.779105 0.868684 0.870534
O O9 0.300229 0.438019 0.851866
O O10 0.061783 0.671964 0.765553
O O11 0.104665 0.769825 0.868413
O O12 0.065117 0.448463 0.158720
O O13 0.953763 0.882579 0.489227
O O14 0.418476 0.570033 0.774469
O O15 0.617150 0.651386 0.582690
O O16 0.500000 0.500000 0.000000
O O17 0.500000 0.500000 0.500000
O O18 0.500000 0.000000 0.500000
#
# Coordination Sequence:
#
# PCOD8023835 Si02
#       8
#     2   2   2   2   2   2   2   2
#     4  10  23  44  68  97 131 183 234 269 352 419
#     4  12  24  42  70 104 138 184 233 284 355 415
#     4  11  24  44  67 103 140 176 235 290 343 425
#     4  11  26  44  72 102 142 184 232 289 357 410
#     4  11  24  42  66 101 136 176 228 287 344 415
#     4  11  23  46  71  95 139 184 229 290 343 414
#     4  12  24  41  69 103 141 178 233 291 345 413
#     4  10  23  42  66  95 138 179 221 282 347 409
#
# _framework density 21.823689999999999
#
# number of rings (size 3 to 8) (size 9 to 14) (size 15 to 20)
#    0.000    1.000    2.500    4.125    3.500    3.000 
#    4.500    1.250    0.000    0.000    0.000    0.000 
#    0.000    0.000    0.000    0.000    0.000    0.000 
#
# Total GULP energy -198273.863287 kJ/mol
# GULP energy per Si atom -12392.116455 kJ/mol
# Density = 2.177402 g / cm^3
# Si number density = 21.823690 Si / 1000 Ang^3
#
#
#
# Elastic Constant Matrix: (Units=GPa)
#
#
# Indices 1 2 3 4 5 6 
#
# 1 151.4807 30.3913 70.0522 0.6982 -12.7493 -0.1887
# 2 30.3913 68.6639 40.4404 -11.8759 -1.4812 4.2800
# 3 70.0522 40.4404 178.8338 -9.1959 1.3753 9.0016
# 4 0.6982 -11.8759 -9.1959 33.2983 7.3858 -0.8254
# 5 -12.7493 -1.4812 1.3753 7.3858 36.7963 -0.8353
# 6 -0.1887 4.2800 9.0016 -0.8254 -0.8353 22.1270
#
#
#
# Elastic Compliance Matrix: (Units=1/GPa)
#
#
# Indices 1 2 3 4 5 6 
#
# 1 0.008916 -0.002595 -0.003172 -0.002762 0.003701 0.001905
# 2 -0.002595 0.018493 -0.002723 0.006137 -0.001337 -0.002313
# 3 -0.003172 -0.002723 0.007678 0.001565 -0.001870 -0.002636
# 4 -0.002762 0.006137 0.001565 0.034395 -0.007692 -0.000855
# 5 0.003701 -0.001337 -0.001870 -0.007692 0.030062 0.001899
# 6 0.001905 -0.002313 -0.002636 -0.000855 0.001899 0.046769
#
#
# Mechanical properties :
#
#
# Convention : Reuss Voigt Hill
#
# Bulk Modulus (GPa) = 55.22923 75.63846 65.43385
# Shear Modulus (GPa) = 29.52856 35.65062 32.58959
#
# Velocity S-wave (km/s) = 3.68237 4.04613 3.86853
# Velocity P-wave (km/s) = 6.59104 7.52080 7.07122
#
# Compressibility (1/GPa) = 0.01810635
#
# Stress axis : x y z
#
# Youngs Moduli (GPa) = 112.16397 54.07533 130.24795
#
# Poissons Ratio (x) = 0.14030 0.41315
# Poissons Ratio (y) = 0.29101 0.35470
# Poissons Ratio (z) = 0.35579 0.14726
#
# Static dielectric constant tensor:
#      x y z
#    x 4.030750 0.115070 -0.200090 
#    y 0.115070 4.067220 -0.082570 
#    z -0.200090 -0.082570 4.085010 
# 
# 
# High freq. dielectric constant tensor:
#      x y z
#    x 1.880990 0.011520 -0.014570 
#    y 0.011520 1.847770 0.000480 
#    z -0.014570 0.000480 1.863220 
# 
# From -- ./inp_files/306433.got.cif
#   From: 2010.06.25/outbox.cif.g09.slc.cpg/sg2_154_cif.got.tgz:306433.got - 2010.06.27 13:26:56.
