data_PCOD8023467
_publ_section_title
;
Structure prediction by ZEFSAII (Michael W. Deem and Ramdas Pophale) SiO2 
 PCOD8023467
Probable space group: P -1
;
_chemical_formula_sum "Si O2"
_cell_formula_units_Z 12
_cell_length_a 9.852526
_cell_length_b 8.833188
_cell_length_c 8.757373
_cell_angle_alpha 115.805715
_cell_angle_beta 48.707563
_cell_angle_gamma 111.229635
_cell_volume 512.369044
_symmetry_space_group_name_H-M "P -1"
_symmetry_group_IT_number 2
_symmetry_cell_setting 'triclinic'
loop_
_space_group_symop_operation_xyz
x,y,z
-x,-y,-z
loop_
_atom_site_type_symbol
_atom_site_label
_atom_site_fract_x
_atom_site_fract_y
_atom_site_fract_z
Si Si1 0.410462 0.014605 0.757653
Si Si2 0.524230 0.684563 0.631936
Si Si3 0.095653 0.012785 0.201977
Si Si4 0.771237 0.788473 0.249372
Si Si5 0.204321 0.834758 0.341005
Si Si6 0.370638 0.541016 0.978228
O O1 0.387130 0.811735 0.719186
O O2 0.639252 0.930484 0.354479
O O3 0.601975 0.108019 0.704289
O O4 0.253196 0.094580 0.009128
O O5 0.500000 0.500000 0.500000
O O6 0.723720 0.761497 0.454802
O O7 0.497866 0.667126 0.825226
O O8 0.187736 0.948570 0.255329
O O9 0.982010 0.859518 0.123069
O O10 0.958181 0.149393 0.410983
O O11 0.726745 0.621024 0.108546
O O12 0.205979 0.638608 0.206407
O O13 0.500000 0.500000 0.000000
#
# Coordination Sequence:
#
# PCOD8023467 Si02
#       6
#     2   2   2   2   2   2
#     4  12  22  44  72  97 141 188 227 283 342 419
#     4  10  23  41  68 101 136 184 224 282 349 405
#     4  11  25  41  69 107 135 187 233 282 346 413
#     4  11  24  44  70 103 141 179 237 279 346 418
#     4  11  24  43  69  99 147 176 235 283 349 404
#     4  11  23  44  72 105 136 186 233 287 348 410
#
# _framework density 23.420618000000001
#
# number of rings (size 3 to 8) (size 9 to 14) (size 15 to 20)
#    0.000    1.000    5.000    1.500    0.000    0.667 
#    0.000    0.833    0.000    0.000    0.000    0.000 
#    0.000    0.000    0.000    0.000    0.000    0.000 
#
# Total GULP energy -148715.690461 kJ/mol
# GULP energy per Si atom -12392.974205 kJ/mol
# Density = 2.336731 g / cm^3
# Si number density = 23.420618 Si / 1000 Ang^3
#
#
#
# Elastic Constant Matrix: (Units=GPa)
#
#
# Indices 1 2 3 4 5 6 
#
# 1 96.3535 18.8519 43.1554 -8.1283 8.9059 -2.3164
# 2 18.8519 90.5616 53.9282 14.9163 11.3304 -22.0611
# 3 43.1554 53.9282 113.3971 24.7638 -5.3104 -8.4213
# 4 -8.1283 14.9163 24.7638 37.8282 -3.3666 9.6122
# 5 8.9059 11.3304 -5.3104 -3.3666 36.1881 1.0688
# 6 -2.3164 -22.0611 -8.4213 9.6122 1.0688 30.8532
#
#
#
# Elastic Compliance Matrix: (Units=1/GPa)
#
#
# Indices 1 2 3 4 5 6 
#
# 1 0.015145 -0.000432 -0.008116 0.009470 -0.003778 -0.004206
# 2 -0.000432 0.022653 -0.007774 -0.009157 -0.009488 0.017225
# 3 -0.008116 -0.007774 0.018360 -0.010653 0.006077 0.001952
# 4 0.009470 -0.009157 -0.010653 0.045235 0.003860 -0.022971
# 5 -0.003778 -0.009488 0.006077 0.003860 0.033014 -0.007755
# 6 -0.004206 0.017225 0.001952 -0.022971 -0.007755 0.052370
#
#
# Mechanical properties :
#
#
# Convention : Reuss Voigt Hill
#
# Bulk Modulus (GPa) = 42.52641 59.13146 50.82893
# Shear Modulus (GPa) = 22.00159 33.26570 27.63364
#
# Velocity S-wave (km/s) = 3.06831 3.77285 3.43867
# Velocity P-wave (km/s) = 5.54525 6.65445 6.12501
#
# Compressibility (1/GPa) = 0.02351480
#
# Stress axis : x y z
#
# Youngs Moduli (GPa) = 66.02983 44.14490 54.46596
#
# Poissons Ratio (x) = 0.01905 0.44202
# Poissons Ratio (y) = 0.02850 0.42342
# Poissons Ratio (z) = 0.53587 0.34319
#
# Static dielectric constant tensor:
#      x y z
#    x 4.099690 -0.333230 0.137090 
#    y -0.333230 4.714260 0.113920 
#    z 0.137090 0.113920 4.950500 
# 
# 
# High freq. dielectric constant tensor:
#      x y z
#    x 1.917200 -0.010470 0.012000 
#    y -0.010470 1.919150 0.009710 
#    z 0.012000 0.009710 1.953800 
# 
# From -- ./inp_files/181009.got.cif
#   From: 2010.06.25/outbox.cif.g09.slc.cpg/sg2_91_cif.got.tgz:181009.got - 2010.06.27 13:26:56.
