data_PCOD8023918
_publ_section_title
;
Structure prediction by ZEFSAII (Michael W. Deem and Ramdas Pophale) SiO2 
 PCOD8023918
Probable space group: P -1
;
_chemical_formula_sum "Si O2"
_cell_formula_units_Z 14
_cell_length_a 6.842136
_cell_length_b 17.499994
_cell_length_c 7.617480
_cell_angle_alpha 110.355738
_cell_angle_beta 61.050232
_cell_angle_gamma 128.738599
_cell_volume 621.193398
_symmetry_space_group_name_H-M "P -1"
_symmetry_group_IT_number 2
_symmetry_cell_setting 'triclinic'
loop_
_space_group_symop_operation_xyz
x,y,z
-x,-y,-z
loop_
_atom_site_type_symbol
_atom_site_label
_atom_site_fract_x
_atom_site_fract_y
_atom_site_fract_z
Si Si1 0.767281 0.977318 0.711427
Si Si2 0.705492 0.477426 0.964141
Si Si3 0.400106 0.669106 0.400306
Si Si4 0.211244 0.806171 0.689671
Si Si5 0.306519 0.623725 0.785727
Si Si6 0.064110 0.183134 0.880938
Si Si7 0.765102 0.832255 0.850430
O O1 0.489120 0.911538 0.676013
O O2 0.789672 0.926498 0.834553
O O3 0.000000 0.000000 0.500000
O O4 0.816364 0.081279 0.826689
O O5 0.722845 0.402499 0.769449
O O6 0.995815 0.578393 0.930758
O O7 0.500000 0.500000 0.000000
O O8 0.598271 0.428019 0.163369
O O9 0.251756 0.726162 0.523258
O O10 0.345227 0.605913 0.550797
O O11 0.723437 0.745038 0.300750
O O12 0.010123 0.821542 0.671635
O O13 0.068626 0.768186 0.915069
O O14 0.479969 0.740125 0.833039
O O15 0.229143 0.160853 0.933892
#
# Coordination Sequence:
#
# PCOD8023918 Si02
#       7
#     2   2   2   2   2   2   2
#     4  12  21  42  67 102 139 182 239 279 333 413
#     4  11  27  48  74 103 142 176 231 292 351 411
#     4  12  23  48  73 100 142 181 230 288 342 421
#     4  10  24  41  69  96 141 181 229 281 341 406
#     4  11  24  47  71 107 135 181 230 285 345 422
#     4  10  23  43  68  99 143 186 225 291 336 401
#     4  10  23  42  67  97 140 178 229 280 346 398
#
# _framework density 22.537265000000001
#
# number of rings (size 3 to 8) (size 9 to 14) (size 15 to 20)
#    0.857    0.286    4.286    1.286    4.000    1.143 
#    5.143    2.857    0.000    0.000    0.000    0.000 
#    0.000    0.000    0.000    0.000    0.000    0.000 
#
# Total GULP energy -173529.224020 kJ/mol
# GULP energy per Si atom -12394.944573 kJ/mol
# Density = 2.248597 g / cm^3
# Si number density = 22.537265 Si / 1000 Ang^3
#
#
#
# Elastic Constant Matrix: (Units=GPa)
#
#
# Indices 1 2 3 4 5 6 
#
# 1 79.7002 25.6811 11.2353 -4.0735 -0.5022 11.2977
# 2 25.6811 90.4896 26.1432 -5.8748 -6.1895 16.4750
# 3 11.2353 26.1432 81.1320 -8.9751 -5.0041 -1.4311
# 4 -4.0735 -5.8748 -8.9751 48.6348 -7.6177 5.3176
# 5 -0.5022 -6.1895 -5.0041 -7.6177 39.8355 -0.5897
# 6 11.2977 16.4750 -1.4311 5.3176 -0.5897 23.1485
#
#
#
# Elastic Compliance Matrix: (Units=1/GPa)
#
#
# Indices 1 2 3 4 5 6 
#
# 1 0.014412 -0.002715 -0.001094 0.001240 -0.000221 -0.005460
# 2 -0.002715 0.015227 -0.004334 0.002256 0.002067 -0.010246
# 3 -0.001094 -0.004334 0.014238 0.001797 0.001506 0.004124
# 4 0.001240 0.002256 0.001797 0.022818 0.004849 -0.007218
# 5 -0.000221 0.002067 0.001506 0.004849 0.026513 -0.001708
# 6 -0.005460 -0.010246 0.004124 -0.007218 -0.001708 0.055025
#
#
# Mechanical properties :
#
#
# Convention : Reuss Voigt Hill
#
# Bulk Modulus (GPa) = 36.24342 41.93788 39.09065
# Shear Modulus (GPa) = 28.78262 34.87457 31.82859
#
# Velocity S-wave (km/s) = 3.57755 3.93799 3.76209
# Velocity P-wave (km/s) = 5.76035 6.27102 6.02110
#
# Compressibility (1/GPa) = 0.02759121
#
# Stress axis : x y z
#
# Youngs Moduli (GPa) = 69.38738 65.67324 70.23369
#
# Poissons Ratio (x) = 0.17828 0.07682
# Poissons Ratio (y) = 0.18837 0.30441
# Poissons Ratio (z) = 0.07590 0.28465
#
# Static dielectric constant tensor:
#      x y z
#    x 4.010220 0.316810 0.202150 
#    y 0.316810 4.447250 -0.037440 
#    z 0.202150 -0.037440 4.163890 
# 
# 
# High freq. dielectric constant tensor:
#      x y z
#    x 1.876540 0.016870 0.005320 
#    y 0.016870 1.894880 -0.012750 
#    z 0.005320 -0.012750 1.881170 
# 
# From -- ./inp_files/222291.got.cif
#   From: 2010.06.25/outbox.cif.g09.slc.cpg/sg2_112_cif.got.tgz:222291.got - 2010.06.27 13:26:56.
