data_PCOD8023911
_publ_section_title
;
Structure prediction by ZEFSAII (Michael W. Deem and Ramdas Pophale) SiO2 
 PCOD8023911
Probable space group: P -1
;
_chemical_formula_sum "Si O2"
_cell_formula_units_Z 14
_cell_length_a 9.145581
_cell_length_b 12.399680
_cell_length_c 8.286724
_cell_angle_alpha 134.031167
_cell_angle_beta 111.886628
_cell_angle_gamma 83.232639
_cell_volume 612.720830
_symmetry_space_group_name_H-M "P -1"
_symmetry_group_IT_number 2
_symmetry_cell_setting 'triclinic'
loop_
_space_group_symop_operation_xyz
x,y,z
-x,-y,-z
loop_
_atom_site_type_symbol
_atom_site_label
_atom_site_fract_x
_atom_site_fract_y
_atom_site_fract_z
Si Si1 0.349451 0.335885 0.190792
Si Si2 0.858631 0.861152 0.342359
Si Si3 0.919310 0.319625 0.614389
Si Si4 0.616172 0.917229 0.565479
Si Si5 0.426017 0.659788 0.434954
Si Si6 0.879501 0.114347 0.063569
Si Si7 0.959382 0.599270 0.732679
O O1 0.412387 0.474460 0.231772
O O2 0.493748 0.290593 0.305038
O O3 0.228216 0.387666 0.325360
O O4 0.265808 0.182818 0.901703
O O5 0.766269 0.894692 0.497404
O O6 0.945251 0.719283 0.254138
O O7 0.000000 0.000000 0.500000
O O8 0.745851 0.293560 0.600255
O O9 0.895583 0.210046 0.333840
O O10 0.988312 0.500799 0.798100
O O11 0.527557 0.750706 0.423653
O O12 0.500000 0.000000 0.500000
O O13 0.695862 0.024168 0.859602
O O14 0.929106 0.231265 0.053861
O O15 0.000000 0.000000 0.000000
O O16 0.000000 0.500000 0.500000
#
# Coordination Sequence:
#
# PCOD8023911 Si02
#       7
#     2   2   2   2   2   2   2
#     4  10  23  43  70  96 134 177 218 280 331 401
#     4  12  26  43  67 102 134 172 229 282 334 387
#     4  10  23  42  67  97 128 180 221 274 332 397
#     4  12  27  42  63 100 137 173 222 277 338 396
#     4  10  24  45  67  95 135 178 222 264 346 403
#     4  11  21  40  68  98 131 175 222 275 327 397
#     4   9  20  39  67  98 127 169 227 267 323 398
#
# _framework density 22.848905999999999
#
# number of rings (size 3 to 8) (size 9 to 14) (size 15 to 20)
#    0.000    1.429    1.429    2.571    6.000    4.571 
#    0.000    0.000    0.000    0.000    0.000    0.000 
#    0.000    0.000    0.000    0.000    0.000    0.000 
#
# Total GULP energy -173527.343814 kJ/mol
# GULP energy per Si atom -12394.810272 kJ/mol
# Density = 2.279690 g / cm^3
# Si number density = 22.848906 Si / 1000 Ang^3
#
#
#
# Elastic Constant Matrix: (Units=GPa)
#
#
# Indices 1 2 3 4 5 6 
#
# 1 92.8542 42.6224 3.8348 17.1196 10.1598 17.1602
# 2 42.6224 123.0943 13.6231 20.2356 16.4066 8.8677
# 3 3.8348 13.6231 89.0723 10.0703 15.4494 6.6354
# 4 17.1196 20.2356 10.0703 35.8427 -0.9027 15.9963
# 5 10.1598 16.4066 15.4494 -0.9027 31.8581 0.9041
# 6 17.1602 8.8677 6.6354 15.9963 0.9041 45.5279
#
#
#
# Elastic Compliance Matrix: (Units=1/GPa)
#
#
# Indices 1 2 3 4 5 6 
#
# 1 0.014068 -0.003769 0.001157 -0.003449 -0.003106 -0.003463
# 2 -0.003769 0.010750 -0.000264 -0.004816 -0.004376 0.001144
# 3 0.001157 -0.000264 0.012844 -0.003829 -0.006548 -0.000782
# 4 -0.003449 -0.004816 -0.003829 0.038338 0.006830 -0.010810
# 5 -0.003106 -0.004376 -0.006548 0.006830 0.038007 -0.000177
# 6 -0.003463 0.001144 -0.000782 -0.010810 -0.000177 0.026963
#
#
# Mechanical properties :
#
#
# Convention : Reuss Voigt Hill
#
# Bulk Modulus (GPa) = 31.33573 47.24238 39.28905
# Shear Modulus (GPa) = 31.77484 38.97510 35.37497
#
# Velocity S-wave (km/s) = 3.73319 4.13458 3.93900
# Velocity P-wave (km/s) = 5.68563 6.59651 6.15793
#
# Compressibility (1/GPa) = 0.03191246
#
# Stress axis : x y z
#
# Youngs Moduli (GPa) = 71.08578 93.01962 77.85599
#
# Poissons Ratio (x) = 0.35055 -0.09012
# Poissons Ratio (y) = 0.26789 0.02054
# Poissons Ratio (z) = -0.08228 0.02454
#
# Static dielectric constant tensor:
#      x y z
#    x 4.216070 0.112460 0.154500 
#    y 0.112460 3.517340 0.409910 
#    z 0.154500 0.409910 3.997250 
# 
# 
# High freq. dielectric constant tensor:
#      x y z
#    x 1.900320 0.000860 0.011900 
#    y 0.000860 1.915110 0.011820 
#    z 0.011900 0.011820 1.894780 
# 
# From -- ./inp_files/156657.got.cif
#   From: 2010.06.25/outbox.cif.g09.slc.cpg/sg2_79_cif.got.tgz:156657.got - 2010.06.27 13:26:56.
