data_PCOD8023863
_publ_section_title
;
Structure prediction by ZEFSAII (Michael W. Deem and Ramdas Pophale) SiO2 
 PCOD8023863
Probable space group: P -1
;
_chemical_formula_sum "Si O2"
_cell_formula_units_Z 14
_cell_length_a 13.500449
_cell_length_b 8.145548
_cell_length_c 11.395857
_cell_angle_alpha 140.893122
_cell_angle_beta 128.115518
_cell_angle_gamma 69.844330
_cell_volume 598.677525
_symmetry_space_group_name_H-M "P -1"
_symmetry_group_IT_number 2
_symmetry_cell_setting 'triclinic'
loop_
_space_group_symop_operation_xyz
x,y,z
-x,-y,-z
loop_
_atom_site_type_symbol
_atom_site_label
_atom_site_fract_x
_atom_site_fract_y
_atom_site_fract_z
Si Si1 0.820194 0.016235 0.115625
Si Si2 0.345093 0.648340 0.939902
Si Si3 0.634786 0.631604 0.610653
Si Si4 0.008609 0.700339 0.008548
Si Si5 0.626262 0.914282 0.342088
Si Si6 0.198663 0.730942 0.514692
Si Si7 0.305022 0.883707 0.257330
O O1 0.774550 0.258076 0.153015
O O2 0.825063 0.080859 0.292854
O O3 0.958238 0.966211 0.149703
O O4 0.721732 0.732164 0.847136
O O5 0.342979 0.353386 0.730745
O O6 0.491117 0.851238 0.133617
O O7 0.326043 0.629170 0.057945
O O8 0.500000 0.500000 0.500000
O O9 0.683903 0.406368 0.449658
O O10 0.639289 0.872485 0.658588
O O11 0.153377 0.839445 0.148319
O O12 0.000000 0.500000 0.000000
O O13 0.930401 0.511338 0.741615
O O14 0.612514 0.081505 0.542759
O O15 0.753632 0.071792 0.451174
#
# Coordination Sequence:
#
# PCOD8023863 Si02
#       7
#     2   2   2   2   2   2   2
#     4  10  24  43  66  98 134 176 220 272 327 392
#     4  10  24  41  63  99 132 170 220 265 332 397
#     4  10  23  42  67 100 133 171 217 270 332 395
#     4  11  25  45  68  97 130 175 228 273 327 388
#     4  11  23  40  67 100 132 175 215 269 330 392
#     4  11  23  40  68  96 134 174 219 273 327 387
#     4  11  23  44  69  92 134 174 219 273 327 387
#
# _framework density 23.384875999999998
#
# number of rings (size 3 to 8) (size 9 to 14) (size 15 to 20)
#    0.000    1.429    1.429    3.000    2.000   11.429 
#    0.000    4.286    0.000    0.000    0.000    0.000 
#    0.000    0.000    0.000    0.000    0.000    0.000 
#
# Total GULP energy -173464.219568 kJ/mol
# GULP energy per Si atom -12390.301398 kJ/mol
# Density = 2.333165 g / cm^3
# Si number density = 23.384876 Si / 1000 Ang^3
#
#
#
# Elastic Constant Matrix: (Units=GPa)
#
#
# Indices 1 2 3 4 5 6 
#
# 1 97.2711 17.7444 31.5373 8.6643 -4.3228 2.8646
# 2 17.7444 74.4982 14.1768 1.5640 9.6484 -1.4703
# 3 31.5373 14.1768 66.1232 -2.2812 -11.0213 14.0375
# 4 8.6643 1.5640 -2.2812 25.9398 7.8373 -3.0689
# 5 -4.3228 9.6484 -11.0213 7.8373 47.2482 -3.3395
# 6 2.8646 -1.4703 14.0375 -3.0689 -3.3395 45.5107
#
#
#
# Elastic Compliance Matrix: (Units=1/GPa)
#
#
# Indices 1 2 3 4 5 6 
#
# 1 0.013042 -0.002002 -0.005926 -0.005008 0.001099 0.000685
# 2 -0.002002 0.015043 -0.003204 0.000865 -0.004050 0.001362
# 3 -0.005926 -0.003204 0.020601 0.002055 0.004178 -0.005640
# 4 -0.005008 0.000865 0.002055 0.042742 -0.007099 0.002071
# 5 0.001099 -0.004050 0.004178 -0.007099 0.024231 -0.000189
# 6 0.000685 0.001362 -0.005640 0.002071 -0.000189 0.023839
#
#
# Mechanical properties :
#
#
# Convention : Reuss Voigt Hill
#
# Bulk Modulus (GPa) = 37.84927 40.53437 39.19182
# Shear Modulus (GPa) = 29.31335 35.36867 32.34101
#
# Velocity S-wave (km/s) = 3.54435 3.89325 3.72289
# Velocity P-wave (km/s) = 5.74198 6.13034 5.93934
#
# Compressibility (1/GPa) = 0.02642059
#
# Stress axis : x y z
#
# Youngs Moduli (GPa) = 76.67618 66.47572 48.54059
#
# Poissons Ratio (x) = 0.13311 0.28765
# Poissons Ratio (y) = 0.15353 0.15555
# Poissons Ratio (z) = 0.45439 0.21302
#
# Static dielectric constant tensor:
#      x y z
#    x 4.400830 -0.210330 -0.243990 
#    y -0.210330 4.089490 0.010190 
#    z -0.243990 0.010190 4.439650 
# 
# 
# High freq. dielectric constant tensor:
#      x y z
#    x 1.937460 -0.014570 -0.007710 
#    y -0.014570 1.907310 0.000630 
#    z -0.007710 0.000630 1.929980 
# 
# From -- ./inp_files/415981.got.cif
#   From: 2010.06.25/outbox.cif.g09.slc.cpg/sg2_208_cif.got.tgz:415981.got - 2010.06.27 13:26:56.
