data_PCOD8023597
_publ_section_title
;
Structure prediction by ZEFSAII (Michael W. Deem and Ramdas Pophale) SiO2 
 PCOD8023597
Probable space group: P -1
;
_chemical_formula_sum "Si O2"
_cell_formula_units_Z 14
_cell_length_a 9.530320
_cell_length_b 13.831529
_cell_length_c 19.317826
_cell_angle_alpha 152.985941
_cell_angle_beta 42.472724
_cell_angle_gamma 145.393557
_cell_volume 656.795671
_symmetry_space_group_name_H-M "P -1"
_symmetry_group_IT_number 2
_symmetry_cell_setting 'triclinic'
loop_
_space_group_symop_operation_xyz
x,y,z
-x,-y,-z
loop_
_atom_site_type_symbol
_atom_site_label
_atom_site_fract_x
_atom_site_fract_y
_atom_site_fract_z
Si Si1 0.421356 0.993719 0.730078
Si Si2 0.470133 0.236621 0.332924
Si Si3 0.141809 0.500170 0.056585
Si Si4 0.877447 0.192477 0.090871
Si Si5 0.878030 0.722802 0.803093
Si Si6 0.492255 0.162673 0.545620
Si Si7 0.941945 0.781056 0.228509
O O1 0.486200 0.830926 0.650258
O O2 0.483014 0.965934 0.612594
O O3 0.135513 0.894361 0.778117
O O4 0.587635 0.287402 0.878848
O O5 0.500000 0.500000 0.500000
O O6 0.663860 0.248601 0.215131
O O7 0.198645 0.032049 0.273467
O O8 0.997090 0.296899 0.039563
O O9 0.982756 0.616033 0.164030
O O10 0.185626 0.371806 0.893021
O O11 0.081143 0.323591 0.161591
O O12 0.753028 0.887813 0.947771
O O13 0.712408 0.455479 0.655731
O O14 0.231947 0.139623 0.623018
O O15 0.500000 0.000000 0.500000
#
# Coordination Sequence:
#
# PCOD8023597 Si02
#       7
#     2   2   2   2   2   2   2
#     4  10  24  43  66  93 131 173 217 268 320 380
#     4  10  24  42  68  95 133 167 217 270 327 379
#     4  10  23  44  68  93 130 169 222 266 321 380
#     4  10  23  41  71  94 127 175 215 266 325 376
#     4  10  24  43  65  97 132 166 225 263 317 394
#     4  12  27  42  67  95 135 172 213 269 330 382
#     4  10  26  42  64  98 131 166 219 270 318 391
#
# _framework density 21.315608999999998
#
# number of rings (size 3 to 8) (size 9 to 14) (size 15 to 20)
#    0.000    1.714    0.000    1.286   20.000    3.429 
#    0.000    0.000    0.000    0.000    0.000    0.000 
#    0.000    0.000    0.000    0.000    0.000    0.000 
#
# Total GULP energy -173654.792074 kJ/mol
# GULP energy per Si atom -12403.913720 kJ/mol
# Density = 2.126709 g / cm^3
# Si number density = 21.315609 Si / 1000 Ang^3
#
#
#
# Elastic Constant Matrix: (Units=GPa)
#
#
# Indices 1 2 3 4 5 6 
#
# 1 56.1492 33.3295 29.1096 1.7389 4.4744 6.0856
# 2 33.3295 91.4296 26.5923 3.1079 3.4990 -3.8895
# 3 29.1096 26.5923 109.6889 9.3556 2.9381 8.8575
# 4 1.7389 3.1079 9.3556 41.0363 2.9092 7.0847
# 5 4.4744 3.4990 2.9381 2.9092 35.1956 -2.2107
# 6 6.0856 -3.8895 8.8575 7.0847 -2.2107 38.5423
#
#
#
# Elastic Compliance Matrix: (Units=1/GPa)
#
#
# Indices 1 2 3 4 5 6 
#
# 1 0.025610 -0.008152 -0.004538 0.001472 -0.002454 -0.004235
# 2 -0.008152 0.014530 -0.001542 -0.000971 0.000007 0.003287
# 3 -0.004538 -0.001542 0.010992 -0.001908 -0.000132 -0.001622
# 4 0.001472 -0.000971 -0.001908 0.025806 -0.002364 -0.004771
# 5 -0.002454 0.000007 -0.000132 -0.002364 0.029089 0.002522
# 6 -0.004235 0.003287 -0.001622 -0.004771 0.002522 0.028340
#
#
# Mechanical properties :
#
#
# Convention : Reuss Voigt Hill
#
# Bulk Modulus (GPa) = 44.11463 48.37007 46.24235
# Shear Modulus (GPa) = 29.34473 34.17059 31.75766
#
# Velocity S-wave (km/s) = 3.71439 4.00819 3.86408
# Velocity P-wave (km/s) = 6.25591 6.64548 6.45363
#
# Compressibility (1/GPa) = 0.02266822
#
# Stress axis : x y z
#
# Youngs Moduli (GPa) = 39.04660 68.82207 90.97503
#
# Poissons Ratio (x) = 0.56106 0.41285
# Poissons Ratio (y) = 0.31832 0.14027
# Poissons Ratio (z) = 0.17719 0.10612
#
# Static dielectric constant tensor:
#      x y z
#    x 3.862070 0.024870 0.004680 
#    y 0.024870 3.932080 -0.060970 
#    z 0.004680 -0.060970 3.979050 
# 
# 
# High freq. dielectric constant tensor:
#      x y z
#    x 1.834400 -0.000030 -0.002030 
#    y -0.000030 1.840660 0.000920 
#    z -0.002030 0.000920 1.846500 
# 
# From -- ./inp_files/153743.got.cif
#   From: 2010.06.25/outbox.cif.g09.slc.cpg/sg2_77_cif.got.tgz:153743.got - 2010.06.27 13:26:56.
