data_PCOD8023742
_publ_section_title
;
Structure prediction by ZEFSAII (Michael W. Deem and Ramdas Pophale) SiO2 
 PCOD8023742
Probable space group: P -1
;
_chemical_formula_sum "Si O2"
_cell_formula_units_Z 16
_cell_length_a 10.115257
_cell_length_b 9.288234
_cell_length_c 11.625737
_cell_angle_alpha 121.278580
_cell_angle_beta 56.716298
_cell_angle_gamma 113.253034
_cell_volume 771.101258
_symmetry_space_group_name_H-M "P -1"
_symmetry_group_IT_number 2
_symmetry_cell_setting 'triclinic'
loop_
_space_group_symop_operation_xyz
x,y,z
-x,-y,-z
loop_
_atom_site_type_symbol
_atom_site_label
_atom_site_fract_x
_atom_site_fract_y
_atom_site_fract_z
Si Si1 0.608048 0.355021 0.374118
Si Si2 0.937548 0.576965 0.330464
Si Si3 0.467172 0.051726 0.168185
Si Si4 0.420865 0.154723 0.568202
Si Si5 0.742411 0.557290 0.826960
Si Si6 0.531169 0.737738 0.167427
Si Si7 0.161926 0.198675 0.325192
Si Si8 0.928028 0.916002 0.381173
O O1 0.500000 0.500000 0.500000
O O2 0.791633 0.434705 0.305356
O O3 0.575507 0.229563 0.227234
O O4 0.567576 0.258580 0.472134
O O5 0.896912 0.664659 0.504978
O O6 0.970792 0.723367 0.276351
O O7 0.085241 0.476500 0.229810
O O8 0.287141 0.091877 0.281311
O O9 0.497214 0.904074 0.182210
O O10 0.500000 0.000000 0.000000
O O11 0.377750 0.234110 0.742498
O O12 0.263895 0.102903 0.543453
O O13 0.500000 0.000000 0.500000
O O14 0.638704 0.376839 0.769069
O O15 0.758910 0.696881 0.776647
O O16 0.652337 0.636165 0.003834
O O17 0.013823 0.048231 0.298250
O O18 0.000000 0.000000 0.500000
#
# Coordination Sequence:
#
# PCOD8023742 Si02
#       8
#     2   2   2   2   2   2   2   2
#     4  12  23  44  71 103 138 179 238 293 346 416
#     4  11  23  41  68 100 138 178 237 292 347 413
#     4  12  24  45  70 102 140 191 231 287 359 432
#     4  12  25  41  71 103 135 181 235 292 345 413
#     4  11  25  43  67  99 142 182 232 288 355 423
#     4  11  26  46  67 100 141 185 232 291 360 417
#     4  11  22  40  71 100 131 185 238 283 347 420
#     4  10  23  42  65 100 139 176 226 287 350 412
#
# _framework density 20.749544
#
# number of rings (size 3 to 8) (size 9 to 14) (size 15 to 20)
#    0.000    0.750    5.000    2.625    5.250    0.000 
#    2.250    1.875    0.000    0.000    0.000    0.000 
#    0.000    0.000    0.000    0.000    0.000    0.000 
#
# Total GULP energy -198236.772623 kJ/mol
# GULP energy per Si atom -12389.798289 kJ/mol
# Density = 2.070232 g / cm^3
# Si number density = 20.749544 Si / 1000 Ang^3
#
#
#
# Elastic Constant Matrix: (Units=GPa)
#
#
# Indices 1 2 3 4 5 6 
#
# 1 126.2000 57.1457 43.2215 12.4133 -12.4907 10.1074
# 2 57.1457 154.5377 43.6650 -0.6668 7.6635 15.5650
# 3 43.2215 43.6650 88.3428 6.2191 5.9129 5.4205
# 4 12.4133 -0.6668 6.2191 29.7955 -5.0422 -3.3112
# 5 -12.4907 7.6635 5.9129 -5.0422 41.2192 1.1452
# 6 10.1074 15.5650 5.4205 -3.3112 1.1452 40.6342
#
#
#
# Elastic Compliance Matrix: (Units=1/GPa)
#
#
# Indices 1 2 3 4 5 6 
#
# 1 0.011685 -0.003250 -0.004058 -0.003530 0.004338 -0.001530
# 2 -0.003250 0.008704 -0.002563 0.001524 -0.001994 -0.002003
# 3 -0.004058 -0.002563 0.014929 -0.002023 -0.003140 -0.000077
# 4 -0.003530 0.001524 -0.002023 0.036429 0.003298 0.003440
# 5 0.004338 -0.001994 -0.003140 0.003298 0.026810 -0.000383
# 6 -0.001530 -0.002003 -0.000077 0.003440 -0.000383 0.026059
#
#
# Mechanical properties :
#
#
# Convention : Reuss Voigt Hill
#
# Bulk Modulus (GPa) = 64.20528 73.01610 68.61069
# Shear Modulus (GPa) = 33.43335 37.33299 35.38317
#
# Velocity S-wave (km/s) = 4.01843 4.24632 4.13395
# Velocity P-wave (km/s) = 7.24849 7.70112 7.47823
#
# Compressibility (1/GPa) = 0.01557504
#
# Stress axis : x y z
#
# Youngs Moduli (GPa) = 85.58188 114.88639 66.98385
#
# Poissons Ratio (x) = 0.37343 0.27183
# Poissons Ratio (y) = 0.27818 0.17167
# Poissons Ratio (z) = 0.34730 0.29444
#
# Static dielectric constant tensor:
#      x y z
#    x 3.092870 -0.399550 -0.065990 
#    y -0.399550 3.884720 0.071570 
#    z -0.065990 0.071570 3.614500 
# 
# 
# High freq. dielectric constant tensor:
#      x y z
#    x 1.810160 -0.000870 -0.008090 
#    y -0.000870 1.842420 0.004290 
#    z -0.008090 0.004290 1.799500 
# 
# From -- ./inp_files/242867.got.cif
#   From: 2010.06.25/outbox.cif.g09.slc.cpg/sg2_122_cif.got.tgz:242867.got - 2010.06.27 13:26:56.
