data_PCOD8023566
_publ_section_title
;
Structure prediction by ZEFSAII (Michael W. Deem and Ramdas Pophale) SiO2 
 PCOD8023566
Probable space group: P -1
;
_chemical_formula_sum "Si O2"
_cell_formula_units_Z 16
_cell_length_a 8.186962
_cell_length_b 5.281637
_cell_length_c 16.894820
_cell_angle_alpha 79.933880
_cell_angle_beta 77.573837
_cell_angle_gamma 76.180280
_cell_volume 686.886731
_symmetry_space_group_name_H-M "P -1"
_symmetry_group_IT_number 2
_symmetry_cell_setting 'triclinic'
loop_
_space_group_symop_operation_xyz
x,y,z
-x,-y,-z
loop_
_atom_site_type_symbol
_atom_site_label
_atom_site_fract_x
_atom_site_fract_y
_atom_site_fract_z
Si Si1 0.466836 0.183865 0.223430
Si Si2 0.632209 0.329935 0.682202
Si Si3 0.278015 0.496487 0.624334
Si Si4 0.817915 0.020810 0.284054
Si Si5 0.888253 0.282471 0.521174
Si Si6 0.612513 0.785142 0.945045
Si Si7 0.852089 0.354428 0.003153
Si Si8 0.049389 0.008164 0.121100
O O1 0.364302 0.438704 0.267580
O O2 0.658416 0.098482 0.238409
O O3 0.479716 0.248942 0.125789
O O4 0.375582 0.937582 0.256564
O O5 0.474532 0.419869 0.633659
O O6 0.805798 0.267191 0.616717
O O7 0.171909 0.730105 0.676523
O O8 0.264589 0.613845 0.530970
O O9 0.193470 0.239532 0.650715
O O10 0.991628 0.957980 0.218317
O O11 0.000000 0.500000 0.500000
O O12 0.000000 0.000000 0.500000
O O13 0.656742 0.525561 0.011733
O O14 0.802176 0.827315 0.901619
O O15 0.500000 0.000000 0.000000
O O16 0.873822 0.263202 0.914794
O O17 0.000000 0.500000 0.000000
O O18 0.877795 0.130233 0.079864
#
# Coordination Sequence:
#
# PCOD8023566 Si02
#       8
#     2   2   2   2   2   2   2   2
#     4  10  24  42  67  98 129 173 220 274 330 379
#     4  10  23  47  67  93 135 177 216 262 320 400
#     4  10  23  44  68  99 127 178 217 256 324 392
#     4  10  23  41  70  95 130 171 224 266 316 396
#     4  12  25  42  68 105 135 170 211 271 323 381
#     4  11  26  41  62  95 130 172 221 279 338 387
#     4   9  22  41  61  88 120 167 226 261 338 387
#     4  10  23  42  63  90 124 177 218 270 332 391
#
# _framework density 23.293505
#
# number of rings (size 3 to 8) (size 9 to 14) (size 15 to 20)
#    0.000    1.750    0.000    1.875   10.500    5.500 
#    0.000    5.000    0.000    0.000    0.000    0.000 
#    0.000    0.000    0.000    0.000    0.000    0.000 
#
# Total GULP energy -198323.064755 kJ/mol
# GULP energy per Si atom -12395.191547 kJ/mol
# Density = 2.324049 g / cm^3
# Si number density = 23.293505 Si / 1000 Ang^3
#
#
#
# Elastic Constant Matrix: (Units=GPa)
#
#
# Indices 1 2 3 4 5 6 
#
# 1 36.9403 19.5067 17.1059 -2.8347 -0.3175 -8.3260
# 2 19.5067 162.1580 35.6453 8.7649 -2.0816 -2.4920
# 3 17.1059 35.6453 103.6749 4.8973 -3.2073 -8.7414
# 4 -2.8347 8.7649 4.8973 35.4337 -7.3688 2.5979
# 5 -0.3175 -2.0816 -3.2073 -7.3688 40.5862 -1.0802
# 6 -8.3260 -2.4920 -8.7414 2.5979 -1.0802 33.8911
#
#
#
# Elastic Compliance Matrix: (Units=1/GPa)
#
#
# Indices 1 2 3 4 5 6 
#
# 1 0.032227 -0.003114 -0.003852 0.003533 0.000601 0.006443
# 2 -0.003114 0.007036 -0.001880 -0.001714 -0.000139 -0.000606
# 3 -0.003852 -0.001880 0.011173 -0.001414 0.000551 0.001923
# 4 0.003533 -0.001714 -0.001414 0.030355 0.005292 -0.001781
# 5 0.000601 -0.000139 0.000551 0.005292 0.025659 0.000692
# 6 0.006443 -0.000606 0.001923 -0.001781 0.000692 0.031699
#
#
# Mechanical properties :
#
#
# Convention : Reuss Voigt Hill
#
# Bulk Modulus (GPa) = 30.53858 49.69877 40.11868
# Shear Modulus (GPa) = 29.98374 37.34988 33.66681
#
# Velocity S-wave (km/s) = 3.59167 4.00865 3.80587
# Velocity P-wave (km/s) = 5.50808 6.54278 6.04760
#
# Compressibility (1/GPa) = 0.03274547
#
# Stress axis : x y z
#
# Youngs Moduli (GPa) = 31.02947 142.12143 89.49880
#
# Poissons Ratio (x) = 0.44262 0.34472
# Poissons Ratio (y) = 0.09664 0.16823
# Poissons Ratio (z) = 0.11952 0.26715
#
# Static dielectric constant tensor:
#      x y z
#    x 4.247330 -0.168940 0.369440 
#    y -0.168940 4.519910 -0.237150 
#    z 0.369440 -0.237150 4.285430 
# 
# 
# High freq. dielectric constant tensor:
#      x y z
#    x 1.923800 -0.004720 0.012670 
#    y -0.004720 1.936260 -0.002960 
#    z 0.012670 -0.002960 1.919670 
# 
# From -- ./inp_files/485150.got.cif
#   From: 2010.06.25/outbox.cif.g09.slc.cpg/sg2_243_cif.got.tgz:485150.got - 2010.06.27 13:26:56.
