data_PCOD8023259
_publ_section_title
;
Structure prediction by ZEFSAII (Michael W. Deem and Ramdas Pophale) SiO2 
 PCOD8023259
Probable space group: P -1
;
_chemical_formula_sum "Si O2"
_cell_formula_units_Z 16
_cell_length_a 12.616133
_cell_length_b 15.632620
_cell_length_c 5.236526
_cell_angle_alpha 88.809915
_cell_angle_beta 70.980326
_cell_angle_gamma 48.051226
_cell_volume 697.070110
_symmetry_space_group_name_H-M "P -1"
_symmetry_group_IT_number 2
_symmetry_cell_setting 'triclinic'
loop_
_space_group_symop_operation_xyz
x,y,z
-x,-y,-z
loop_
_atom_site_type_symbol
_atom_site_label
_atom_site_fract_x
_atom_site_fract_y
_atom_site_fract_z
Si Si1 0.572449 0.890257 0.769240
Si Si2 0.384832 0.472920 0.364876
Si Si3 0.140495 0.223694 0.786539
Si Si4 0.259006 0.990574 0.845032
Si Si5 0.180146 0.926887 0.408936
Si Si6 0.425133 0.647760 0.291679
Si Si7 0.905095 0.435645 0.673369
Si Si8 0.191835 0.340056 0.129749
O O1 0.714590 0.861879 0.517286
O O2 0.441245 0.922154 0.679066
O O3 0.636102 0.776710 0.893877
O O4 0.500000 0.000000 0.000000
O O5 0.365522 0.584592 0.403199
O O6 0.459388 0.388872 0.562231
O O7 0.209578 0.530470 0.466377
O O8 0.485575 0.394709 0.043036
O O9 0.964923 0.320738 0.794739
O O10 0.151281 0.133605 0.960710
O O11 0.157556 0.305600 0.906210
O O12 0.199996 0.975495 0.638094
O O13 0.243344 0.940651 0.108787
O O14 0.276045 0.789099 0.391459
O O15 0.000000 0.000000 0.500000
O O16 0.818618 0.552195 0.915834
O O17 0.066775 0.386248 0.443422
#
# Coordination Sequence:
#
# PCOD8023259 Si02
#       8
#     2   2   2   2   2   2   2   2
#     4  11  23  43  66 103 146 184 232 291 337 429
#     4  10  23  45  74  99 131 183 224 290 346 418
#     4  11  24  42  69 101 145 186 233 284 341 429
#     4  12  27  44  73 105 134 196 231 277 368 411
#     4  12  29  49  71 104 143 177 238 302 347 419
#     4  10  24  46  69 102 133 169 236 289 352 402
#     4  10  24  41  66 101 137 186 226 286 350 409
#     4  10  23  41  64 100 144 175 235 278 346 415
#
# _framework density 22.953216999999999
#
# number of rings (size 3 to 8) (size 9 to 14) (size 15 to 20)
#    0.000    1.250    1.250    2.625   10.500    0.000 
#    2.250    0.000    0.000    0.000    0.000    0.000 
#    0.000    0.000    0.000    0.000    0.000    0.000 
#
# Total GULP energy -198368.735593 kJ/mol
# GULP energy per Si atom -12398.045975 kJ/mol
# Density = 2.290097 g / cm^3
# Si number density = 22.953217 Si / 1000 Ang^3
#
#
#
# Elastic Constant Matrix: (Units=GPa)
#
#
# Indices 1 2 3 4 5 6 
#
# 1 137.4501 70.5288 27.6580 10.1717 26.5483 -26.7608
# 2 70.5288 206.9704 47.5241 9.2569 4.1437 -25.0707
# 3 27.6580 47.5241 72.6271 1.2232 30.7357 2.8851
# 4 10.1717 9.2569 1.2232 30.6210 -2.3529 3.6848
# 5 26.5483 4.1437 30.7357 -2.3529 30.4971 -6.2742
# 6 -26.7608 -25.0707 2.8851 3.6848 -6.2742 35.4908
#
#
#
# Elastic Compliance Matrix: (Units=1/GPa)
#
#
# Indices 1 2 3 4 5 6 
#
# 1 0.012351 -0.003957 0.003264 -0.004565 -0.012943 0.004438
# 2 -0.003957 0.009369 -0.011202 -0.000800 0.014894 0.007261
# 3 0.003264 -0.011202 0.039286 -0.000699 -0.044343 -0.016412
# 4 -0.004565 -0.000800 -0.000699 0.035709 0.006192 -0.006563
# 5 -0.012943 0.014894 -0.044343 0.006192 0.091287 0.019862
# 6 0.004438 0.007261 -0.016412 -0.006563 0.019862 0.042179
#
#
# Mechanical properties :
#
#
# Convention : Reuss Voigt Hill
#
# Bulk Modulus (GPa) = 26.87058 78.71883 52.79470
# Shear Modulus (GPa) = 18.77040 37.41088 28.09064
#
# Velocity S-wave (km/s) = 2.86277 4.04155 3.50211
# Velocity P-wave (km/s) = 4.76018 7.49324 6.27726
#
# Compressibility (1/GPa) = 0.03721542
#
# Stress axis : x y z
#
# Youngs Moduli (GPa) = 80.96518 106.72950 25.45464
#
# Poissons Ratio (x) = 0.42237 -0.08308
# Poissons Ratio (y) = 0.32041 0.28514
# Poissons Ratio (z) = -0.26427 1.19557
#
# Static dielectric constant tensor:
#      x y z
#    x 4.218210 -0.111130 0.087220 
#    y -0.111130 4.802070 0.012950 
#    z 0.087220 0.012950 3.978110 
# 
# 
# High freq. dielectric constant tensor:
#      x y z
#    x 1.901650 -0.010460 0.015780 
#    y -0.010460 1.935790 0.002280 
#    z 0.015780 0.002280 1.893050 
# 
# From -- ./inp_files/77822.got.cif
#   From: 2010.06.25/outbox.cif.g09.slc.cpg/sg2_39_cif.got.tgz:77822.got - 2010.06.27 13:26:56.
