data_PCOD8023745
_publ_section_title
;
Structure prediction by ZEFSAII (Michael W. Deem and Ramdas Pophale) SiO2 
 PCOD8023745
Probable space group: P -1
;
_chemical_formula_sum "Si O2"
_cell_formula_units_Z 16
_cell_length_a 10.803816
_cell_length_b 9.868648
_cell_length_c 8.336023
_cell_angle_alpha 97.647480
_cell_angle_beta 55.253536
_cell_angle_gamma 102.575998
_cell_volume 712.727877
_symmetry_space_group_name_H-M "P -1"
_symmetry_group_IT_number 2
_symmetry_cell_setting 'triclinic'
loop_
_space_group_symop_operation_xyz
x,y,z
-x,-y,-z
loop_
_atom_site_type_symbol
_atom_site_label
_atom_site_fract_x
_atom_site_fract_y
_atom_site_fract_z
Si Si1 0.653285 0.946352 0.837997
Si Si2 0.982990 0.837161 0.953314
Si Si3 0.163246 0.555731 0.220233
Si Si4 0.513102 0.892965 0.612710
Si Si5 0.869312 0.354377 0.390607
Si Si6 0.213561 0.814152 0.027565
Si Si7 0.468234 0.623839 0.433694
Si Si8 0.318967 0.308335 0.999727
O O1 0.652600 0.937343 0.643196
O O2 0.793118 0.062595 0.816932
O O3 0.648241 0.797307 0.903011
O O4 0.500000 0.000000 0.000000
O O5 0.083256 0.792400 0.722402
O O6 0.049891 0.777666 0.055024
O O7 0.807136 0.769653 0.043861
O O8 0.000000 0.000000 0.000000
O O9 0.141118 0.641243 0.409678
O O10 0.246852 0.671123 0.054897
O O11 0.999728 0.482270 0.258537
O O12 0.266524 0.437301 0.150908
O O13 0.556439 0.758693 0.477694
O O14 0.500000 0.000000 0.500000
O O15 0.348583 0.868624 0.814265
O O16 0.711861 0.375046 0.430444
O O17 0.500000 0.500000 0.500000
O O18 0.531216 0.627831 0.204925
#
# Coordination Sequence:
#
# PCOD8023745 Si02
#       8
#     2   2   2   2   2   2   2   2
#     4  10  23  42  65 101 139 184 231 289 358 416
#     4  11  23  45  72 102 141 184 241 286 355 420
#     4  10  25  46  73 101 140 192 236 294 349 421
#     4  11  25  43  67 100 145 182 228 292 359 420
#     4  10  25  46  70  96 151 181 237 289 357 407
#     4  11  22  43  73  99 135 194 232 285 360 419
#     4  12  26  41  67 107 140 186 237 290 354 415
#     4  11  25  44  71 103 144 190 239 294 348 433
#
# _framework density 22.448962000000002
#
# number of rings (size 3 to 8) (size 9 to 14) (size 15 to 20)
#    0.000    1.250    2.500    2.250    8.750    1.500 
#    0.000    0.625    0.000    0.000    0.000    0.000 
#    0.000    0.000    0.000    0.000    0.000    0.000 
#
# Total GULP energy -198313.019601 kJ/mol
# GULP energy per Si atom -12394.563725 kJ/mol
# Density = 2.239787 g / cm^3
# Si number density = 22.448962 Si / 1000 Ang^3
#
#
#
# Elastic Constant Matrix: (Units=GPa)
#
#
# Indices 1 2 3 4 5 6 
#
# 1 111.9089 47.9443 45.7828 1.4077 16.3572 -10.7572
# 2 47.9443 172.9047 69.9536 8.0538 19.1550 -28.2926
# 3 45.7828 69.9536 104.4737 9.0484 9.6626 -4.3383
# 4 1.4077 8.0538 9.0484 45.9985 -1.8637 8.4025
# 5 16.3572 19.1550 9.6626 -1.8637 40.2944 2.8438
# 6 -10.7572 -28.2926 -4.3383 8.4025 2.8438 39.3878
#
#
#
# Elastic Compliance Matrix: (Units=1/GPa)
#
#
# Indices 1 2 3 4 5 6 
#
# 1 0.011738 -0.000756 -0.004206 0.000007 -0.003570 0.002456
# 2 -0.000756 0.009837 -0.005452 -0.002046 -0.003648 0.006959
# 3 -0.004206 -0.005452 0.014957 -0.001236 0.000882 -0.003217
# 4 0.000007 -0.002046 -0.001236 0.023711 0.002847 -0.006867
# 5 -0.003570 -0.003648 0.000882 0.002847 0.028355 -0.006153
# 6 0.002456 0.006959 -0.003217 -0.006867 -0.006153 0.032613
#
#
# Mechanical properties :
#
#
# Convention : Reuss Voigt Hill
#
# Bulk Modulus (GPa) = 63.67701 79.62765 71.65233
# Shear Modulus (GPa) = 33.95047 40.17659 37.06353
#
# Velocity S-wave (km/s) = 3.89310 4.23506 4.06767
# Velocity P-wave (km/s) = 6.97389 7.71115 7.35177
#
# Compressibility (1/GPa) = 0.01570426
#
# Stress axis : x y z
#
# Youngs Moduli (GPa) = 85.19097 101.65777 66.85745
#
# Poissons Ratio (x) = 0.07688 0.28121
# Poissons Ratio (y) = 0.06442 0.36449
# Poissons Ratio (z) = 0.35833 0.55421
#
# Static dielectric constant tensor:
#      x y z
#    x 3.717460 0.605430 -0.138790 
#    y 0.605430 4.260140 0.483130 
#    z -0.138790 0.483130 3.901630 
# 
# 
# High freq. dielectric constant tensor:
#      x y z
#    x 1.893850 0.008750 0.010160 
#    y 0.008750 1.892690 0.017560 
#    z 0.010160 0.017560 1.871600 
# 
# From -- ./inp_files/244400.got.cif
#   From: 2010.06.25/outbox.cif.g09.slc.cpg/sg2_123_cif.got.tgz:244400.got - 2010.06.27 13:26:56.
