data_PCOD8023530
_publ_section_title
;
Structure prediction by ZEFSAII (Michael W. Deem and Ramdas Pophale) SiO2 
 PCOD8023530
Probable space group: P -1
;
_chemical_formula_sum "Si O2"
_cell_formula_units_Z 16
_cell_length_a 9.584857
_cell_length_b 21.871607
_cell_length_c 8.843150
_cell_angle_alpha 56.737353
_cell_angle_beta 53.853343
_cell_angle_gamma 29.541987
_cell_volume 735.203537
_symmetry_space_group_name_H-M "P -1"
_symmetry_group_IT_number 2
_symmetry_cell_setting 'triclinic'
loop_
_space_group_symop_operation_xyz
x,y,z
-x,-y,-z
loop_
_atom_site_type_symbol
_atom_site_label
_atom_site_fract_x
_atom_site_fract_y
_atom_site_fract_z
Si Si1 0.848984 0.725360 0.861503
Si Si2 0.200629 0.779857 0.063873
Si Si3 0.312611 0.884548 0.389114
Si Si4 0.885762 0.481650 0.475632
Si Si5 0.574271 0.032369 0.030748
Si Si6 0.408714 0.240760 0.318410
Si Si7 0.474178 0.526320 0.156830
Si Si8 0.504325 0.278742 0.747507
O O1 0.703408 0.774357 0.721356
O O2 0.205726 0.599923 0.800445
O O3 0.742807 0.693079 0.073254
O O4 0.713532 0.847972 0.847526
O O5 0.351438 0.650338 0.100464
O O6 0.259057 0.785767 0.188600
O O7 0.314386 0.804064 0.844856
O O8 0.846712 0.903391 0.121681
O O9 0.531319 0.823011 0.475041
O O10 0.356230 0.791095 0.409364
O O11 0.339706 0.925212 0.170931
O O12 0.000000 0.000000 0.500000
O O13 0.777061 0.442200 0.666235
O O14 0.632808 0.596934 0.372550
O O15 0.000000 0.500000 0.500000
O O16 0.146574 0.385273 0.321241
O O17 0.500000 0.000000 0.000000
O O18 0.500000 0.500000 0.000000
#
# Coordination Sequence:
#
# PCOD8023530 Si02
#       8
#     2   2   2   2   2   2   2   2
#     4  10  24  44  67  99 132 174 217 270 329 391
#     4  11  24  43  67  99 132 174 215 273 329 389
#     4  11  23  40  67  95 128 174 221 265 322 394
#     4  12  24  42  68  97 127 171 221 270 322 390
#     4  11  25  43  65  93 135 176 218 270 332 385
#     4  11  23  41  70  96 131 169 222 269 326 388
#     4  12  26  42  69  96 135 171 221 270 334 386
#     4  10  23  41  69  95 132 169 220 266 327 391
#
# _framework density 21.76268
#
# number of rings (size 3 to 8) (size 9 to 14) (size 15 to 20)
#    0.000    1.000    2.500    3.750    5.250    6.500 
#    0.000    0.625    0.000    0.000    0.000    0.000 
#    0.000    0.000    0.000    0.000    0.000    0.000 
#
# Total GULP energy -198230.741093 kJ/mol
# GULP energy per Si atom -12389.421318 kJ/mol
# Density = 2.171315 g / cm^3
# Si number density = 21.762680 Si / 1000 Ang^3
#
#
#
# Elastic Constant Matrix: (Units=GPa)
#
#
# Indices 1 2 3 4 5 6 
#
# 1 115.7873 37.2551 21.0191 -5.6296 18.6540 -1.3114
# 2 37.2551 141.9912 14.2899 -8.2902 15.0409 -4.0925
# 3 21.0191 14.2899 55.8225 -2.7621 21.7018 -3.3938
# 4 -5.6296 -8.2902 -2.7621 27.7650 0.2643 6.5971
# 5 18.6540 15.0409 21.7018 0.2643 36.7937 4.4125
# 6 -1.3114 -4.0925 -3.3938 6.5971 4.4125 36.3029
#
#
#
# Elastic Compliance Matrix: (Units=1/GPa)
#
#
# Indices 1 2 3 4 5 6 
#
# 1 0.010244 -0.002071 -0.002024 0.001263 -0.003175 0.000104
# 2 -0.002071 0.007967 -0.000299 0.001775 -0.002131 0.000732
# 3 -0.002024 -0.000299 0.024337 0.001194 -0.013648 0.003610
# 4 0.001263 0.001775 0.001194 0.038467 -0.001574 -0.006442
# 5 -0.003175 -0.002131 -0.013648 -0.001574 0.038442 -0.006017
# 6 0.000104 0.000732 0.003610 -0.006442 -0.006017 0.029872
#
#
# Mechanical properties :
#
#
# Convention : Reuss Voigt Hill
#
# Bulk Modulus (GPa) = 29.62100 50.96989 40.29544
# Shear Modulus (GPa) = 29.52116 36.24145 32.88130
#
# Velocity S-wave (km/s) = 3.68707 4.08524 3.89125
# Velocity P-wave (km/s) = 5.63617 6.76194 6.22456
#
# Compressibility (1/GPa) = 0.03375984
#
# Stress axis : x y z
#
# Youngs Moduli (GPa) = 97.61398 125.52319 41.08993
#
# Poissons Ratio (x) = 0.25998 0.08317
# Poissons Ratio (y) = 0.20217 0.01227
# Poissons Ratio (z) = 0.19759 0.03750
#
# Static dielectric constant tensor:
#      x y z
#    x 3.996510 -0.243020 0.148460 
#    y -0.243020 4.388410 -0.152240 
#    z 0.148460 -0.152240 3.911070 
# 
# 
# High freq. dielectric constant tensor:
#      x y z
#    x 1.858570 0.002630 0.020830 
#    y 0.002630 1.875080 -0.000220 
#    z 0.020830 -0.000220 1.847320 
# 
# From -- ./inp_files/222838.got.cif
#   From: 2010.06.25/outbox.cif.g09.slc.cpg/sg2_112_cif.got.tgz:222838.got - 2010.06.27 13:26:56.
