data_PCOD8023237
_publ_section_title
;
Structure prediction by ZEFSAII (Michael W. Deem and Ramdas Pophale) SiO2 
 PCOD8023237
Probable space group: P -1
;
_chemical_formula_sum "Si O2"
_cell_formula_units_Z 16
_cell_length_a 7.255084
_cell_length_b 20.628737
_cell_length_c 16.866328
_cell_angle_alpha 18.820714
_cell_angle_beta 114.553667
_cell_angle_gamma 111.467171
_cell_volume 737.482915
_symmetry_space_group_name_H-M "P -1"
_symmetry_group_IT_number 2
_symmetry_cell_setting 'triclinic'
loop_
_space_group_symop_operation_xyz
x,y,z
-x,-y,-z
loop_
_atom_site_type_symbol
_atom_site_label
_atom_site_fract_x
_atom_site_fract_y
_atom_site_fract_z
Si Si1 0.212965 0.877384 0.185279
Si Si2 0.888857 0.814458 0.660348
Si Si3 0.398319 0.252638 0.839522
Si Si4 0.212774 0.653122 0.284645
Si Si5 0.772743 0.776968 0.991445
Si Si6 0.571144 0.192732 0.422009
Si Si7 0.069276 0.625992 0.764117
Si Si8 0.231630 0.610869 0.647879
O O1 0.276576 0.766989 0.243115
O O2 0.182007 0.716360 0.434149
O O3 0.379877 0.029537 0.060379
O O4 0.000000 0.000000 0.000000
O O5 0.649327 0.856659 0.588955
O O6 0.922019 0.785269 0.604967
O O7 0.000000 0.000000 0.500000
O O8 0.975171 0.603354 0.959610
O O9 0.221123 0.414034 0.584015
O O10 0.620332 0.318362 0.785299
O O11 0.385880 0.250310 0.934958
O O12 0.997519 0.743418 0.108101
O O13 0.740127 0.626605 0.087793
O O14 0.726997 0.993876 0.692955
O O15 0.560922 0.313830 0.364570
O O16 0.693567 0.329522 0.223820
O O17 0.050008 0.658068 0.627478
#
# Coordination Sequence:
#
# PCOD8023237 Si02
#       8
#     2   2   2   2   2   2   2   2
#     4  12  20  40  65  87 131 178 218 274 323 372
#     4  11  24  46  75 101 130 166 214 270 332 408
#     4  11  22  39  60  91 119 175 226 273 323 374
#     4  11  24  38  62  90 128 175 231 271 321 379
#     4  12  22  42  63  91 134 172 222 273 320 381
#     4  10  24  44  67  97 132 169 215 262 335 398
#     4   9  24  45  66 101 132 164 216 262 333 396
#     4  10  23  41  63  94 132 174 211 273 325 379
#
# _framework density 21.695415000000001
#
# number of rings (size 3 to 8) (size 9 to 14) (size 15 to 20)
#    0.750    0.500    3.750    1.875    1.750    3.500 
#    2.250    0.000    0.000    0.000    0.000    0.000 
#    0.000    0.000    0.000    0.000    0.000    0.000 
#
# Total GULP energy -198248.271703 kJ/mol
# GULP energy per Si atom -12390.516981 kJ/mol
# Density = 2.164604 g / cm^3
# Si number density = 21.695415 Si / 1000 Ang^3
#
#
#
# Elastic Constant Matrix: (Units=GPa)
#
#
# Indices 1 2 3 4 5 6 
#
# 1 63.8445 16.4219 21.1040 -8.3345 -7.6459 -6.4521
# 2 16.4219 85.7506 40.2540 -32.0720 -2.3025 -6.4984
# 3 21.1040 40.2540 94.6358 -29.6393 -12.7136 -0.1852
# 4 -8.3345 -32.0720 -29.6393 34.0635 2.1822 -1.7904
# 5 -7.6459 -2.3025 -12.7136 2.1822 26.8472 -1.1219
# 6 -6.4521 -6.4984 -0.1852 -1.7904 -1.1219 31.6760
#
#
#
# Elastic Compliance Matrix: (Units=1/GPa)
#
#
# Indices 1 2 3 4 5 6 
#
# 1 0.017813 -0.001647 -0.002604 0.000479 0.003803 0.003437
# 2 -0.001647 0.019646 -0.003302 0.015549 -0.001423 0.004504
# 3 -0.002604 -0.003302 0.016572 0.010274 0.005974 -0.000319
# 4 0.000479 0.015549 0.010274 0.053247 0.002276 0.006438
# 5 0.003803 -0.001423 0.005974 0.002276 0.040941 0.002096
# 6 0.003437 0.004504 -0.000319 0.006438 0.002096 0.033630
#
#
# Mechanical properties :
#
#
# Convention : Reuss Voigt Hill
#
# Bulk Modulus (GPa) = 25.69081 44.42121 35.05601
# Shear Modulus (GPa) = 23.81763 29.61407 26.71585
#
# Velocity S-wave (km/s) = 3.31693 3.69859 3.51295
# Velocity P-wave (km/s) = 5.15137 6.22566 5.71382
#
# Compressibility (1/GPa) = 0.03892442
#
# Stress axis : x y z
#
# Youngs Moduli (GPa) = 56.13937 50.90125 60.34385
#
# Poissons Ratio (x) = 0.08385 0.15714
# Poissons Ratio (y) = 0.09248 0.19923
# Poissons Ratio (z) = 0.14619 0.16806
#
# Static dielectric constant tensor:
#      x y z
#    x 3.694730 -0.189770 -0.216620 
#    y -0.189770 4.081620 -0.479010 
#    z -0.216620 -0.479010 4.451530 
# 
# 
# High freq. dielectric constant tensor:
#      x y z
#    x 1.831320 -0.019140 -0.017520 
#    y -0.019140 1.846610 -0.014610 
#    z -0.017520 -0.014610 1.866620 
# 
# From -- ./inp_files/562177.got.cif
#   From: 2010.06.25/outbox.cif.g09.slc.cpg/sg2_282_cif.got.tgz:562177.got - 2010.06.27 13:26:56.
