data_PCOD8023758
_publ_section_title
;
Structure prediction by ZEFSAII (Michael W. Deem and Ramdas Pophale) SiO2 
 PCOD8023758
Probable space group: P -1
;
_chemical_formula_sum "Si O2"
_cell_formula_units_Z 16
_cell_length_a 12.426918
_cell_length_b 17.953516
_cell_length_c 11.825308
_cell_angle_alpha 60.261381
_cell_angle_beta 121.753187
_cell_angle_gamma 159.634380
_cell_volume 780.697350
_symmetry_space_group_name_H-M "P -1"
_symmetry_group_IT_number 2
_symmetry_cell_setting 'triclinic'
loop_
_space_group_symop_operation_xyz
x,y,z
-x,-y,-z
loop_
_atom_site_type_symbol
_atom_site_label
_atom_site_fract_x
_atom_site_fract_y
_atom_site_fract_z
Si Si1 0.285100 0.160988 0.686040
Si Si2 0.351142 0.461837 0.297217
Si Si3 0.165662 0.380819 0.621481
Si Si4 0.516078 0.877496 0.047115
Si Si5 0.236451 0.915058 0.583784
Si Si6 0.971063 0.301764 0.023275
Si Si7 0.206948 0.855601 0.189843
Si Si8 0.616545 0.805354 0.542012
O O1 0.433380 0.346960 0.645680
O O2 0.425684 0.183817 0.839783
O O3 0.377934 0.184711 0.597421
O O4 0.908152 0.933017 0.659651
O O5 0.538348 0.492188 0.349024
O O6 0.288420 0.475484 0.135973
O O7 0.029696 0.237398 0.352630
O O8 0.294707 0.556862 0.586352
O O9 0.903667 0.222039 0.498277
O O10 0.012737 0.248902 0.750989
O O11 0.721730 0.070963 0.092918
O O12 0.152991 0.682300 0.013038
O O13 0.618861 0.953857 0.914627
O O14 0.529053 0.044934 0.695533
O O15 0.369665 0.089355 0.483205
O O16 0.011518 0.326815 0.890074
#
# Coordination Sequence:
#
# PCOD8023758 Si02
#       8
#     2   2   2   2   2   2   2   2
#     4  11  21  37  62  98 128 160 218 269 306 370
#     4  12  21  39  65  96 127 160 221 262 306 375
#     4  12  25  41  63 100 128 169 212 255 328 374
#     4   9  18  39  62  90 119 171 209 252 315 368
#     4  12  22  45  66  94 130 162 220 263 309 380
#     4   9  18  38  64  88 118 172 204 257 308 370
#     4  10  23  42  65  91 133 173 201 259 326 376
#     4  11  23  38  65  94 128 167 209 269 314 370
#
# _framework density 20.494499000000001
#
# number of rings (size 3 to 8) (size 9 to 14) (size 15 to 20)
#    0.750    0.500    3.750    4.500    0.000    1.500 
#    0.000    1.875    0.000    0.000    0.000    0.000 
#    0.000    0.000    0.000    0.000    0.000    0.000 
#
# Total GULP energy -198349.345460 kJ/mol
# GULP energy per Si atom -12396.834091 kJ/mol
# Density = 2.044785 g / cm^3
# Si number density = 20.494499 Si / 1000 Ang^3
#
#
#
# Elastic Constant Matrix: (Units=GPa)
#
#
# Indices 1 2 3 4 5 6 
#
# 1 51.7226 25.6370 21.8418 -9.2579 3.6444 -2.8610
# 2 25.6370 56.9057 20.9971 7.5239 -0.0973 -13.0334
# 3 21.8418 20.9971 104.2715 10.3211 3.2637 3.8856
# 4 -9.2579 7.5239 10.3211 30.7550 -2.7520 -1.7683
# 5 3.6444 -0.0973 3.2637 -2.7520 33.9433 -2.6572
# 6 -2.8610 -13.0334 3.8856 -1.7683 -2.6572 23.9567
#
#
#
# Elastic Compliance Matrix: (Units=1/GPa)
#
#
# Indices 1 2 3 4 5 6 
#
# 1 0.031274 -0.014831 -0.004819 0.014326 -0.001988 -0.002715
# 2 -0.014831 0.029782 -0.002518 -0.009879 0.002243 0.014360
# 3 -0.004819 -0.002518 0.011827 -0.005181 -0.001392 -0.004401
# 4 0.014326 -0.009879 -0.005181 0.041217 0.002311 0.000475
# 5 -0.001988 0.002243 -0.001392 0.002311 0.030374 0.004748
# 6 -0.002715 0.014360 -0.004401 0.000475 0.004748 0.050506
#
#
# Mechanical properties :
#
#
# Convention : Reuss Voigt Hill
#
# Bulk Modulus (GPa) = 35.02887 38.87238 36.95062
# Shear Modulus (GPa) = 20.09391 27.35925 23.72658
#
# Velocity S-wave (km/s) = 3.13462 3.65767 3.40620
# Velocity P-wave (km/s) = 5.49819 6.07013 5.79122
#
# Compressibility (1/GPa) = 0.02854788
#
# Stress axis : x y z
#
# Youngs Moduli (GPa) = 31.97546 33.57687 84.55023
#
# Poissons Ratio (x) = 0.49797 0.40746
# Poissons Ratio (y) = 0.47422 0.21291
# Poissons Ratio (z) = 0.15409 0.08455
#
# Static dielectric constant tensor:
#      x y z
#    x 3.439840 -0.079580 -0.012780 
#    y -0.079580 3.602840 0.167810 
#    z -0.012780 0.167810 3.705110 
# 
# 
# High freq. dielectric constant tensor:
#      x y z
#    x 1.779970 -0.007190 0.007080 
#    y -0.007190 1.784250 0.019550 
#    z 0.007080 0.019550 1.806100 
# 
# From -- ./inp_files/437268.got.cif
#   From: 2010.06.25/outbox.cif.g09.slc.cpg/sg2_219_cif.got.tgz:437268.got - 2010.06.27 13:26:56.
