data_PCOD8023960
_publ_section_title
;
Structure prediction by ZEFSAII (Michael W. Deem and Ramdas Pophale) SiO2 
 PCOD8023960
Probable space group: P -1
;
_chemical_formula_sum "Si O2"
_cell_formula_units_Z 16
_cell_length_a 20.382511
_cell_length_b 17.505171
_cell_length_c 9.068917
_cell_angle_alpha 61.118844
_cell_angle_beta 48.678476
_cell_angle_gamma 20.348567
_cell_volume 721.232088
_symmetry_space_group_name_H-M "P -1"
_symmetry_group_IT_number 2
_symmetry_cell_setting 'triclinic'
loop_
_space_group_symop_operation_xyz
x,y,z
-x,-y,-z
loop_
_atom_site_type_symbol
_atom_site_label
_atom_site_fract_x
_atom_site_fract_y
_atom_site_fract_z
Si Si1 0.754959 0.637236 0.684072
Si Si2 0.718977 0.168696 0.759478
Si Si3 0.008237 0.996849 0.240295
Si Si4 0.147594 0.731384 0.032811
Si Si5 0.800687 0.905405 0.959725
Si Si6 0.452237 0.093795 0.725007
Si Si7 0.016012 0.421783 0.211645
Si Si8 0.877278 0.817927 0.269823
O O1 0.977307 0.419597 0.432361
O O2 0.895019 0.466736 0.778139
O O3 0.678423 0.809968 0.651807
O O4 0.506591 0.814887 0.846564
O O5 0.757555 0.180310 0.849409
O O6 0.870371 0.933947 0.759042
O O7 0.421879 0.428200 0.927430
O O8 0.811287 0.142480 0.514085
O O9 0.112125 0.824845 0.140019
O O10 0.862822 0.205425 0.163199
O O11 0.933235 0.856649 0.232407
O O12 0.942181 0.697341 0.852298
O O13 0.884939 0.823705 0.079309
O O14 0.245088 0.279959 0.723675
O O15 0.599535 0.047601 0.534253
O O16 0.268049 0.249499 0.996376
#
# Coordination Sequence:
#
# PCOD8023960 Si02
#       8
#     2   2   2   2   2   2   2   2
#     4  11  23  45  67  90 133 175 219 268 322 379
#     4  11  22  44  68  95 130 170 211 262 325 384
#     4  10  24  43  70  97 126 169 214 260 324 393
#     4  11  23  44  66  98 132 166 212 268 322 385
#     4  11  24  42  63  97 134 171 215 267 322 383
#     4  10  23  43  65  96 129 175 219 270 321 379
#     4  10  23  42  68  91 130 176 222 266 318 381
#     4  12  24  42  65  96 135 170 214 271 325 377
#
# _framework density 22.184259999999998
#
# number of rings (size 3 to 8) (size 9 to 14) (size 15 to 20)
#    0.000    1.250    3.750    1.500    5.250    0.500 
#    6.750    1.250    0.000    0.000    0.000    0.000 
#    0.000    0.000    0.000    0.000    0.000    0.000 
#
# Total GULP energy -198341.676288 kJ/mol
# GULP energy per Si atom -12396.354768 kJ/mol
# Density = 2.213377 g / cm^3
# Si number density = 22.184260 Si / 1000 Ang^3
#
#
#
# Elastic Constant Matrix: (Units=GPa)
#
#
# Indices 1 2 3 4 5 6 
#
# 1 81.4358 35.4878 54.1381 -15.5627 -14.5473 -3.6291
# 2 35.4878 121.0135 40.8241 -13.7959 -1.6555 -4.4597
# 3 54.1381 40.8241 92.0134 -4.2459 -11.0477 -2.6628
# 4 -15.5627 -13.7959 -4.2459 25.2400 1.0950 -3.0247
# 5 -14.5473 -1.6555 -11.0477 1.0950 32.4749 -6.6057
# 6 -3.6291 -4.4597 -2.6628 -3.0247 -6.6057 32.9921
#
#
#
# Elastic Compliance Matrix: (Units=1/GPa)
#
#
# Indices 1 2 3 4 5 6 
#
# 1 0.025257 -0.001425 -0.012628 0.012856 0.007371 0.004221
# 2 -0.001425 0.010462 -0.003724 0.004402 -0.001296 0.001101
# 3 -0.012628 -0.003724 0.019737 -0.006629 0.000945 -0.000718
# 4 0.012856 0.004402 -0.006629 0.049492 0.003422 0.006697
# 5 0.007371 -0.001296 0.000945 0.003422 0.035906 0.008215
# 6 0.004221 0.001101 -0.000718 0.006697 0.008215 0.033124
#
#
# Mechanical properties :
#
#
# Convention : Reuss Voigt Hill
#
# Bulk Modulus (GPa) = 50.24488 61.70697 55.97593
# Shear Modulus (GPa) = 23.13024 29.07559 26.10292
#
# Velocity S-wave (km/s) = 3.23250 3.62420 3.43394
# Velocity P-wave (km/s) = 6.05228 6.73715 6.40388
#
# Compressibility (1/GPa) = 0.01990252
#
# Stress axis : x y z
#
# Youngs Moduli (GPa) = 39.59256 95.58037 50.66539
#
# Poissons Ratio (x) = 0.13616 0.63982
# Poissons Ratio (y) = 0.05640 0.18870
# Poissons Ratio (z) = 0.49999 0.35598
#
# Static dielectric constant tensor:
#      x y z
#    x 3.948120 -0.136860 -0.173750 
#    y -0.136860 4.053690 -0.201740 
#    z -0.173750 -0.201740 4.105920 
# 
# 
# High freq. dielectric constant tensor:
#      x y z
#    x 1.867850 -0.012830 -0.013680 
#    y -0.012830 1.884160 -0.017660 
#    z -0.013680 -0.017660 1.874330 
# 
# From -- ./inp_files/348413.got.cif
#   From: 2010.06.25/outbox.cif.g09.slc.cpg/sg2_175_cif.got.tgz:348413.got - 2010.06.27 13:26:56.
