data_PCOD8023208
_publ_section_title
;
Structure prediction by ZEFSAII (Michael W. Deem and Ramdas Pophale) SiO2 
 PCOD8023208
Probable space group: P -1
;
_chemical_formula_sum "Si O2"
_cell_formula_units_Z 16
_cell_length_a 17.403836
_cell_length_b 23.522993
_cell_length_c 14.209089
_cell_angle_alpha 33.162760
_cell_angle_beta 156.851914
_cell_angle_gamma 159.447349
_cell_volume 790.726086
_symmetry_space_group_name_H-M "P -1"
_symmetry_group_IT_number 2
_symmetry_cell_setting 'triclinic'
loop_
_space_group_symop_operation_xyz
x,y,z
-x,-y,-z
loop_
_atom_site_type_symbol
_atom_site_label
_atom_site_fract_x
_atom_site_fract_y
_atom_site_fract_z
Si Si1 0.244613 0.573691 0.050969
Si Si2 0.704175 0.652873 0.951549
Si Si3 0.153787 0.659612 0.397950
Si Si4 0.834876 0.921803 0.823343
Si Si5 0.746035 0.946050 0.354055
Si Si6 0.299288 0.622545 0.418271
Si Si7 0.928527 0.826271 0.417981
Si Si8 0.202747 0.742798 0.901404
O O1 0.558325 0.667519 0.223801
O O2 0.079295 0.403698 0.143293
O O3 0.325682 0.690506 0.060273
O O4 0.014014 0.534705 0.771446
O O5 0.974706 0.694085 0.156684
O O6 0.500000 0.500000 0.000000
O O7 0.848033 0.810429 0.950717
O O8 0.468833 0.589485 0.692318
O O9 0.488549 0.814381 0.605784
O O10 0.199902 0.656637 0.344123
O O11 0.000000 0.500000 0.500000
O O12 0.983749 0.058397 0.724580
O O13 0.000000 0.000000 0.000000
O O14 0.549248 0.777188 0.418254
O O15 0.499040 0.908929 0.063352
O O16 0.000000 0.000000 0.500000
O O17 0.926180 0.089291 0.433669
O O18 0.074358 0.772245 0.639095
#
# Coordination Sequence:
#
# PCOD8023208 Si02
#       8
#     2   2   2   2   2   2   2   2
#     4  10  23  41  62  93 132 166 216 267 324 396
#     4  11  22  43  72  93 131 181 226 270 337 403
#     4  11  22  43  69  91 132 177 224 275 327 405
#     4  11  27  44  65 105 137 166 226 283 336 397
#     4  11  21  43  66  92 133 171 217 275 320 392
#     4  10  23  42  63 100 127 171 227 264 327 402
#     4  12  23  42  65  94 132 170 218 272 336 383
#     4  10  23  41  63  92 130 172 214 265 328 395
#
# _framework density 20.234567999999999
#
# number of rings (size 3 to 8) (size 9 to 14) (size 15 to 20)
#    0.000    1.250    6.250    0.750    1.750    4.500 
#    4.500    0.000    0.000    0.000    0.000    0.000 
#    0.000    0.000    0.000    0.000    0.000    0.000 
#
# Total GULP energy -198362.475298 kJ/mol
# GULP energy per Si atom -12397.654706 kJ/mol
# Density = 2.018851 g / cm^3
# Si number density = 20.234568 Si / 1000 Ang^3
#
#
#
# Elastic Constant Matrix: (Units=GPa)
#
#
# Indices 1 2 3 4 5 6 
#
# 1 97.1466 36.7035 56.6158 4.0971 -0.5764 12.6099
# 2 36.7035 89.6616 54.4607 6.9356 -0.3164 13.0835
# 3 56.6158 54.4607 155.7560 2.7260 6.3517 4.0173
# 4 4.0971 6.9356 2.7260 39.3979 -2.0183 -1.6245
# 5 -0.5764 -0.3164 6.3517 -2.0183 41.5145 8.2948
# 6 12.6099 13.0835 4.0173 -1.6245 8.2948 34.2648
#
#
#
# Elastic Compliance Matrix: (Units=1/GPa)
#
#
# Indices 1 2 3 4 5 6 
#
# 1 0.014346 -0.002608 -0.004246 -0.000829 0.001632 -0.004220
# 2 -0.002608 0.015886 -0.004503 -0.002338 0.001678 -0.005095
# 3 -0.004246 -0.004503 0.009543 0.000579 -0.002063 0.002690
# 4 -0.000829 -0.002338 0.000579 0.025966 0.000707 0.002190
# 5 0.001632 0.001678 -0.002063 0.000707 0.025920 -0.007241
# 6 -0.004220 -0.005095 0.002690 0.002190 -0.007241 0.034224
#
#
# Mechanical properties :
#
#
# Convention : Reuss Voigt Hill
#
# Bulk Modulus (GPa) = 58.61182 70.90267 64.75724
# Shear Modulus (GPa) = 32.40746 36.02105 34.21426
#
# Velocity S-wave (km/s) = 4.00633 4.22379 4.11649
# Velocity P-wave (km/s) = 7.10140 7.67487 7.39370
#
# Compressibility (1/GPa) = 0.01706141
#
# Stress axis : x y z
#
# Youngs Moduli (GPa) = 69.70598 62.94929 104.79276
#
# Poissons Ratio (x) = 0.16416 0.44494
# Poissons Ratio (y) = 0.18178 0.47185
# Poissons Ratio (z) = 0.29597 0.28344
#
# Static dielectric constant tensor:
#      x y z
#    x 2.570820 1.449840 -0.970660 
#    y 1.449840 1.861290 1.442270 
#    z -0.970660 1.442270 2.764170 
# 
# 
# High freq. dielectric constant tensor:
#      x y z
#    x 1.787640 0.007640 -0.003080 
#    y 0.007640 1.791300 0.010490 
#    z -0.003080 0.010490 1.804890 
# 
# From -- ./inp_files/223894.got.cif
#   From: 2010.06.25/outbox.cif.g09.slc.cpg/sg2_112_cif.got.tgz:223894.got - 2010.06.27 13:26:56.
