data_PCOD8023430
_publ_section_title
;
Structure prediction by ZEFSAII (Michael W. Deem and Ramdas Pophale) SiO2 
 PCOD8023430
Probable space group: P -1
;
_chemical_formula_sum "Si O2"
_cell_formula_units_Z 14
_cell_length_a 5.194870
_cell_length_b 19.305175
_cell_length_c 9.137345
_cell_angle_alpha 111.607697
_cell_angle_beta 124.890029
_cell_angle_gamma 59.195079
_cell_volume 641.904060
_symmetry_space_group_name_H-M "P -1"
_symmetry_group_IT_number 2
_symmetry_cell_setting 'triclinic'
loop_
_space_group_symop_operation_xyz
x,y,z
-x,-y,-z
loop_
_atom_site_type_symbol
_atom_site_label
_atom_site_fract_x
_atom_site_fract_y
_atom_site_fract_z
Si Si1 0.482282 0.304313 0.108443
Si Si2 0.392048 0.085186 0.955210
Si Si3 0.224943 0.050355 0.564727
Si Si4 0.287435 0.818326 0.690049
Si Si5 0.384384 0.594389 0.556929
Si Si6 0.145650 0.748555 0.103089
Si Si7 0.619415 0.689459 0.482692
O O1 0.784127 0.242224 0.265610
O O2 0.392525 0.391601 0.224340
O O3 0.625572 0.304713 0.994761
O O4 0.160388 0.279327 0.980766
O O5 0.424435 0.069084 0.779453
O O6 0.012534 0.154980 0.915102
O O7 0.659620 0.116628 0.136690
O O8 0.500000 0.000000 0.000000
O O9 0.012771 0.136228 0.485562
O O10 0.500000 0.000000 0.500000
O O11 0.000000 0.000000 0.500000
O O12 0.613416 0.758826 0.652610
O O13 0.500000 0.500000 0.500000
O O14 0.448511 0.632806 0.457423
O O15 0.989749 0.633077 0.504167
O O16 0.386461 0.736812 0.309687
#
# Coordination Sequence:
#
# PCOD8023430 Si02
#       7
#     2   2   2   2   2   2   2
#     4  10  23  41  67  91 132 168 221 263 334 390
#     4  11  23  42  66  93 132 174 224 275 331 371
#     4  12  27  42  62  93 131 168 225 279 332 378
#     4  10  23  44  65  93 128 179 221 272 323 395
#     4  11  23  43  69  99 132 172 214 267 337 401
#     4  11  23  43  65  98 128 176 223 276 316 396
#     4  11  23  43  69  97 132 174 221 267 329 399
#
# _framework density 21.810115
#
# number of rings (size 3 to 8) (size 9 to 14) (size 15 to 20)
#    0.000    1.143    2.857    3.857    2.000    5.143 
#    0.000    4.286    0.000    0.000    0.000    0.000 
#    0.000    0.000    0.000    0.000    0.000    0.000 
#
# Total GULP energy -173456.822652 kJ/mol
# GULP energy per Si atom -12389.773047 kJ/mol
# Density = 2.176047 g / cm^3
# Si number density = 21.810115 Si / 1000 Ang^3
#
#
#
# Elastic Constant Matrix: (Units=GPa)
#
#
# Indices 1 2 3 4 5 6 
#
# 1 118.9536 37.0434 28.3417 6.7735 -16.1208 -14.8593
# 2 37.0434 117.3045 54.8875 28.7989 0.7201 -10.5196
# 3 28.3417 54.8875 147.1559 11.1809 -15.1535 -2.4292
# 4 6.7735 28.7989 11.1809 35.1086 -1.5674 -0.2964
# 5 -16.1208 0.7201 -15.1535 -1.5674 24.8388 -1.8404
# 6 -14.8593 -10.5196 -2.4292 -0.2964 -1.8404 27.0063
#
#
#
# Elastic Compliance Matrix: (Units=1/GPa)
#
#
# Indices 1 2 3 4 5 6 
#
# 1 0.011105 -0.003251 -0.000118 0.000950 0.007687 0.005368
# 2 -0.003251 0.014422 -0.004534 -0.009990 -0.005708 0.002923
# 3 -0.000118 -0.004534 0.008986 0.001123 0.005561 -0.000632
# 4 0.000950 -0.009990 0.001123 0.036279 0.003687 -0.002618
# 5 0.007687 -0.005708 0.005561 0.003687 0.049478 0.005919
# 6 0.005368 0.002923 -0.000632 -0.002618 0.005919 0.041438
#
#
# Mechanical properties :
#
#
# Convention : Reuss Voigt Hill
#
# Bulk Modulus (GPa) = 53.45203 69.32881 61.39042
# Shear Modulus (GPa) = 27.21077 34.93350 31.07213
#
# Velocity S-wave (km/s) = 3.53600 4.00648 3.77857
# Velocity P-wave (km/s) = 6.42123 7.29787 6.87354
#
# Compressibility (1/GPa) = 0.01870836
#
# Stress axis : x y z
#
# Youngs Moduli (GPa) = 90.04677 69.33665 111.28085
#
# Poissons Ratio (x) = 0.22539 0.01317
# Poissons Ratio (y) = 0.29271 0.50453
# Poissons Ratio (z) = 0.01066 0.31436
#
# Static dielectric constant tensor:
#      x y z
#    x 3.287360 -1.653130 -0.967380 
#    y -1.653130 -0.165640 -2.322480 
#    z -0.967380 -2.322480 3.028760 
# 
# 
# High freq. dielectric constant tensor:
#      x y z
#    x 1.844120 -0.000920 -0.014100 
#    y -0.000920 1.853940 0.010920 
#    z -0.014100 0.010920 1.879420 
# 
# From -- ./inp_files/85263.got.cif
#   From: 2010.06.25/outbox.cif.g09.slc.cpg/sg2_43_cif.got.tgz:85263.got - 2010.06.27 13:26:56.
