data_PCOD8023499
_publ_section_title
;
Structure prediction by ZEFSAII (Michael W. Deem and Ramdas Pophale) SiO2 
 PCOD8023499
Probable space group: P -1
;
_chemical_formula_sum "Si O2"
_cell_formula_units_Z 16
_cell_length_a 13.606703
_cell_length_b 11.874047
_cell_length_c 8.996643
_cell_angle_alpha 34.988626
_cell_angle_beta 106.010221
_cell_angle_gamma 117.167523
_cell_volume 727.649688
_symmetry_space_group_name_H-M "P -1"
_symmetry_group_IT_number 2
_symmetry_cell_setting 'triclinic'
loop_
_space_group_symop_operation_xyz
x,y,z
-x,-y,-z
loop_
_atom_site_type_symbol
_atom_site_label
_atom_site_fract_x
_atom_site_fract_y
_atom_site_fract_z
Si Si1 0.654869 0.098154 0.742759
Si Si2 0.958922 0.531785 0.209449
Si Si3 0.758472 0.180682 0.383948
Si Si4 0.051679 0.253945 0.722374
Si Si5 0.700650 0.858973 0.270435
Si Si6 0.603142 0.104432 0.141300
Si Si7 0.897974 0.060577 0.346703
Si Si8 0.299566 0.527796 0.445736
O O1 0.706442 0.076200 0.632125
O O2 0.662710 0.338951 0.526583
O O3 0.524971 0.927232 0.881852
O O4 0.728682 0.037316 0.958634
O O5 0.844047 0.430558 0.175320
O O6 0.941137 0.650568 0.215447
O O7 0.980927 0.327340 0.496605
O O8 0.055328 0.698025 0.964150
O O9 0.651639 0.164724 0.261304
O O10 0.824614 0.054427 0.468497
O O11 0.174368 0.343926 0.606182
O O12 0.000000 0.000000 0.000000
O O13 0.638489 0.620520 0.426564
O O14 0.612347 0.888091 0.317398
O O15 0.816127 0.897112 0.365794
O O16 0.684348 0.298651 0.862499
O O17 0.000000 0.000000 0.500000
#
# Coordination Sequence:
#
# PCOD8023499 Si02
#       8
#     2   2   2   2   2   2   2   2
#     4  11  23  45  69  96 127 173 222 285 334 378
#     4  11  24  41  64  96 136 177 227 267 330 400
#     4  11  24  43  66  95 137 169 221 275 329 403
#     4  11  24  39  67 100 136 178 220 275 330 394
#     4  10  23  41  68  97 129 167 227 266 322 403
#     4  10  24  44  68  94 131 173 221 279 339 385
#     4  11  26  43  68  99 141 183 217 267 340 406
#     4  11  22  40  69  96 130 166 223 268 332 395
#
# _framework density 21.988603999999999
#
# number of rings (size 3 to 8) (size 9 to 14) (size 15 to 20)
#    0.000    1.250    1.250    5.250    8.750    2.000 
#    0.000    0.625    0.000    3.750    0.000    0.000 
#    0.000    0.000    0.000    0.000    0.000    0.000 
#
# Total GULP energy -198288.833484 kJ/mol
# GULP energy per Si atom -12393.052093 kJ/mol
# Density = 2.193856 g / cm^3
# Si number density = 21.988604 Si / 1000 Ang^3
#
#
#
# Elastic Constant Matrix: (Units=GPa)
#
#
# Indices 1 2 3 4 5 6 
#
# 1 107.2081 51.6962 48.2907 7.1704 -7.3072 1.8448
# 2 51.6962 131.3778 64.6463 10.4431 -0.1591 -5.8582
# 3 48.2907 64.6463 98.8887 -6.9029 2.0327 -10.5316
# 4 7.1704 10.4431 -6.9029 37.2640 -6.1286 -5.2693
# 5 -7.3072 -0.1591 2.0327 -6.1286 30.6468 -0.0724
# 6 1.8448 -5.8582 -10.5316 -5.2693 -0.0724 27.1247
#
#
#
# Elastic Compliance Matrix: (Units=1/GPa)
#
#
# Indices 1 2 3 4 5 6 
#
# 1 0.013594 -0.002448 -0.005774 -0.003117 0.002978 -0.004293
# 2 -0.002448 0.012560 -0.007422 -0.004714 -0.000971 -0.000921
# 3 -0.005774 -0.007422 0.019162 0.007644 -0.001139 0.007712
# 4 -0.003117 -0.004714 0.007644 0.032218 0.005188 0.008434
# 5 0.002978 -0.000971 -0.001139 0.005188 0.034449 0.000245
# 6 -0.004293 -0.000921 0.007712 0.008434 0.000245 0.041593
#
#
# Mechanical properties :
#
#
# Convention : Reuss Voigt Hill
#
# Bulk Modulus (GPa) = 71.28840 74.08232 72.68536
# Shear Modulus (GPa) = 26.37953 30.52987 28.45470
#
# Velocity S-wave (km/s) = 3.46741 3.73022 3.60122
# Velocity P-wave (km/s) = 6.96574 7.23306 7.10066
#
# Compressibility (1/GPa) = 0.01402753
#
# Stress axis : x y z
#
# Youngs Moduli (GPa) = 73.56015 79.62045 52.18531
#
# Poissons Ratio (x) = 0.19492 0.30132
# Poissons Ratio (y) = 0.18008 0.38733
# Poissons Ratio (z) = 0.42474 0.59096
#
# Static dielectric constant tensor:
#      x y z
#    x 3.961410 -0.144660 0.005620 
#    y -0.144660 4.285230 -0.028790 
#    z 0.005620 -0.028790 3.870700 
# 
# 
# High freq. dielectric constant tensor:
#      x y z
#    x 1.864220 -0.008280 -0.009240 
#    y -0.008280 1.885230 0.001510 
#    z -0.009240 0.001510 1.842700 
# 
# From -- ./inp_files/306103.got.cif
#   From: 2010.06.25/outbox.cif.g09.slc.cpg/sg2_154_cif.got.tgz:306103.got - 2010.06.27 13:26:56.
