data_PCOD8023609
_publ_section_title
;
Structure prediction by ZEFSAII (Michael W. Deem and Ramdas Pophale) SiO2 
 PCOD8023609
Probable space group: P -1
;
_chemical_formula_sum "Si O2"
_cell_formula_units_Z 14
_cell_length_a 17.011867
_cell_length_b 20.316162
_cell_length_c 8.855126
_cell_angle_alpha 142.542992
_cell_angle_beta 133.425666
_cell_angle_gamma 19.862149
_cell_volume 605.896055
_symmetry_space_group_name_H-M "P -1"
_symmetry_group_IT_number 2
_symmetry_cell_setting 'triclinic'
loop_
_space_group_symop_operation_xyz
x,y,z
-x,-y,-z
loop_
_atom_site_type_symbol
_atom_site_label
_atom_site_fract_x
_atom_site_fract_y
_atom_site_fract_z
Si Si1 0.908301 0.343161 0.889021
Si Si2 0.598226 0.768855 0.838612
Si Si3 0.369673 0.818466 0.066106
Si Si4 0.795770 0.723521 0.750854
Si Si5 0.446026 0.529466 0.807561
Si Si6 0.240742 0.913359 0.720068
Si Si7 0.072199 0.698824 0.492664
O O1 0.638356 0.625920 0.080646
O O2 0.920625 0.267194 0.608738
O O3 0.975605 0.195390 0.840117
O O4 0.081375 0.292719 0.015879
O O5 0.699800 0.711558 0.704331
O O6 0.415583 0.831686 0.698852
O O7 0.829349 0.514158 0.770018
O O8 0.446909 0.003079 0.145129
O O9 0.352372 0.720335 0.949783
O O10 0.287172 0.880727 0.898370
O O11 0.198995 0.057959 0.359065
O O12 0.000000 0.500000 0.500000
O O13 0.695914 0.264794 0.576137
O O14 0.231874 0.634010 0.691623
O O15 0.500000 0.500000 0.000000
#
# Coordination Sequence:
#
# PCOD8023609 Si02
#       7
#     2   2   2   2   2   2   2
#     4  11  25  44  67 101 133 181 221 276 347 392
#     4   9  21  43  67  94 142 168 220 285 329 391
#     4  12  25  43  70 101 137 179 230 274 332 408
#     4  10  23  41  72 102 130 177 231 275 338 404
#     4  11  24  44  70 100 135 182 226 279 338 391
#     4  10  23  44  68  98 140 177 226 283 333 395
#     4  11  25  45  65  97 141 174 226 277 338 406
#
# _framework density 23.106273999999999
#
# number of rings (size 3 to 8) (size 9 to 14) (size 15 to 20)
#    0.000    1.429    2.857    1.714    6.000    5.714 
#    0.000    1.429    0.000    0.000    0.000    0.000 
#    0.000    0.000    0.000    0.000    0.000    0.000 
#
# Total GULP energy -173466.594583 kJ/mol
# GULP energy per Si atom -12390.471042 kJ/mol
# Density = 2.305368 g / cm^3
# Si number density = 23.106274 Si / 1000 Ang^3
#
#
#
# Elastic Constant Matrix: (Units=GPa)
#
#
# Indices 1 2 3 4 5 6 
#
# 1 115.5360 51.4453 42.3378 11.4137 -9.7256 17.7243
# 2 51.4453 134.0371 69.2525 21.3875 -14.5007 32.6989
# 3 42.3378 69.2525 111.2347 44.3201 -16.7719 8.7683
# 4 11.4137 21.3875 44.3201 44.1039 -3.8692 2.3135
# 5 -9.7256 -14.5007 -16.7719 -3.8692 32.1087 6.9992
# 6 17.7243 32.6989 8.7683 2.3135 6.9992 37.8089
#
#
#
# Elastic Compliance Matrix: (Units=1/GPa)
#
#
# Indices 1 2 3 4 5 6 
#
# 1 0.011157 -0.001917 -0.003133 0.001518 0.001772 -0.003267
# 2 -0.001917 0.015362 -0.008041 0.002167 0.004940 -0.011569
# 3 -0.003133 -0.008041 0.022714 -0.017912 0.004375 0.003442
# 4 0.001518 0.002167 -0.017912 0.038963 -0.003173 -0.000229
# 5 0.001772 0.004940 0.004375 -0.003173 0.038667 -0.013082
# 6 -0.003267 -0.011569 0.003442 -0.000229 -0.013082 0.039624
#
#
# Mechanical properties :
#
#
# Convention : Reuss Voigt Hill
#
# Bulk Modulus (GPa) = 43.38267 76.31990 59.85128
# Shear Modulus (GPa) = 24.95598 35.98912 30.47255
#
# Velocity S-wave (km/s) = 3.28998 3.95086 3.63547
# Velocity P-wave (km/s) = 5.76611 7.34262 6.60159
#
# Compressibility (1/GPa) = 0.02305068
#
# Stress axis : x y z
#
# Youngs Moduli (GPa) = 89.62599 65.09575 44.02597
#
# Poissons Ratio (x) = 0.12479 0.13794
# Poissons Ratio (y) = 0.17182 0.35402
# Poissons Ratio (z) = 0.28081 0.52344
#
# Static dielectric constant tensor:
#      x y z
#    x 4.169140 0.154010 0.168390 
#    y 0.154010 4.559030 0.612760 
#    z 0.168390 0.612760 4.233380 
# 
# 
# High freq. dielectric constant tensor:
#      x y z
#    x 1.912730 0.005830 0.000770 
#    y 0.005830 1.922430 0.033880 
#    z 0.000770 0.033880 1.901650 
# 
# From -- ./inp_files/337943.got.cif
#   From: 2010.06.25/outbox.cif.g09.slc.cpg/sg2_169_cif.got.tgz:337943.got - 2010.06.27 13:26:56.
