data_PCOD8023725
_publ_section_title
;
Structure prediction by ZEFSAII (Michael W. Deem and Ramdas Pophale) SiO2 
 PCOD8023725
Probable space group: P -1
;
_chemical_formula_sum "Si O2"
_cell_formula_units_Z 16
_cell_length_a 18.680106
_cell_length_b 20.701536
_cell_length_c 12.701702
_cell_angle_alpha 141.021924
_cell_angle_beta 18.839718
_cell_angle_gamma 149.810032
_cell_volume 772.200840
_symmetry_space_group_name_H-M "P -1"
_symmetry_group_IT_number 2
_symmetry_cell_setting 'triclinic'
loop_
_space_group_symop_operation_xyz
x,y,z
-x,-y,-z
loop_
_atom_site_type_symbol
_atom_site_label
_atom_site_fract_x
_atom_site_fract_y
_atom_site_fract_z
Si Si1 0.542065 0.582715 0.648024
Si Si2 0.169694 0.972438 0.798359
Si Si3 0.768147 0.233898 0.606198
Si Si4 0.814599 0.790982 0.244784
Si Si5 0.264220 0.530804 0.610179
Si Si6 0.257614 0.152500 0.356189
Si Si7 0.725670 0.239896 0.434353
Si Si8 0.926216 0.502497 0.401407
O O1 0.500000 0.500000 0.500000
O O2 0.641623 0.548884 0.568744
O O3 0.782148 0.742921 0.501167
O O4 0.243903 0.552359 0.038340
O O5 0.145083 0.858708 0.626626
O O6 0.496013 0.103461 0.520430
O O7 0.032476 0.924755 0.044898
O O8 0.000000 0.000000 0.000000
O O9 0.642992 0.221063 0.648429
O O10 0.058649 0.387395 0.412615
O O11 0.541960 0.186118 0.953840
O O12 0.529819 0.686851 0.441748
O O13 0.716629 0.825865 0.526936
O O14 0.968337 0.725624 0.971297
O O15 0.165154 0.488278 0.574980
O O16 0.000000 0.500000 0.000000
O O17 0.000000 0.000000 0.500000
O O18 0.713775 0.353104 0.551513
#
# Coordination Sequence:
#
# PCOD8023725 Si02
#       8
#     2   2   2   2   2   2   2   2
#     4  11  20  40  62  94 132 175 217 264 328 391
#     4  11  24  45  65  95 133 175 224 267 324 407
#     4  10  23  42  64  95 133 168 219 275 334 385
#     4  11  22  41  69  95 127 178 227 258 326 402
#     4  12  22  38  66 100 135 174 222 271 321 396
#     4  11  21  39  66  97 127 166 221 271 330 386
#     4  11  21  43  71  91 128 184 220 262 329 401
#     4  11  22  39  65  96 131 168 220 277 324 380
#
# _framework density 20.719999000000001
#
# number of rings (size 3 to 8) (size 9 to 14) (size 15 to 20)
#    0.000    1.000    3.750    4.875    0.000    0.000 
#    9.000    3.750    0.000    0.000    0.000    0.000 
#    0.000    0.000    0.000    0.000    0.000    0.000 
#
# Total GULP energy -198337.926386 kJ/mol
# GULP energy per Si atom -12396.120399 kJ/mol
# Density = 2.067284 g / cm^3
# Si number density = 20.719999 Si / 1000 Ang^3
#
#
#
# Elastic Constant Matrix: (Units=GPa)
#
#
# Indices 1 2 3 4 5 6 
#
# 1 131.7192 60.3103 44.9982 21.6026 -12.3815 -7.2058
# 2 60.3103 177.2424 35.3310 4.5686 -5.9248 -6.4478
# 3 44.9982 35.3310 84.2701 3.6198 7.5533 1.8535
# 4 21.6026 4.5686 3.6198 31.4971 8.4042 1.3219
# 5 -12.3815 -5.9248 7.5533 8.4042 37.3133 0.3215
# 6 -7.2058 -6.4478 1.8535 1.3219 0.3215 37.5498
#
#
#
# Elastic Compliance Matrix: (Units=1/GPa)
#
#
# Indices 1 2 3 4 5 6 
#
# 1 0.013612 -0.002725 -0.006432 -0.010372 0.007698 0.002761
# 2 -0.002725 0.006881 -0.001510 0.000941 0.000276 0.000698
# 3 -0.006432 -0.001510 0.016390 0.004640 -0.006716 -0.002408
# 4 -0.010372 0.000941 0.004640 0.041980 -0.013657 -0.003419
# 5 0.007698 0.000276 -0.006716 -0.013657 0.033816 0.002048
# 6 0.002761 0.000698 -0.002408 -0.003419 0.002048 0.027503
#
#
# Mechanical properties :
#
#
# Convention : Reuss Voigt Hill
#
# Bulk Modulus (GPa) = 64.31082 74.94564 69.62823
# Shear Modulus (GPa) = 29.99430 38.11155 34.05292
#
# Velocity S-wave (km/s) = 3.80886 4.29343 4.05838
# Velocity P-wave (km/s) = 7.10272 7.79918 7.45909
#
# Compressibility (1/GPa) = 0.01554948
#
# Stress axis : x y z
#
# Youngs Moduli (GPa) = 73.46268 145.33757 61.01368
#
# Poissons Ratio (x) = 0.39600 0.39241
# Poissons Ratio (y) = 0.20016 0.09215
# Poissons Ratio (z) = 0.47248 0.21951
#
# Static dielectric constant tensor:
#      x y z
#    x 3.958290 0.114770 0.045130 
#    y 0.114770 5.432150 -0.145890 
#    z 0.045130 -0.145890 3.701190 
# 
# 
# High freq. dielectric constant tensor:
#      x y z
#    x 1.805490 -0.001010 0.010410 
#    y -0.001010 1.832860 -0.005590 
#    z 0.010410 -0.005590 1.801300 
# 
# From -- ./inp_files/467116.got.cif
#   From: 2010.06.25/outbox.cif.g09.slc.cpg/sg2_234_cif.got.tgz:467116.got - 2010.06.27 13:26:56.
