data_PCOD8023743
_publ_section_title
;
Structure prediction by ZEFSAII (Michael W. Deem and Ramdas Pophale) SiO2 
 PCOD8023743
Probable space group: P -1
;
_chemical_formula_sum "Si O2"
_cell_formula_units_Z 16
_cell_length_a 16.086953
_cell_length_b 8.568550
_cell_length_c 12.341729
_cell_angle_alpha 73.298663
_cell_angle_beta 154.190259
_cell_angle_gamma 107.503899
_cell_volume 705.816728
_symmetry_space_group_name_H-M "P -1"
_symmetry_group_IT_number 2
_symmetry_cell_setting 'triclinic'
loop_
_space_group_symop_operation_xyz
x,y,z
-x,-y,-z
loop_
_atom_site_type_symbol
_atom_site_label
_atom_site_fract_x
_atom_site_fract_y
_atom_site_fract_z
Si Si1 0.521671 0.319387 0.016790
Si Si2 0.887065 0.823980 0.381260
Si Si3 0.577028 0.651934 0.338769
Si Si4 0.964423 0.607671 0.702200
Si Si5 0.147941 0.117977 0.909277
Si Si6 0.680530 0.214447 0.826901
Si Si7 0.472134 0.721639 0.595285
Si Si8 0.791899 0.244666 0.528423
O O1 0.698371 0.248703 0.298476
O O2 0.500000 0.500000 0.000000
O O3 0.335694 0.189523 0.841593
O O4 0.558725 0.338615 0.927989
O O5 0.989938 0.689616 0.596900
O O6 0.884823 0.781850 0.259426
O O7 0.000000 0.000000 0.500000
O O8 0.800274 0.692366 0.560158
O O9 0.509017 0.778760 0.322312
O O10 0.549617 0.472961 0.395220
O O11 0.905621 0.417039 0.658469
O O12 0.165654 0.629737 0.998280
O O13 0.943698 0.108777 0.734352
O O14 0.304726 0.215573 0.150135
O O15 0.208349 0.941589 0.983363
O O16 0.621128 0.207851 0.634098
O O17 0.372074 0.798586 0.566099
#
# Coordination Sequence:
#
# PCOD8023743 Si02
#       8
#     2   2   2   2   2   2   2   2
#     4  11  19  43  72 102 138 174 226 283 343 412
#     4  11  21  41  65  98 144 164 222 286 343 403
#     4  10  23  42  70  98 128 172 227 280 341 390
#     4  10  23  42  65 101 129 169 226 281 341 397
#     4  12  26  41  64 101 134 177 229 268 344 405
#     4  12  26  43  65  96 140 178 221 279 337 408
#     4  11  24  47  67  93 132 182 232 274 329 403
#     4  11  24  41  71 100 128 179 223 285 333 407
#
# _framework density 22.668775
#
# number of rings (size 3 to 8) (size 9 to 14) (size 15 to 20)
#    0.000    1.000    6.250    1.500    1.750    5.000 
#    0.000    1.875    0.000    0.000    0.000    0.000 
#    0.000    0.000    0.000    0.000    0.000    0.000 
#
# Total GULP energy -198410.197562 kJ/mol
# GULP energy per Si atom -12400.637348 kJ/mol
# Density = 2.261718 g / cm^3
# Si number density = 22.668775 Si / 1000 Ang^3
#
#
#
# Elastic Constant Matrix: (Units=GPa)
#
#
# Indices 1 2 3 4 5 6 
#
# 1 90.6364 16.6525 41.1837 -27.2552 -3.4276 -4.3426
# 2 16.6525 58.4600 13.3886 1.0031 10.3577 -3.2184
# 3 41.1837 13.3886 126.1835 3.4328 -4.2746 -1.3568
# 4 -27.2552 1.0031 3.4328 37.7161 -6.3356 8.5853
# 5 -3.4276 10.3577 -4.2746 -6.3356 44.1875 -4.8962
# 6 -4.3426 -3.2184 -1.3568 8.5853 -4.8962 22.8247
#
#
#
# Elastic Compliance Matrix: (Units=1/GPa)
#
#
# Indices 1 2 3 4 5 6 
#
# 1 0.019789 -0.005389 -0.006215 0.016312 0.004249 -0.002588
# 2 -0.005389 0.019988 -0.000362 -0.005986 -0.005686 0.002804
# 3 -0.006215 -0.000362 0.010162 -0.005765 -0.000072 0.001524
# 4 0.016312 -0.005986 -0.005765 0.043054 0.006865 -0.012805
# 5 0.004249 -0.005686 -0.000072 0.006865 0.025593 0.002910
# 6 -0.002588 0.002804 0.001524 -0.012805 0.002910 0.049246
#
#
# Mechanical properties :
#
#
# Convention : Reuss Voigt Hill
#
# Bulk Modulus (GPa) = 38.44790 46.41441 42.43115
# Shear Modulus (GPa) = 24.94607 34.54932 29.74770
#
# Velocity S-wave (km/s) = 3.32092 3.90820 3.62647
# Velocity P-wave (km/s) = 5.63047 6.39413 6.02441
#
# Compressibility (1/GPa) = 0.02600922
#
# Stress axis : x y z
#
# Youngs Moduli (GPa) = 50.53339 50.02992 98.40159
#
# Poissons Ratio (x) = 0.26961 0.61152
# Poissons Ratio (y) = 0.27232 0.03558
# Poissons Ratio (z) = 0.31404 0.01809
#
# Static dielectric constant tensor:
#      x y z
#    x 4.103010 0.105800 0.022250 
#    y 0.105800 3.817390 0.072980 
#    z 0.022250 0.072980 4.243760 
# 
# 
# High freq. dielectric constant tensor:
#      x y z
#    x 1.887930 0.004230 -0.001130 
#    y 0.004230 1.876390 0.007350 
#    z -0.001130 0.007350 1.906520 
# 
# From -- ./inp_files/428805.got.cif
#   From: 2010.06.25/outbox.cif.g09.slc.cpg/sg2_215_cif.got.tgz:428805.got - 2010.06.27 13:26:56.
