data_PCOD8023785
_publ_section_title
;
Structure prediction by ZEFSAII (Michael W. Deem and Ramdas Pophale) SiO2 
 PCOD8023785
Probable space group: P -1
;
_chemical_formula_sum "Si O2"
_cell_formula_units_Z 14
_cell_length_a 11.699770
_cell_length_b 6.525684
_cell_length_c 14.376609
_cell_angle_alpha 106.910988
_cell_angle_beta 39.448804
_cell_angle_gamma 90.812303
_cell_volume 626.012622
_symmetry_space_group_name_H-M "P -1"
_symmetry_group_IT_number 2
_symmetry_cell_setting 'triclinic'
loop_
_space_group_symop_operation_xyz
x,y,z
-x,-y,-z
loop_
_atom_site_type_symbol
_atom_site_label
_atom_site_fract_x
_atom_site_fract_y
_atom_site_fract_z
Si Si1 0.801062 0.288913 0.253411
Si Si2 0.410078 0.829740 0.263549
Si Si3 0.162172 0.934095 0.608928
Si Si4 0.764541 0.944878 0.787841
Si Si5 0.774948 0.879255 0.102512
Si Si6 0.692863 0.779911 0.335817
Si Si7 0.538181 0.628652 0.902987
O O1 0.762185 0.248533 0.379954
O O2 0.667579 0.549828 0.356648
O O3 0.740896 0.133464 0.195977
O O4 0.027626 0.237616 0.091230
O O5 0.322222 0.918642 0.429889
O O6 0.608416 0.879319 0.135040
O O7 0.440205 0.558538 0.214736
O O8 0.277810 0.962853 0.278950
O O9 0.983402 0.904326 0.665638
O O10 0.133224 0.176875 0.709617
O O11 0.725722 0.706562 0.796801
O O12 0.640387 0.135068 0.964985
O O13 0.761639 0.728751 0.179730
O O14 0.500000 0.000000 0.500000
O O15 0.500000 0.500000 0.000000
#
# Coordination Sequence:
#
# PCOD8023785 Si02
#       7
#     2   2   2   2   2   2   2
#     4  10  25  42  70  94 138 175 223 281 327 399
#     4  11  23  42  66  98 135 175 222 271 330 397
#     4  11  25  41  64 102 133 175 221 271 334 399
#     4  10  23  42  65  96 134 174 222 269 334 394
#     4  10  23  44  65 103 129 175 229 268 339 393
#     4  11  23  46  67  98 134 174 223 277 335 394
#     4   9  22  40  64  92 127 173 220 274 320 390
#
# _framework density 22.363766999999999
#
# number of rings (size 3 to 8) (size 9 to 14) (size 15 to 20)
#    0.000    1.714    1.429    0.857    8.000    6.286 
#    0.000    0.000    0.000    0.000    0.000    0.000 
#    0.000    0.000    0.000    0.000    0.000    0.000 
#
# Total GULP energy -173493.889130 kJ/mol
# GULP energy per Si atom -12392.420652 kJ/mol
# Density = 2.231287 g / cm^3
# Si number density = 22.363767 Si / 1000 Ang^3
#
#
#
# Elastic Constant Matrix: (Units=GPa)
#
#
# Indices 1 2 3 4 5 6 
#
# 1 99.8864 53.4518 20.6575 4.9372 -4.9027 20.3519
# 2 53.4518 159.5159 22.3550 1.4207 -7.3901 3.0704
# 3 20.6575 22.3550 49.5818 -9.7719 0.1696 -5.0352
# 4 4.9372 1.4207 -9.7719 32.5611 0.5683 -2.8931
# 5 -4.9027 -7.3901 0.1696 0.5683 35.5044 -16.1054
# 6 20.3519 3.0704 -5.0352 -2.8931 -16.1054 32.4354
#
#
#
# Elastic Compliance Matrix: (Units=1/GPa)
#
#
# Indices 1 2 3 4 5 6 
#
# 1 0.017002 -0.004527 -0.007649 -0.005872 -0.005015 -0.014441
# 2 -0.004527 0.008035 -0.001402 0.000147 0.002456 0.003095
# 3 -0.007649 -0.001402 0.027238 0.010393 0.003784 0.011966
# 4 -0.005872 0.000147 0.010393 0.035549 0.003144 0.010016
# 5 -0.005015 0.002456 0.003784 0.003144 0.038246 0.022772
# 6 -0.014441 0.003095 0.011966 0.010016 0.022772 0.053657
#
#
# Mechanical properties :
#
#
# Convention : Reuss Voigt Hill
#
# Bulk Modulus (GPa) = 39.80980 55.76806 47.78893
# Shear Modulus (GPa) = 23.22802 34.26818 28.74810
#
# Velocity S-wave (km/s) = 3.22630 3.91872 3.58924
# Velocity P-wave (km/s) = 5.63190 6.74285 6.21226
#
# Compressibility (1/GPa) = 0.02511944
#
# Stress axis : x y z
#
# Youngs Moduli (GPa) = 58.81506 124.45005 36.71329
#
# Poissons Ratio (x) = 0.56343 0.28083
# Poissons Ratio (y) = 0.26628 0.05146
# Poissons Ratio (z) = 0.44989 0.17444
#
# Static dielectric constant tensor:
#      x y z
#    x 4.000450 0.419880 0.156630 
#    y 0.419880 4.448940 -0.057320 
#    z 0.156630 -0.057320 4.043680 
# 
# 
# High freq. dielectric constant tensor:
#      x y z
#    x 1.875890 0.018940 0.009620 
#    y 0.018940 1.888900 -0.019250 
#    z 0.009620 -0.019250 1.877950 
# 
# From -- ./inp_files/27595.got.cif
#   From: 2010.06.25/outbox.cif.g09.slc.cpg/sg2_14_cif.got.tgz:27595.got - 2010.06.27 13:26:56.
