data_PCOD8023350
_publ_section_title
;
Structure prediction by ZEFSAII (Michael W. Deem and Ramdas Pophale) SiO2 
 PCOD8023350
Probable space group: P -1
;
_chemical_formula_sum "Si O2"
_cell_formula_units_Z 16
_cell_length_a 8.324708
_cell_length_b 28.075549
_cell_length_c 6.591474
_cell_angle_alpha 63.350003
_cell_angle_beta 108.315719
_cell_angle_gamma 148.769253
_cell_volume 705.878222
_symmetry_space_group_name_H-M "P -1"
_symmetry_group_IT_number 2
_symmetry_cell_setting 'triclinic'
loop_
_space_group_symop_operation_xyz
x,y,z
-x,-y,-z
loop_
_atom_site_type_symbol
_atom_site_label
_atom_site_fract_x
_atom_site_fract_y
_atom_site_fract_z
Si Si1 0.915933 0.352089 0.503005
Si Si2 0.106181 0.833510 0.298285
Si Si3 0.632996 0.799828 0.731024
Si Si4 0.034360 0.275614 0.896836
Si Si5 0.472447 0.865045 0.714158
Si Si6 0.457846 0.683817 0.255900
Si Si7 0.744336 0.454519 0.831324
Si Si8 0.786632 0.046970 0.624992
O O1 0.702198 0.291021 0.337365
O O2 0.720188 0.319196 0.682258
O O3 0.059840 0.332601 0.645574
O O4 0.190240 0.466872 0.347568
O O5 0.336001 0.861056 0.478090
O O6 0.174827 0.915558 0.206669
O O7 0.133767 0.818839 0.106576
O O8 0.736170 0.729212 0.409060
O O9 0.679726 0.870994 0.707342
O O10 0.906109 0.859674 0.565713
O O11 0.631618 0.756712 0.992405
O O12 0.386130 0.355089 0.960983
O O13 0.820720 0.233516 0.083152
O O14 0.707814 0.963217 0.758797
O O15 0.224736 0.575249 0.297148
O O16 0.000000 0.500000 0.000000
O O17 0.500000 0.000000 0.500000
#
# Coordination Sequence:
#
# PCOD8023350 Si02
#       8
#     2   2   2   2   2   2   2   2
#     4  12  23  46  66  98 137 174 225 273 335 394
#     4  10  23  41  65  99 129 177 215 279 323 392
#     4  12  23  45  68  99 138 171 225 272 339 393
#     4  11  25  44  69  97 138 178 224 267 338 399
#     4  11  24  45  67  97 136 178 221 277 333 392
#     4  11  24  42  69  96 131 179 219 272 334 397
#     4  11  25  42  69 101 133 176 222 280 327 396
#     4  10  24  42  68 100 136 172 221 285 325 392
#
# _framework density 22.666799999999999
#
# number of rings (size 3 to 8) (size 9 to 14) (size 15 to 20)
#    0.000    1.000    5.000    1.125    8.750    0.500 
#    2.250    2.500    0.000    0.000    0.000    0.000 
#    0.000    0.000    0.000    0.000    0.000    0.000 
#
# Total GULP energy -198290.588501 kJ/mol
# GULP energy per Si atom -12393.161781 kJ/mol
# Density = 2.261521 g / cm^3
# Si number density = 22.666800 Si / 1000 Ang^3
#
#
#
# Elastic Constant Matrix: (Units=GPa)
#
#
# Indices 1 2 3 4 5 6 
#
# 1 89.5790 20.0791 -0.4329 4.5961 -9.6161 -19.7130
# 2 20.0791 87.0992 -5.1998 7.5076 4.5680 -16.4464
# 3 -0.4329 -5.1998 35.4376 -10.1255 -2.6978 2.7660
# 4 4.5961 7.5076 -10.1255 28.3160 -1.2873 0.1152
# 5 -9.6161 4.5680 -2.6978 -1.2873 28.4857 -2.8059
# 6 -19.7130 -16.4464 2.7660 0.1152 -2.8059 46.6278
#
#
#
# Elastic Compliance Matrix: (Units=1/GPa)
#
#
# Indices 1 2 3 4 5 6 
#
# 1 0.013481 -0.002296 -0.000631 -0.001585 0.005305 0.005250
# 2 -0.002296 0.013097 0.000557 -0.003034 -0.002618 0.003466
# 3 -0.000631 0.000557 0.031962 0.011531 0.003068 -0.001810
# 4 -0.001585 -0.003034 0.011531 0.040631 0.002647 -0.002365
# 5 0.005305 -0.002618 0.003068 0.002647 0.038063 0.003421
# 6 0.005250 0.003466 -0.001810 -0.002365 0.003421 0.025208
#
#
# Mechanical properties :
#
#
# Convention : Reuss Voigt Hill
#
# Bulk Modulus (GPa) = 18.58715 26.77872 22.68294
# Shear Modulus (GPa) = 27.01032 33.86386 30.43709
#
# Velocity S-wave (km/s) = 3.45574 3.86940 3.66841
# Velocity P-wave (km/s) = 4.91333 5.63939 5.28884
#
# Compressibility (1/GPa) = 0.05380060
#
# Stress axis : x y z
#
# Youngs Moduli (GPa) = 74.17835 76.35401 31.28703
#
# Poissons Ratio (x) = 0.17528 0.01974
# Poissons Ratio (y) = 0.17029 -0.01743
# Poissons Ratio (z) = 0.04681 -0.04253
#
# Static dielectric constant tensor:
#      x y z
#    x 4.440600 -0.661110 -0.069280 
#    y -0.661110 4.998440 0.161760 
#    z -0.069280 0.161760 3.686740 
# 
# 
# High freq. dielectric constant tensor:
#      x y z
#    x 1.912600 -0.012010 -0.003080 
#    y -0.012010 1.908820 0.009350 
#    z -0.003080 0.009350 1.859330 
# 
# From -- ./inp_files/38638.got.cif
#   From: 2010.06.25/outbox.cif.g09.slc.cpg/sg2_20_cif.got.tgz:38638.got - 2010.06.27 13:26:56.
