data_PCOD8023959
_publ_section_title
;
Structure prediction by ZEFSAII (Michael W. Deem and Ramdas Pophale) SiO2 
 PCOD8023959
Probable space group: P -1
;
_chemical_formula_sum "Si O2"
_cell_formula_units_Z 10
_cell_length_a 13.723387
_cell_length_b 13.579416
_cell_length_c 9.333044
_cell_angle_alpha 128.542142
_cell_angle_beta 32.662246
_cell_angle_gamma 149.189462
_cell_volume 448.245012
_symmetry_space_group_name_H-M "P -1"
_symmetry_group_IT_number 2
_symmetry_cell_setting 'triclinic'
loop_
_space_group_symop_operation_xyz
x,y,z
-x,-y,-z
loop_
_atom_site_type_symbol
_atom_site_label
_atom_site_fract_x
_atom_site_fract_y
_atom_site_fract_z
Si Si1 0.762770 0.643381 0.985492
Si Si2 0.140977 0.535072 0.125233
Si Si3 0.248020 0.032220 0.236984
Si Si4 0.123870 0.345906 0.454475
Si Si5 0.233285 0.891396 0.835807
O O1 0.784436 0.503067 0.856608
O O2 0.433003 0.510954 0.308202
O O3 0.844350 0.718416 0.788240
O O4 0.996605 0.839032 0.982516
O O5 0.457528 0.746677 0.854913
O O6 0.949976 0.553117 0.406303
O O7 0.940266 0.329706 0.089648
O O8 0.138216 0.856901 0.310993
O O9 0.341419 0.032586 0.964020
O O10 0.000000 0.000000 0.500000
O O11 0.500000 0.000000 0.500000
#
# Coordination Sequence:
#
# PCOD8023959 Si02
#       5
#     2   2   2   2   2
#     4   9  22  41  65  95 132 172 217 265 323 395
#     4  10  23  42  68  90 135 172 216 270 322 391
#     4  12  24  42  69  98 135 172 216 275 330 381
#     4  11  21  40  70  97 129 177 218 264 335 384
#     4  10  24  43  68  96 132 175 217 270 329 387
#
# _framework density 22.309227
#
# number of rings (size 3 to 8) (size 9 to 14) (size 15 to 20)
#    1.200    0.400    2.000    2.400    2.800    4.000 
#    0.000    6.000    0.000    0.000    0.000    0.000 
#    0.000    0.000    0.000    0.000    0.000    0.000 
#
# Total GULP energy -123894.084587 kJ/mol
# GULP energy per Si atom -12389.408459 kJ/mol
# Density = 2.225845 g / cm^3
# Si number density = 22.309227 Si / 1000 Ang^3
#
#
#
# Elastic Constant Matrix: (Units=GPa)
#
#
# Indices 1 2 3 4 5 6 
#
# 1 78.5382 13.0535 33.2350 -10.0481 -17.0568 -6.4471
# 2 13.0535 86.2402 44.3908 -16.9254 -7.0644 8.7875
# 3 33.2350 44.3908 103.1674 -13.2182 -9.3090 -7.4618
# 4 -10.0481 -16.9254 -13.2182 32.9083 4.9202 -11.0446
# 5 -17.0568 -7.0644 -9.3090 4.9202 42.6628 1.5755
# 6 -6.4471 8.7875 -7.4618 -11.0446 1.5755 18.3448
#
#
#
# Elastic Compliance Matrix: (Units=1/GPa)
#
#
# Indices 1 2 3 4 5 6 
#
# 1 0.016638 0.000172 -0.003815 0.005214 0.004991 0.006923
# 2 0.000172 0.017127 -0.007761 0.002146 0.001337 -0.010123
# 3 -0.003815 -0.007761 0.015766 0.005265 -0.000420 0.011996
# 4 0.005214 0.002146 0.005265 0.045988 -0.002855 0.030878
# 5 0.004991 0.001337 -0.000420 -0.002855 0.026005 -0.003010
# 6 0.006923 -0.010123 0.011996 0.030878 -0.003010 0.085522
#
#
# Mechanical properties :
#
#
# Convention : Reuss Voigt Hill
#
# Bulk Modulus (GPa) = 37.42235 49.92269 43.67252
# Shear Modulus (GPa) = 20.94146 30.60094 25.77120
#
# Velocity S-wave (km/s) = 3.06713 3.70763 3.40248
# Velocity P-wave (km/s) = 5.41792 6.38395 5.92067
#
# Compressibility (1/GPa) = 0.02672200
#
# Stress axis : x y z
#
# Youngs Moduli (GPa) = 60.10481 58.38811 63.42942
#
# Poissons Ratio (x) = -0.01003 0.24196
# Poissons Ratio (y) = -0.01032 0.49229
# Poissons Ratio (z) = 0.22927 0.45316
#
# Static dielectric constant tensor:
#      x y z
#    x 3.937900 0.035290 -0.197160 
#    y 0.035290 3.931090 -0.278810 
#    z -0.197160 -0.278810 3.773560 
# 
# 
# High freq. dielectric constant tensor:
#      x y z
#    x 1.873940 -0.000610 -0.019670 
#    y -0.000610 1.864750 -0.024450 
#    z -0.019670 -0.024450 1.872640 
# 
# From -- ./inp_files/147641.got.cif
#   From: 2010.06.25/outbox.cif.g09.slc.cpg/sg2_74_cif.got.tgz:147641.got - 2010.06.27 13:26:56.
