data_PCOD8023438
_publ_section_title
;
Structure prediction by ZEFSAII (Michael W. Deem and Ramdas Pophale) SiO2 
 PCOD8023438
Probable space group: P -1
;
_chemical_formula_sum "Si O2"
_cell_formula_units_Z 12
_cell_length_a 5.192073
_cell_length_b 17.211138
_cell_length_c 6.297645
_cell_angle_alpha 49.161860
_cell_angle_beta 87.745191
_cell_angle_gamma 82.387093
_cell_volume 421.174150
_symmetry_space_group_name_H-M "P -1"
_symmetry_group_IT_number 2
_symmetry_cell_setting 'triclinic'
loop_
_space_group_symop_operation_xyz
x,y,z
-x,-y,-z
loop_
_atom_site_type_symbol
_atom_site_label
_atom_site_fract_x
_atom_site_fract_y
_atom_site_fract_z
Si Si1 0.092090 0.119677 0.045459
Si Si2 0.155186 0.171098 0.491107
Si Si3 0.151496 0.403152 0.050276
Si Si4 0.688912 0.090852 0.407505
Si Si5 0.528842 0.454491 0.351364
Si Si6 0.062783 0.354606 0.660379
O O1 0.790616 0.100526 0.141478
O O2 0.296151 0.031948 0.318766
O O3 0.160862 0.103740 0.825033
O O4 0.141198 0.232552 0.924115
O O5 0.125878 0.291356 0.347425
O O6 0.411505 0.150653 0.373502
O O7 0.907309 0.145514 0.420304
O O8 0.445313 0.439787 0.981325
O O9 0.051940 0.410459 0.792271
O O10 0.000000 0.500000 0.000000
O O11 0.500000 0.500000 0.500000
O O12 0.284349 0.392554 0.426382
O O13 0.797629 0.373506 0.498660
#
# Coordination Sequence:
#
# PCOD8023438 Si02
#       6
#     2   2   2   2   2   2
#     4  11  26  49  80 106 151 196 237 310 373 428
#     4  12  27  48  75 112 149 191 249 301 364 444
#     4  11  24  45  68 105 145 186 242 299 356 429
#     4  11  28  49  76 112 147 191 249 301 368 445
#     4  10  23  41  67  94 136 185 231 285 348 422
#     4  11  24  45  69 102 140 187 238 290 360 430
#
# _framework density 28.491779000000001
#
# number of rings (size 3 to 8) (size 9 to 14) (size 15 to 20)
#    0.000    1.000    1.667    4.000    4.667    9.333 
#    0.000   10.833    0.000    0.000    0.000    0.000 
#    0.000    0.000    0.000    0.000    0.000    0.000 
#
# Total GULP energy -148686.742321 kJ/mol
# GULP energy per Si atom -12390.561860 kJ/mol
# Density = 2.842693 g / cm^3
# Si number density = 28.491779 Si / 1000 Ang^3
#
#
#
# Elastic Constant Matrix: (Units=GPa)
#
#
# Indices 1 2 3 4 5 6 
#
# 1 148.5885 44.4667 37.0612 -19.4534 -13.1692 -5.8973
# 2 44.4667 130.5942 47.9082 -20.3694 -20.6074 -9.0077
# 3 37.0612 47.9082 203.6758 -6.4483 -25.8456 -22.1072
# 4 -19.4534 -20.3694 -6.4483 58.6584 -1.0338 -4.4424
# 5 -13.1692 -20.6074 -25.8456 -1.0338 43.6230 -2.6477
# 6 -5.8973 -9.0077 -22.1072 -4.4424 -2.6477 33.2509
#
#
#
# Elastic Compliance Matrix: (Units=1/GPa)
#
#
# Indices 1 2 3 4 5 6 
#
# 1 0.007855 -0.001877 -0.000693 0.001956 0.001167 0.000778
# 2 -0.001877 0.009916 -0.001197 0.002922 0.003613 0.002235
# 3 -0.000693 -0.001197 0.006154 0.000384 0.003120 0.003944
# 4 0.001956 0.002922 0.000384 0.019121 0.002906 0.004180
# 5 0.001167 0.003613 0.003120 0.002906 0.027253 0.005818
# 6 0.000778 0.002235 0.003944 0.004180 0.005818 0.034462
#
#
# Mechanical properties :
#
#
# Convention : Reuss Voigt Hill
#
# Bulk Modulus (GPa) = 61.01578 82.41453 71.71515
# Shear Modulus (GPa) = 42.45945 50.66796 46.56370
#
# Velocity S-wave (km/s) = 3.86454 4.22161 4.04702
# Velocity P-wave (km/s) = 6.43231 7.26300 6.86024
#
# Compressibility (1/GPa) = 0.01638920
#
# Stress axis : x y z
#
# Youngs Moduli (GPa) = 127.30421 100.84935 162.50684
#
# Poissons Ratio (x) = 0.18932 0.11266
# Poissons Ratio (y) = 0.23899 0.19454
# Poissons Ratio (z) = 0.08825 0.12073
#
# Static dielectric constant tensor:
#      x y z
#    x 6.872860 -0.195490 -0.642790 
#    y -0.195490 5.656860 0.800470 
#    z -0.642790 0.800470 6.692610 
# 
# 
# High freq. dielectric constant tensor:
#      x y z
#    x 2.153320 0.020860 -0.017890 
#    y 0.020860 2.186420 0.021860 
#    z -0.017890 0.021860 2.192370 
# 
# From -- ./inp_files/140960.got.cif
#   From: 2010.06.25/outbox.cif.g09.slc.cpg/sg2_71_cif.got.tgz:140960.got - 2010.06.27 13:26:56.
