data_PCOD8023568
_publ_section_title
;
Structure prediction by ZEFSAII (Michael W. Deem and Ramdas Pophale) SiO2 
 PCOD8023568
Probable space group: P -1
;
_chemical_formula_sum "Si O2"
_cell_formula_units_Z 14
_cell_length_a 8.365447
_cell_length_b 22.150904
_cell_length_c 16.469752
_cell_angle_alpha 157.335739
_cell_angle_beta 149.713127
_cell_angle_gamma 38.490341
_cell_volume 591.516498
_symmetry_space_group_name_H-M "P -1"
_symmetry_group_IT_number 2
_symmetry_cell_setting 'triclinic'
loop_
_space_group_symop_operation_xyz
x,y,z
-x,-y,-z
loop_
_atom_site_type_symbol
_atom_site_label
_atom_site_fract_x
_atom_site_fract_y
_atom_site_fract_z
Si Si1 0.224786 0.386881 0.319080
Si Si2 0.787881 0.853160 0.395687
Si Si3 0.408959 0.305017 0.124596
Si Si4 0.844248 0.942638 0.063280
Si Si5 0.632962 0.028699 0.786448
Si Si6 0.212614 0.737218 0.304757
Si Si7 0.537797 0.449604 0.046359
O O1 0.402686 0.312206 0.228192
O O2 0.442366 0.525116 0.630297
O O3 0.906586 0.461148 0.243552
O O4 0.165711 0.246145 0.181934
O O5 0.546145 0.917120 0.305077
O O6 0.076568 0.778778 0.383899
O O7 0.618121 0.724720 0.222122
O O8 0.926867 0.999728 0.690946
O O9 0.626503 0.166364 0.021329
O O10 0.057231 0.272181 0.894220
O O11 0.004878 0.998868 0.117306
O O12 0.500000 0.000000 0.000000
O O13 0.479333 0.868670 0.557031
O O14 0.366460 0.572587 0.179656
O O15 0.500000 0.500000 0.000000
#
# Coordination Sequence:
#
# PCOD8023568 Si02
#       7
#     2   2   2   2   2   2   2
#     4  11  24  45  64  99 141 179 220 281 347 392
#     4  11  24  44  69  99 137 182 230 283 333 401
#     4  10  23  41  70  96 137 179 221 279 337 403
#     4  12  27  43  69 100 135 177 230 283 342 405
#     4  11  23  46  72  98 134 184 231 279 335 405
#     4  11  23  43  71 103 133 179 238 272 334 409
#     4  12  24  41  68 102 138 183 228 275 336 408
#
# _framework density 23.667977
#
# number of rings (size 3 to 8) (size 9 to 14) (size 15 to 20)
#    0.000    0.857    2.857    5.143    2.000    4.000 
#    0.000    2.143    0.000    0.000    0.000    0.000 
#    0.000    0.000    0.000    0.000    0.000    0.000 
#
# Total GULP energy -173652.054087 kJ/mol
# GULP energy per Si atom -12403.718149 kJ/mol
# Density = 2.361411 g / cm^3
# Si number density = 23.667977 Si / 1000 Ang^3
#
#
#
# Elastic Constant Matrix: (Units=GPa)
#
#
# Indices 1 2 3 4 5 6 
#
# 1 91.2625 14.2677 24.5539 -10.1321 16.0999 -30.5382
# 2 14.2677 64.6001 5.2100 7.3771 7.8658 -19.5379
# 3 24.5539 5.2100 134.8983 14.1851 14.9671 -6.3971
# 4 -10.1321 7.3771 14.1851 23.4080 -1.8239 5.0508
# 5 16.0999 7.8658 14.9671 -1.8239 40.9127 8.8237
# 6 -30.5382 -19.5379 -6.3971 5.0508 8.8237 46.0430
#
#
#
# Elastic Compliance Matrix: (Units=1/GPa)
#
#
# Indices 1 2 3 4 5 6 
#
# 1 0.018005 0.000595 -0.002271 0.005484 -0.008925 0.012988
# 2 0.000595 0.021140 0.001677 -0.010705 -0.008045 0.012314
# 3 -0.002271 0.001677 0.009055 -0.007700 -0.003512 0.001982
# 4 0.005484 -0.010705 -0.007700 0.055744 0.007246 -0.009479
# 5 -0.008925 -0.008045 -0.003512 0.007246 0.034839 -0.017293
# 6 0.012988 0.012314 0.001982 -0.009479 -0.017293 0.040187
#
#
# Mechanical properties :
#
#
# Convention : Reuss Voigt Hill
#
# Bulk Modulus (GPa) = 20.74557 42.09156 31.41857
# Shear Modulus (GPa) = 25.63673 38.52136 32.07905
#
# Velocity S-wave (km/s) = 3.29474 4.03870 3.68554
# Velocity P-wave (km/s) = 4.82266 6.29054 5.60486
#
# Compressibility (1/GPa) = 0.04820306
#
# Stress axis : x y z
#
# Youngs Moduli (GPa) = 55.54162 47.30461 110.43840
#
# Poissons Ratio (x) = -0.02815 0.25076
# Poissons Ratio (y) = -0.03306 -0.18526
# Poissons Ratio (z) = 0.12611 -0.07935
#
# Static dielectric constant tensor:
#      x y z
#    x 4.662680 -0.367840 0.056920 
#    y -0.367840 4.094190 0.136260 
#    z 0.056920 0.136260 4.482750 
# 
# 
# High freq. dielectric constant tensor:
#      x y z
#    x 1.951970 -0.019530 0.006810 
#    y -0.019530 1.922110 0.012070 
#    z 0.006810 0.012070 1.950190 
# 
# From -- ./inp_files/185302.got.cif
#   From: 2010.06.25/outbox.cif.g09.slc.cpg/sg2_93_cif.got.tgz:185302.got - 2010.06.27 13:26:56.
