data_PCOD8023218
_publ_section_title
;
Structure prediction by ZEFSAII (Michael W. Deem and Ramdas Pophale) SiO2 
 PCOD8023218
Probable space group: P -1
;
_chemical_formula_sum "Si O2"
_cell_formula_units_Z 16
_cell_length_a 5.146149
_cell_length_b 12.575494
_cell_length_c 11.770840
_cell_angle_alpha 80.532207
_cell_angle_beta 104.162955
_cell_angle_gamma 98.729875
_cell_volume 723.568224
_symmetry_space_group_name_H-M "P -1"
_symmetry_group_IT_number 2
_symmetry_cell_setting 'triclinic'
loop_
_space_group_symop_operation_xyz
x,y,z
-x,-y,-z
loop_
_atom_site_type_symbol
_atom_site_label
_atom_site_fract_x
_atom_site_fract_y
_atom_site_fract_z
Si Si1 0.232901 0.838518 0.512210
Si Si2 0.315379 0.023442 0.343605
Si Si3 0.872623 0.540993 0.592020
Si Si4 0.768907 0.789451 0.847517
Si Si5 0.466589 0.134662 0.767246
Si Si6 0.044463 0.114811 0.924997
Si Si7 0.541942 0.328423 0.585341
Si Si8 0.159385 0.711630 0.737578
O O1 0.535959 0.893946 0.563558
O O2 0.250352 0.729982 0.460117
O O3 0.083802 0.803107 0.620925
O O4 0.108727 0.930817 0.405199
O O5 0.165492 0.090408 0.223006
O O6 0.533550 0.961395 0.308184
O O7 0.697293 0.434742 0.644904
O O8 0.687265 0.635557 0.528148
O O9 0.000000 0.500000 0.500000
O O10 0.097195 0.591474 0.697192
O O11 0.471574 0.732607 0.799096
O O12 0.981533 0.716022 0.830139
O O13 0.810554 0.798074 0.985397
O O14 0.235213 0.104834 0.839424
O O15 0.407095 0.246196 0.680201
O O16 0.762054 0.154203 0.852688
O O17 0.000000 0.000000 0.000000
#
# Coordination Sequence:
#
# PCOD8023218 Si02
#       8
#     2   2   2   2   2   2   2   2
#     4   9  18  35  54  88 130 164 200 239 310 384
#     4   9  19  34  57  87 128 169 198 247 303 384
#     4  11  22  39  68  95 131 162 213 258 321 397
#     4  11  24  40  62  89 124 168 217 259 316 367
#     4  11  25  41  66  95 132 169 215 267 319 370
#     4  12  25  43  66  93 126 172 225 268 309 367
#     4  10  23  41  62  99 131 170 206 264 322 383
#     4  11  23  39  63  91 126 166 209 259 316 386
#
# _framework density 22.112635000000001
#
# number of rings (size 3 to 8) (size 9 to 14) (size 15 to 20)
#    0.000    1.500    2.500    2.625    7.000    0.500 
#    0.000    0.000    0.000    4.500    0.000    0.000 
#    0.000    0.000    0.000    0.000    0.000    0.000 
#
# Total GULP energy -198341.004194 kJ/mol
# GULP energy per Si atom -12396.312762 kJ/mol
# Density = 2.206231 g / cm^3
# Si number density = 22.112635 Si / 1000 Ang^3
#
#
#
# Elastic Constant Matrix: (Units=GPa)
#
#
# Indices 1 2 3 4 5 6 
#
# 1 79.5600 23.0560 12.1333 3.6035 -10.3646 10.1079
# 2 23.0560 106.5264 32.6197 10.8684 5.2010 11.7240
# 3 12.1333 32.6197 78.9786 13.7267 -11.0541 6.8678
# 4 3.6035 10.8684 13.7267 31.3272 0.5135 3.2551
# 5 -10.3646 5.2010 -11.0541 0.5135 35.6096 1.3974
# 6 10.1079 11.7240 6.8678 3.2551 1.3974 26.1447
#
#
#
# Elastic Compliance Matrix: (Units=1/GPa)
#
#
# Indices 1 2 3 4 5 6 
#
# 1 0.014631 -0.002893 0.000088 -0.000320 0.004894 -0.004604
# 2 -0.002893 0.012057 -0.004587 -0.001497 -0.003900 -0.002688
# 3 0.000088 -0.004587 0.016513 -0.005550 0.005978 -0.001943
# 4 -0.000320 -0.001497 -0.005550 0.035152 -0.002025 -0.002015
# 5 0.004894 -0.003900 0.005978 -0.002025 0.032086 -0.003176
# 6 -0.004604 -0.002688 -0.001943 -0.002015 -0.003176 0.042165
#
#
# Mechanical properties :
#
#
# Convention : Reuss Voigt Hill
#
# Bulk Modulus (GPa) = 35.19087 44.52034 39.85561
# Shear Modulus (GPa) = 28.27070 31.76671 30.01871
#
# Velocity S-wave (km/s) = 3.57947 3.79434 3.68847
# Velocity P-wave (km/s) = 5.74738 6.27481 6.01688
#
# Compressibility (1/GPa) = 0.02841646
#
# Stress axis : x y z
#
# Youngs Moduli (GPa) = 68.34766 82.93761 60.55800
#
# Poissons Ratio (x) = 0.23996 -0.00533
# Poissons Ratio (y) = 0.19775 0.27780
# Poissons Ratio (z) = -0.00602 0.38046
#
# Static dielectric constant tensor:
#      x y z
#    x 4.582170 -0.366770 -0.721950 
#    y -0.366770 4.575750 0.607590 
#    z -0.721950 0.607590 4.943230 
# 
# 
# High freq. dielectric constant tensor:
#      x y z
#    x 1.861660 0.011720 -0.004870 
#    y 0.011720 1.868930 0.018660 
#    z -0.004870 0.018660 1.857150 
# 
# From -- ./inp_files/362960.got.cif
#   From: 2010.06.25/outbox.cif.g09.slc.cpg/sg2_182_cif.got.tgz:362960.got - 2010.06.27 13:26:56.
