data_PCOD8023469
_publ_section_title
;
Structure prediction by ZEFSAII (Michael W. Deem and Ramdas Pophale) SiO2 
 PCOD8023469
Probable space group: P -1
;
_chemical_formula_sum "Si O2"
_cell_formula_units_Z 14
_cell_length_a 11.733561
_cell_length_b 9.974505
_cell_length_c 8.798340
_cell_angle_alpha 137.479019
_cell_angle_beta 71.257699
_cell_angle_gamma 110.448469
_cell_volume 648.777172
_symmetry_space_group_name_H-M "P -1"
_symmetry_group_IT_number 2
_symmetry_cell_setting 'triclinic'
loop_
_space_group_symop_operation_xyz
x,y,z
-x,-y,-z
loop_
_atom_site_type_symbol
_atom_site_label
_atom_site_fract_x
_atom_site_fract_y
_atom_site_fract_z
Si Si1 0.187503 0.087416 0.469733
Si Si2 0.218870 0.266814 0.283600
Si Si3 0.273206 0.724761 0.546913
Si Si4 0.390099 0.896757 0.358713
Si Si5 0.979633 0.279329 0.252303
Si Si6 0.993290 0.278411 0.883955
Si Si7 0.439031 0.057635 0.923490
O O1 0.315343 0.066449 0.473749
O O2 0.124795 0.865245 0.254717
O O3 0.209130 0.237683 0.443455
O O4 0.111251 0.184500 0.709072
O O5 0.249709 0.501282 0.432673
O O6 0.087943 0.168142 0.179034
O O7 0.328626 0.174013 0.090956
O O8 0.300384 0.729406 0.356871
O O9 0.153982 0.827567 0.720148
O O10 0.389744 0.847894 0.685107
O O11 0.453782 0.807475 0.111693
O O12 0.500000 0.000000 0.500000
O O13 0.000000 0.500000 0.500000
O O14 0.984066 0.288990 0.077418
O O15 0.000000 0.500000 0.000000
O O16 0.500000 0.000000 0.000000
#
# Coordination Sequence:
#
# PCOD8023469 Si02
#       7
#     2   2   2   2   2   2   2
#     4  11  25  43  68 101 139 174 227 276 339 400
#     4  11  24  43  68 100 130 176 223 273 340 399
#     4  10  24  43  67  92 136 171 217 284 332 396
#     4  10  24  45  65  95 135 177 226 277 325 396
#     4  10  23  41  68 102 134 168 223 273 339 402
#     4  11  25  42  69 102 140 180 218 278 340 405
#     4  11  23  44  66  95 131 176 228 274 328 392
#
# _framework density 21.579056999999999
#
# number of rings (size 3 to 8) (size 9 to 14) (size 15 to 20)
#    0.000    1.429    1.429    2.571   12.000    2.286 
#    0.000    0.000    0.000    0.000    0.000    0.000 
#    0.000    0.000    0.000    0.000    0.000    0.000 
#
# Total GULP energy -173555.355285 kJ/mol
# GULP energy per Si atom -12396.811092 kJ/mol
# Density = 2.152994 g / cm^3
# Si number density = 21.579057 Si / 1000 Ang^3
#
#
#
# Elastic Constant Matrix: (Units=GPa)
#
#
# Indices 1 2 3 4 5 6 
#
# 1 166.5185 64.3715 54.7878 -19.8067 -20.3490 -12.9752
# 2 64.3715 161.3062 52.7768 -31.7124 -9.2654 4.2539
# 3 54.7878 52.7768 109.9219 -30.0291 -12.3014 3.9615
# 4 -19.8067 -31.7124 -30.0291 47.2421 3.4822 -7.6393
# 5 -20.3490 -9.2654 -12.3014 3.4822 34.0062 -7.2980
# 6 -12.9752 4.2539 3.9615 -7.6393 -7.2980 31.2231
#
#
#
# Elastic Compliance Matrix: (Units=1/GPa)
#
#
# Indices 1 2 3 4 5 6 
#
# 1 0.008987 -0.002365 -0.002726 0.001024 0.004886 0.005796
# 2 -0.002365 0.008440 -0.001991 0.003248 -0.000423 -0.001184
# 3 -0.002726 -0.001991 0.013190 0.005652 0.001865 -0.000716
# 4 0.001024 0.003248 0.005652 0.028296 0.002078 0.006675
# 5 0.004886 -0.000423 0.001865 0.002078 0.034936 0.010526
# 6 0.005796 -0.001184 -0.000716 0.006675 0.010526 0.038782
#
#
# Mechanical properties :
#
#
# Convention : Reuss Voigt Hill
#
# Bulk Modulus (GPa) = 60.77597 86.84651 73.81124
# Shear Modulus (GPa) = 32.83416 40.21497 36.52457
#
# Velocity S-wave (km/s) = 3.90497 4.32164 4.11858
# Velocity P-wave (km/s) = 6.96830 8.07683 7.54296
#
# Compressibility (1/GPa) = 0.01645387
#
# Stress axis : x y z
#
# Youngs Moduli (GPa) = 111.26991 118.48081 75.81257
#
# Poissons Ratio (x) = 0.28025 0.20666
# Poissons Ratio (y) = 0.26319 0.15092
# Poissons Ratio (z) = 0.30331 0.23586
#
# Static dielectric constant tensor:
#      x y z
#    x 3.519280 0.431930 0.288160 
#    y 0.431930 4.201900 -0.490750 
#    z 0.288160 -0.490750 3.727070 
# 
# 
# High freq. dielectric constant tensor:
#      x y z
#    x 1.866430 0.001660 -0.010420 
#    y 0.001660 1.854740 -0.025210 
#    z -0.010420 -0.025210 1.843570 
# 
# From -- ./inp_files/241287.got.cif
#   From: 2010.06.25/outbox.cif.g09.slc.cpg/sg2_121_cif.got.tgz:241287.got - 2010.06.27 13:26:56.
