data_PCOD8023954
_publ_section_title
;
Structure prediction by ZEFSAII (Michael W. Deem and Ramdas Pophale) SiO2 
 PCOD8023954
Probable space group: P -1
;
_chemical_formula_sum "Si O2"
_cell_formula_units_Z 16
_cell_length_a 9.236876
_cell_length_b 14.350956
_cell_length_c 9.050130
_cell_angle_alpha 137.583860
_cell_angle_beta 104.814360
_cell_angle_gamma 62.740029
_cell_volume 712.482894
_symmetry_space_group_name_H-M "P -1"
_symmetry_group_IT_number 2
_symmetry_cell_setting 'triclinic'
loop_
_space_group_symop_operation_xyz
x,y,z
-x,-y,-z
loop_
_atom_site_type_symbol
_atom_site_label
_atom_site_fract_x
_atom_site_fract_y
_atom_site_fract_z
Si Si1 0.885926 0.377286 0.484154
Si Si2 0.568470 0.392398 0.533474
Si Si3 0.643344 0.112427 0.785650
Si Si4 0.134110 0.064266 0.116151
Si Si5 0.306858 0.110746 0.709967
Si Si6 0.617292 0.057005 0.179966
Si Si7 0.010393 0.414762 0.057778
Si Si8 0.728363 0.393136 0.138962
O O1 0.760710 0.361128 0.555281
O O2 0.923742 0.517712 0.709962
O O3 0.816318 0.392151 0.317341
O O4 0.059675 0.231217 0.362265
O O5 0.500000 0.500000 0.500000
O O6 0.557482 0.232764 0.328601
O O7 0.458726 0.476539 0.746007
O O8 0.444617 0.178068 0.799157
O O9 0.703265 0.049769 0.890780
O O10 0.729171 0.965303 0.532894
O O11 0.711416 0.238321 0.914652
O O12 0.197615 0.054003 0.953196
O O13 0.000000 0.000000 0.000000
O O14 0.383416 0.969452 0.677102
O O15 0.137108 0.241334 0.870772
O O16 0.500000 0.000000 0.000000
O O17 0.831194 0.424551 0.069934
O O18 0.000000 0.500000 0.000000
#
# Coordination Sequence:
#
# PCOD8023954 Si02
#       8
#     2   2   2   2   2   2   2   2
#     4  11  23  41  70  98 139 181 234 292 351 414
#     4  10  23  42  68 104 137 181 231 291 350 412
#     4  11  24  47  69 100 141 190 230 296 355 421
#     4  12  21  42  69 103 138 179 239 288 349 414
#     4  11  27  46  70 100 146 183 238 290 356 428
#     4  12  25  40  71 107 140 189 239 291 348 417
#     4  12  28  46  67 103 143 189 233 295 358 426
#     4  11  24  43  71  99 135 182 242 290 351 418
#
# _framework density 22.456679999999999
#
# number of rings (size 3 to 8) (size 9 to 14) (size 15 to 20)
#    0.000    0.750    3.750    3.375    5.250    3.500 
#    0.000    1.875    0.000    0.000    0.000    0.000 
#    0.000    0.000    0.000    0.000    0.000    0.000 
#
# Total GULP energy -198337.208002 kJ/mol
# GULP energy per Si atom -12396.075500 kJ/mol
# Density = 2.240557 g / cm^3
# Si number density = 22.456680 Si / 1000 Ang^3
#
#
#
# Elastic Constant Matrix: (Units=GPa)
#
#
# Indices 1 2 3 4 5 6 
#
# 1 132.1958 28.0793 55.3206 10.0546 -15.0592 23.5416
# 2 28.0793 83.9737 26.8712 11.3996 -1.5117 15.4865
# 3 55.3206 26.8712 122.6200 18.7842 -2.4953 6.1931
# 4 10.0546 11.3996 18.7842 38.5348 -5.5880 -1.9901
# 5 -15.0592 -1.5117 -2.4953 -5.5880 44.8880 4.0972
# 6 23.5416 15.4865 6.1931 -1.9901 4.0972 32.8255
#
#
#
# Elastic Compliance Matrix: (Units=1/GPa)
#
#
# Indices 1 2 3 4 5 6 
#
# 1 0.011462 -0.000903 -0.004459 -0.000327 0.004211 -0.007499
# 2 -0.000903 0.014395 -0.001924 -0.003366 0.000205 -0.006010
# 3 -0.004459 -0.001924 0.011033 -0.003775 -0.001599 0.001995
# 4 -0.000327 -0.003366 -0.003775 0.029493 0.002877 0.003963
# 5 0.004211 0.000205 -0.001599 0.002877 0.024486 -0.005697
# 6 -0.007499 -0.006010 0.001995 0.003963 -0.005697 0.039252
#
#
# Mechanical properties :
#
#
# Convention : Reuss Voigt Hill
#
# Bulk Modulus (GPa) = 44.80404 62.14797 53.47601
# Shear Modulus (GPa) = 32.86575 38.48423 35.67499
#
# Velocity S-wave (km/s) = 3.82975 4.14419 3.99007
# Velocity P-wave (km/s) = 6.28892 7.11574 6.71507
#
# Compressibility (1/GPa) = 0.02231942
#
# Stress axis : x y z
#
# Youngs Moduli (GPa) = 87.24395 69.46824 90.63309
#
# Poissons Ratio (x) = 0.06272 0.40412
# Poissons Ratio (y) = 0.07877 0.17437
# Poissons Ratio (z) = 0.38901 0.13365
#
# Static dielectric constant tensor:
#      x y z
#    x 3.724670 0.384480 -0.120240 
#    y 0.384480 4.057290 0.005020 
#    z -0.120240 0.005020 4.145080 
# 
# 
# High freq. dielectric constant tensor:
#      x y z
#    x 1.904150 0.006000 -0.010070 
#    y 0.006000 1.864080 0.009030 
#    z -0.010070 0.009030 1.893930 
# 
# From -- ./inp_files/208450.got.cif
#   From: 2010.06.25/outbox.cif.g09.slc.cpg/sg2_105_cif.got.tgz:208450.got - 2010.06.27 13:26:56.
