data_PCOD8023707
_publ_section_title
;
Structure prediction by ZEFSAII (Michael W. Deem and Ramdas Pophale) SiO2 
 PCOD8023707
Probable space group: P -1
;
_chemical_formula_sum "Si O2"
_cell_formula_units_Z 16
_cell_length_a 8.865123
_cell_length_b 15.131844
_cell_length_c 13.140793
_cell_angle_alpha 50.318512
_cell_angle_beta 104.998249
_cell_angle_gamma 62.062421
_cell_volume 684.960463
_symmetry_space_group_name_H-M "P -1"
_symmetry_group_IT_number 2
_symmetry_cell_setting 'triclinic'
loop_
_space_group_symop_operation_xyz
x,y,z
-x,-y,-z
loop_
_atom_site_type_symbol
_atom_site_label
_atom_site_fract_x
_atom_site_fract_y
_atom_site_fract_z
Si Si1 0.855195 0.087355 0.071462
Si Si2 0.371377 0.813813 0.507275
Si Si3 0.325019 0.400513 0.887695
Si Si4 0.954601 0.401666 0.808563
Si Si5 0.740942 0.860025 0.752105
Si Si6 0.879205 0.838429 0.587555
Si Si7 0.153190 0.729825 0.245099
Si Si8 0.347874 0.716472 0.785290
O O1 0.510892 0.299231 0.890692
O O2 0.892270 0.162483 0.940093
O O3 0.043865 0.993704 0.274742
O O4 0.964358 0.897386 0.183357
O O5 0.603878 0.644708 0.581167
O O6 0.452524 0.687672 0.712785
O O7 0.408023 0.924132 0.459596
O O8 0.149055 0.393271 0.846906
O O9 0.085141 0.654951 0.669490
O O10 0.552797 0.255094 0.131224
O O11 0.989213 0.305108 0.782889
O O12 0.046823 0.267976 0.020575
O O13 0.924659 0.724112 0.778486
O O14 0.469714 0.940956 0.666463
O O15 0.987095 0.904773 0.582333
O O16 0.500000 0.500000 0.500000
O O17 0.500000 0.500000 0.000000
#
# Coordination Sequence:
#
# PCOD8023707 Si02
#       8
#     2   2   2   2   2   2   2   2
#     4  11  26  46  75 104 131 177 235 289 349 413
#     4  12  24  44  72 102 141 186 227 279 341 415
#     4  11  25  44  67 105 144 179 227 283 338 410
#     4  12  25  43  70 101 138 181 228 288 349 404
#     4  11  24  41  65 100 144 188 230 275 335 410
#     4  10  23  42  63  99 145 189 227 276 329 407
#     4  11  25  49  75 100 131 176 235 293 354 411
#     4  10  24  40  64 101 144 182 225 269 330 405
#
# _framework density 23.359012
#
# number of rings (size 3 to 8) (size 9 to 14) (size 15 to 20)
#    0.000    1.000    3.750    2.250    8.750    2.500 
#    0.000    0.625    0.000    0.000    0.000    0.000 
#    0.000    0.000    0.000    0.000    0.000    0.000 
#
# Total GULP energy -198373.064068 kJ/mol
# GULP energy per Si atom -12398.316504 kJ/mol
# Density = 2.330585 g / cm^3
# Si number density = 23.359012 Si / 1000 Ang^3
#
#
#
# Elastic Constant Matrix: (Units=GPa)
#
#
# Indices 1 2 3 4 5 6 
#
# 1 126.3438 44.0580 14.9537 -2.2428 23.7122 14.2094
# 2 44.0580 122.6092 10.6606 -8.2462 19.3399 3.9622
# 3 14.9537 10.6606 61.1875 6.8352 11.0923 7.2689
# 4 -2.2428 -8.2462 6.8352 32.9773 -1.5032 10.6591
# 5 23.7122 19.3399 11.0923 -1.5032 38.6689 3.7901
# 6 14.2094 3.9622 7.2689 10.6591 3.7901 40.2231
#
#
#
# Elastic Compliance Matrix: (Units=1/GPa)
#
#
# Indices 1 2 3 4 5 6 
#
# 1 0.010131 -0.002723 -0.000988 0.000988 -0.004235 -0.002995
# 2 -0.002723 0.009826 -0.000756 0.002368 -0.002914 -0.000222
# 3 -0.000988 -0.000756 0.018067 -0.003721 -0.004200 -0.001460
# 4 0.000988 0.002368 -0.003721 0.034825 0.001541 -0.009284
# 5 -0.004235 -0.002914 -0.004200 0.001541 0.031259 -0.000812
# 6 -0.002995 -0.000222 -0.001460 -0.009284 -0.000812 0.028742
#
#
# Mechanical properties :
#
#
# Convention : Reuss Voigt Hill
#
# Bulk Modulus (GPa) = 34.37817 49.94281 42.16049
# Shear Modulus (GPa) = 33.00734 38.40507 35.70621
#
# Velocity S-wave (km/s) = 3.76313 4.05918 3.91395
# Velocity P-wave (km/s) = 5.79920 6.58758 6.20592
#
# Compressibility (1/GPa) = 0.02908823
#
# Stress axis : x y z
#
# Youngs Moduli (GPa) = 98.71066 101.76725 55.34984
#
# Poissons Ratio (x) = 0.27713 0.05470
# Poissons Ratio (y) = 0.26881 0.04186
# Poissons Ratio (z) = 0.09755 0.07697
#
# Static dielectric constant tensor:
#      x y z
#    x 4.246930 0.123520 0.215120 
#    y 0.123520 4.326730 -0.128960 
#    z 0.215120 -0.128960 4.323650 
# 
# 
# High freq. dielectric constant tensor:
#      x y z
#    x 1.926240 0.011360 0.012090 
#    y 0.011360 1.922470 -0.011330 
#    z 0.012090 -0.011330 1.926200 
# 
# From -- ./inp_files/398810.got.cif
#   From: 2010.06.25/outbox.cif.g09.slc.cpg/sg2_200_cif.got.tgz:398810.got - 2010.06.27 13:26:56.
