data_PCOD8023359
_publ_section_title
;
Structure prediction by ZEFSAII (Michael W. Deem and Ramdas Pophale) SiO2 
 PCOD8023359
Probable space group: P -1
;
_chemical_formula_sum "Si O2"
_cell_formula_units_Z 16
_cell_length_a 9.864956
_cell_length_b 15.804455
_cell_length_c 11.369471
_cell_angle_alpha 78.211276
_cell_angle_beta 69.513654
_cell_angle_gamma 28.425747
_cell_volume 768.854336
_symmetry_space_group_name_H-M "P -1"
_symmetry_group_IT_number 2
_symmetry_cell_setting 'triclinic'
loop_
_space_group_symop_operation_xyz
x,y,z
-x,-y,-z
loop_
_atom_site_type_symbol
_atom_site_label
_atom_site_fract_x
_atom_site_fract_y
_atom_site_fract_z
Si Si1 0.818784 0.017758 0.686971
Si Si2 0.651366 0.329231 0.517380
Si Si3 0.556520 0.459054 0.131655
Si Si4 0.249906 0.931891 0.889642
Si Si5 0.732199 0.953603 0.939819
Si Si6 0.841916 0.191245 0.737262
Si Si7 0.294075 0.413928 0.294645
Si Si8 0.643352 0.678438 0.436526
O O1 0.809278 0.106324 0.749174
O O2 0.650642 0.116712 0.584667
O O3 0.658034 0.032304 0.812881
O O4 0.162786 0.803602 0.614920
O O5 0.500000 0.500000 0.500000
O O6 0.887818 0.209433 0.589307
O O7 0.369052 0.409632 0.598591
O O8 0.456651 0.602232 0.180104
O O9 0.364660 0.479385 0.241713
O O10 0.914160 0.258452 0.100744
O O11 0.500000 0.500000 0.000000
O O12 0.534878 0.724553 0.822742
O O13 0.118175 0.057487 0.784022
O O14 0.362993 0.935732 0.954822
O O15 0.000000 0.000000 0.000000
O O16 0.500000 0.000000 0.000000
O O17 0.397606 0.315994 0.413761
O O18 0.934700 0.582894 0.341842
#
# Coordination Sequence:
#
# PCOD8023359 Si02
#       8
#     2   2   2   2   2   2   2   2
#     4  11  23  42  66  95 140 175 226 278 354 414
#     4  11  22  40  68  98 135 175 219 283 347 409
#     4  12  24  43  67  96 136 180 230 282 339 408
#     4  12  21  42  66  94 127 185 228 271 340 410
#     4  12  27  43  64  98 137 176 229 290 341 403
#     4  11  21  38  70  95 120 177 229 266 337 412
#     4  11  23  42  69  96 137 176 236 285 338 415
#     4  10  23  41  66 103 133 178 224 291 343 404
#
# _framework density 20.810182999999999
#
# number of rings (size 3 to 8) (size 9 to 14) (size 15 to 20)
#    0.000    0.750    3.750    5.250    1.750    3.000 
#    0.000    1.250    0.000    9.750    0.000    0.000 
#    0.000    0.000    0.000    0.000    0.000    0.000 
#
# Total GULP energy -198243.192530 kJ/mol
# GULP energy per Si atom -12390.199533 kJ/mol
# Density = 2.076282 g / cm^3
# Si number density = 20.810183 Si / 1000 Ang^3
#
#
#
# Elastic Constant Matrix: (Units=GPa)
#
#
# Indices 1 2 3 4 5 6 
#
# 1 129.8325 55.5649 60.1519 10.2752 -10.7369 7.1557
# 2 55.5649 97.3785 41.0603 2.5596 -4.6866 18.3757
# 3 60.1519 41.0603 112.0265 -3.7327 -3.2126 9.0228
# 4 10.2752 2.5596 -3.7327 47.6542 4.4736 8.7158
# 5 -10.7369 -4.6866 -3.2126 4.4736 41.7355 4.5986
# 6 7.1557 18.3757 9.0228 8.7158 4.5986 38.2634
#
#
#
# Elastic Compliance Matrix: (Units=1/GPa)
#
#
# Indices 1 2 3 4 5 6 
#
# 1 0.012658 -0.005220 -0.005074 -0.003409 0.002445 0.001818
# 2 -0.005220 0.015390 -0.002274 0.001190 0.000771 -0.006242
# 3 -0.005074 -0.002274 0.012665 0.002537 -0.000699 -0.001440
# 4 -0.003409 0.001190 0.002537 0.023087 -0.002417 -0.005501
# 5 0.002445 0.000771 -0.000699 -0.002417 0.025228 -0.003144
# 6 0.001818 -0.006242 -0.001440 -0.005501 -0.003144 0.030763
#
#
# Mechanical properties :
#
#
# Convention : Reuss Voigt Hill
#
# Bulk Modulus (GPa) = 64.18832 72.53243 68.36038
# Shear Modulus (GPa) = 33.30730 37.69464 35.50097
#
# Velocity S-wave (km/s) = 4.00500 4.26062 4.13479
# Velocity P-wave (km/s) = 7.23176 7.68985 7.46432
#
# Compressibility (1/GPa) = 0.01557916
#
# Stress axis : x y z
#
# Youngs Moduli (GPa) = 78.99872 64.97740 78.96060
#
# Poissons Ratio (x) = 0.33915 0.40062
# Poissons Ratio (y) = 0.41233 0.17953
# Poissons Ratio (z) = 0.40082 0.14774
#
# Static dielectric constant tensor:
#      x y z
#    x 3.796990 -0.040180 0.139310 
#    y -0.040180 4.204460 -0.317830 
#    z 0.139310 -0.317830 4.060270 
# 
# 
# High freq. dielectric constant tensor:
#      x y z
#    x 1.804250 0.009630 0.017770 
#    y 0.009630 1.820440 -0.017080 
#    z 0.017770 -0.017080 1.827410 
# 
# From -- ./inp_files/399049.got.cif
#   From: 2010.06.25/outbox.cif.g09.slc.cpg/sg2_200_cif.got.tgz:399049.got - 2010.06.27 13:26:56.
