data_PCOD8023019
_publ_section_title
;
Structure prediction by ZEFSAII (Michael W. Deem and Ramdas Pophale) SiO2 
 PCOD8023019
Probable space group: P -1
;
_chemical_formula_sum "Si O2"
_cell_formula_units_Z 16
_cell_length_a 21.453106
_cell_length_b 8.508883
_cell_length_c 14.599447
_cell_angle_alpha 40.351332
_cell_angle_beta 152.257397
_cell_angle_gamma 140.264243
_cell_volume 762.714723
_symmetry_space_group_name_H-M "P -1"
_symmetry_group_IT_number 2
_symmetry_cell_setting 'triclinic'
loop_
_space_group_symop_operation_xyz
x,y,z
-x,-y,-z
loop_
_atom_site_type_symbol
_atom_site_label
_atom_site_fract_x
_atom_site_fract_y
_atom_site_fract_z
Si Si1 0.723149 0.590282 0.737841
Si Si2 0.973588 0.039743 0.840507
Si Si3 0.849772 0.877171 0.139318
Si Si4 0.534212 0.694829 0.765714
Si Si5 0.173805 0.810900 0.864725
Si Si6 0.477485 0.210376 0.493837
Si Si7 0.363111 0.348276 0.830156
Si Si8 0.079305 0.429912 0.485837
O O1 0.637535 0.375385 0.651563
O O2 0.629098 0.750629 0.586631
O O3 0.847601 0.792458 0.754663
O O4 0.784956 0.449204 0.959981
O O5 0.929804 0.288274 0.654338
O O6 0.103513 0.047333 0.938462
O O7 0.000000 0.000000 0.000000
O O8 0.925756 0.680636 0.367822
O O9 0.882890 0.124467 0.139172
O O10 0.682336 0.737166 0.990524
O O11 0.563040 0.688895 0.698819
O O12 0.419050 0.427797 0.764196
O O13 0.467245 0.916107 0.607214
O O14 0.049154 0.766341 0.649136
O O15 0.313285 0.040734 0.912650
O O16 0.228299 0.440320 0.631662
O O17 0.500000 0.500000 0.000000
#
# Coordination Sequence:
#
# PCOD8023019 Si02
#       8
#     2   2   2   2   2   2   2   2
#     4  11  22  44  62  93 133 170 214 267 332 377
#     4  12  25  42  67  95 128 178 216 264 329 396
#     4  11  23  42  67  95 132 169 219 273 321 387
#     4  11  21  41  66  97 123 171 223 263 324 384
#     4  11  23  42  66  99 132 172 215 274 324 388
#     4  10  23  40  65  91 135 167 213 279 318 382
#     4  11  20  39  68  93 125 169 214 259 323 387
#     4  11  24  44  67  97 134 172 215 274 329 379
#
# _framework density 20.977699000000001
#
# number of rings (size 3 to 8) (size 9 to 14) (size 15 to 20)
#    0.000    1.000    5.000    3.375    0.000    4.500 
#    0.000    0.625    0.000    0.000    0.000    0.000 
#    0.000    0.000    0.000    0.000    0.000    0.000 
#
# Total GULP energy -198348.496322 kJ/mol
# GULP energy per Si atom -12396.781020 kJ/mol
# Density = 2.092995 g / cm^3
# Si number density = 20.977699 Si / 1000 Ang^3
#
#
#
# Elastic Constant Matrix: (Units=GPa)
#
#
# Indices 1 2 3 4 5 6 
#
# 1 86.0736 38.2999 22.6451 -1.0688 -8.8545 22.4121
# 2 38.2999 107.4042 28.2651 1.1776 -0.2251 30.6941
# 3 22.6451 28.2651 101.2684 5.1185 -9.2830 8.8484
# 4 -1.0688 1.1776 5.1185 38.9533 -1.3246 4.3923
# 5 -8.8545 -0.2251 -9.2830 -1.3246 30.4328 4.7781
# 6 22.4121 30.6941 8.8484 4.3923 4.7781 25.6418
#
#
#
# Elastic Compliance Matrix: (Units=1/GPa)
#
#
# Indices 1 2 3 4 5 6 
#
# 1 0.017229 -0.001660 -0.001650 0.002576 0.006842 -0.014218
# 2 -0.001660 0.015249 -0.002379 0.001729 0.001581 -0.016573
# 3 -0.001650 -0.002379 0.011228 -0.001365 0.002849 0.000119
# 4 0.002576 0.001729 -0.001365 0.026986 0.002936 -0.009019
# 5 0.006842 0.001581 0.002849 0.002936 0.038453 -0.016524
# 6 -0.014218 -0.016573 0.000119 -0.009019 -0.016524 0.075847
#
#
# Mechanical properties :
#
#
# Convention : Reuss Voigt Hill
#
# Bulk Modulus (GPa) = 30.93421 52.57404 41.75413
# Shear Modulus (GPa) = 24.13755 32.70797 28.42276
#
# Velocity S-wave (km/s) = 3.39577 3.95293 3.68490
# Velocity P-wave (km/s) = 5.49120 6.77868 6.16862
#
# Compressibility (1/GPa) = 0.03232667
#
# Stress axis : x y z
#
# Youngs Moduli (GPa) = 58.04282 65.57694 89.06633
#
# Poissons Ratio (x) = 0.10886 0.14695
# Poissons Ratio (y) = 0.09636 0.21192
# Poissons Ratio (z) = 0.09577 0.15603
#
# Static dielectric constant tensor:
#      x y z
#    x 3.727730 0.192790 -0.142970 
#    y 0.192790 3.959250 0.051150 
#    z -0.142970 0.051150 3.930210 
# 
# 
# High freq. dielectric constant tensor:
#      x y z
#    x 1.808370 0.008750 -0.004380 
#    y 0.008750 1.824460 0.003070 
#    z -0.004380 0.003070 1.835850 
# 
# From -- ./inp_files/528965.got.cif
#   From: 2010.06.25/outbox.cif.g09.slc.cpg/sg2_265_cif.got.tgz:528965.got - 2010.06.27 13:26:56.
