data_PCOD8023328
_publ_section_title
;
Structure prediction by ZEFSAII (Michael W. Deem and Ramdas Pophale) SiO2 
 PCOD8023328
Probable space group: P -1
;
_chemical_formula_sum "Si O2"
_cell_formula_units_Z 16
_cell_length_a 6.796750
_cell_length_b 21.744026
_cell_length_c 12.029361
_cell_angle_alpha 28.047562
_cell_angle_beta 67.512004
_cell_angle_gamma 70.375206
_cell_volume 772.360602
_symmetry_space_group_name_H-M "P -1"
_symmetry_group_IT_number 2
_symmetry_cell_setting 'triclinic'
loop_
_space_group_symop_operation_xyz
x,y,z
-x,-y,-z
loop_
_atom_site_type_symbol
_atom_site_label
_atom_site_fract_x
_atom_site_fract_y
_atom_site_fract_z
Si Si1 0.650420 0.597879 0.951055
Si Si2 0.055451 0.938045 0.969532
Si Si3 0.059028 0.524139 0.574741
Si Si4 0.287465 0.275813 0.636382
Si Si5 0.583567 0.267968 0.795263
Si Si6 0.952408 0.816877 0.569548
Si Si7 0.273032 0.296735 0.009653
Si Si8 0.622741 0.320209 0.315418
O O1 0.598480 0.616925 0.063224
O O2 0.444269 0.635740 0.863553
O O3 0.844778 0.695100 0.720159
O O4 0.714565 0.447396 0.157070
O O5 0.858374 0.850919 0.108723
O O6 0.270075 0.855245 0.068261
O O7 0.100772 0.047206 0.693581
O O8 0.000000 0.000000 0.000000
O O9 0.277896 0.605287 0.407217
O O10 0.000000 0.500000 0.500000
O O11 0.862736 0.599418 0.554074
O O12 0.094720 0.386105 0.846891
O O13 0.435215 0.300446 0.671310
O O14 0.427340 0.256700 0.526549
O O15 0.435554 0.234086 0.987178
O O16 0.204217 0.793144 0.552144
O O17 0.856777 0.818668 0.713325
#
# Coordination Sequence:
#
# PCOD8023328 Si02
#       8
#     2   2   2   2   2   2   2   2
#     4   9  23  37  60  96 133 168 209 261 337 385
#     4  11  25  46  68  93 131 176 230 272 316 387
#     4  11  23  39  69  99 137 167 215 265 335 397
#     4  11  25  40  69 100 126 176 221 272 325 386
#     4  11  24  44  66  98 131 172 224 273 323 393
#     4  10  24  41  62  95 130 173 213 271 319 382
#     4  10  23  41  65  95 135 169 206 270 337 388
#     4  11  21  38  64  96 130 171 216 265 329 391
#
# _framework density 20.715710999999999
#
# number of rings (size 3 to 8) (size 9 to 14) (size 15 to 20)
#    0.750    0.750    1.250    3.000    5.250    5.500 
#    0.000    0.625    0.000    0.000    0.000    0.000 
#    0.000    0.000    0.000    0.000    0.000    0.000 
#
# Total GULP energy -198385.217741 kJ/mol
# GULP energy per Si atom -12399.076109 kJ/mol
# Density = 2.066856 g / cm^3
# Si number density = 20.715711 Si / 1000 Ang^3
#
#
#
# Elastic Constant Matrix: (Units=GPa)
#
#
# Indices 1 2 3 4 5 6 
#
# 1 104.1587 47.0891 34.2323 3.6033 4.5942 -7.2283
# 2 47.0891 102.9767 24.9021 17.0265 8.1739 -5.2554
# 3 34.2323 24.9021 118.0301 12.5863 2.7322 -5.6765
# 4 3.6033 17.0265 12.5863 30.5010 0.4343 1.1411
# 5 4.5942 8.1739 2.7322 0.4343 25.7333 6.6688
# 6 -7.2283 -5.2554 -5.6765 1.1411 6.6688 42.0691
#
#
#
# Elastic Compliance Matrix: (Units=1/GPa)
#
#
# Indices 1 2 3 4 5 6 
#
# 1 0.013099 -0.005651 -0.002828 0.002738 -0.000596 0.001183
# 2 -0.005651 0.013901 -0.000400 -0.006931 -0.003630 0.001475
# 3 -0.002828 -0.000400 0.009813 -0.003520 -0.000604 0.000980
# 4 0.002738 -0.006931 -0.003520 0.037838 0.002022 -0.002217
# 5 -0.000596 -0.003630 -0.000604 0.002022 0.042057 -0.007359
# 6 0.001183 0.001475 0.000980 -0.002217 -0.007359 0.025517
#
#
# Mechanical properties :
#
#
# Convention : Reuss Voigt Hill
#
# Bulk Modulus (GPa) = 52.47834 59.73472 56.10653
# Shear Modulus (GPa) = 30.05997 34.25680 32.15839
#
# Velocity S-wave (km/s) = 3.81343 4.07094 3.94428
# Velocity P-wave (km/s) = 6.69158 7.14106 6.91997
#
# Compressibility (1/GPa) = 0.01905548
#
# Stress axis : x y z
#
# Youngs Moduli (GPa) = 76.34426 71.93731 101.90051
#
# Poissons Ratio (x) = 0.40651 0.28818
# Poissons Ratio (y) = 0.43141 0.04075
# Poissons Ratio (z) = 0.21590 0.02877
#
# Static dielectric constant tensor:
#      x y z
#    x 3.807780 0.038540 0.068230 
#    y 0.038540 3.690630 0.108700 
#    z 0.068230 0.108700 3.750900 
# 
# 
# High freq. dielectric constant tensor:
#      x y z
#    x 1.818740 0.000400 0.006230 
#    y 0.000400 1.802800 0.012490 
#    z 0.006230 0.012490 1.804750 
# 
# From -- ./inp_files/370265.got.cif
#   From: 2010.06.25/outbox.cif.g09.slc.cpg/sg2_186_cif.got.tgz:370265.got - 2010.06.27 13:26:56.
