data_PCOD8023373
_publ_section_title
;
Structure prediction by ZEFSAII (Michael W. Deem and Ramdas Pophale) SiO2 
 PCOD8023373
Probable space group: P -1
;
_chemical_formula_sum "Si O2"
_cell_formula_units_Z 14
_cell_length_a 11.048823
_cell_length_b 21.013656
_cell_length_c 20.406815
_cell_angle_alpha 20.984441
_cell_angle_beta 157.842502
_cell_angle_gamma 148.804405
_cell_volume 638.405085
_symmetry_space_group_name_H-M "P -1"
_symmetry_group_IT_number 2
_symmetry_cell_setting 'triclinic'
loop_
_space_group_symop_operation_xyz
x,y,z
-x,-y,-z
loop_
_atom_site_type_symbol
_atom_site_label
_atom_site_fract_x
_atom_site_fract_y
_atom_site_fract_z
Si Si1 0.120422 0.619589 0.132511
Si Si2 0.794780 0.282160 0.256860
Si Si3 0.911681 0.024239 0.856629
Si Si4 0.771580 0.341103 0.039574
Si Si5 0.091608 0.335786 0.873348
Si Si6 0.272693 0.348722 0.677945
Si Si7 0.817589 0.891197 0.625718
O O1 0.466982 0.668469 0.233631
O O2 0.066322 0.413179 0.286496
O O3 0.116585 0.648807 0.179804
O O4 0.842119 0.744394 0.837023
O O5 0.686554 0.290450 0.118797
O O6 0.921904 0.077487 0.529958
O O7 0.468203 0.332236 0.085445
O O8 0.540220 0.091950 0.598447
O O9 0.125764 0.161418 0.795492
O O10 0.993768 0.839843 0.038360
O O11 0.000000 0.000000 0.000000
O O12 0.938665 0.168056 0.253569
O O13 0.443465 0.406312 0.775296
O O14 0.000000 0.500000 0.000000
O O15 0.006731 0.503592 0.622539
#
# Coordination Sequence:
#
# PCOD8023373 Si02
#       7
#     2   2   2   2   2   2   2
#     4  11  24  43  64  97 126 172 220 257 311 377
#     4  11  22  41  66  95 125 170 213 263 317 372
#     4  11  26  43  65  98 130 167 210 263 326 379
#     4  11  22  41  65  96 123 163 212 262 319 374
#     4  11  26  42  66  94 131 170 216 259 315 379
#     4  11  24  41  66  93 131 168 207 267 322 369
#     4  10  23  41  66  92 131 166 213 262 313 377
#
# _framework density 21.929649999999999
#
# number of rings (size 3 to 8) (size 9 to 14) (size 15 to 20)
#    0.000    1.143    2.857    3.857    2.000    8.571 
#    0.000    0.000    0.000    0.000    0.000    0.000 
#    0.000    0.000    0.000    0.000    0.000    0.000 
#
# Total GULP energy -173656.589874 kJ/mol
# GULP energy per Si atom -12404.042134 kJ/mol
# Density = 2.187974 g / cm^3
# Si number density = 21.929650 Si / 1000 Ang^3
#
#
#
# Elastic Constant Matrix: (Units=GPa)
#
#
# Indices 1 2 3 4 5 6 
#
# 1 94.9198 44.3616 12.6476 -12.9038 0.7728 -4.8513
# 2 44.3616 118.8922 46.9603 -28.2822 -2.5420 9.5716
# 3 12.6476 46.9603 104.5025 -18.4496 0.1383 -1.7226
# 4 -12.9038 -28.2822 -18.4496 30.4927 -1.5201 -5.3608
# 5 0.7728 -2.5420 0.1383 -1.5201 26.6322 0.4067
# 6 -4.8513 9.5716 -1.7226 -5.3608 0.4067 40.9592
#
#
#
# Elastic Compliance Matrix: (Units=1/GPa)
#
#
# Indices 1 2 3 4 5 6 
#
# 1 0.013241 -0.005181 0.001128 0.001984 -0.000819 0.003094
# 2 -0.005181 0.014277 -0.004446 0.007912 0.002035 -0.003122
# 3 0.001128 -0.004446 0.012193 0.004106 -0.000320 0.002226
# 4 0.001984 0.007912 0.004106 0.044376 0.003143 0.004335
# 5 -0.000819 0.002035 -0.000320 0.003143 0.037956 -0.000552
# 6 0.003094 -0.003122 0.002226 0.004335 -0.000552 0.026177
#
#
# Mechanical properties :
#
#
# Convention : Reuss Voigt Hill
#
# Bulk Modulus (GPa) = 44.02796 58.47261 51.25029
# Shear Modulus (GPa) = 28.93719 33.90649 31.42184
#
# Velocity S-wave (km/s) = 3.63650 3.93637 3.78940
# Velocity P-wave (km/s) = 6.14432 6.88343 6.52435
#
# Compressibility (1/GPa) = 0.02271284
#
# Stress axis : x y z
#
# Youngs Moduli (GPa) = 75.52543 70.04221 82.01723
#
# Poissons Ratio (x) = 0.36286 -0.09250
# Poissons Ratio (y) = 0.39127 0.36464
# Poissons Ratio (z) = -0.08518 0.31140
#
# Static dielectric constant tensor:
#      x y z
#    x 4.075320 0.084470 -0.138370 
#    y 0.084470 4.000750 -0.125150 
#    z -0.138370 -0.125150 4.180250 
# 
# 
# High freq. dielectric constant tensor:
#      x y z
#    x 1.865930 0.007180 -0.002930 
#    y 0.007180 1.864110 -0.008530 
#    z -0.002930 -0.008530 1.868870 
# 
# From -- ./inp_files/256130.got.cif
#   From: 2010.06.25/outbox.cif.g09.slc.cpg/sg2_129_cif.got.tgz:256130.got - 2010.06.27 13:26:56.
