data_PCOD8023843
_publ_section_title
;
Structure prediction by ZEFSAII (Michael W. Deem and Ramdas Pophale) SiO2 
 PCOD8023843
Probable space group: P -1
;
_chemical_formula_sum "Si O2"
_cell_formula_units_Z 16
_cell_length_a 21.058631
_cell_length_b 8.595473
_cell_length_c 12.290958
_cell_angle_alpha 69.767613
_cell_angle_beta 140.538392
_cell_angle_gamma 139.681372
_cell_volume 738.364843
_symmetry_space_group_name_H-M "P -1"
_symmetry_group_IT_number 2
_symmetry_cell_setting 'triclinic'
loop_
_space_group_symop_operation_xyz
x,y,z
-x,-y,-z
loop_
_atom_site_type_symbol
_atom_site_label
_atom_site_fract_x
_atom_site_fract_y
_atom_site_fract_z
Si Si1 0.673042 0.085217 0.499640
Si Si2 0.400986 0.166269 0.755679
Si Si3 0.366207 0.933321 0.128208
Si Si4 0.972031 0.764287 0.723849
Si Si5 0.786579 0.679489 0.220495
Si Si6 0.818582 0.180928 0.883782
Si Si7 0.828353 0.374174 0.278343
Si Si8 0.684749 0.598011 0.351052
O O1 0.498826 0.960905 0.303301
O O2 0.853551 0.436982 0.621827
O O3 0.680410 0.994386 0.645239
O O4 0.651500 0.917778 0.419304
O O5 0.300238 0.185606 0.668350
O O6 0.339525 0.919374 0.800404
O O7 0.613398 0.476991 0.967574
O O8 0.481838 0.261145 0.188395
O O9 0.253841 0.798126 0.122668
O O10 0.224947 0.714189 0.897170
O O11 0.831287 0.708748 0.596990
O O12 0.067228 0.973440 0.691633
O O13 0.132381 0.936322 0.978283
O O14 0.871363 0.622030 0.308329
O O15 0.731860 0.602919 0.291514
O O16 0.000000 0.500000 0.000000
O O17 0.000000 0.500000 0.500000
#
# Coordination Sequence:
#
# PCOD8023843 Si02
#       8
#     2   2   2   2   2   2   2   2
#     4  10  23  45  69  93 131 173 226 268 314 386
#     4  12  24  42  64 100 134 172 219 264 322 389
#     4  11  22  43  68  97 130 174 219 264 332 392
#     4  10  23  42  66  97 129 176 213 267 324 382
#     4  12  23  43  64  99 143 172 210 263 331 395
#     4  10  23  42  71  94 124 172 225 274 321 381
#     4  12  26  38  66 104 134 171 215 270 327 392
#     4  11  24  40  67  97 140 174 210 262 331 397
#
# _framework density 21.669504
#
# number of rings (size 3 to 8) (size 9 to 14) (size 15 to 20)
#    0.000    1.000    2.500    4.500    7.000    0.000 
#    0.000    3.125    2.750    0.000    0.000    0.000 
#    0.000    0.000    0.000    0.000    0.000    0.000 
#
# Total GULP energy -198362.140887 kJ/mol
# GULP energy per Si atom -12397.633805 kJ/mol
# Density = 2.162018 g / cm^3
# Si number density = 21.669504 Si / 1000 Ang^3
#
#
#
# Elastic Constant Matrix: (Units=GPa)
#
#
# Indices 1 2 3 4 5 6 
#
# 1 136.1776 46.6050 65.9925 -5.9915 -12.4581 7.1325
# 2 46.6050 72.3464 30.2998 -2.6539 5.8804 -0.0119
# 3 65.9925 30.2998 147.3920 -13.0888 -0.8402 -9.3915
# 4 -5.9915 -2.6539 -13.0888 31.3343 3.4879 9.2082
# 5 -12.4581 5.8804 -0.8402 3.4879 37.3682 -3.0598
# 6 7.1325 -0.0119 -9.3915 9.2082 -3.0598 34.6611
#
#
#
# Elastic Compliance Matrix: (Units=1/GPa)
#
#
# Indices 1 2 3 4 5 6 
#
# 1 0.012276 -0.006465 -0.004315 0.000477 0.004689 -0.003410
# 2 -0.006465 0.018809 -0.000934 0.000382 -0.005128 0.000530
# 3 -0.004315 -0.000934 0.009279 0.002299 -0.001077 0.002696
# 4 0.000477 0.000382 0.002299 0.036221 -0.004004 -0.009451
# 5 0.004689 -0.005128 -0.001077 -0.004004 0.029679 0.002425
# 6 -0.003410 0.000530 0.002696 -0.009451 0.002425 0.033008
#
#
# Mechanical properties :
#
#
# Convention : Reuss Voigt Hill
#
# Bulk Modulus (GPa) = 59.04780 71.30116 65.17448
# Shear Modulus (GPa) = 29.70101 34.87397 32.28749
#
# Velocity S-wave (km/s) = 3.70623 4.01603 3.86424
# Velocity P-wave (km/s) = 6.75450 7.38106 7.07472
#
# Compressibility (1/GPa) = 0.01693543
#
# Stress axis : x y z
#
# Youngs Moduli (GPa) = 81.46166 53.16639 107.77528
#
# Poissons Ratio (x) = 0.34370 0.46510
# Poissons Ratio (y) = 0.52663 0.10063
# Poissons Ratio (z) = 0.35155 0.04964
#
# Static dielectric constant tensor:
#      x y z
#    x 3.761210 0.094480 0.063370 
#    y 0.094480 4.125320 -0.346870 
#    z 0.063370 -0.346870 4.847100 
# 
# 
# High freq. dielectric constant tensor:
#      x y z
#    x 1.838670 0.004900 0.019170 
#    y 0.004900 1.840410 -0.003280 
#    z 0.019170 -0.003280 1.874550 
# 
# From -- ./inp_files/319200.got.cif
#   From: 2010.06.25/outbox.cif.g09.slc.cpg/sg2_160_cif.got.tgz:319200.got - 2010.06.27 13:26:56.
