data_PCOD8023457
_publ_section_title
;
Structure prediction by ZEFSAII (Michael W. Deem and Ramdas Pophale) SiO2 
 PCOD8023457
Probable space group: P -1
;
_chemical_formula_sum "Si O2"
_cell_formula_units_Z 16
_cell_length_a 18.468366
_cell_length_b 11.951654
_cell_length_c 8.463596
_cell_angle_alpha 74.339822
_cell_angle_beta 38.598265
_cell_angle_gamma 48.332549
_cell_volume 735.167445
_symmetry_space_group_name_H-M "P -1"
_symmetry_group_IT_number 2
_symmetry_cell_setting 'triclinic'
loop_
_space_group_symop_operation_xyz
x,y,z
-x,-y,-z
loop_
_atom_site_type_symbol
_atom_site_label
_atom_site_fract_x
_atom_site_fract_y
_atom_site_fract_z
Si Si1 0.239592 0.901503 0.636657
Si Si2 0.964527 0.058912 0.294056
Si Si3 0.085420 0.756134 0.401527
Si Si4 0.597158 0.534991 0.242708
Si Si5 0.549095 0.889574 0.610403
Si Si6 0.807670 0.778733 0.794972
Si Si7 0.782613 0.570661 0.131136
Si Si8 0.165909 0.218233 0.606096
O O1 0.177155 0.849967 0.639527
O O2 0.451534 0.736959 0.352574
O O3 0.174462 0.074283 0.618703
O O4 0.156652 0.939800 0.936226
O O5 0.903155 0.214322 0.445998
O O6 0.973145 0.936324 0.429432
O O7 0.983947 0.710469 0.578850
O O8 0.283796 0.594619 0.058475
O O9 0.500000 0.500000 0.500000
O O10 0.721469 0.501319 0.172674
O O11 0.649041 0.696639 0.457465
O O12 0.677733 0.864149 0.513931
O O13 0.500000 0.000000 0.500000
O O14 0.363817 0.006511 0.971680
O O15 0.820374 0.732505 0.607784
O O16 0.785219 0.677586 0.968045
O O17 0.977709 0.397558 0.934284
#
# Coordination Sequence:
#
# PCOD8023457 Si02
#       8
#     2   2   2   2   2   2   2   2
#     4  11  23  42  67  95 133 177 221 273 329 397
#     4  10  23  41  67  98 130 176 220 271 332 394
#     4  11  23  44  69  98 133 174 222 275 333 393
#     4  12  25  44  68  97 132 175 222 273 331 397
#     4  10  24  42  66  98 131 174 221 269 333 397
#     4  11  23  44  68  98 135 175 222 279 333 395
#     4  11  25  44  67 100 132 178 223 275 332 398
#     4  12  23  44  68  97 136 177 220 275 338 394
#
# _framework density 21.763750000000002
#
# number of rings (size 3 to 8) (size 9 to 14) (size 15 to 20)
#    0.000    1.000    3.750    2.625    7.000    0.500 
#    0.000    0.000    0.000    0.000    0.000    0.000 
#    0.000    0.000    0.000    0.000    0.000    0.000 
#
# Total GULP energy -198462.143273 kJ/mol
# GULP energy per Si atom -12403.883955 kJ/mol
# Density = 2.171421 g / cm^3
# Si number density = 21.763750 Si / 1000 Ang^3
#
#
#
# Elastic Constant Matrix: (Units=GPa)
#
#
# Indices 1 2 3 4 5 6 
#
# 1 127.2008 17.3714 53.6375 2.0214 13.4131 8.9354
# 2 17.3714 62.7472 23.6851 5.6897 -5.7219 8.2627
# 3 53.6375 23.6851 147.4214 24.5277 2.9099 7.8074
# 4 2.0214 5.6897 24.5277 41.6808 4.8473 -5.3386
# 5 13.4131 -5.7219 2.9099 4.8473 35.7913 5.7007
# 6 8.9354 8.2627 7.8074 -5.3386 5.7007 23.9485
#
#
#
# Elastic Compliance Matrix: (Units=1/GPa)
#
#
# Indices 1 2 3 4 5 6 
#
# 1 0.010081 -0.001941 -0.003643 0.002336 -0.004041 -0.000422
# 2 -0.001941 0.018781 -0.001512 -0.003142 0.005434 -0.007257
# 3 -0.003643 -0.001512 0.009420 -0.005708 0.001583 -0.002840
# 4 0.002336 -0.003142 -0.005708 0.029747 -0.006578 0.010270
# 5 -0.004041 0.005434 0.001583 -0.006578 0.032699 -0.010133
# 6 -0.000422 -0.007257 -0.002840 0.010270 -0.010133 0.050045
#
#
# Mechanical properties :
#
#
# Convention : Reuss Voigt Hill
#
# Bulk Modulus (GPa) = 41.50656 58.52858 50.01757
# Shear Modulus (GPa) = 28.90278 36.46250 32.68264
#
# Velocity S-wave (km/s) = 3.64816 4.09758 3.87938
# Velocity P-wave (km/s) = 6.07110 7.02410 6.56491
#
# Compressibility (1/GPa) = 0.02409257
#
# Stress axis : x y z
#
# Youngs Moduli (GPa) = 99.19363 53.24597 106.15319
#
# Poissons Ratio (x) = 0.10334 0.38668
# Poissons Ratio (y) = 0.19251 0.16045
# Poissons Ratio (z) = 0.36133 0.08048
#
# Static dielectric constant tensor:
#      x y z
#    x 3.945920 0.056900 0.180680 
#    y 0.056900 3.778560 0.291310 
#    z 0.180680 0.291310 4.449740 
# 
# 
# High freq. dielectric constant tensor:
#      x y z
#    x 1.858410 0.004500 0.004670 
#    y 0.004500 1.841190 0.010780 
#    z 0.004670 0.010780 1.868250 
# 
# From -- ./inp_files/333204.got.cif
#   From: 2010.06.25/outbox.cif.g09.slc.cpg/sg2_167_cif.got.tgz:333204.got - 2010.06.27 13:26:56.
