data_PCOD8023978
_publ_section_title
;
Structure prediction by ZEFSAII (Michael W. Deem and Ramdas Pophale) SiO2 
 PCOD8023978
Probable space group: P -1
;
_chemical_formula_sum "Si O2"
_cell_formula_units_Z 16
_cell_length_a 19.719939
_cell_length_b 17.511516
_cell_length_c 5.336958
_cell_angle_alpha 111.316792
_cell_angle_beta 72.135722
_cell_angle_gamma 158.071407
_cell_volume 638.716042
_symmetry_space_group_name_H-M "P -1"
_symmetry_group_IT_number 2
_symmetry_cell_setting 'triclinic'
loop_
_space_group_symop_operation_xyz
x,y,z
-x,-y,-z
loop_
_atom_site_type_symbol
_atom_site_label
_atom_site_fract_x
_atom_site_fract_y
_atom_site_fract_z
Si Si1 0.121255 0.293757 0.708042
Si Si2 0.802516 0.456538 0.210505
Si Si3 0.572022 0.989107 0.984490
Si Si4 0.615727 0.551062 0.681942
Si Si5 0.707227 0.814332 0.730589
Si Si6 0.057155 0.466021 0.371671
Si Si7 0.314153 0.957331 0.571133
Si Si8 0.444004 0.644288 0.090454
O O1 0.102312 0.353852 0.623141
O O2 0.237509 0.341212 0.528266
O O3 0.246934 0.463518 0.993426
O O4 0.920129 0.052606 0.721693
O O5 0.591940 0.250192 0.132611
O O6 0.799555 0.401713 0.409266
O O7 0.882991 0.489400 0.925930
O O8 0.714887 0.115091 0.755143
O O9 0.642609 0.062232 0.277117
O O10 0.500000 0.000000 0.000000
O O11 0.692150 0.724218 0.843983
O O12 0.408397 0.338409 0.559833
O O13 0.602365 0.489545 0.880975
O O14 0.609270 0.795901 0.895124
O O15 0.000000 0.500000 0.500000
O O16 0.886999 0.224932 0.344024
O O17 0.469493 0.191492 0.646651
#
# Coordination Sequence:
#
# PCOD8023978 Si02
#       8
#     2   2   2   2   2   2   2   2
#     4  11  24  41  66  98 136 175 228 282 342 408
#     4  12  25  43  68 100 135 176 229 279 343 412
#     4  12  24  44  69  97 135 179 224 279 344 411
#     4  10  23  42  68  96 137 173 226 282 339 411
#     4  10  23  43  66  99 131 181 223 277 347 408
#     4  12  26  45  68  99 135 177 228 285 343 411
#     4  12  25  43  68  99 135 178 226 283 345 404
#     4  11  24  41  65  97 136 176 225 286 336 413
#
# _framework density 25.050253999999999
#
# number of rings (size 3 to 8) (size 9 to 14) (size 15 to 20)
#    0.000    0.750    1.250    6.000    5.250    1.500 
#    0.000    0.000    0.000    0.000    0.000    0.000 
#    0.000    0.000    0.000    0.000    0.000    0.000 
#
# Total GULP energy -198216.400287 kJ/mol
# GULP energy per Si atom -12388.525018 kJ/mol
# Density = 2.499324 g / cm^3
# Si number density = 25.050254 Si / 1000 Ang^3
#
#
#
# Elastic Constant Matrix: (Units=GPa)
#
#
# Indices 1 2 3 4 5 6 
#
# 1 89.9968 12.5230 13.8164 -3.2399 5.9270 -6.5214
# 2 12.5230 136.7345 7.3995 -2.8250 -0.2169 16.2505
# 3 13.8164 7.3995 86.3596 -15.9799 2.4727 4.3545
# 4 -3.2399 -2.8250 -15.9799 25.6462 -3.0733 -0.5886
# 5 5.9270 -0.2169 2.4727 -3.0733 37.1656 -2.8518
# 6 -6.5214 16.2505 4.3545 -0.5886 -2.8518 44.9158
#
#
#
# Elastic Compliance Matrix: (Units=1/GPa)
#
#
# Indices 1 2 3 4 5 6 
#
# 1 0.011839 -0.001253 -0.001841 0.000071 -0.001594 0.002251
# 2 -0.001253 0.007804 -0.000228 0.000500 0.000074 -0.002972
# 3 -0.001841 -0.000228 0.013462 0.008094 -0.000040 -0.001387
# 4 0.000071 0.000500 0.008094 0.044469 0.003117 -0.000175
# 5 -0.001594 0.000074 -0.000040 0.003117 0.027540 0.001535
# 6 0.002251 -0.002972 -0.001387 -0.000175 0.001535 0.023896
#
#
# Mechanical properties :
#
#
# Convention : Reuss Voigt Hill
#
# Bulk Modulus (GPa) = 37.79197 42.28540 40.03868
# Shear Modulus (GPa) = 34.60803 40.16900 37.38852
#
# Velocity S-wave (km/s) = 3.72095 4.00876 3.86753
# Velocity P-wave (km/s) = 5.79481 6.19224 5.99681
#
# Compressibility (1/GPa) = 0.02646065
#
# Stress axis : x y z
#
# Youngs Moduli (GPa) = 84.46506 128.13559 74.28105
#
# Poissons Ratio (x) = 0.16058 0.13679
# Poissons Ratio (y) = 0.10585 0.01693
# Poissons Ratio (z) = 0.15554 0.02921
#
# Static dielectric constant tensor:
#      x y z
#    x 4.750710 -0.050930 0.040570 
#    y -0.050930 5.045960 -0.006640 
#    z 0.040570 -0.006640 4.497940 
# 
# 
# High freq. dielectric constant tensor:
#      x y z
#    x 2.009540 -0.004750 -0.000150 
#    y -0.004750 2.009730 -0.004730 
#    z -0.000150 -0.004730 1.985160 
# 
# From -- ./inp_files/47694.got.cif
#   From: 2010.06.25/outbox.cif.g09.slc.cpg/sg2_24_cif.got.tgz:47694.got - 2010.06.27 13:26:56.
