data_PCOD8023893
_publ_section_title
;
Structure prediction by ZEFSAII (Michael W. Deem and Ramdas Pophale) SiO2 
 PCOD8023893
Probable space group: P -1
;
_chemical_formula_sum "Si O2"
_cell_formula_units_Z 12
_cell_length_a 10.443074
_cell_length_b 11.991171
_cell_length_c 11.027870
_cell_angle_alpha 80.505033
_cell_angle_beta 27.028811
_cell_angle_gamma 93.280847
_cell_volume 551.015175
_symmetry_space_group_name_H-M "P -1"
_symmetry_group_IT_number 2
_symmetry_cell_setting 'triclinic'
loop_
_space_group_symop_operation_xyz
x,y,z
-x,-y,-z
loop_
_atom_site_type_symbol
_atom_site_label
_atom_site_fract_x
_atom_site_fract_y
_atom_site_fract_z
Si Si1 0.924766 0.666812 0.558073
Si Si2 0.320309 0.797539 0.652679
Si Si3 0.740077 0.070339 0.891587
Si Si4 0.375671 0.364426 0.689930
Si Si5 0.704167 0.979585 0.502587
Si Si6 0.478524 0.600884 0.159601
O O1 0.675690 0.548633 0.712171
O O2 0.006806 0.789288 0.385651
O O3 0.237808 0.656787 0.327915
O O4 0.776616 0.678775 0.807943
O O5 0.420331 0.702075 0.518510
O O6 0.591351 0.882824 0.502613
O O7 0.272342 0.885159 0.576668
O O8 0.993726 0.719096 0.015204
O O9 0.941990 0.995312 0.765899
O O10 0.542257 0.079773 0.170083
O O11 0.500000 0.000000 0.000000
O O12 0.500000 0.500000 0.500000
O O13 0.404029 0.379673 0.806865
#
# Coordination Sequence:
#
# PCOD8023893 Si02
#       6
#     2   2   2   2   2   2
#     4  10  23  43  65  98 131 179 215 274 339 396
#     4  11  26  47  71  98 138 182 224 278 346 394
#     4  12  26  42  73 103 135 174 232 279 334 399
#     4  12  26  43  72 104 133 176 230 282 332 401
#     4  11  26  47  70  99 137 183 222 282 338 402
#     4  10  23  42  67  94 135 174 219 272 341 393
#
# _framework density 21.777984
#
# number of rings (size 3 to 8) (size 9 to 14) (size 15 to 20)
#    0.000    1.000    0.000    5.000   11.667    2.667 
#    0.000    0.000    0.000    0.000    0.000    0.000 
#    0.000    0.000    0.000    0.000    0.000    0.000 
#
# Total GULP energy -148902.105411 kJ/mol
# GULP energy per Si atom -12408.508784 kJ/mol
# Density = 2.172842 g / cm^3
# Si number density = 21.777984 Si / 1000 Ang^3
#
#
#
# Elastic Constant Matrix: (Units=GPa)
#
#
# Indices 1 2 3 4 5 6 
#
# 1 108.5647 46.9627 32.6382 7.6943 -1.5035 -4.2602
# 2 46.9627 123.8568 25.6767 3.4382 7.7467 -9.6979
# 3 32.6382 25.6767 119.8891 6.4345 1.7298 -2.5849
# 4 7.6943 3.4382 6.4345 42.8160 -1.5173 3.5613
# 5 -1.5035 7.7467 1.7298 -1.5173 41.6239 3.1534
# 6 -4.2602 -9.6979 -2.5849 3.5613 3.1534 19.6125
#
#
#
# Elastic Compliance Matrix: (Units=1/GPa)
#
#
# Indices 1 2 3 4 5 6 
#
# 1 0.011754 -0.003991 -0.002278 -0.001437 0.001183 0.000350
# 2 -0.003991 0.010306 -0.000965 -0.000429 -0.002383 0.004563
# 3 -0.002278 -0.000965 0.009234 -0.000953 -0.000357 0.000476
# 4 -0.001437 -0.000429 -0.000953 0.024278 0.001352 -0.005276
# 5 0.001183 -0.002383 -0.000357 0.001352 0.024971 -0.005229
# 6 0.000350 0.004563 0.000476 -0.005276 -0.005229 0.055182
#
#
# Mechanical properties :
#
#
# Convention : Reuss Voigt Hill
#
# Bulk Modulus (GPa) = 59.42919 62.54065 60.98492
# Shear Modulus (GPa) = 32.09207 37.27935 34.68571
#
# Velocity S-wave (km/s) = 3.84292 4.14187 3.99519
# Velocity P-wave (km/s) = 6.85847 7.18701 7.02466
#
# Compressibility (1/GPa) = 0.01682675
#
# Stress axis : x y z
#
# Youngs Moduli (GPa) = 85.07481 97.03532 108.29235
#
# Poissons Ratio (x) = 0.38731 0.24664
# Poissons Ratio (y) = 0.33957 0.10447
# Poissons Ratio (z) = 0.19376 0.09361
#
# Static dielectric constant tensor:
#      x y z
#    x 3.961710 -0.019640 0.025060 
#    y -0.019640 4.012750 -0.043750 
#    z 0.025060 -0.043750 4.153260 
# 
# 
# High freq. dielectric constant tensor:
#      x y z
#    x 1.862330 0.000460 -0.000060 
#    y 0.000460 1.866280 0.002420 
#    z -0.000060 0.002420 1.875490 
# 
# From -- ./inp_files/315971.got.cif
#   From: 2010.06.25/outbox.cif.g09.slc.cpg/sg2_158_cif.got.tgz:315971.got - 2010.06.27 13:26:56.
