data_PCOD8023316
_publ_section_title
;
Structure prediction by ZEFSAII (Michael W. Deem and Ramdas Pophale) SiO2 
 PCOD8023316
Probable space group: P -1
;
_chemical_formula_sum "Si O2"
_cell_formula_units_Z 16
_cell_length_a 7.963909
_cell_length_b 9.848060
_cell_length_c 10.775735
_cell_angle_alpha 129.106517
_cell_angle_beta 80.974292
_cell_angle_gamma 98.764271
_cell_volume 646.104709
_symmetry_space_group_name_H-M "P -1"
_symmetry_group_IT_number 2
_symmetry_cell_setting 'triclinic'
loop_
_space_group_symop_operation_xyz
x,y,z
-x,-y,-z
loop_
_atom_site_type_symbol
_atom_site_label
_atom_site_fract_x
_atom_site_fract_y
_atom_site_fract_z
Si Si1 0.101852 0.569541 0.717094
Si Si2 0.261380 0.070028 0.675213
Si Si3 0.397995 0.739495 0.157013
Si Si4 0.369188 0.421130 0.140739
Si Si5 0.780121 0.921926 0.595701
Si Si6 0.929714 0.841754 0.004973
Si Si7 0.438873 0.398698 0.567550
Si Si8 0.094823 0.735351 0.546537
O O1 0.261820 0.465868 0.676003
O O2 0.936323 0.431050 0.637059
O O3 0.076663 0.703146 0.910751
O O4 0.127302 0.678312 0.649760
O O5 0.444966 0.172885 0.725658
O O6 0.177402 0.104481 0.570928
O O7 0.129497 0.114556 0.825415
O O8 0.265094 0.856452 0.558266
O O9 0.319020 0.553635 0.113306
O O10 0.252845 0.878431 0.246424
O O11 0.473519 0.692471 0.986906
O O12 0.223515 0.273716 0.113228
O O13 0.414194 0.554084 0.323946
O O14 0.600809 0.807279 0.575851
O O15 0.931046 0.855373 0.624712
O O16 0.000000 0.000000 0.000000
O O17 0.500000 0.500000 0.500000
#
# Coordination Sequence:
#
# PCOD8023316 Si02
#       8
#     2   2   2   2   2   2   2   2
#     4  10  24  44  65  94 134 181 221 274 346 388
#     4  11  22  41  66  99 134 171 227 273 330 401
#     4  10  23  44  70  95 137 179 215 281 339 397
#     4  10  24  45  66 101 134 176 227 268 339 405
#     4  11  24  41  65 104 131 174 229 278 331 398
#     4  11  24  43  69  96 136 182 220 274 333 404
#     4  11  26  42  68 101 135 173 231 278 330 401
#     4  10  23  41  65  93 133 171 227 271 332 395
#
# _framework density 24.763787000000001
#
# number of rings (size 3 to 8) (size 9 to 14) (size 15 to 20)
#    0.000    1.500    2.500    0.750    8.750    1.000 
#    0.000    3.750    0.000    0.000    0.000    0.000 
#    0.000    0.000    0.000    0.000    0.000    0.000 
#
# Total GULP energy -198244.137378 kJ/mol
# GULP energy per Si atom -12390.258586 kJ/mol
# Density = 2.470742 g / cm^3
# Si number density = 24.763787 Si / 1000 Ang^3
#
#
#
# Elastic Constant Matrix: (Units=GPa)
#
#
# Indices 1 2 3 4 5 6 
#
# 1 47.1703 9.6844 -13.2440 18.7324 9.9116 13.7266
# 2 9.6844 113.4931 20.0252 23.4664 0.8871 30.4310
# 3 -13.2440 20.0252 79.8345 24.7123 -8.8300 9.3359
# 4 18.7324 23.4664 24.7123 34.3750 1.8383 2.1799
# 5 9.9116 0.8871 -8.8300 1.8383 38.8797 10.9612
# 6 13.7266 30.4310 9.3359 2.1799 10.9612 43.1838
#
#
#
# Elastic Compliance Matrix: (Units=1/GPa)
#
#
# Indices 1 2 3 4 5 6 
#
# 1 0.057449 0.009471 0.028225 -0.056362 0.002328 -0.028782
# 2 0.009471 0.014718 0.005732 -0.018594 0.003542 -0.014582
# 3 0.028225 0.005732 0.031623 -0.041175 0.007337 -0.019631
# 4 -0.056362 -0.018594 -0.041175 0.100256 -0.009830 0.037354
# 5 0.002328 0.003542 0.007337 -0.009830 0.030586 -0.012089
# 6 -0.028782 -0.014582 -0.019631 0.037354 -0.012089 0.048008
#
#
# Mechanical properties :
#
#
# Convention : Reuss Voigt Hill
#
# Bulk Modulus (GPa) = 5.24537 30.38103 17.81320
# Shear Modulus (GPa) = 19.28015 38.22318 28.75166
#
# Velocity S-wave (km/s) = 2.79330 3.93302 3.41110
# Velocity P-wave (km/s) = 3.53923 5.73758 4.76686
#
# Compressibility (1/GPa) = 0.19064427
#
# Stress axis : x y z
#
# Youngs Moduli (GPa) = 17.40676 67.94275 31.62240
#
# Poissons Ratio (x) = -0.64346 -0.89253
# Poissons Ratio (y) = -0.16485 -0.18125
# Poissons Ratio (z) = -0.49130 -0.38943
#
# Static dielectric constant tensor:
#      x y z
#    x 4.530410 0.397390 -0.134680 
#    y 0.397390 4.533070 0.453220 
#    z -0.134680 0.453220 4.784770 
# 
# 
# High freq. dielectric constant tensor:
#      x y z
#    x 1.972290 0.022400 -0.002850 
#    y 0.022400 1.988760 0.023780 
#    z -0.002850 0.023780 1.997310 
# 
# From -- ./inp_files/205260.got.cif
#   From: 2010.06.25/outbox.cif.g09.slc.cpg/sg2_103_cif.got.tgz:205260.got - 2010.06.27 13:26:56.
