data_PCOD8023346
_publ_section_title
;
Structure prediction by ZEFSAII (Michael W. Deem and Ramdas Pophale) SiO2 
 PCOD8023346
Probable space group: P -1
;
_chemical_formula_sum "Si O2"
_cell_formula_units_Z 16
_cell_length_a 12.831355
_cell_length_b 20.117798
_cell_length_c 9.170452
_cell_angle_alpha 143.503573
_cell_angle_beta 144.064457
_cell_angle_gamma 35.541094
_cell_volume 730.922970
_symmetry_space_group_name_H-M "P -1"
_symmetry_group_IT_number 2
_symmetry_cell_setting 'triclinic'
loop_
_space_group_symop_operation_xyz
x,y,z
-x,-y,-z
loop_
_atom_site_type_symbol
_atom_site_label
_atom_site_fract_x
_atom_site_fract_y
_atom_site_fract_z
Si Si1 0.284223 0.585675 0.344052
Si Si2 0.966584 0.256208 0.390188
Si Si3 0.089160 0.429567 0.694328
Si Si4 0.421828 0.124172 0.035977
Si Si5 0.736374 0.217519 0.810554
Si Si6 0.216630 0.823843 0.527352
Si Si7 0.859601 0.949763 0.567887
Si Si8 0.712752 0.643267 0.517918
O O1 0.500000 0.500000 0.500000
O O2 0.153945 0.667566 0.473378
O O3 0.302118 0.677265 0.406153
O O4 0.190390 0.503953 0.020288
O O5 0.119053 0.311731 0.621903
O O6 0.063565 0.107013 0.282171
O O7 0.835064 0.278936 0.135780
O O8 0.196335 0.369390 0.559959
O O9 0.850932 0.519940 0.553790
O O10 0.603785 0.138457 0.192759
O O11 0.285925 0.239171 0.190794
O O12 0.276027 0.118792 0.738906
O O13 0.500000 0.000000 0.000000
O O14 0.860703 0.162762 0.704494
O O15 0.517599 0.328377 0.712169
O O16 0.727405 0.101478 0.683220
O O17 0.037102 0.913837 0.587907
#
# Coordination Sequence:
#
# PCOD8023346 Si02
#       8
#     2   2   2   2   2   2   2   2
#     4  11  25  44  65  93 135 177 220 274 341 407
#     4  11  26  40  68  95 136 175 220 279 344 397
#     4  11  25  43  66  98 135 176 222 281 334 399
#     4  11  22  41  70 103 129 174 229 276 330 403
#     4  11  23  43  67  99 129 179 225 273 336 398
#     4  10  24  40  70  98 132 177 223 279 334 400
#     4  11  23  45  66  99 142 174 223 282 340 407
#     4  10  23  41  65  98 135 166 228 279 325 395
#
# _framework density 21.890132000000001
#
# number of rings (size 3 to 8) (size 9 to 14) (size 15 to 20)
#    0.000    1.250    2.500    3.375   10.500    0.500 
#    0.000    0.625    0.000    0.000    0.000    0.000 
#    0.000    0.000    0.000    0.000    0.000    0.000 
#
# Total GULP energy -198339.602107 kJ/mol
# GULP energy per Si atom -12396.225132 kJ/mol
# Density = 2.184031 g / cm^3
# Si number density = 21.890132 Si / 1000 Ang^3
#
#
#
# Elastic Constant Matrix: (Units=GPa)
#
#
# Indices 1 2 3 4 5 6 
#
# 1 84.8894 26.9512 32.3595 0.9383 17.7298 14.6861
# 2 26.9512 90.1978 18.5239 -4.0178 12.7990 13.8567
# 3 32.3595 18.5239 109.7122 -4.8878 21.2873 4.9396
# 4 0.9383 -4.0178 -4.8878 37.5459 4.6713 2.9299
# 5 17.7298 12.7990 21.2873 4.6713 33.5685 5.1764
# 6 14.6861 13.8567 4.9396 2.9299 5.1764 36.4689
#
#
#
# Elastic Compliance Matrix: (Units=1/GPa)
#
#
# Indices 1 2 3 4 5 6 
#
# 1 0.015470 -0.002728 -0.003044 -0.000189 -0.004538 -0.004121
# 2 -0.002728 0.013069 -0.000588 0.002028 -0.002905 -0.003538
# 3 -0.003044 -0.000588 0.011291 0.002150 -0.005713 0.000558
# 4 -0.000189 0.002028 0.002150 0.028018 -0.005559 -0.002448
# 5 -0.004538 -0.002905 -0.005713 -0.005559 0.037880 -0.001225
# 6 -0.004121 -0.003538 0.000558 -0.002448 -0.001225 0.030719
#
#
# Mechanical properties :
#
#
# Convention : Reuss Voigt Hill
#
# Bulk Modulus (GPa) = 36.89078 48.94094 42.91586
# Shear Modulus (GPa) = 31.60439 35.31429 33.45934
#
# Velocity S-wave (km/s) = 3.80382 4.02089 3.91386
# Velocity P-wave (km/s) = 6.01510 6.63044 6.33025
#
# Compressibility (1/GPa) = 0.02710705
#
# Stress axis : x y z
#
# Youngs Moduli (GPa) = 64.64250 76.51738 88.56392
#
# Poissons Ratio (x) = 0.20878 0.26963
# Poissons Ratio (y) = 0.17638 0.05212
# Poissons Ratio (z) = 0.19680 0.04503
#
# Static dielectric constant tensor:
#      x y z
#    x 3.927790 0.206890 -0.043180 
#    y 0.206890 4.198250 -0.136300 
#    z -0.043180 -0.136300 4.274840 
# 
# 
# High freq. dielectric constant tensor:
#      x y z
#    x 1.853400 0.011870 -0.003300 
#    y 0.011870 1.873780 0.001500 
#    z -0.003300 0.001500 1.867600 
# 
# From -- ./inp_files/280195.got.cif
#   From: 2010.06.25/outbox.cif.g09.slc.cpg/sg2_141_cif.got.tgz:280195.got - 2010.06.27 13:26:56.
