data_PCOD8023501
_publ_section_title
;
Structure prediction by ZEFSAII (Michael W. Deem and Ramdas Pophale) SiO2 
 PCOD8023501
Probable space group: P -1
;
_chemical_formula_sum "Si O2"
_cell_formula_units_Z 16
_cell_length_a 12.681956
_cell_length_b 9.829972
_cell_length_c 7.982129
_cell_angle_alpha 102.856562
_cell_angle_beta 99.653580
_cell_angle_gamma 46.002967
_cell_volume 697.767058
_symmetry_space_group_name_H-M "P -1"
_symmetry_group_IT_number 2
_symmetry_cell_setting 'triclinic'
loop_
_space_group_symop_operation_xyz
x,y,z
-x,-y,-z
loop_
_atom_site_type_symbol
_atom_site_label
_atom_site_fract_x
_atom_site_fract_y
_atom_site_fract_z
Si Si1 0.267520 0.414920 0.913375
Si Si2 0.495888 0.360103 0.753714
Si Si3 0.051473 0.819156 0.868659
Si Si4 0.276687 0.787201 0.751070
Si Si5 0.747191 0.018636 0.882974
Si Si6 0.620312 0.088475 0.427573
Si Si7 0.349325 0.204048 0.225154
Si Si8 0.825369 0.661222 0.467233
O O1 0.417963 0.354045 0.887130
O O2 0.206919 0.380783 0.730513
O O3 0.286004 0.315485 0.063162
O O4 0.147751 0.642340 0.973901
O O5 0.432220 0.570574 0.762419
O O6 0.665294 0.218048 0.817737
O O7 0.494647 0.259063 0.565210
O O8 0.907098 0.858132 0.793349
O O9 0.149527 0.780391 0.722330
O O10 0.000000 0.000000 0.000000
O O11 0.290797 0.856010 0.600178
O O12 0.238705 0.944412 0.912687
O O13 0.655704 0.958372 0.831108
O O14 0.521456 0.092436 0.265324
O O15 0.744199 0.884954 0.496054
O O16 0.248665 0.347685 0.392874
O O17 0.000000 0.500000 0.500000
#
# Coordination Sequence:
#
# PCOD8023501 Si02
#       8
#     2   2   2   2   2   2   2   2
#     4  11  24  43  70 101 136 184 230 278 348 405
#     4  11  22  42  67  98 140 178 229 289 334 406
#     4   9  22  43  67  94 139 179 231 282 332 413
#     4  10  23  41  68  97 134 184 232 277 340 413
#     4  11  21  40  67  97 136 180 226 282 348 398
#     4  12  24  45  67 103 141 178 230 288 346 401
#     4  12  25  44  73 105 139 181 228 287 343 413
#     4  12  26  44  67 101 144 178 226 287 340 414
#
# _framework density 22.930288000000001
#
# number of rings (size 3 to 8) (size 9 to 14) (size 15 to 20)
#    0.000    1.000    2.500    4.125    0.000    7.500 
#    0.000    0.625    0.000    0.000    0.000    0.000 
#    0.000    0.000    0.000    0.000    0.000    0.000 
#
# Total GULP energy -198226.801684 kJ/mol
# GULP energy per Si atom -12389.175105 kJ/mol
# Density = 2.287810 g / cm^3
# Si number density = 22.930288 Si / 1000 Ang^3
#
#
#
# Elastic Constant Matrix: (Units=GPa)
#
#
# Indices 1 2 3 4 5 6 
#
# 1 92.1720 62.4223 31.1146 -18.0855 -13.4717 -8.2070
# 2 62.4223 141.1895 49.0416 -9.5030 -19.8381 -10.5996
# 3 31.1146 49.0416 114.8978 -17.9465 -17.1113 0.1579
# 4 -18.0855 -9.5030 -17.9465 37.4492 3.7029 1.0443
# 5 -13.4717 -19.8381 -17.1113 3.7029 29.6573 -3.3290
# 6 -8.2070 -10.5996 0.1579 1.0443 -3.3290 37.8163
#
#
#
# Elastic Compliance Matrix: (Units=1/GPa)
#
#
# Indices 1 2 3 4 5 6 
#
# 1 0.017170 -0.006476 -0.000551 0.006071 0.002614 0.001976
# 2 -0.006476 0.011495 -0.002945 -0.002034 0.003549 0.002198
# 3 -0.000551 -0.002945 0.011296 0.004055 0.003703 -0.000778
# 4 0.006071 -0.002034 0.004055 0.031082 -0.000160 -0.000142
# 5 0.002614 0.003549 0.003703 -0.000160 0.040006 0.005073
# 6 0.001976 0.002198 -0.000778 -0.000142 0.005073 0.027942
#
#
# Mechanical properties :
#
#
# Convention : Reuss Voigt Hill
#
# Bulk Modulus (GPa) = 49.95522 70.37958 60.16740
# Shear Modulus (GPa) = 30.19204 34.69661 32.44432
#
# Velocity S-wave (km/s) = 3.63256 3.89412 3.76561
# Velocity P-wave (km/s) = 6.27909 7.13992 6.72329
#
# Compressibility (1/GPa) = 0.02001793
#
# Stress axis : x y z
#
# Youngs Moduli (GPa) = 58.24127 86.99141 88.53002
#
# Poissons Ratio (x) = 0.56332 0.04877
# Poissons Ratio (y) = 0.37714 0.26073
# Poissons Ratio (z) = 0.03208 0.25620
#
# Static dielectric constant tensor:
#      x y z
#    x 4.639840 -0.351670 -0.079870 
#    y -0.351670 4.447210 0.107470 
#    z -0.079870 0.107470 4.102990 
# 
# 
# High freq. dielectric constant tensor:
#      x y z
#    x 1.902920 -0.007910 -0.004120 
#    y -0.007910 1.919470 0.010810 
#    z -0.004120 0.010810 1.896160 
# 
# From -- ./inp_files/244636.got.cif
#   From: 2010.06.25/outbox.cif.g09.slc.cpg/sg2_123_cif.got.tgz:244636.got - 2010.06.27 13:26:56.
