data_PCOD8023061
_publ_section_title
;
Structure prediction by ZEFSAII (Michael W. Deem and Ramdas Pophale) SiO2 
 PCOD8023061
Probable space group: P -1
;
_chemical_formula_sum "Si O2"
_cell_formula_units_Z 14
_cell_length_a 14.440228
_cell_length_b 11.965702
_cell_length_c 11.832335
_cell_angle_alpha 35.481951
_cell_angle_beta 46.806317
_cell_angle_gamma 31.319749
_cell_volume 616.445366
_symmetry_space_group_name_H-M "P -1"
_symmetry_group_IT_number 2
_symmetry_cell_setting 'triclinic'
loop_
_space_group_symop_operation_xyz
x,y,z
-x,-y,-z
loop_
_atom_site_type_symbol
_atom_site_label
_atom_site_fract_x
_atom_site_fract_y
_atom_site_fract_z
Si Si1 0.151944 0.114124 0.647751
Si Si2 0.641253 0.293961 0.714533
Si Si3 0.568965 0.950635 0.674436
Si Si4 0.580215 0.487698 0.060214
Si Si5 0.857697 0.707557 0.038972
Si Si6 0.567158 0.714197 0.286912
Si Si7 0.844892 0.627086 0.366014
O O1 0.297896 0.105031 0.481892
O O2 0.120156 0.219096 0.715628
O O3 0.963926 0.323416 0.565416
O O4 0.227890 0.817036 0.827909
O O5 0.555037 0.430885 0.795071
O O6 0.688339 0.441511 0.488527
O O7 0.497446 0.329654 0.731827
O O8 0.817729 0.977782 0.841508
O O9 0.593115 0.034591 0.705811
O O10 0.363878 0.202026 0.600418
O O11 0.611147 0.681580 0.874586
O O12 0.500000 0.500000 0.000000
O O13 0.680388 0.776135 0.100497
O O14 0.921366 0.592258 0.206867
O O15 0.000000 0.500000 0.000000
#
# Coordination Sequence:
#
# PCOD8023061 Si02
#       7
#     2   2   2   2   2   2   2
#     4  11  23  42  67  94 136 170 213 273 324 392
#     4  11  22  41  66  94 130 167 225 271 313 405
#     4  11  22  42  70  95 130 178 209 270 337 379
#     4  12  23  38  68 101 126 171 222 263 330 392
#     4  11  24  40  64  91 136 171 212 279 326 381
#     4  10  23  40  66  95 123 172 222 263 329 385
#     4  10  23  42  63  99 131 168 222 264 325 392
#
# _framework density 22.710853
#
# number of rings (size 3 to 8) (size 9 to 14) (size 15 to 20)
#    0.000    1.143    5.714    0.857    2.000    0.571 
#    0.000    8.571    0.000    0.000    0.000    0.000 
#    0.000    0.000    0.000    0.000    0.000    0.000 
#
# Total GULP energy -173598.234101 kJ/mol
# GULP energy per Si atom -12399.873864 kJ/mol
# Density = 2.265916 g / cm^3
# Si number density = 22.710853 Si / 1000 Ang^3
#
#
#
# Elastic Constant Matrix: (Units=GPa)
#
#
# Indices 1 2 3 4 5 6 
#
# 1 43.8228 27.6845 17.7497 -0.4494 14.1680 17.1383
# 2 27.6845 133.0549 40.8612 -18.2386 15.6913 15.7444
# 3 17.7497 40.8612 94.2510 -21.9175 -1.5733 1.8962
# 4 -0.4494 -18.2386 -21.9175 55.6805 7.9494 6.2210
# 5 14.1680 15.6913 -1.5733 7.9494 35.1137 1.3880
# 6 17.1383 15.7444 1.8962 6.2210 1.3880 37.9440
#
#
#
# Elastic Compliance Matrix: (Units=1/GPa)
#
#
# Indices 1 2 3 4 5 6 
#
# 1 0.036954 -0.002445 -0.005610 0.000924 -0.013684 -0.015047
# 2 -0.002445 0.010383 -0.003332 0.003071 -0.004364 -0.003381
# 3 -0.005610 -0.003332 0.013951 0.003580 0.003468 0.002505
# 4 0.000924 0.003071 0.003580 0.021869 -0.006329 -0.005224
# 5 -0.013684 -0.004364 0.003468 -0.006329 0.037242 0.007493
# 6 -0.015047 -0.003381 0.002505 -0.005224 0.007493 0.035011
#
#
# Mechanical properties :
#
#
# Convention : Reuss Voigt Hill
#
# Bulk Modulus (GPa) = 25.96449 49.30218 37.63333
# Shear Modulus (GPa) = 26.17474 38.06987 32.12230
#
# Velocity S-wave (km/s) = 3.39856 4.09869 3.76494
# Velocity P-wave (km/s) = 5.18245 6.64490 5.95871
#
# Compressibility (1/GPa) = 0.03851414
#
# Stress axis : x y z
#
# Youngs Moduli (GPa) = 27.06050 96.30762 71.68006
#
# Poissons Ratio (x) = 0.23550 0.40213
# Poissons Ratio (y) = 0.06617 0.23882
# Poissons Ratio (z) = 0.15181 0.32088
#
# Static dielectric constant tensor:
#      x y z
#    x 4.038370 0.364310 0.200300 
#    y 0.364310 4.263130 -0.240080 
#    z 0.200300 -0.240080 4.400480 
# 
# 
# High freq. dielectric constant tensor:
#      x y z
#    x 1.886890 0.032070 0.015350 
#    y 0.032070 1.893260 -0.013390 
#    z 0.015350 -0.013390 1.907640 
# 
# From -- ./inp_files/427076.got.cif
#   From: 2010.06.25/outbox.cif.g09.slc.cpg/sg2_214_cif.got.tgz:427076.got - 2010.06.27 13:26:56.
