data_PCOD8023516
_publ_section_title
;
Structure prediction by ZEFSAII (Michael W. Deem and Ramdas Pophale) SiO2 
 PCOD8023516
Probable space group: P -1
;
_chemical_formula_sum "Si O2"
_cell_formula_units_Z 14
_cell_length_a 28.616662
_cell_length_b 14.981574
_cell_length_c 11.308538
_cell_angle_alpha 146.062841
_cell_angle_beta 22.588878
_cell_angle_gamma 159.072806
_cell_volume 645.967609
_symmetry_space_group_name_H-M "P -1"
_symmetry_group_IT_number 2
_symmetry_cell_setting 'triclinic'
loop_
_space_group_symop_operation_xyz
x,y,z
-x,-y,-z
loop_
_atom_site_type_symbol
_atom_site_label
_atom_site_fract_x
_atom_site_fract_y
_atom_site_fract_z
Si Si1 0.032048 0.527421 0.316717
Si Si2 0.324840 0.235939 0.186517
Si Si3 0.006356 0.179456 0.876292
Si Si4 0.729909 0.758394 0.238447
Si Si5 0.969202 0.279093 0.813945
Si Si6 0.656624 0.896850 0.764084
Si Si7 0.760573 0.466057 0.750865
O O1 0.836811 0.381732 0.541132
O O2 0.000000 0.500000 0.500000
O O3 0.094291 0.417062 0.006656
O O4 0.209121 0.824277 0.192874
O O5 0.413744 0.277441 0.150884
O O6 0.150199 0.179485 0.553177
O O7 0.241480 0.992015 0.045405
O O8 0.500000 0.500000 0.000000
O O9 0.985868 0.203911 0.815112
O O10 0.796976 0.919330 0.139010
O O11 0.500000 0.500000 0.500000
O O12 0.789695 0.922319 0.394270
O O13 0.819021 0.671031 0.929010
O O14 0.139486 0.396020 0.457154
O O15 0.000000 0.500000 0.000000
O O16 0.472451 0.782445 0.998706
#
# Coordination Sequence:
#
# PCOD8023516 Si02
#       7
#     2   2   2   2   2   2   2
#     4  12  25  44  68 104 141 182 228 282 352 417
#     4  12  27  44  72 106 136 182 240 292 343 417
#     4  12  24  44  71 101 138 183 229 288 347 412
#     4  10  23  41  69 101 132 179 233 281 346 409
#     4  12  24  45  71  97 143 185 228 283 353 408
#     4  11  24  46  70 101 141 178 234 287 348 413
#     4  11  24  46  69  98 142 184 224 290 348 412
#
# _framework density 21.672913999999999
#
# number of rings (size 3 to 8) (size 9 to 14) (size 15 to 20)
#    0.000    0.571    5.714    1.286    6.000    2.857 
#    0.000    2.857    0.000    0.000    0.000    0.000 
#    0.000    0.000    0.000    0.000    0.000    0.000 
#
# Total GULP energy -173562.825389 kJ/mol
# GULP energy per Si atom -12397.344671 kJ/mol
# Density = 2.162359 g / cm^3
# Si number density = 21.672914 Si / 1000 Ang^3
#
#
#
# Elastic Constant Matrix: (Units=GPa)
#
#
# Indices 1 2 3 4 5 6 
#
# 1 132.5250 31.2477 34.6433 -11.6502 3.1575 -10.0886
# 2 31.2477 128.3920 60.6370 9.3955 3.2608 -1.5211
# 3 34.6433 60.6370 92.4451 -0.7196 11.5544 4.2416
# 4 -11.6502 9.3955 -0.7196 34.2257 -3.7109 12.0025
# 5 3.1575 3.2608 11.5544 -3.7109 39.1023 -3.7917
# 6 -10.0886 -1.5211 4.2416 12.0025 -3.7917 38.3560
#
#
#
# Elastic Compliance Matrix: (Units=1/GPa)
#
#
# Indices 1 2 3 4 5 6 
#
# 1 0.008878 -0.001032 -0.002791 0.002673 0.000625 0.001828
# 2 -0.001032 0.012087 -0.007850 -0.004631 0.001212 0.002645
# 3 -0.002791 -0.007850 0.017797 0.002584 -0.004548 -0.004272
# 4 0.002673 -0.004631 0.002584 0.035382 0.001730 -0.010667
# 5 0.000625 0.001212 -0.004548 0.001730 0.027208 0.002864
# 6 0.001828 0.002645 -0.004272 -0.010667 0.002864 0.030751
#
#
# Mechanical properties :
#
#
# Convention : Reuss Voigt Hill
#
# Bulk Modulus (GPa) = 64.87327 67.37980 66.12653
# Shear Modulus (GPa) = 31.13583 37.45906 34.29744
#
# Velocity S-wave (km/s) = 3.79439 4.16189 3.98238
# Velocity P-wave (km/s) = 7.01387 7.36560 7.19189
#
# Compressibility (1/GPa) = 0.01541467
#
# Stress axis : x y z
#
# Youngs Moduli (GPa) = 112.63720 82.73562 56.19056
#
# Poissons Ratio (x) = 0.08542 0.15683
# Poissons Ratio (y) = 0.11629 0.44109
# Poissons Ratio (z) = 0.31437 0.64947
#
# Static dielectric constant tensor:
#      x y z
#    x 4.027010 0.029690 0.383470 
#    y 0.029690 4.254090 0.310230 
#    z 0.383470 0.310230 4.197880 
# 
# 
# High freq. dielectric constant tensor:
#      x y z
#    x 1.855040 -0.005250 0.020870 
#    y -0.005250 1.864430 0.010030 
#    z 0.020870 0.010030 1.849610 
# 
# From -- ./inp_files/428368.got.cif
#   From: 2010.06.25/outbox.cif.g09.slc.cpg/sg2_215_cif.got.tgz:428368.got - 2010.06.27 13:26:56.
