data_PCOD8023938
_publ_section_title
;
Structure prediction by ZEFSAII (Michael W. Deem and Ramdas Pophale) SiO2 
 PCOD8023938
Probable space group: P -1
;
_chemical_formula_sum "Si O2"
_cell_formula_units_Z 16
_cell_length_a 13.374230
_cell_length_b 11.121525
_cell_length_c 13.717907
_cell_angle_alpha 135.929465
_cell_angle_beta 138.550881
_cell_angle_gamma 32.175061
_cell_volume 698.496374
_symmetry_space_group_name_H-M "P -1"
_symmetry_group_IT_number 2
_symmetry_cell_setting 'triclinic'
loop_
_space_group_symop_operation_xyz
x,y,z
-x,-y,-z
loop_
_atom_site_type_symbol
_atom_site_label
_atom_site_fract_x
_atom_site_fract_y
_atom_site_fract_z
Si Si1 0.201126 0.414638 0.976892
Si Si2 0.315808 0.046514 0.702509
Si Si3 0.002399 0.494912 0.613118
Si Si4 0.275150 0.714510 0.116358
Si Si5 0.228482 0.387972 0.209257
Si Si6 0.318479 0.523072 0.641936
Si Si7 0.109319 0.785383 0.840177
Si Si8 0.292784 0.684081 0.512701
O O1 0.300647 0.164310 0.860624
O O2 0.954876 0.600984 0.889768
O O3 0.302614 0.495945 0.042121
O O4 0.254693 0.387355 0.112802
O O5 0.196063 0.238045 0.641730
O O6 0.552973 0.844653 0.726194
O O7 0.207894 0.940019 0.574244
O O8 0.020681 0.679688 0.766760
O O9 0.000000 0.500000 0.500000
O O10 0.790615 0.566698 0.532683
O O11 0.456990 0.691261 0.279557
O O12 0.274350 0.730526 0.006843
O O13 0.068949 0.941627 0.144733
O O14 0.156603 0.628032 0.342533
O O15 0.198352 0.694550 0.745365
O O16 0.326770 0.653562 0.636250
O O17 0.500000 0.500000 0.500000
#
# Coordination Sequence:
#
# PCOD8023938 Si02
#       8
#     2   2   2   2   2   2   2   2
#     4  11  23  41  67 100 137 173 229 278 340 418
#     4  11  22  44  68  94 139 176 223 285 337 405
#     4  10  23  43  66 100 133 177 234 274 332 415
#     4  11  23  43  68  97 139 175 229 289 335 407
#     4  10  24  41  65 102 135 179 222 279 347 402
#     4  11  24  43  71  97 135 181 223 285 351 400
#     4  10  24  45  65 100 136 179 233 281 337 409
#     4  10  23  42  68 101 133 175 230 276 343 412
#
# _framework density 22.906345999999999
#
# number of rings (size 3 to 8) (size 9 to 14) (size 15 to 20)
#    0.000    1.500    1.250    3.000    0.000   11.500 
#    9.000    0.000    0.000    0.000    0.000    0.000 
#    0.000    0.000    0.000    0.000    0.000    0.000 
#
# Total GULP energy -198342.753065 kJ/mol
# GULP energy per Si atom -12396.422067 kJ/mol
# Density = 2.285421 g / cm^3
# Si number density = 22.906346 Si / 1000 Ang^3
#
#
#
# Elastic Constant Matrix: (Units=GPa)
#
#
# Indices 1 2 3 4 5 6 
#
# 1 87.5393 23.7149 26.1649 3.6538 -8.8626 2.5950
# 2 23.7149 91.1804 60.0590 5.2422 4.8354 9.0383
# 3 26.1649 60.0590 91.4337 -8.9857 -3.7121 8.7963
# 4 3.6538 5.2422 -8.9857 38.8778 -6.7204 5.1073
# 5 -8.8626 4.8354 -3.7121 -6.7204 36.9792 -1.1954
# 6 2.5950 9.0383 8.7963 5.1073 -1.1954 27.4049
#
#
#
# Elastic Compliance Matrix: (Units=1/GPa)
#
#
# Indices 1 2 3 4 5 6 
#
# 1 0.013014 -0.001842 -0.002559 -0.001133 0.002914 0.000535
# 2 -0.001842 0.022039 -0.014772 -0.007104 -0.006139 -0.001297
# 3 -0.002559 -0.014772 0.022799 0.008861 0.005100 -0.003633
# 4 -0.001133 -0.007104 0.008861 0.030802 0.006956 -0.005831
# 5 0.002914 -0.006139 0.005100 0.006956 0.030324 0.000138
# 6 0.000535 -0.001297 -0.003633 -0.005831 0.000138 0.039126
#
#
# Mechanical properties :
#
#
# Convention : Reuss Voigt Hill
#
# Bulk Modulus (GPa) = 51.26313 54.44789 52.85551
# Shear Modulus (GPa) = 24.63648 31.33334 27.98491
#
# Velocity S-wave (km/s) = 3.28309 3.70251 3.49909
# Velocity P-wave (km/s) = 6.06626 6.48841 6.28089
#
# Compressibility (1/GPa) = 0.01950720
#
# Stress axis : x y z
#
# Youngs Moduli (GPa) = 76.84253 45.37446 43.86062
#
# Poissons Ratio (x) = 0.08357 0.11222
# Poissons Ratio (y) = 0.14153 0.64791
# Poissons Ratio (z) = 0.19661 0.67027
#
# Static dielectric constant tensor:
#      x y z
#    x 4.341280 0.061950 0.446370 
#    y 0.061950 3.940690 0.050910 
#    z 0.446370 0.050910 5.207840 
# 
# 
# High freq. dielectric constant tensor:
#      x y z
#    x 1.904820 0.001590 -0.003920 
#    y 0.001590 1.889170 -0.009000 
#    z -0.003920 -0.009000 1.924540 
# 
# From -- ./inp_files/532072.got.cif
#   From: 2010.06.25/outbox.cif.g09.slc.cpg/sg2_267_cif.got.tgz:532072.got - 2010.06.27 13:26:56.
