data_PCOD8023092
_publ_section_title
;
Structure prediction by ZEFSAII (Michael W. Deem and Ramdas Pophale) SiO2 
 PCOD8023092
Probable space group: P -1
;
_chemical_formula_sum "Si O2"
_cell_formula_units_Z 16
_cell_length_a 12.386361
_cell_length_b 5.339685
_cell_length_c 12.613566
_cell_angle_alpha 72.161271
_cell_angle_beta 62.673678
_cell_angle_gamma 79.007650
_cell_volume 704.285325
_symmetry_space_group_name_H-M "P -1"
_symmetry_group_IT_number 2
_symmetry_cell_setting 'triclinic'
loop_
_space_group_symop_operation_xyz
x,y,z
-x,-y,-z
loop_
_atom_site_type_symbol
_atom_site_label
_atom_site_fract_x
_atom_site_fract_y
_atom_site_fract_z
Si Si1 0.771379 0.064535 0.344588
Si Si2 0.405993 0.025194 0.747059
Si Si3 0.605719 0.350387 0.537031
Si Si4 0.031193 0.040610 0.196920
Si Si5 0.268241 0.153409 0.989164
Si Si6 0.384626 0.617553 0.975783
Si Si7 0.186139 0.423492 0.472429
Si Si8 0.951151 0.567167 0.673295
O O1 0.709340 0.301744 0.408195
O O2 0.891977 0.141683 0.215460
O O3 0.669877 0.953282 0.329516
O O4 0.823831 0.860026 0.434438
O O5 0.543288 0.104981 0.651704
O O6 0.329512 0.217642 0.839732
O O7 0.418687 0.730702 0.828912
O O8 0.500000 0.500000 0.500000
O O9 0.675169 0.494117 0.581094
O O10 0.069117 0.192657 0.266553
O O11 0.045706 0.723616 0.238722
O O12 0.122034 0.133737 0.051507
O O13 0.295843 0.380494 0.031023
O O14 0.322731 0.861240 0.040510
O O15 0.500000 0.500000 0.000000
O O16 0.163003 0.406329 0.359568
O O17 0.078444 0.613316 0.548733
#
# Coordination Sequence:
#
# PCOD8023092 Si02
#       8
#     2   2   2   2   2   2   2   2
#     4  11  24  43  65  99 135 183 223 286 344 404
#     4  10  26  41  67  99 138 180 229 278 337 410
#     4  12  24  42  67 100 141 181 233 279 344 414
#     4  11  23  45  70  99 139 173 230 286 341 405
#     4  10  24  45  68 101 129 178 226 284 334 411
#     4  10  23  46  69  96 137 177 231 279 339 401
#     4  10  23  40  67  98 137 180 225 279 349 406
#     4  10  23  42  69 102 138 176 225 284 344 411
#
# _framework density 22.718067000000001
#
# number of rings (size 3 to 8) (size 9 to 14) (size 15 to 20)
#    0.750    0.750    2.500    1.500    3.500    3.000 
#    4.500    0.625    0.000    0.000    0.000    0.000 
#    0.000    0.000    0.000    0.000    0.000    0.000 
#
# Total GULP energy -198235.135836 kJ/mol
# GULP energy per Si atom -12389.695990 kJ/mol
# Density = 2.266636 g / cm^3
# Si number density = 22.718067 Si / 1000 Ang^3
#
#
#
# Elastic Constant Matrix: (Units=GPa)
#
#
# Indices 1 2 3 4 5 6 
#
# 1 125.0115 19.8792 19.8440 -9.6126 -15.7980 10.2595
# 2 19.8792 104.4118 7.4567 -3.3627 -8.4393 9.7739
# 3 19.8440 7.4567 54.0255 -6.9203 -22.0149 0.7701
# 4 -9.6126 -3.3627 -6.9203 22.7707 5.8498 -3.4070
# 5 -15.7980 -8.4393 -22.0149 5.8498 39.5992 -3.6002
# 6 10.2595 9.7739 0.7701 -3.4070 -3.6002 39.1303
#
#
#
# Elastic Compliance Matrix: (Units=1/GPa)
#
#
# Indices 1 2 3 4 5 6 
#
# 1 0.009060 -0.001205 -0.002165 0.002311 0.001660 -0.001678
# 2 -0.001205 0.010137 -0.000392 0.000241 0.001238 -0.002074
# 3 -0.002165 -0.000392 0.024897 0.003627 0.012508 0.001642
# 4 0.002311 0.000241 0.003627 0.047447 -0.003742 0.003049
# 5 0.001660 0.001238 0.012508 -0.003742 0.033849 0.001798
# 6 -0.001678 -0.002074 0.001642 0.003049 0.001798 0.026912
#
#
# Mechanical properties :
#
#
# Convention : Reuss Voigt Hill
#
# Bulk Modulus (GPa) = 27.34440 41.97873 34.66157
# Shear Modulus (GPa) = 29.06726 36.05127 32.55927
#
# Velocity S-wave (km/s) = 3.58086 3.98791 3.78985
# Velocity P-wave (km/s) = 5.39993 6.30260 5.86865
#
# Compressibility (1/GPa) = 0.03657056
#
# Stress axis : x y z
#
# Youngs Moduli (GPa) = 110.37907 98.65145 40.16541
#
# Poissons Ratio (x) = 0.11884 0.08696
# Poissons Ratio (y) = 0.13296 0.01574
# Poissons Ratio (z) = 0.23898 0.03865
#
# Static dielectric constant tensor:
#      x y z
#    x 5.217110 0.223330 -1.125230 
#    y 0.223330 4.080690 -0.054150 
#    z -1.125230 -0.054150 4.694150 
# 
# 
# High freq. dielectric constant tensor:
#      x y z
#    x 1.898120 0.007740 -0.020740 
#    y 0.007740 1.893470 0.000620 
#    z -0.020740 0.000620 1.879600 
# 
# From -- ./inp_files/410222.got.cif
#   From: 2010.06.25/outbox.cif.g09.slc.cpg/sg2_206_cif.got.tgz:410222.got - 2010.06.27 13:26:56.
