data_PCOD8023200
_publ_section_title
;
Structure prediction by ZEFSAII (Michael W. Deem and Ramdas Pophale) SiO2 
 PCOD8023200
Probable space group: P -1
;
_chemical_formula_sum "Si O2"
_cell_formula_units_Z 16
_cell_length_a 11.962638
_cell_length_b 8.438714
_cell_length_c 11.608929
_cell_angle_alpha 59.856725
_cell_angle_beta 124.952767
_cell_angle_gamma 95.055553
_cell_volume 797.033389
_symmetry_space_group_name_H-M "P -1"
_symmetry_group_IT_number 2
_symmetry_cell_setting 'triclinic'
loop_
_space_group_symop_operation_xyz
x,y,z
-x,-y,-z
loop_
_atom_site_type_symbol
_atom_site_label
_atom_site_fract_x
_atom_site_fract_y
_atom_site_fract_z
Si Si1 0.401010 0.370156 0.016658
Si Si2 0.737497 0.390921 0.958397
Si Si3 0.294102 0.231553 0.321027
Si Si4 0.021730 0.174908 0.298984
Si Si5 0.518326 0.162779 0.862754
Si Si6 0.025779 0.753481 0.493440
Si Si7 0.449851 0.006278 0.294919
Si Si8 0.764384 0.635320 0.301427
O O1 0.271686 0.490299 0.973181
O O2 0.499730 0.187234 0.211226
O O3 0.500000 0.500000 0.000000
O O4 0.327092 0.296779 0.892962
O O5 0.715170 0.545584 0.786101
O O6 0.618590 0.278803 0.934244
O O7 0.893733 0.243649 0.106773
O O8 0.152977 0.230969 0.303109
O O9 0.315606 0.097995 0.267063
O O10 0.428356 0.147573 0.511847
O O11 0.985877 0.274744 0.366168
O O12 0.062100 0.948076 0.417297
O O13 0.358796 0.307718 0.693885
O O14 0.590753 0.091009 0.808439
O O15 0.500000 0.000000 0.000000
O O16 0.155073 0.589245 0.574259
O O17 0.877894 0.754066 0.344705
#
# Coordination Sequence:
#
# PCOD8023200 Si02
#       8
#     2   2   2   2   2   2   2   2
#     4  11  20  36  64  91 125 160 196 258 315 364
#     4  11  23  38  61  91 122 164 209 247 307 374
#     4  10  24  42  62  85 125 172 206 251 295 379
#     4  11  22  42  64  87 124 164 213 250 317 361
#     4  12  22  38  66  96 124 156 202 266 312 362
#     4  10  24  37  64  94 124 160 203 268 306 374
#     4  10  23  41  62  90 123 160 215 248 303 370
#     4  11  21  38  57  98 128 152 194 255 325 356
#
# _framework density 20.074441
#
# number of rings (size 3 to 8) (size 9 to 14) (size 15 to 20)
#    0.000    1.250    3.750    1.875    1.750    2.500 
#    0.000    3.125    0.000    0.000    0.000    0.000 
#    0.000    0.000    0.000    0.000    0.000    0.000 
#
# Total GULP energy -198277.531360 kJ/mol
# GULP energy per Si atom -12392.345710 kJ/mol
# Density = 2.002875 g / cm^3
# Si number density = 20.074441 Si / 1000 Ang^3
#
#
#
# Elastic Constant Matrix: (Units=GPa)
#
#
# Indices 1 2 3 4 5 6 
#
# 1 79.4805 35.9526 37.8662 -16.2489 1.3209 11.1212
# 2 35.9526 90.7741 34.0899 -3.1841 -6.0453 4.5327
# 3 37.8662 34.0899 102.5351 -12.7583 -2.2999 10.6110
# 4 -16.2489 -3.1841 -12.7583 32.0330 -2.7015 -2.1856
# 5 1.3209 -6.0453 -2.2999 -2.7015 32.9110 0.6280
# 6 11.1212 4.5327 10.6110 -2.1856 0.6280 37.6625
#
#
#
# Elastic Compliance Matrix: (Units=1/GPa)
#
#
# Indices 1 2 3 4 5 6 
#
# 1 0.018994 -0.005734 -0.003900 0.007160 -0.001436 -0.003380
# 2 -0.005734 0.014463 -0.003000 -0.002416 0.002467 0.000616
# 3 -0.003900 -0.003000 0.012747 0.002733 0.000758 -0.001933
# 4 0.007160 -0.002416 0.002733 0.035864 0.002414 -0.000552
# 5 -0.001436 0.002467 0.000758 0.002414 0.031156 -0.000466
# 6 -0.003380 0.000616 -0.001933 -0.000552 -0.000466 0.027996
#
#
# Mechanical properties :
#
#
# Convention : Reuss Voigt Hill
#
# Bulk Modulus (GPa) = 47.76227 54.28969 51.02598
# Shear Modulus (GPa) = 28.82414 31.51337 30.16875
#
# Velocity S-wave (km/s) = 3.79339 3.96640 3.88086
# Velocity P-wave (km/s) = 6.55977 6.93393 6.74944
#
# Compressibility (1/GPa) = 0.02093703
#
# Stress axis : x y z
#
# Youngs Moduli (GPa) = 52.64833 69.14281 78.44797
#
# Poissons Ratio (x) = 0.39647 0.30591
# Poissons Ratio (y) = 0.30189 0.23534
# Poissons Ratio (z) = 0.20530 0.20742
#
# Static dielectric constant tensor:
#      x y z
#    x 3.754160 -0.322500 0.008990 
#    y -0.322500 3.765180 -0.094650 
#    z 0.008990 -0.094650 3.817090 
# 
# 
# High freq. dielectric constant tensor:
#      x y z
#    x 1.775160 -0.018400 0.003640 
#    y -0.018400 1.789930 -0.011730 
#    z 0.003640 -0.011730 1.785420 
# 
# From -- ./inp_files/259127.got.cif
#   From: 2010.06.25/outbox.cif.g09.slc.cpg/sg2_130_cif.got.tgz:259127.got - 2010.06.27 13:26:56.
