data_PCOD8023216
_publ_section_title
;
Structure prediction by ZEFSAII (Michael W. Deem and Ramdas Pophale) SiO2 
 PCOD8023216
Probable space group: P -1
;
_chemical_formula_sum "Si O2"
_cell_formula_units_Z 14
_cell_length_a 12.810390
_cell_length_b 8.824904
_cell_length_c 10.545465
_cell_angle_alpha 123.941928
_cell_angle_beta 131.793181
_cell_angle_gamma 53.441562
_cell_volume 687.536818
_symmetry_space_group_name_H-M "P -1"
_symmetry_group_IT_number 2
_symmetry_cell_setting 'triclinic'
loop_
_space_group_symop_operation_xyz
x,y,z
-x,-y,-z
loop_
_atom_site_type_symbol
_atom_site_label
_atom_site_fract_x
_atom_site_fract_y
_atom_site_fract_z
Si Si1 0.805216 0.315715 0.468545
Si Si2 0.683888 0.982110 0.272820
Si Si3 0.956363 0.204503 0.129446
Si Si4 0.647423 0.927852 0.938775
Si Si5 0.655287 0.346712 0.101268
Si Si6 0.067078 0.275905 0.496513
Si Si7 0.105549 0.403500 0.157764
O O1 0.703371 0.413181 0.307176
O O2 0.802139 0.469892 0.648798
O O3 0.975944 0.230114 0.517798
O O4 0.761630 0.143789 0.414300
O O5 0.761014 0.806952 0.354866
O O6 0.511339 0.095978 0.225206
O O7 0.699566 0.871875 0.099432
O O8 0.782546 0.310502 0.079234
O O9 0.058392 0.144702 0.309337
O O10 0.998639 0.362770 0.156786
O O11 0.000000 0.000000 0.000000
O O12 0.769232 0.798093 0.879037
O O13 0.624812 0.150812 0.006196
O O14 0.500000 0.500000 0.000000
O O15 0.000000 0.500000 0.500000
O O16 0.000000 0.500000 0.000000
#
# Coordination Sequence:
#
# PCOD8023216 Si02
#       7
#     2   2   2   2   2   2   2
#     4  10  23  41  62  97 126 168 222 255 325 393
#     4  10  23  42  65  89 132 170 216 266 317 390
#     4  11  24  42  62  95 129 164 220 265 320 376
#     4  10  23  42  65  95 127 174 218 259 329 386
#     4  10  23  42  70  94 132 172 215 267 324 387
#     4  11  22  39  66  93 124 169 217 263 317 382
#     4  12  25  41  66  94 132 168 214 274 324 385
#
# _framework density 20.362545999999998
#
# number of rings (size 3 to 8) (size 9 to 14) (size 15 to 20)
#    0.000    1.429    2.857    1.286    6.000    2.857 
#    2.571    1.429    0.000    0.000    0.000    0.000 
#    0.000    0.000    0.000    0.000    0.000    0.000 
#
# Total GULP energy -173554.848941 kJ/mol
# GULP energy per Si atom -12396.774924 kJ/mol
# Density = 2.031620 g / cm^3
# Si number density = 20.362546 Si / 1000 Ang^3
#
#
#
# Elastic Constant Matrix: (Units=GPa)
#
#
# Indices 1 2 3 4 5 6 
#
# 1 108.6425 37.0046 35.4705 -8.3303 8.0420 -4.1862
# 2 37.0046 106.7290 71.1714 -16.5355 4.5285 -11.1874
# 3 35.4705 71.1714 135.8725 -3.8612 6.1588 -21.0797
# 4 -8.3303 -16.5355 -3.8612 36.0739 0.3896 3.6302
# 5 8.0420 4.5285 6.1588 0.3896 30.1749 9.0312
# 6 -4.1862 -11.1874 -21.0797 3.6302 9.0312 27.2961
#
#
#
# Elastic Compliance Matrix: (Units=1/GPa)
#
#
# Indices 1 2 3 4 5 6 
#
# 1 0.010771 -0.002568 -0.001298 0.001176 -0.002295 0.000200
# 2 -0.002568 0.016361 -0.007796 0.006122 -0.000114 -0.000485
# 3 -0.001298 -0.007796 0.013159 -0.003271 -0.003644 0.008409
# 4 0.001176 0.006122 -0.003271 0.030850 0.000240 -0.004019
# 5 -0.002295 -0.000114 -0.003644 0.000240 0.039380 -0.016274
# 6 0.000200 -0.000485 0.008409 -0.004019 -0.016274 0.048880
#
#
# Mechanical properties :
#
#
# Convention : Reuss Voigt Hill
#
# Bulk Modulus (GPa) = 58.93941 70.94855 64.94398
# Shear Modulus (GPa) = 26.54196 32.54880 29.54538
#
# Velocity S-wave (km/s) = 3.61428 4.00242 3.81329
# Velocity P-wave (km/s) = 6.81360 7.50183 7.16598
#
# Compressibility (1/GPa) = 0.01696658
#
# Stress axis : x y z
#
# Youngs Moduli (GPa) = 92.84318 61.12107 75.99386
#
# Poissons Ratio (x) = 0.15698 0.09864
# Poissons Ratio (y) = 0.23845 0.59243
# Poissons Ratio (z) = 0.12051 0.47648
#
# Static dielectric constant tensor:
#      x y z
#    x 3.857800 0.096800 -0.000900 
#    y 0.096800 3.630960 -0.093340 
#    z -0.000900 -0.093340 4.125330 
# 
# 
# High freq. dielectric constant tensor:
#      x y z
#    x 1.799640 0.009910 0.004980 
#    y 0.009910 1.786930 -0.000660 
#    z 0.004980 -0.000660 1.808490 
# 
# From -- ./inp_files/158837.got.cif
#   From: 2010.06.25/outbox.cif.g09.slc.cpg/sg2_80_cif.got.tgz:158837.got - 2010.06.27 13:26:56.
