data_PCOD8023100
_publ_section_title
;
Structure prediction by ZEFSAII (Michael W. Deem and Ramdas Pophale) SiO2 
 PCOD8023100
Probable space group: P -1
;
_chemical_formula_sum "Si O2"
_cell_formula_units_Z 14
_cell_length_a 8.483533
_cell_length_b 23.320165
_cell_length_c 9.015813
_cell_angle_alpha 41.419205
_cell_angle_beta 48.726184
_cell_angle_gamma 31.310087
_cell_volume 612.278833
_symmetry_space_group_name_H-M "P -1"
_symmetry_group_IT_number 2
_symmetry_cell_setting 'triclinic'
loop_
_space_group_symop_operation_xyz
x,y,z
-x,-y,-z
loop_
_atom_site_type_symbol
_atom_site_label
_atom_site_fract_x
_atom_site_fract_y
_atom_site_fract_z
Si Si1 0.792572 0.830925 0.023102
Si Si2 0.315809 0.694737 0.768532
Si Si3 0.465158 0.744275 0.043968
Si Si4 0.184207 0.090128 0.836499
Si Si5 0.697492 0.535094 0.108807
Si Si6 0.032759 0.278612 0.335432
Si Si7 0.253462 0.350223 0.631271
O O1 0.746065 0.867070 0.153094
O O2 0.895381 0.699782 0.199209
O O3 0.055597 0.809588 0.820202
O O4 0.472550 0.941208 0.921651
O O5 0.499188 0.713835 0.529688
O O6 0.137052 0.686752 0.781181
O O7 0.565141 0.570761 0.954461
O O8 0.463266 0.650765 0.142372
O O9 0.572287 0.692264 0.242111
O O10 0.113064 0.879505 0.005045
O O11 0.660247 0.758978 0.812904
O O12 0.127249 0.163045 0.582824
O O13 0.798856 0.405988 0.334091
O O14 0.000000 0.500000 0.000000
O O15 0.000000 0.500000 0.500000
#
# Coordination Sequence:
#
# PCOD8023100 Si02
#       7
#     2   2   2   2   2   2   2
#     4  11  28  47  69  99 137 178 236 281 329 414
#     4  12  24  45  69 101 138 181 220 285 341 394
#     4  11  23  44  66 104 137 175 228 284 330 410
#     4  11  26  48  69  98 134 187 230 276 342 397
#     4  10  23  40  68 101 140 171 225 284 334 403
#     4  11  24  42  70 101 137 181 224 279 345 401
#     4  12  27  43  71 104 136 176 224 279 351 401
#
# _framework density 22.865399
#
# number of rings (size 3 to 8) (size 9 to 14) (size 15 to 20)
#    0.000    0.857    4.286    2.143    8.000    2.857 
#    0.000    2.857    0.000    0.000    0.000    0.000 
#    0.000    0.000    0.000    0.000    0.000    0.000 
#
# Total GULP energy -173529.908299 kJ/mol
# GULP energy per Si atom -12394.993450 kJ/mol
# Density = 2.281336 g / cm^3
# Si number density = 22.865399 Si / 1000 Ang^3
#
#
#
# Elastic Constant Matrix: (Units=GPa)
#
#
# Indices 1 2 3 4 5 6 
#
# 1 87.8893 18.9308 29.8858 -6.1719 11.6241 -11.5882
# 2 18.9308 110.6610 39.3654 8.9878 -3.3866 -23.4811
# 3 29.8858 39.3654 85.9268 10.0325 1.0966 -4.3855
# 4 -6.1719 8.9878 10.0325 36.6658 -2.3492 0.3412
# 5 11.6241 -3.3866 1.0966 -2.3492 28.7784 1.4506
# 6 -11.5882 -23.4811 -4.3855 0.3412 1.4506 41.0294
#
#
#
# Elastic Compliance Matrix: (Units=1/GPa)
#
#
# Indices 1 2 3 4 5 6 
#
# 1 0.014656 -0.000417 -0.005070 0.003561 -0.005663 0.003529
# 2 -0.000417 0.012449 -0.005047 -0.001714 0.001362 0.006434
# 3 -0.005070 -0.005047 0.016032 -0.003937 0.000652 -0.002597
# 4 0.003561 -0.001714 -0.003937 0.029437 0.000947 -0.000674
# 5 -0.005663 0.001362 0.000652 0.000947 0.037353 -0.002079
# 6 0.003529 0.006434 -0.002597 -0.000674 -0.002079 0.028853
#
#
# Mechanical properties :
#
#
# Convention : Reuss Voigt Hill
#
# Bulk Modulus (GPa) = 45.31213 51.20457 48.25835
# Shear Modulus (GPa) = 29.90334 34.38107 32.14220
#
# Velocity S-wave (km/s) = 3.62027 3.88187 3.75335
# Velocity P-wave (km/s) = 6.11024 6.52184 6.31940
#
# Compressibility (1/GPa) = 0.02206915
#
# Stress axis : x y z
#
# Youngs Moduli (GPa) = 68.23097 80.32500 62.37500
#
# Poissons Ratio (x) = 0.03353 0.31621
# Poissons Ratio (y) = 0.02848 0.31482
# Poissons Ratio (z) = 0.34590 0.40541
#
# Static dielectric constant tensor:
#      x y z
#    x 4.390680 -0.004630 0.140220 
#    y -0.004630 4.626270 0.061040 
#    z 0.140220 0.061040 3.896780 
# 
# 
# High freq. dielectric constant tensor:
#      x y z
#    x 1.915090 -0.014700 0.017210 
#    y -0.014700 1.910640 0.010440 
#    z 0.017210 0.010440 1.881420 
# 
# From -- ./inp_files/187126.got.cif
#   From: 2010.06.25/outbox.cif.g09.slc.cpg/sg2_94_cif.got.tgz:187126.got - 2010.06.27 13:26:56.
