data_PCOD8023434
_publ_section_title
;
Structure prediction by ZEFSAII (Michael W. Deem and Ramdas Pophale) SiO2 
 PCOD8023434
Probable space group: P -1
;
_chemical_formula_sum "Si O2"
_cell_formula_units_Z 16
_cell_length_a 15.048592
_cell_length_b 23.900043
_cell_length_c 5.342253
_cell_angle_alpha 78.911842
_cell_angle_beta 81.578315
_cell_angle_gamma 20.963489
_cell_volume 671.583894
_symmetry_space_group_name_H-M "P -1"
_symmetry_group_IT_number 2
_symmetry_cell_setting 'triclinic'
loop_
_space_group_symop_operation_xyz
x,y,z
-x,-y,-z
loop_
_atom_site_type_symbol
_atom_site_label
_atom_site_fract_x
_atom_site_fract_y
_atom_site_fract_z
Si Si1 0.682154 0.669543 0.697402
Si Si2 0.120843 0.345442 0.645690
Si Si3 0.504952 0.863703 0.944808
Si Si4 0.168736 0.652685 0.735962
Si Si5 0.297575 0.816782 0.535793
Si Si6 0.370761 0.703788 0.106480
Si Si7 0.751341 0.819352 0.614227
Si Si8 0.936851 0.218797 0.833793
O O1 0.869923 0.610002 0.601183
O O2 0.542497 0.776221 0.910001
O O3 0.454175 0.783414 0.512769
O O4 0.879972 0.499411 0.794435
O O5 0.101622 0.291612 0.597553
O O6 0.404784 0.187342 0.764324
O O7 0.699414 0.792674 0.806164
O O8 0.232850 0.049858 0.853449
O O9 0.407139 0.472286 0.814590
O O10 0.179279 0.681221 0.446159
O O11 0.922253 0.760001 0.755605
O O12 0.171361 0.692740 0.938564
O O13 0.381802 0.738352 0.310290
O O14 0.380984 0.732301 0.819577
O O15 0.000000 0.000000 0.500000
O O16 0.118642 0.815732 0.123387
O O17 0.500000 0.000000 0.500000
#
# Coordination Sequence:
#
# PCOD8023434 Si02
#       8
#     2   2   2   2   2   2   2   2
#     4  10  24  43  64  99 131 181 232 274 349 397
#     4  10  23  41  67  93 138 179 226 282 333 420
#     4  11  24  39  70  93 139 177 224 284 336 417
#     4  12  26  45  72 100 141 180 228 284 337 423
#     4  12  27  46  73 101 137 177 233 291 339 408
#     4  12  27  47  72 101 136 182 230 287 348 398
#     4  11  23  41  62 103 135 175 225 276 348 399
#     4  12  26  45  71 101 137 182 230 280 347 406
#
# _framework density 23.824276000000001
#
# number of rings (size 3 to 8) (size 9 to 14) (size 15 to 20)
#    0.000    0.750    1.250    5.250    8.750    1.000 
#    0.000    0.000    0.000    0.000    0.000    0.000 
#    0.000    0.000    0.000    0.000    0.000    0.000 
#
# Total GULP energy -198241.834535 kJ/mol
# GULP energy per Si atom -12390.114658 kJ/mol
# Density = 2.377005 g / cm^3
# Si number density = 23.824276 Si / 1000 Ang^3
#
#
#
# Elastic Constant Matrix: (Units=GPa)
#
#
# Indices 1 2 3 4 5 6 
#
# 1 93.5435 -2.3623 9.4867 9.5000 17.7365 -4.2585
# 2 -2.3623 97.7357 17.6173 -6.4561 0.8234 11.1307
# 3 9.4867 17.6173 109.4314 0.5279 15.2716 16.3387
# 4 9.5000 -6.4561 0.5279 29.9039 4.0102 8.1804
# 5 17.7365 0.8234 15.2716 4.0102 31.2250 0.9414
# 6 -4.2585 11.1307 16.3387 8.1804 0.9414 43.2256
#
#
#
# Elastic Compliance Matrix: (Units=1/GPa)
#
#
# Indices 1 2 3 4 5 6 
#
# 1 0.012435 -0.000060 -0.000495 -0.003716 -0.006411 0.002271
# 2 -0.000060 0.011022 -0.001357 0.003216 0.000083 -0.002942
# 3 -0.000495 -0.001357 0.010666 0.001405 -0.004963 -0.003889
# 4 -0.003716 0.003216 0.001405 0.038160 -0.003295 -0.008875
# 5 -0.006411 0.000083 -0.004963 -0.003295 0.038485 0.001008
# 6 0.002271 -0.002942 -0.003889 -0.008875 0.001008 0.027243
#
#
# Mechanical properties :
#
#
# Convention : Reuss Voigt Hill
#
# Bulk Modulus (GPa) = 33.00474 38.91043 35.95758
# Shear Modulus (GPa) = 32.90882 39.26882 36.08882
#
# Velocity S-wave (km/s) = 3.72064 4.06429 3.89626
# Velocity P-wave (km/s) = 5.68691 6.19616 5.94699
#
# Compressibility (1/GPa) = 0.03029868
#
# Stress axis : x y z
#
# Youngs Moduli (GPa) = 80.41676 90.73110 93.75652
#
# Poissons Ratio (x) = 0.00547 0.04638
# Poissons Ratio (y) = 0.00485 0.12723
# Poissons Ratio (z) = 0.03978 0.12312
#
# Static dielectric constant tensor:
#      x y z
#    x 5.824310 -0.639750 -0.264960 
#    y -0.639750 4.797190 0.384110 
#    z -0.264960 0.384110 4.980600 
# 
# 
# High freq. dielectric constant tensor:
#      x y z
#    x 1.958090 0.003160 0.015620 
#    y 0.003160 1.957880 -0.001630 
#    z 0.015620 -0.001630 1.936190 
# 
# From -- ./inp_files/101150.got.cif
#   From: 2010.06.25/outbox.cif.g09.slc.cpg/sg2_51_cif.got.tgz:101150.got - 2010.06.27 13:26:56.
