data_PCOD8023064
_publ_section_title
;
Structure prediction by ZEFSAII (Michael W. Deem and Ramdas Pophale) SiO2 
 PCOD8023064
Probable space group: P -1
;
_chemical_formula_sum "Si O2"
_cell_formula_units_Z 16
_cell_length_a 13.850501
_cell_length_b 9.683036
_cell_length_c 8.012013
_cell_angle_alpha 89.220048
_cell_angle_beta 97.348109
_cell_angle_gamma 136.034755
_cell_volume 735.018938
_symmetry_space_group_name_H-M "P -1"
_symmetry_group_IT_number 2
_symmetry_cell_setting 'triclinic'
loop_
_space_group_symop_operation_xyz
x,y,z
-x,-y,-z
loop_
_atom_site_type_symbol
_atom_site_label
_atom_site_fract_x
_atom_site_fract_y
_atom_site_fract_z
Si Si1 0.072922 0.280750 0.359954
Si Si2 0.380069 0.648584 0.328679
Si Si3 0.579457 0.587356 0.836063
Si Si4 0.606007 0.889705 0.637782
Si Si5 0.894478 0.938504 0.845972
Si Si6 0.934489 0.389804 0.158871
Si Si7 0.644592 0.142651 0.935893
Si Si8 0.919887 0.215239 0.644875
O O1 0.235640 0.492005 0.401992
O O2 0.078425 0.126886 0.309822
O O3 0.976022 0.276098 0.216284
O O4 0.006552 0.221030 0.527399
O O5 0.451667 0.581199 0.277464
O O6 0.491203 0.828856 0.481310
O O7 0.338136 0.695182 0.157457
O O8 0.546751 0.684654 0.706076
O O9 0.745088 0.761947 0.904667
O O10 0.500000 0.500000 0.000000
O O11 0.637795 0.017954 0.799156
O O12 0.753289 0.042692 0.562939
O O13 0.924626 0.130017 0.815784
O O14 0.000000 0.000000 0.000000
O O15 0.005522 0.559995 0.314432
O O16 0.766227 0.238259 0.100041
O O17 0.000000 0.500000 0.000000
O O18 0.500000 0.000000 0.000000
#
# Coordination Sequence:
#
# PCOD8023064 Si02
#       8
#     2   2   2   2   2   2   2   2
#     4  11  24  41  66  95 127 169 208 257 322 372
#     4  11  24  43  64  94 131 165 209 263 313 376
#     4  10  23  42  66  94 125 168 212 255 319 370
#     4  11  24  43  64  94 131 165 209 263 313 376
#     4  10  23  40  66  96 127 160 212 266 307 374
#     4  12  23  44  66  90 131 166 212 264 310 372
#     4  12  27  42  66  96 125 168 216 259 314 372
#     4  11  24  41  66  95 127 169 208 257 322 372
#
# _framework density 21.768146999999999
#
# number of rings (size 3 to 8) (size 9 to 14) (size 15 to 20)
#    0.000    1.000    2.500    3.000    7.000    2.000 
#    0.000    0.000    0.000    0.000    0.000    0.000 
#    0.000    0.000    0.000    0.000    0.000    0.000 
#
# Total GULP energy -198268.709229 kJ/mol
# GULP energy per Si atom -12391.794327 kJ/mol
# Density = 2.171860 g / cm^3
# Si number density = 21.768147 Si / 1000 Ang^3
#
#
#
# Elastic Constant Matrix: (Units=GPa)
#
#
# Indices 1 2 3 4 5 6 
#
# 1 94.5318 37.1523 24.0345 -4.5124 -3.7511 23.0979
# 2 37.1523 76.1331 26.0479 1.9061 -4.0440 9.7365
# 3 24.0345 26.0479 68.1345 0.6820 -5.8695 25.6160
# 4 -4.5124 1.9061 0.6820 17.0086 15.9494 2.6183
# 5 -3.7511 -4.0440 -5.8695 15.9494 53.1607 -4.3486
# 6 23.0979 9.7365 25.6160 2.6183 -4.3486 47.1288
#
#
#
# Elastic Compliance Matrix: (Units=1/GPa)
#
#
# Indices 1 2 3 4 5 6 
#
# 1 0.015247 -0.006718 -0.000706 0.008128 -0.002474 -0.006381
# 2 -0.006718 0.018179 -0.005465 -0.006401 0.002479 0.003091
# 3 -0.000706 -0.005465 0.020754 0.000172 0.000979 -0.009725
# 4 0.008128 -0.006401 0.000172 0.088943 -0.027416 -0.010226
# 5 -0.002474 0.002479 0.000979 -0.027416 0.027504 0.004229
# 6 -0.006381 0.003091 -0.009725 -0.010226 0.004229 0.029951
#
#
# Mechanical properties :
#
#
# Convention : Reuss Voigt Hill
#
# Bulk Modulus (GPa) = 35.20695 45.91875 40.56285
# Shear Modulus (GPa) = 21.20231 33.56394 27.38313
#
# Velocity S-wave (km/s) = 3.12429 3.93094 3.55060
# Velocity P-wave (km/s) = 5.40589 6.46091 5.95680
#
# Compressibility (1/GPa) = 0.02840348
#
# Stress axis : x y z
#
# Youngs Moduli (GPa) = 65.58653 55.00713 48.18414
#
# Poissons Ratio (x) = 0.36953 0.03400
# Poissons Ratio (y) = 0.44060 0.26332
# Poissons Ratio (z) = 0.04628 0.30061
#
# Static dielectric constant tensor:
#      x y z
#    x 4.264620 0.140740 -0.113110 
#    y 0.140740 4.529750 -0.240100 
#    z -0.113110 -0.240100 3.299880 
# 
# 
# High freq. dielectric constant tensor:
#      x y z
#    x 1.872170 -0.000240 -0.001130 
#    y -0.000240 1.861650 -0.002510 
#    z -0.001130 -0.002510 1.849620 
# 
# From -- ./inp_files/186836.got.cif
#   From: 2010.06.25/outbox.cif.g09.slc.cpg/sg2_94_cif.got.tgz:186836.got - 2010.06.27 13:26:56.
