data_PCOD8023565
_publ_section_title
;
Structure prediction by ZEFSAII (Michael W. Deem and Ramdas Pophale) SiO2 
 PCOD8023565
Probable space group: P -1
;
_chemical_formula_sum "Si O2"
_cell_formula_units_Z 14
_cell_length_a 13.439169
_cell_length_b 6.277417
_cell_length_c 12.694041
_cell_angle_alpha 64.422902
_cell_angle_beta 138.698500
_cell_angle_gamma 112.923874
_cell_volume 633.726805
_symmetry_space_group_name_H-M "P -1"
_symmetry_group_IT_number 2
_symmetry_cell_setting 'triclinic'
loop_
_space_group_symop_operation_xyz
x,y,z
-x,-y,-z
loop_
_atom_site_type_symbol
_atom_site_label
_atom_site_fract_x
_atom_site_fract_y
_atom_site_fract_z
Si Si1 0.357570 0.634503 0.394210
Si Si2 0.600483 0.963194 0.820006
Si Si3 0.742698 0.703353 0.341800
Si Si4 0.427880 0.552898 0.043564
Si Si5 0.126364 0.216795 0.345609
Si Si6 0.290471 0.804457 0.529513
Si Si7 0.787654 0.111049 0.137875
O O1 0.500000 0.500000 0.500000
O O2 0.206164 0.450838 0.302025
O O3 0.376008 0.723026 0.510280
O O4 0.332499 0.865230 0.256639
O O5 0.640985 0.691224 0.901169
O O6 0.417020 0.948580 0.674107
O O7 0.666904 0.071922 0.957362
O O8 0.559181 0.690132 0.192154
O O9 0.810034 0.812329 0.480296
O O10 0.786641 0.432872 0.422511
O O11 0.816090 0.867258 0.270787
O O12 0.500000 0.500000 0.000000
O O13 0.289658 0.712082 0.882736
O O14 0.947584 0.234117 0.196937
O O15 0.163707 0.978668 0.364596
#
# Coordination Sequence:
#
# PCOD8023565 Si02
#       7
#     2   2   2   2   2   2   2
#     4  11  24  43  71  94 123 166 223 265 311 380
#     4  11  24  40  69  97 122 168 217 270 311 373
#     4  10  23  42  66  95 129 171 217 259 306 389
#     4  11  24  41  67  95 129 169 217 258 313 380
#     4  11  25  43  64  95 133 171 209 265 321 378
#     4  10  23  41  70  95 121 165 227 259 314 376
#     4  12  26  41  63  98 138 166 207 265 327 374
#
# _framework density 22.091539999999998
#
# number of rings (size 3 to 8) (size 9 to 14) (size 15 to 20)
#    0.000    1.143    2.857    2.143    8.000    3.429 
#    0.000    1.429    0.000    0.000    0.000    0.000 
#    0.000    0.000    0.000    0.000    0.000    0.000 
#
# Total GULP energy -173548.941143 kJ/mol
# GULP energy per Si atom -12396.352939 kJ/mol
# Density = 2.204126 g / cm^3
# Si number density = 22.091540 Si / 1000 Ang^3
#
#
#
# Elastic Constant Matrix: (Units=GPa)
#
#
# Indices 1 2 3 4 5 6 
#
# 1 99.4963 64.4371 37.8879 -0.7398 16.9311 4.3984
# 2 64.4371 132.6606 43.9392 -17.3745 8.7040 25.2545
# 3 37.8879 43.9392 57.7687 -8.1249 -3.8721 -8.9066
# 4 -0.7398 -17.3745 -8.1249 34.1234 6.6458 -15.2298
# 5 16.9311 8.7040 -3.8721 6.6458 35.5261 -10.0447
# 6 4.3984 25.2545 -8.9066 -15.2298 -10.0447 41.0387
#
#
#
# Elastic Compliance Matrix: (Units=1/GPa)
#
#
# Indices 1 2 3 4 5 6 
#
# 1 0.019362 -0.004198 -0.012012 -0.005547 -0.010363 -0.006694
# 2 -0.004198 0.017387 -0.013228 0.000529 -0.008008 -0.014884
# 3 -0.012012 -0.013228 0.042461 0.011734 0.019232 0.027705
# 4 -0.005547 0.000529 0.011734 0.040013 0.001399 0.018007
# 5 -0.010363 -0.008008 0.019232 0.001399 0.042886 0.021229
# 6 -0.006694 -0.014884 0.027705 0.018007 0.021229 0.052136
#
#
# Mechanical properties :
#
#
# Convention : Reuss Voigt Hill
#
# Bulk Modulus (GPa) = 49.18303 64.71712 56.95008
# Shear Modulus (GPa) = 17.86362 31.71509 24.78936
#
# Velocity S-wave (km/s) = 2.84671 3.79307 3.35344
# Velocity P-wave (km/s) = 5.75470 6.96719 6.38977
#
# Compressibility (1/GPa) = 0.02033221
#
# Stress axis : x y z
#
# Youngs Moduli (GPa) = 51.64785 57.51450 23.55109
#
# Poissons Ratio (x) = 0.24147 0.28290
# Poissons Ratio (y) = 0.21684 0.31154
# Poissons Ratio (z) = 0.62040 0.76082
#
# Static dielectric constant tensor:
#      x y z
#    x 3.702210 0.157850 -0.099780 
#    y 0.157850 4.335430 -0.095120 
#    z -0.099780 -0.095120 3.863200 
# 
# 
# High freq. dielectric constant tensor:
#      x y z
#    x 1.839760 0.005780 -0.009600 
#    y 0.005780 1.893710 -0.006810 
#    z -0.009600 -0.006810 1.856290 
# 
# From -- ./inp_files/70249.got.cif
#   From: 2010.06.25/outbox.cif.g09.slc.cpg/sg2_36_cif.got.tgz:70249.got - 2010.06.27 13:26:56.
