data_PCOD8023048
_publ_section_title
;
Structure prediction by ZEFSAII (Michael W. Deem and Ramdas Pophale) SiO2 
 PCOD8023048
Probable space group: P -1
;
_chemical_formula_sum "Si O2"
_cell_formula_units_Z 14
_cell_length_a 10.892215
_cell_length_b 10.418039
_cell_length_c 17.981214
_cell_angle_alpha 155.748971
_cell_angle_beta 42.564867
_cell_angle_gamma 127.456067
_cell_volume 551.953966
_symmetry_space_group_name_H-M "P -1"
_symmetry_group_IT_number 2
_symmetry_cell_setting 'triclinic'
loop_
_space_group_symop_operation_xyz
x,y,z
-x,-y,-z
loop_
_atom_site_type_symbol
_atom_site_label
_atom_site_fract_x
_atom_site_fract_y
_atom_site_fract_z
Si Si1 0.331964 0.232274 0.371474
Si Si2 0.690571 0.343137 0.004018
Si Si3 0.951144 0.321924 0.643749
Si Si4 0.146008 0.232943 0.946135
Si Si5 0.480225 0.244324 0.471348
Si Si6 0.001052 0.126892 0.296154
Si Si7 0.677764 0.163808 0.571265
O O1 0.354838 0.307159 0.487231
O O2 0.431675 0.449665 0.389325
O O3 0.106274 0.321254 0.509838
O O4 0.404138 0.862972 0.120878
O O5 0.847629 0.487320 0.968664
O O6 0.516925 0.615420 0.256530
O O7 0.799372 0.094660 0.885785
O O8 0.758597 0.346785 0.698396
O O9 0.943661 0.623803 0.860723
O O10 0.000000 0.000000 0.500000
O O11 0.357896 0.065082 0.781260
O O12 0.030111 0.984895 0.833489
O O13 0.359423 0.170984 0.556411
O O14 0.823157 0.060468 0.385331
O O15 0.000000 0.500000 0.500000
#
# Coordination Sequence:
#
# PCOD8023048 Si02
#       7
#     2   2   2   2   2   2   2
#     4  11  21  41  68 109 145 176 232 299 341 413
#     4  11  23  44  72 101 139 186 237 285 350 420
#     4  12  21  41  76 105 139 187 235 287 356 412
#     4  11  24  43  69 102 140 186 237 284 352 421
#     4  10  23  40  66 105 143 179 231 291 349 410
#     4  12  27  50  70 102 145 184 236 300 347 421
#     4  11  24  46  75 100 138 192 233 285 360 414
#
# _framework density 25.364432999999998
#
# number of rings (size 3 to 8) (size 9 to 14) (size 15 to 20)
#    0.000    0.857    4.286    2.143    0.000    5.714 
#    7.714    0.000    0.000    0.000    0.000    0.000 
#    0.000    0.000    0.000    0.000    0.000    0.000 
#
# Total GULP energy -173606.895034 kJ/mol
# GULP energy per Si atom -12400.492502 kJ/mol
# Density = 2.530670 g / cm^3
# Si number density = 25.364433 Si / 1000 Ang^3
#
#
#
# Elastic Constant Matrix: (Units=GPa)
#
#
# Indices 1 2 3 4 5 6 
#
# 1 92.9043 21.0474 22.3624 2.8463 -0.2773 12.0977
# 2 21.0474 121.4601 26.0300 13.1131 1.3788 19.4557
# 3 22.3624 26.0300 56.8933 10.0131 3.4208 -0.4738
# 4 2.8463 13.1131 10.0131 40.1504 6.8598 4.3286
# 5 -0.2773 1.3788 3.4208 6.8598 53.8525 4.0727
# 6 12.0977 19.4557 -0.4738 4.3286 4.0727 30.6744
#
#
#
# Elastic Compliance Matrix: (Units=1/GPa)
#
#
# Indices 1 2 3 4 5 6 
#
# 1 0.012703 -0.000420 -0.005045 0.000926 0.000660 -0.005040
# 2 -0.000420 0.010451 -0.004410 -0.001717 0.000712 -0.006383
# 3 -0.005045 -0.004410 0.022445 -0.004222 -0.001247 0.005895
# 4 0.000926 -0.001717 -0.004222 0.027259 -0.002944 -0.002797
# 5 0.000660 0.000712 -0.001247 -0.002944 0.019226 -0.002868
# 6 -0.005040 -0.006383 0.005895 -0.002797 -0.002868 0.039503
#
#
# Mechanical properties :
#
#
# Convention : Reuss Voigt Hill
#
# Bulk Modulus (GPa) = 38.68852 45.57080 42.12966
# Shear Modulus (GPa) = 31.25896 38.38998 34.82447
#
# Velocity S-wave (km/s) = 3.51435 3.89464 3.70937
# Velocity P-wave (km/s) = 5.63505 6.18302 5.91538
#
# Compressibility (1/GPa) = 0.02584746
#
# Stress axis : x y z
#
# Youngs Moduli (GPa) = 78.71983 95.68579 44.55376
#
# Poissons Ratio (x) = 0.04020 0.22479
# Poissons Ratio (y) = 0.03308 0.19649
# Poissons Ratio (z) = 0.39718 0.42199
#
# Static dielectric constant tensor:
#      x y z
#    x 4.636860 0.216960 -0.037930 
#    y 0.216960 4.660670 0.158200 
#    z -0.037930 0.158200 4.339760 
# 
# 
# High freq. dielectric constant tensor:
#      x y z
#    x 2.023780 0.012890 0.001700 
#    y 0.012890 2.001660 0.010900 
#    z 0.001700 0.010900 2.003540 
# 
# From -- ./inp_files/226700.got.cif
#   From: 2010.06.25/outbox.cif.g09.slc.cpg/sg2_114_cif.got.tgz:226700.got - 2010.06.27 13:26:56.
