data_PCOD8023807
_publ_section_title
;
Structure prediction by ZEFSAII (Michael W. Deem and Ramdas Pophale) SiO2 
 PCOD8023807
Probable space group: P -1
;
_chemical_formula_sum "Si O2"
_cell_formula_units_Z 14
_cell_length_a 15.426230
_cell_length_b 8.278489
_cell_length_c 15.217861
_cell_angle_alpha 102.979255
_cell_angle_beta 28.651429
_cell_angle_gamma 122.404036
_cell_volume 625.299185
_symmetry_space_group_name_H-M "P -1"
_symmetry_group_IT_number 2
_symmetry_cell_setting 'triclinic'
loop_
_space_group_symop_operation_xyz
x,y,z
-x,-y,-z
loop_
_atom_site_type_symbol
_atom_site_label
_atom_site_fract_x
_atom_site_fract_y
_atom_site_fract_z
Si Si1 0.959294 0.833248 0.813203
Si Si2 0.754041 0.157889 0.049392
Si Si3 0.810303 0.267577 0.528836
Si Si4 0.585499 0.427222 0.237650
Si Si5 0.795216 0.171016 0.724389
Si Si6 0.007207 0.888921 0.308873
Si Si7 0.114364 0.191264 0.847239
O O1 0.124620 0.793784 0.622856
O O2 0.825950 0.850507 0.853841
O O3 0.166651 0.103121 0.706975
O O4 0.746146 0.631542 0.045941
O O5 0.683486 0.303518 0.138439
O O6 0.488077 0.871132 0.238163
O O7 0.901995 0.191047 0.008727
O O8 0.937747 0.245469 0.810932
O O9 0.808474 0.154182 0.605769
O O10 0.019627 0.552059 0.382445
O O11 0.290463 0.247186 0.446774
O O12 0.631892 0.545606 0.306282
O O13 0.907312 0.082426 0.662826
O O14 0.500000 0.000000 0.000000
O O15 0.000000 0.000000 0.000000
#
# Coordination Sequence:
#
# PCOD8023807 Si02
#       7
#     2   2   2   2   2   2   2
#     4  10  23  42  66 101 138 172 228 279 331 395
#     4  11  22  43  70  99 142 178 225 276 341 394
#     4  11  24  44  69 101 135 174 227 283 337 409
#     4  11  23  45  68 100 141 183 229 271 333 401
#     4  11  25  44  71  99 133 179 229 277 348 405
#     4  11  24  42  71  97 138 180 225 284 333 398
#     4   9  22  42  68 100 138 181 226 274 329 403
#
# _framework density 22.389282000000001
#
# number of rings (size 3 to 8) (size 9 to 14) (size 15 to 20)
#    0.000    1.429    2.857    1.286    6.000    2.857 
#    2.571    2.857    0.000    0.000    0.000    0.000 
#    0.000    0.000    0.000    0.000    0.000    0.000 
#
# Total GULP energy -173463.590296 kJ/mol
# GULP energy per Si atom -12390.256450 kJ/mol
# Density = 2.233832 g / cm^3
# Si number density = 22.389282 Si / 1000 Ang^3
#
#
#
# Elastic Constant Matrix: (Units=GPa)
#
#
# Indices 1 2 3 4 5 6 
#
# 1 129.1211 9.7478 29.8166 -12.8566 -12.7122 -12.5672
# 2 9.7478 79.8710 33.3500 -1.3721 -4.8293 0.3716
# 3 29.8166 33.3500 66.7223 -1.3363 -4.9805 3.4803
# 4 -12.8566 -1.3721 -1.3363 42.4022 -0.0419 2.8076
# 5 -12.7122 -4.8293 -4.9805 -0.0419 38.2773 1.9366
# 6 -12.5672 0.3716 3.4803 2.8076 1.9366 30.9889
#
#
#
# Elastic Compliance Matrix: (Units=1/GPa)
#
#
# Indices 1 2 3 4 5 6 
#
# 1 0.009673 0.000998 -0.004795 0.002548 0.002512 0.004061
# 2 0.000998 0.015976 -0.008386 0.000488 0.001204 0.001036
# 3 -0.004795 -0.008386 0.021554 -0.000766 0.000367 -0.004218
# 4 0.002548 0.000488 -0.000766 0.024425 0.000893 -0.001155
# 5 0.002512 0.001204 0.000367 0.000893 0.027201 -0.000818
# 6 0.004061 0.001036 -0.004218 -0.001155 -0.000818 0.034534
#
#
# Mechanical properties :
#
#
# Convention : Reuss Voigt Hill
#
# Bulk Modulus (GPa) = 43.78690 46.83813 45.31252
# Shear Modulus (GPa) = 30.24059 35.85367 33.04713
#
# Velocity S-wave (km/s) = 3.67914 4.00606 3.84607
# Velocity P-wave (km/s) = 6.13576 6.50871 6.32499
#
# Compressibility (1/GPa) = 0.02283788
#
# Stress axis : x y z
#
# Youngs Moduli (GPa) = 103.38292 62.59293 46.39549
#
# Poissons Ratio (x) = -0.06249 0.22246
# Poissons Ratio (y) = -0.10321 0.38907
# Poissons Ratio (z) = 0.49571 0.52490
#
# Static dielectric constant tensor:
#      x y z
#    x 4.688290 0.097210 0.274100 
#    y 0.097210 4.218510 -0.108740 
#    z 0.274100 -0.108740 4.087430 
# 
# 
# High freq. dielectric constant tensor:
#      x y z
#    x 1.898490 -0.003760 0.013650 
#    y -0.003760 1.877460 -0.000970 
#    z 0.013650 -0.000970 1.880800 
# 
# From -- ./inp_files/528711.got.cif
#   From: 2010.06.25/outbox.cif.g09.slc.cpg/sg2_265_cif.got.tgz:528711.got - 2010.06.27 13:26:56.
