data_PCOD8023087
_publ_section_title
;
Structure prediction by ZEFSAII (Michael W. Deem and Ramdas Pophale) SiO2 
 PCOD8023087
Probable space group: P -1
;
_chemical_formula_sum "Si O2"
_cell_formula_units_Z 16
_cell_length_a 17.279536
_cell_length_b 8.274650
_cell_length_c 6.465229
_cell_angle_alpha 120.514827
_cell_angle_beta 116.501605
_cell_angle_gamma 68.698685
_cell_volume 701.404875
_symmetry_space_group_name_H-M "P -1"
_symmetry_group_IT_number 2
_symmetry_cell_setting 'triclinic'
loop_
_space_group_symop_operation_xyz
x,y,z
-x,-y,-z
loop_
_atom_site_type_symbol
_atom_site_label
_atom_site_fract_x
_atom_site_fract_y
_atom_site_fract_z
Si Si1 0.445565 0.526582 0.156777
Si Si2 0.383502 0.156787 0.919582
Si Si3 0.751271 0.261397 0.934875
Si Si4 0.891856 0.384736 0.875454
Si Si5 0.787000 0.891117 0.489362
Si Si6 0.492268 0.126850 0.372821
Si Si7 0.915895 0.740248 0.894580
Si Si8 0.857330 0.093923 0.324724
O O1 0.343711 0.616686 0.071419
O O2 0.496665 0.653975 0.443998
O O3 0.500000 0.500000 0.000000
O O4 0.447409 0.312121 0.090328
O O5 0.286955 0.229330 0.754665
O O6 0.427472 0.963514 0.736397
O O7 0.394441 0.116044 0.154050
O O8 0.812980 0.361852 0.920778
O O9 0.742654 0.058252 0.696384
O O10 0.787819 0.233532 0.193234
O O11 0.872565 0.598658 0.898742
O O12 0.908467 0.233310 0.606377
O O13 0.982843 0.349989 0.091036
O O14 0.865737 0.761529 0.626297
O O15 0.815616 0.971837 0.362146
O O16 0.500000 0.000000 0.500000
O O17 0.914792 0.944878 0.138459
#
# Coordination Sequence:
#
# PCOD8023087 Si02
#       8
#     2   2   2   2   2   2   2   2
#     4  12  25  45  69  99 131 177 222 276 338 395
#     4  11  25  42  70  94 134 174 220 272 338 393
#     4  10  24  44  66  97 139 170 227 279 331 399
#     4  10  23  44  66  99 132 179 219 280 327 398
#     4  10  23  43  65 102 134 179 217 278 332 399
#     4  11  24  46  66  97 129 172 222 276 331 400
#     4  10  23  42  68  98 137 170 228 270 332 398
#     4  10  23  40  67  97 133 178 219 269 336 396
#
# _framework density 22.811360000000001
#
# number of rings (size 3 to 8) (size 9 to 14) (size 15 to 20)
#    0.000    1.500    2.500    0.750    5.250    5.500 
#    4.500    2.500    0.000    0.000    0.000    0.000 
#    0.000    0.000    0.000    0.000    0.000    0.000 
#
# Total GULP energy -198221.680843 kJ/mol
# GULP energy per Si atom -12388.855053 kJ/mol
# Density = 2.275944 g / cm^3
# Si number density = 22.811360 Si / 1000 Ang^3
#
#
#
# Elastic Constant Matrix: (Units=GPa)
#
#
# Indices 1 2 3 4 5 6 
#
# 1 94.1593 22.6887 47.1377 -15.7652 8.0786 -6.7040
# 2 22.6887 69.8669 42.9611 -5.3071 4.7218 2.1108
# 3 47.1377 42.9611 143.5179 -21.6041 19.0008 -1.3693
# 4 -15.7652 -5.3071 -21.6041 53.0081 -0.6996 3.5782
# 5 8.0786 4.7218 19.0008 -0.6996 32.8468 -2.0414
# 6 -6.7040 2.1108 -1.3693 3.5782 -2.0414 32.6600
#
#
#
# Elastic Compliance Matrix: (Units=1/GPa)
#
#
# Indices 1 2 3 4 5 6 
#
# 1 0.013414 -0.002188 -0.003269 0.002261 -0.000893 0.002454
# 2 -0.002188 0.017972 -0.004871 -0.000714 0.000652 -0.001696
# 3 -0.003269 -0.004871 0.010519 0.002801 -0.004553 -0.000507
# 4 0.002261 -0.000714 0.002801 0.020703 -0.001742 -0.001749
# 5 -0.000893 0.000652 -0.004553 -0.001742 0.033282 0.001855
# 6 0.002454 -0.001696 -0.000507 -0.001749 0.001855 0.031518
#
#
# Mechanical properties :
#
#
# Convention : Reuss Voigt Hill
#
# Bulk Modulus (GPa) = 47.06120 59.23544 53.14832
# Shear Modulus (GPa) = 32.22769 36.68674 34.45722
#
# Velocity S-wave (km/s) = 3.76279 4.01467 3.89077
# Velocity P-wave (km/s) = 6.28916 6.89304 6.59801
#
# Compressibility (1/GPa) = 0.02124893
#
# Stress axis : x y z
#
# Youngs Moduli (GPa) = 74.55002 55.64342 95.06562
#
# Poissons Ratio (x) = 0.12176 0.31075
# Poissons Ratio (y) = 0.16313 0.46305
# Poissons Ratio (z) = 0.24368 0.27103
#
# Static dielectric constant tensor:
#      x y z
#    x 3.754440 0.121720 0.062820 
#    y 0.121720 4.118720 0.122170 
#    z 0.062820 0.122170 4.666060 
# 
# 
# High freq. dielectric constant tensor:
#      x y z
#    x 1.876040 0.002450 0.004930 
#    y 0.002450 1.912740 -0.003180 
#    z 0.004930 -0.003180 1.921230 
# 
# From -- ./inp_files/56457.got.cif
#   From: 2010.06.25/outbox.cif.g09.slc.cpg/sg2_29_cif.got.tgz:56457.got - 2010.06.27 13:26:56.
