data_PCOD8023058
_publ_section_title
;
Structure prediction by ZEFSAII (Michael W. Deem and Ramdas Pophale) SiO2 
 PCOD8023058
Probable space group: P -1
;
_chemical_formula_sum "Si O2"
_cell_formula_units_Z 14
_cell_length_a 16.659229
_cell_length_b 5.275616
_cell_length_c 14.592282
_cell_angle_alpha 110.672214
_cell_angle_beta 146.936325
_cell_angle_gamma 60.107532
_cell_volume 600.907395
_symmetry_space_group_name_H-M "P -1"
_symmetry_group_IT_number 2
_symmetry_cell_setting 'triclinic'
loop_
_space_group_symop_operation_xyz
x,y,z
-x,-y,-z
loop_
_atom_site_type_symbol
_atom_site_label
_atom_site_fract_x
_atom_site_fract_y
_atom_site_fract_z
Si Si1 0.774233 0.510656 0.749138
Si Si2 0.899324 0.936303 0.974014
Si Si3 0.814022 0.583783 0.489769
Si Si4 0.671523 0.271343 0.454867
Si Si5 0.683713 0.448820 0.163843
Si Si6 0.185028 0.239210 0.816324
Si Si7 0.691790 0.528462 0.882957
O O1 0.766496 0.841874 0.784991
O O2 0.656336 0.450513 0.557887
O O3 0.724379 0.467825 0.798668
O O4 0.959300 0.320028 0.868036
O O5 0.799333 0.199348 0.982395
O O6 0.000000 0.000000 0.000000
O O7 0.768420 0.378352 0.489070
O O8 0.733513 0.591298 0.316305
O O9 0.004195 0.447042 0.645654
O O10 0.755521 0.922018 0.510884
O O11 0.494380 0.355844 0.256535
O O12 0.706813 0.629662 0.122146
O O13 0.787782 0.097402 0.219474
O O14 0.500000 0.500000 0.000000
O O15 0.235045 0.255565 0.972727
#
# Coordination Sequence:
#
# PCOD8023058 Si02
#       7
#     2   2   2   2   2   2   2
#     4  10  23  40  66  93 138 179 226 273 332 395
#     4   9  21  39  64  92 132 173 230 271 331 389
#     4  12  27  47  69 101 136 175 229 272 334 403
#     4  12  27  43  68 100 138 180 222 279 331 391
#     4  12  25  48  74 102 135 171 219 284 339 394
#     4  12  26  44  75 100 134 179 221 272 338 401
#     4  11  25  41  65  99 135 176 227 275 334 396
#
# _framework density 23.298099000000001
#
# number of rings (size 3 to 8) (size 9 to 14) (size 15 to 20)
#    0.000    0.857    0.000    6.000   14.000    0.571 
#    0.000    0.000    0.000    0.000    0.000    0.000 
#    0.000    0.000    0.000    0.000    0.000    0.000 
#
# Total GULP energy -173506.706440 kJ/mol
# GULP energy per Si atom -12393.336174 kJ/mol
# Density = 2.324507 g / cm^3
# Si number density = 23.298099 Si / 1000 Ang^3
#
#
#
# Elastic Constant Matrix: (Units=GPa)
#
#
# Indices 1 2 3 4 5 6 
#
# 1 65.0955 22.8157 18.3576 -2.1179 9.3592 1.0037
# 2 22.8157 101.7015 5.2131 7.8092 9.4255 10.8464
# 3 18.3576 5.2131 111.0981 16.0447 5.9895 -10.8067
# 4 -2.1179 7.8092 16.0447 42.6207 -9.1926 0.0715
# 5 9.3592 9.4255 5.9895 -9.1926 38.8699 5.5335
# 6 1.0037 10.8464 -10.8067 0.0715 5.5335 33.5876
#
#
#
# Elastic Compliance Matrix: (Units=1/GPa)
#
#
# Indices 1 2 3 4 5 6 
#
# 1 0.017960 -0.003834 -0.002956 0.002180 -0.002445 0.000148
# 2 -0.003834 0.011425 0.000322 -0.002859 -0.002130 -0.003114
# 3 -0.002956 0.000322 0.010694 -0.004822 -0.002707 0.003881
# 4 0.002180 -0.002859 -0.004822 0.027579 0.007722 -0.002024
# 5 -0.002445 -0.002130 -0.002707 0.007722 0.029792 -0.005035
# 6 0.000148 -0.003114 0.003881 -0.002024 -0.005035 0.032857
#
#
# Mechanical properties :
#
#
# Convention : Reuss Voigt Hill
#
# Bulk Modulus (GPa) = 36.84203 41.18532 39.01368
# Shear Modulus (GPa) = 32.83165 38.44956 35.64060
#
# Velocity S-wave (km/s) = 3.75800 4.06683 3.91546
# Velocity P-wave (km/s) = 5.88878 6.30619 6.10106
#
# Compressibility (1/GPa) = 0.02714291
#
# Stress axis : x y z
#
# Youngs Moduli (GPa) = 55.68001 87.52391 93.50705
#
# Poissons Ratio (x) = 0.33559 0.27644
# Poissons Ratio (y) = 0.21349 -0.03014
# Poissons Ratio (z) = 0.16461 -0.02821
#
# Static dielectric constant tensor:
#      x y z
#    x 4.166200 0.028610 0.133270 
#    y 0.028610 5.096900 -0.280050 
#    z 0.133270 -0.280050 4.501780 
# 
# 
# High freq. dielectric constant tensor:
#      x y z
#    x 1.917230 -0.000300 0.009570 
#    y -0.000300 1.940080 0.008490 
#    z 0.009570 0.008490 1.926060 
# 
# From -- ./inp_files/40158.got.cif
#   From: 2010.06.25/outbox.cif.g09.slc.cpg/sg2_21_cif.got.tgz:40158.got - 2010.06.27 13:26:56.
