data_PCOD8023423
_publ_section_title
;
Structure prediction by ZEFSAII (Michael W. Deem and Ramdas Pophale) SiO2 
 PCOD8023423
Probable space group: P -1
;
_chemical_formula_sum "Si O2"
_cell_formula_units_Z 16
_cell_length_a 22.699447
_cell_length_b 5.350335
_cell_length_c 5.277886
_cell_angle_alpha 96.327029
_cell_angle_beta 85.289524
_cell_angle_gamma 97.045571
_cell_volume 630.751325
_symmetry_space_group_name_H-M "P -1"
_symmetry_group_IT_number 2
_symmetry_cell_setting 'triclinic'
loop_
_space_group_symop_operation_xyz
x,y,z
-x,-y,-z
loop_
_atom_site_type_symbol
_atom_site_label
_atom_site_fract_x
_atom_site_fract_y
_atom_site_fract_z
Si Si1 0.234113 0.546657 0.914126
Si Si2 0.568013 0.603453 0.510117
Si Si3 0.932025 0.976767 0.095694
Si Si4 0.881179 0.453302 0.321728
Si Si5 0.657442 0.263294 0.366990
Si Si6 0.272726 0.006280 0.303009
Si Si7 0.381966 0.156304 0.003432
Si Si8 0.837422 0.794883 0.756345
O O1 0.179750 0.659483 0.803649
O O2 0.288854 0.518192 0.699894
O O3 0.207192 0.274812 0.000049
O O4 0.257458 0.736196 0.147598
O O5 0.500000 0.500000 0.500000
O O6 0.607763 0.384093 0.562123
O O7 0.592803 0.683653 0.231107
O O8 0.574545 0.807923 0.760483
O O9 0.914535 0.707063 0.206631
O O10 0.921887 0.221985 0.299554
O O11 0.892305 0.992017 0.855807
O O12 0.000000 0.000000 0.000000
O O13 0.864464 0.545490 0.617368
O O14 0.686057 0.037196 0.474843
O O15 0.624158 0.137792 0.114166
O O16 0.208358 0.097546 0.416343
O O17 0.314691 0.203587 0.127079
#
# Coordination Sequence:
#
# PCOD8023423 Si02
#       8
#     2   2   2   2   2   2   2   2
#     4  10  23  41  67 103 145 184 237 303 383 452
#     4  12  28  49  73 104 145 197 253 303 371 456
#     4  11  26  48  69 104 149 197 255 313 372 460
#     4  11  25  42  74 103 142 194 250 308 385 450
#     4  11  26  44  73 104 147 187 243 305 384 450
#     4  11  23  43  70 106 145 185 240 312 386 459
#     4  11  26  47  71 106 141 191 245 303 381 440
#     4  11  25  42  70 103 148 185 247 307 386 454
#
# _framework density 25.366574
#
# number of rings (size 3 to 8) (size 9 to 14) (size 15 to 20)
#    0.000    1.000    2.500    2.250   10.500    3.000 
#    0.000    0.000    0.000    0.000    0.000    0.000 
#    0.000    0.000    0.000    0.000    0.000    0.000 
#
# Total GULP energy -198227.093987 kJ/mol
# GULP energy per Si atom -12389.193374 kJ/mol
# Density = 2.530884 g / cm^3
# Si number density = 25.366574 Si / 1000 Ang^3
#
#
#
# Elastic Constant Matrix: (Units=GPa)
#
#
# Indices 1 2 3 4 5 6 
#
# 1 186.7501 63.7992 55.4775 -1.4344 -19.0250 18.9127
# 2 63.7992 96.1493 31.1584 2.8595 -7.9806 8.0042
# 3 55.4775 31.1584 111.4134 -4.0751 -1.0388 9.7298
# 4 -1.4344 2.8595 -4.0751 28.3744 -0.5889 -3.8426
# 5 -19.0250 -7.9806 -1.0388 -0.5889 34.9885 7.6967
# 6 18.9127 8.0042 9.7298 -3.8426 7.6967 42.1030
#
#
#
# Elastic Compliance Matrix: (Units=1/GPa)
#
#
# Indices 1 2 3 4 5 6 
#
# 1 0.008260 -0.004013 -0.002679 0.000106 0.004176 -0.003082
# 2 -0.004013 0.013883 -0.001878 -0.001955 0.001067 -0.000776
# 3 -0.002679 -0.001878 0.010927 0.001517 -0.001410 -0.000569
# 4 0.000106 -0.001955 0.001517 0.036108 -0.000473 0.003355
# 5 0.004176 0.001067 -0.001410 -0.000473 0.032758 -0.007784
# 6 -0.003082 -0.000776 -0.000569 0.003355 -0.007784 0.027144
#
#
# Mechanical properties :
#
#
# Convention : Reuss Voigt Hill
#
# Bulk Modulus (GPa) = 62.77359 77.24255 70.00807
# Shear Modulus (GPa) = 32.99721 37.35170 35.17446
#
# Velocity S-wave (km/s) = 3.61059 3.84145 3.72781
# Velocity P-wave (km/s) = 6.49478 7.08465 6.79612
#
# Compressibility (1/GPa) = 0.01593026
#
# Stress axis : x y z
#
# Youngs Moduli (GPa) = 121.06963 72.03061 91.51887
#
# Poissons Ratio (x) = 0.28903 0.24515
# Poissons Ratio (y) = 0.48580 0.17190
# Poissons Ratio (z) = 0.32431 0.13530
#
# Static dielectric constant tensor:
#      x y z
#    x 4.666430 0.214830 -0.045110 
#    y 0.214830 4.330130 0.061330 
#    z -0.045110 0.061330 4.643040 
# 
# 
# High freq. dielectric constant tensor:
#      x y z
#    x 2.009020 0.020210 -0.003050 
#    y 0.020210 2.002820 0.009240 
#    z -0.003050 0.009240 2.013560 
# 
# From -- ./inp_files/11028.got.cif
#   From: 2010.06.25/outbox.cif.g09.slc.cpg/sg2_6_cif.got.tgz:11028.got - 2010.06.27 13:26:56.
