data_PCOD8023192
_publ_section_title
;
Structure prediction by ZEFSAII (Michael W. Deem and Ramdas Pophale) SiO2 
 PCOD8023192
Probable space group: P -1
;
_chemical_formula_sum "Si O2"
_cell_formula_units_Z 12
_cell_length_a 14.971942
_cell_length_b 8.440339
_cell_length_c 11.659578
_cell_angle_alpha 138.076305
_cell_angle_beta 32.483661
_cell_angle_gamma 131.247059
_cell_volume 526.637007
_symmetry_space_group_name_H-M "P -1"
_symmetry_group_IT_number 2
_symmetry_cell_setting 'triclinic'
loop_
_space_group_symop_operation_xyz
x,y,z
-x,-y,-z
loop_
_atom_site_type_symbol
_atom_site_label
_atom_site_fract_x
_atom_site_fract_y
_atom_site_fract_z
Si Si1 0.342680 0.016026 0.818571
Si Si2 0.182818 0.741683 0.028285
Si Si3 0.681550 0.072706 0.789589
Si Si4 0.851955 0.794579 0.280865
Si Si5 0.199706 0.512119 0.288400
Si Si6 0.276534 0.859994 0.569380
O O1 0.534513 0.036958 0.591913
O O2 0.234389 0.876193 0.758676
O O3 0.265681 0.263164 0.055100
O O4 0.341796 0.858676 0.849544
O O5 0.187435 0.850487 0.209185
O O6 0.031260 0.824261 0.162161
O O7 0.188595 0.458920 0.872233
O O8 0.702561 0.296131 0.799776
O O9 0.726545 0.839605 0.545787
O O10 0.500000 0.000000 0.000000
O O11 0.845673 0.987861 0.291089
O O12 0.253248 0.589204 0.402270
O O13 0.000000 0.500000 0.500000
#
# Coordination Sequence:
#
# PCOD8023192 Si02
#       6
#     2   2   2   2   2   2
#     4  11  23  39  64  93 124 164 210 259 312 371
#     4  11  23  39  64  93 124 164 210 259 312 371
#     4  11  24  42  66  93 127 166 206 258 313 372
#     4  10  23  41  61  89 124 164 209 257 310 370
#     4  11  24  42  66  93 127 166 206 258 313 372
#     4  10  23  41  61  89 124 164 209 257 310 370
#
# _framework density 22.786093999999999
#
# number of rings (size 3 to 8) (size 9 to 14) (size 15 to 20)
#    0.000    1.333    0.000    6.000    0.000   12.000 
#    0.000    0.000    0.000    0.000    0.000    0.000 
#    0.000    0.000    0.000    0.000    0.000    0.000 
#
# Total GULP energy -148729.976773 kJ/mol
# GULP energy per Si atom -12394.164731 kJ/mol
# Density = 2.273423 g / cm^3
# Si number density = 22.786094 Si / 1000 Ang^3
#
#
#
# Elastic Constant Matrix: (Units=GPa)
#
#
# Indices 1 2 3 4 5 6 
#
# 1 107.7415 5.2821 17.7151 24.9791 29.0441 15.2562
# 2 5.2821 54.8073 -4.3357 -7.9441 6.7065 3.6252
# 3 17.7151 -4.3357 46.8951 6.8158 5.8746 -2.3347
# 4 24.9791 -7.9441 6.8158 25.3766 5.8080 1.0773
# 5 29.0441 6.7065 5.8746 5.8080 36.1742 1.4864
# 6 15.2562 3.6252 -2.3347 1.0773 1.4864 29.2551
#
#
#
# Elastic Compliance Matrix: (Units=1/GPa)
#
#
# Indices 1 2 3 4 5 6 
#
# 1 0.017062 -0.002180 -0.003763 -0.013810 -0.010142 -0.007904
# 2 -0.002180 0.020446 0.001806 0.008971 -0.003717 -0.001394
# 3 -0.003763 0.001806 0.023508 -0.001982 -0.000967 0.003737
# 4 -0.013810 0.008971 -0.001982 0.056042 0.000591 0.003838
# 5 -0.010142 -0.003717 -0.000967 0.000591 0.036382 0.003802
# 6 -0.007904 -0.001394 0.003737 0.003838 0.003802 0.038440
#
#
# Mechanical properties :
#
#
# Convention : Reuss Voigt Hill
#
# Bulk Modulus (GPa) = 18.95996 27.41855 23.18926
# Shear Modulus (GPa) = 22.96383 30.88001 26.92192
#
# Velocity S-wave (km/s) = 3.17803 3.68532 3.44103
# Velocity P-wave (km/s) = 4.66963 5.49253 5.09771
#
# Compressibility (1/GPa) = 0.05274272
#
# Stress axis : x y z
#
# Youngs Moduli (GPa) = 58.61059 48.90918 42.53904
#
# Poissons Ratio (x) = 0.10662 0.16006
# Poissons Ratio (y) = 0.12776 -0.07683
# Poissons Ratio (z) = 0.22054 -0.08834
#
# Static dielectric constant tensor:
#      x y z
#    x 4.653490 0.173450 0.382050 
#    y 0.173450 4.097050 0.034700 
#    z 0.382050 0.034700 4.344060 
# 
# 
# High freq. dielectric constant tensor:
#      x y z
#    x 1.916710 0.014580 0.014300 
#    y 0.014580 1.891420 -0.000590 
#    z 0.014300 -0.000590 1.908610 
# 
# From -- ./inp_files/160563.got.cif
#   From: 2010.06.25/outbox.cif.g09.slc.cpg/sg2_81_cif.got.tgz:160563.got - 2010.06.27 13:26:56.
