data_PCOD8023654
_publ_section_title
;
Structure prediction by ZEFSAII (Michael W. Deem and Ramdas Pophale) SiO2 
 PCOD8023654
Probable space group: P -1
;
_chemical_formula_sum "Si O2"
_cell_formula_units_Z 16
_cell_length_a 11.196993
_cell_length_b 10.731474
_cell_length_c 16.922814
_cell_angle_alpha 53.049759
_cell_angle_beta 148.868109
_cell_angle_gamma 133.821125
_cell_volume 758.333964
_symmetry_space_group_name_H-M "P -1"
_symmetry_group_IT_number 2
_symmetry_cell_setting 'triclinic'
loop_
_space_group_symop_operation_xyz
x,y,z
-x,-y,-z
loop_
_atom_site_type_symbol
_atom_site_label
_atom_site_fract_x
_atom_site_fract_y
_atom_site_fract_z
Si Si1 0.852743 0.889943 0.140745
Si Si2 0.817000 0.342089 0.403101
Si Si3 0.607484 0.052369 0.128955
Si Si4 0.768061 0.771267 0.313886
Si Si5 0.078504 0.412044 0.283900
Si Si6 0.791078 0.556477 0.159357
Si Si7 0.484412 0.519962 0.607385
Si Si8 0.585923 0.852050 0.626700
O O1 0.746734 0.791841 0.200623
O O2 0.921269 0.758185 0.178304
O O3 0.623297 0.931004 0.958835
O O4 0.107131 0.067785 0.222977
O O5 0.796586 0.421805 0.278398
O O6 0.543171 0.237243 0.329784
O O7 0.000000 0.500000 0.500000
O O8 0.945438 0.208742 0.512866
O O9 0.864582 0.224722 0.213800
O O10 0.692685 0.907954 0.265685
O O11 0.500000 0.000000 0.000000
O O12 0.565112 0.581342 0.298986
O O13 0.249165 0.415319 0.455333
O O14 0.256702 0.475098 0.284054
O O15 0.941420 0.538061 0.174498
O O16 0.500000 0.500000 0.000000
O O17 0.504570 0.710746 0.563996
O O18 0.500000 0.000000 0.500000
#
# Coordination Sequence:
#
# PCOD8023654 Si02
#       8
#     2   2   2   2   2   2   2   2
#     4  11  22  42  68  96 128 177 212 269 335 387
#     4  12  21  41  69 100 125 172 228 265 330 392
#     4  10  23  42  61  90 128 171 213 258 334 393
#     4  11  21  41  67  91 130 163 226 271 312 398
#     4  11  23  41  63  91 128 170 211 264 333 390
#     4  12  23  44  68  93 138 177 216 269 336 399
#     4  11  23  40  64  97 126 165 221 271 326 379
#     4  12  22  39  70 101 130 163 225 284 316 388
#
# _framework density 21.098884000000002
#
# number of rings (size 3 to 8) (size 9 to 14) (size 15 to 20)
#    0.000    0.750    6.250    2.250    0.000    0.500 
#    2.250    3.750    0.000    0.000    0.000    0.000 
#    0.000    0.000    0.000    0.000    0.000    0.000 
#
# Total GULP energy -198325.950526 kJ/mol
# GULP energy per Si atom -12395.371908 kJ/mol
# Density = 2.105086 g / cm^3
# Si number density = 21.098884 Si / 1000 Ang^3
#
#
#
# Elastic Constant Matrix: (Units=GPa)
#
#
# Indices 1 2 3 4 5 6 
#
# 1 123.5362 60.2056 39.8370 -2.5250 35.5333 -4.6511
# 2 60.2056 125.4253 48.8428 14.2009 14.4142 -11.8265
# 3 39.8370 48.8428 108.8356 6.4950 30.6428 -6.6518
# 4 -2.5250 14.2009 6.4950 41.0008 -6.1587 11.9525
# 5 35.5333 14.4142 30.6428 -6.1587 38.0704 0.4547
# 6 -4.6511 -11.8265 -6.6518 11.9525 0.4547 37.9592
#
#
#
# Elastic Compliance Matrix: (Units=1/GPa)
#
#
# Indices 1 2 3 4 5 6 
#
# 1 0.013935 -0.005779 0.000514 0.001192 -0.011036 -0.000246
# 2 -0.005779 0.012908 -0.003911 -0.005003 0.002796 0.004170
# 3 0.000514 -0.003911 0.014189 -0.003232 -0.010972 0.002480
# 4 0.001192 -0.005003 -0.003232 0.031502 0.008622 -0.012001
# 5 -0.011036 0.002796 -0.010972 0.008622 0.045803 -0.005668
# 6 -0.000246 0.004170 0.002480 -0.012001 -0.005668 0.031895
#
#
# Mechanical properties :
#
#
# Convention : Reuss Voigt Hill
#
# Bulk Modulus (GPa) = 44.09304 72.84089 58.46697
# Shear Modulus (GPa) = 28.38581 37.33354 32.85967
#
# Velocity S-wave (km/s) = 3.67191 4.21105 3.95069
# Velocity P-wave (km/s) = 6.23866 7.63168 6.97006
#
# Compressibility (1/GPa) = 0.02267932
#
# Stress axis : x y z
#
# Youngs Moduli (GPa) = 71.76229 77.46920 70.47684
#
# Poissons Ratio (x) = 0.44769 -0.03621
# Poissons Ratio (y) = 0.41471 0.27566
# Poissons Ratio (z) = -0.03688 0.30301
#
# Static dielectric constant tensor:
#      x y z
#    x 4.465040 -0.573960 0.532900 
#    y -0.573960 4.382300 -0.096140 
#    z 0.532900 -0.096140 3.830910 
# 
# 
# High freq. dielectric constant tensor:
#      x y z
#    x 1.831800 -0.015030 0.033030 
#    y -0.015030 1.824930 0.002730 
#    z 0.033030 0.002730 1.818350 
# 
# From -- ./inp_files/425239.got.cif
#   From: 2010.06.25/outbox.cif.g09.slc.cpg/sg2_213_cif.got.tgz:425239.got - 2010.06.27 13:26:56.
