data_PCOD8023830
_publ_section_title
;
Structure prediction by ZEFSAII (Michael W. Deem and Ramdas Pophale) SiO2 
 PCOD8023830
Probable space group: P -1
;
_chemical_formula_sum "Si O2"
_cell_formula_units_Z 16
_cell_length_a 9.278883
_cell_length_b 15.283029
_cell_length_c 18.677815
_cell_angle_alpha 38.565463
_cell_angle_beta 136.925612
_cell_angle_gamma 150.551069
_cell_volume 801.117086
_symmetry_space_group_name_H-M "P -1"
_symmetry_group_IT_number 2
_symmetry_cell_setting 'triclinic'
loop_
_space_group_symop_operation_xyz
x,y,z
-x,-y,-z
loop_
_atom_site_type_symbol
_atom_site_label
_atom_site_fract_x
_atom_site_fract_y
_atom_site_fract_z
Si Si1 0.359260 0.557671 0.710596
Si Si2 0.255896 0.960254 0.983485
Si Si3 0.617776 0.679211 0.881310
Si Si4 0.279014 0.799841 0.237110
Si Si5 0.416305 0.031352 0.271974
Si Si6 0.265628 0.269549 0.760423
Si Si7 0.334229 0.018834 0.483578
Si Si8 0.346121 0.291993 0.610524
O O1 0.533793 0.618189 0.808275
O O2 0.430073 0.465358 0.740726
O O3 0.480637 0.751406 0.591244
O O4 0.009117 0.402848 0.700231
O O5 0.185696 0.841135 0.105894
O O6 0.340598 0.161905 0.900588
O O7 0.500000 0.000000 0.000000
O O8 0.971059 0.840020 0.906527
O O9 0.487653 0.761614 0.816020
O O10 0.500000 0.500000 0.000000
O O11 0.502219 0.778819 0.316375
O O12 0.433884 0.987813 0.224290
O O13 0.647578 0.044850 0.391586
O O14 0.082684 0.858489 0.290961
O O15 0.394571 0.323568 0.692865
O O16 0.500000 0.000000 0.500000
O O17 0.995564 0.880333 0.426154
O O18 0.500000 0.500000 0.500000
#
# Coordination Sequence:
#
# PCOD8023830 Si02
#       8
#     2   2   2   2   2   2   2   2
#     4  11  24  41  68  94 126 167 220 259 310 378
#     4  11  22  43  65  88 135 168 203 264 325 371
#     4  11  22  39  65  95 122 163 218 260 306 378
#     4  11  25  42  65  97 126 169 212 262 322 375
#     4  10  24  41  67  93 124 170 216 258 314 378
#     4  10  23  42  66  95 125 171 213 256 318 382
#     4  12  22  44  67  90 131 170 211 264 311 376
#     4  12  26  43  65  96 132 167 209 262 324 379
#
# _framework density 19.972113
#
# number of rings (size 3 to 8) (size 9 to 14) (size 15 to 20)
#    0.000    1.000    5.000    1.500    3.500    3.000 
#    0.000    0.625    0.000    0.000    0.000    0.000 
#    0.000    0.000    0.000    0.000    0.000    0.000 
#
# Total GULP energy -198414.778339 kJ/mol
# GULP energy per Si atom -12400.923646 kJ/mol
# Density = 1.992666 g / cm^3
# Si number density = 19.972113 Si / 1000 Ang^3
#
#
#
# Elastic Constant Matrix: (Units=GPa)
#
#
# Indices 1 2 3 4 5 6 
#
# 1 127.8670 60.3318 52.1141 1.8405 12.5274 -15.9489
# 2 60.3318 106.1534 59.3807 -10.9177 15.2715 -22.2673
# 3 52.1141 59.3807 135.6559 -7.8577 14.4134 -11.7494
# 4 1.8405 -10.9177 -7.8577 44.3991 -3.3376 0.5240
# 5 12.5274 15.2715 14.4134 -3.3376 32.7607 1.2492
# 6 -15.9489 -22.2673 -11.7494 0.5240 1.2492 35.4328
#
#
#
# Elastic Compliance Matrix: (Units=1/GPa)
#
#
# Indices 1 2 3 4 5 6 
#
# 1 0.011372 -0.005090 -0.002007 -0.002197 -0.001368 0.001335
# 2 -0.005090 0.017148 -0.004307 0.003273 -0.004092 0.007153
# 3 -0.002007 -0.004307 0.010229 0.000713 -0.001646 -0.000171
# 4 -0.002197 0.003273 0.000713 0.023638 0.001374 0.000907
# 5 -0.001368 -0.004092 -0.001646 0.001374 0.034008 -0.004952
# 6 0.001335 0.007153 -0.000171 0.000907 -0.004952 0.033423
#
#
# Mechanical properties :
#
#
# Convention : Reuss Voigt Hill
#
# Bulk Modulus (GPa) = 62.72730 79.25886 70.99308
# Shear Modulus (GPa) = 31.65743 35.70851 33.68297
#
# Velocity S-wave (km/s) = 3.98563 4.23297 4.11116
# Velocity P-wave (km/s) = 7.25644 7.97882 7.62619
#
# Compressibility (1/GPa) = 0.01594202
#
# Stress axis : x y z
#
# Youngs Moduli (GPa) = 87.93258 58.31534 97.75711
#
# Poissons Ratio (x) = 0.29680 0.19622
# Poissons Ratio (y) = 0.44755 0.42105
# Poissons Ratio (z) = 0.17650 0.25117
#
# Static dielectric constant tensor:
#      x y z
#    x 3.584090 -0.296640 -0.193780 
#    y -0.296640 3.835270 -0.345570 
#    z -0.193780 -0.345570 3.549630 
# 
# 
# High freq. dielectric constant tensor:
#      x y z
#    x 1.778850 -0.013380 0.004090 
#    y -0.013380 1.780000 -0.003550 
#    z 0.004090 -0.003550 1.795200 
# 
# From -- ./inp_files/178224.got.cif
#   From: 2010.06.25/outbox.cif.g09.slc.cpg/sg2_90_cif.got.tgz:178224.got - 2010.06.27 13:26:56.
