data_PCOD8023482
_publ_section_title
;
Structure prediction by ZEFSAII (Michael W. Deem and Ramdas Pophale) SiO2 
 PCOD8023482
Probable space group: P -1
;
_chemical_formula_sum "Si O2"
_cell_formula_units_Z 16
_cell_length_a 8.729687
_cell_length_b 15.430585
_cell_length_c 12.264338
_cell_angle_alpha 152.400686
_cell_angle_beta 79.831796
_cell_angle_gamma 107.641092
_cell_volume 713.359151
_symmetry_space_group_name_H-M "P -1"
_symmetry_group_IT_number 2
_symmetry_cell_setting 'triclinic'
loop_
_space_group_symop_operation_xyz
x,y,z
-x,-y,-z
loop_
_atom_site_type_symbol
_atom_site_label
_atom_site_fract_x
_atom_site_fract_y
_atom_site_fract_z
Si Si1 0.650209 0.472190 0.384204
Si Si2 0.095805 0.515407 0.893992
Si Si3 0.241799 0.612437 0.301213
Si Si4 0.799187 0.021452 0.176102
Si Si5 0.153170 0.191493 0.386771
Si Si6 0.585334 0.641414 0.893645
Si Si7 0.314973 0.921131 0.975098
Si Si8 0.589614 0.229289 0.764398
O O1 0.500000 0.500000 0.500000
O O2 0.804980 0.671161 0.575657
O O3 0.593012 0.453219 0.243577
O O4 0.717718 0.299433 0.222375
O O5 0.150205 0.321015 0.641011
O O6 0.953339 0.517641 0.827111
O O7 0.254362 0.715528 0.108153
O O8 0.000000 0.500000 0.000000
O O9 0.267688 0.831895 0.582238
O O10 0.316262 0.512070 0.274469
O O11 0.344596 0.640151 0.206160
O O12 0.801670 0.074091 0.106778
O O13 0.976949 0.032715 0.209775
O O14 0.679957 0.804069 0.975008
O O15 0.279468 0.062311 0.232382
O O16 0.558670 0.712252 0.096790
O O17 0.500000 0.000000 0.000000
O O18 0.500000 0.000000 0.500000
#
# Coordination Sequence:
#
# PCOD8023482 Si02
#       8
#     2   2   2   2   2   2   2   2
#     4  12  24  42  68  99 135 175 226 278 330 394
#     4   9  21  43  68  96 136 174 218 273 335 402
#     4  10  23  41  68  93 134 177 216 272 339 391
#     4  11  24  43  63  96 136 174 221 274 327 404
#     4  11  24  43  68  97 137 177 220 282 336 396
#     4  12  23  41  65  96 132 171 227 275 328 397
#     4  12  24  41  69 100 132 178 228 275 336 390
#     4  11  21  42  69  97 130 171 224 280 330 396
#
# _framework density 22.429096000000001
#
# number of rings (size 3 to 8) (size 9 to 14) (size 15 to 20)
#    0.000    1.000    5.000    1.500    0.000    2.500 
#    0.000    0.625    0.000    0.000    0.000    0.000 
#    0.000    0.000    0.000    0.000    0.000    0.000 
#
# Total GULP energy -198215.139485 kJ/mol
# GULP energy per Si atom -12388.446218 kJ/mol
# Density = 2.237805 g / cm^3
# Si number density = 22.429096 Si / 1000 Ang^3
#
#
#
# Elastic Constant Matrix: (Units=GPa)
#
#
# Indices 1 2 3 4 5 6 
#
# 1 86.0960 25.0574 42.8459 8.9352 -9.5352 -1.6170
# 2 25.0574 73.6294 27.6970 0.8430 -20.7878 -5.5772
# 3 42.8459 27.6970 84.2960 -1.4457 -11.6116 5.5329
# 4 8.9352 0.8430 -1.4457 43.4101 7.4645 -10.7677
# 5 -9.5352 -20.7878 -11.6116 7.4645 52.2203 -4.5644
# 6 -1.6170 -5.5772 5.5329 -10.7677 -4.5644 39.9157
#
#
#
# Elastic Compliance Matrix: (Units=1/GPa)
#
#
# Indices 1 2 3 4 5 6 
#
# 1 0.016603 -0.002447 -0.007602 -0.003659 0.000934 0.000504
# 2 -0.002447 0.017946 -0.004049 -0.000133 0.006134 0.003635
# 3 -0.007602 -0.004049 0.017323 0.001448 0.000397 -0.002839
# 4 -0.003659 -0.000133 0.001448 0.026001 -0.003570 0.006238
# 5 0.000934 0.006134 0.000397 -0.003570 0.022575 0.002458
# 6 0.000504 0.003635 -0.002839 0.006238 0.002458 0.027939
#
#
# Mechanical properties :
#
#
# Convention : Reuss Voigt Hill
#
# Bulk Modulus (GPa) = 42.23600 48.35800 45.29700
# Shear Modulus (GPa) = 30.39982 37.00395 33.70188
#
# Velocity S-wave (km/s) = 3.68553 4.06620 3.88054
# Velocity P-wave (km/s) = 6.08134 6.60701 6.34961
#
# Compressibility (1/GPa) = 0.02367649
#
# Stress axis : x y z
#
# Youngs Moduli (GPa) = 60.23043 55.72343 57.72630
#
# Poissons Ratio (x) = 0.13634 0.43884
# Poissons Ratio (y) = 0.14737 0.23372
# Poissons Ratio (z) = 0.45788 0.22561
#
# Static dielectric constant tensor:
#      x y z
#    x 4.297590 0.158140 0.089340 
#    y 0.158140 4.000220 -0.263890 
#    z 0.089340 -0.263890 4.319020 
# 
# 
# High freq. dielectric constant tensor:
#      x y z
#    x 1.884840 0.028730 -0.000450 
#    y 0.028730 1.868470 -0.014880 
#    z -0.000450 -0.014880 1.897300 
# 
# From -- ./inp_files/400019.got.cif
#   From: 2010.06.25/outbox.cif.g09.slc.cpg/sg2_201_cif.got.tgz:400019.got - 2010.06.27 13:26:56.
