data_PCOD8023116
_publ_section_title
;
Structure prediction by ZEFSAII (Michael W. Deem and Ramdas Pophale) SiO2 
 PCOD8023116
Probable space group: P -1
;
_chemical_formula_sum "Si O2"
_cell_formula_units_Z 16
_cell_length_a 9.483384
_cell_length_b 11.775637
_cell_length_c 17.853749
_cell_angle_alpha 130.477339
_cell_angle_beta 36.899749
_cell_angle_gamma 104.649921
_cell_volume 739.916752
_symmetry_space_group_name_H-M "P -1"
_symmetry_group_IT_number 2
_symmetry_cell_setting 'triclinic'
loop_
_space_group_symop_operation_xyz
x,y,z
-x,-y,-z
loop_
_atom_site_type_symbol
_atom_site_label
_atom_site_fract_x
_atom_site_fract_y
_atom_site_fract_z
Si Si1 0.410856 0.907571 0.341074
Si Si2 0.640568 0.373693 0.510644
Si Si3 0.550416 0.579356 0.889056
Si Si4 0.758920 0.055299 0.220960
Si Si5 0.596361 0.223918 0.208431
Si Si6 0.716353 0.783578 0.801227
Si Si7 0.229865 0.748815 0.242286
Si Si8 0.331061 0.413977 0.804420
O O1 0.464616 0.777050 0.191078
O O2 0.463198 0.794579 0.344981
O O3 0.615085 0.973001 0.289749
O O4 0.086732 0.074936 0.543260
O O5 0.678762 0.244333 0.371254
O O6 0.501685 0.581294 0.631711
O O7 0.402693 0.397545 0.679474
O O8 0.956171 0.280738 0.373218
O O9 0.696323 0.672895 0.831363
O O10 0.770316 0.404433 0.774082
O O11 0.419086 0.537348 0.857638
O O12 0.290883 0.712838 0.113035
O O13 0.636146 0.096047 0.205994
O O14 0.096786 0.890561 0.013256
O O15 0.353555 0.261831 0.269240
O O16 0.500000 0.000000 0.000000
O O17 0.000000 0.500000 0.000000
#
# Coordination Sequence:
#
# PCOD8023116 Si02
#       8
#     2   2   2   2   2   2   2   2
#     4  10  23  40  68  95 132 178 220 287 337 414
#     4  12  26  46  71 102 136 191 229 284 354 412
#     4  10  23  43  67  98 132 177 225 282 342 408
#     4  11  26  44  69 101 139 181 231 285 352 417
#     4  11  25  47  65 100 143 180 231 286 344 418
#     4  12  26  43  73 102 139 180 236 286 342 417
#     4   9  22  43  65  98 132 174 229 280 344 406
#     4  11  25  43  67  99 140 175 230 285 346 413
#
# _framework density 21.624056
#
# number of rings (size 3 to 8) (size 9 to 14) (size 15 to 20)
#    0.000    1.250    2.500    1.500    7.000    1.500 
#    2.250    0.000    0.000    0.000    0.000    0.000 
#    0.000    0.000    0.000    0.000    0.000    0.000 
#
# Total GULP energy -198347.608411 kJ/mol
# GULP energy per Si atom -12396.725526 kJ/mol
# Density = 2.157484 g / cm^3
# Si number density = 21.624056 Si / 1000 Ang^3
#
#
#
# Elastic Constant Matrix: (Units=GPa)
#
#
# Indices 1 2 3 4 5 6 
#
# 1 73.5270 27.6065 22.5025 6.7925 -2.3253 -3.1642
# 2 27.6065 94.9258 27.9272 3.9939 -5.2047 10.5978
# 3 22.5025 27.9272 112.5967 29.7288 -18.7725 -0.1944
# 4 6.7925 3.9939 29.7288 91.0197 -37.8266 -11.7225
# 5 -2.3253 -5.2047 -18.7725 -37.8266 70.6124 19.0129
# 6 -3.1642 10.5978 -0.1944 -11.7225 19.0129 35.0792
#
#
#
# Elastic Compliance Matrix: (Units=1/GPa)
#
#
# Indices 1 2 3 4 5 6 
#
# 1 0.016115 -0.004486 -0.002240 -0.000488 -0.001599 0.003500
# 2 -0.004486 0.013159 -0.002211 0.000628 0.001987 -0.005260
# 3 -0.002240 -0.002211 0.010867 -0.002834 0.001460 -0.001213
# 4 -0.000488 0.000628 -0.002834 0.014969 0.007044 0.000935
# 5 -0.001599 0.001987 0.001460 0.007044 0.021054 -0.009794
# 6 0.003500 -0.005260 -0.001213 0.000935 -0.009794 0.036026
#
#
# Mechanical properties :
#
#
# Convention : Reuss Voigt Hill
#
# Bulk Modulus (GPa) = 44.90609 48.56910 46.73760
# Shear Modulus (GPa) = 36.36729 52.87647 44.62188
#
# Velocity S-wave (km/s) = 4.10542 4.95032 4.54754
# Velocity P-wave (km/s) = 6.57909 7.42857 7.01670
#
# Compressibility (1/GPa) = 0.02226869
#
# Stress axis : x y z
#
# Youngs Moduli (GPa) = 62.05312 75.99222 92.02136
#
# Poissons Ratio (x) = 0.34087 0.20611
# Poissons Ratio (y) = 0.27835 0.20346
# Poissons Ratio (z) = 0.13899 0.16802
#
# Static dielectric constant tensor:
#      x y z
#    x 4.184820 0.214370 0.088780 
#    y 0.214370 4.031510 0.182840 
#    z 0.088780 0.182840 3.966080 
# 
# 
# High freq. dielectric constant tensor:
#      x y z
#    x 1.846510 -0.002070 0.003700 
#    y -0.002070 1.855500 0.015470 
#    z 0.003700 0.015470 1.857610 
# 
# From -- ./inp_files/559899.got.cif
#   From: 2010.06.25/outbox.cif.g09.slc.cpg/sg2_280_cif.got.tgz:559899.got - 2010.06.27 13:26:56.
