data_PCOD8023840
_publ_section_title
;
Structure prediction by ZEFSAII (Michael W. Deem and Ramdas Pophale) SiO2 
 PCOD8023840
Probable space group: P -1
;
_chemical_formula_sum "Si O2"
_cell_formula_units_Z 16
_cell_length_a 15.732173
_cell_length_b 7.076633
_cell_length_c 13.971499
_cell_angle_alpha 79.804433
_cell_angle_beta 49.399641
_cell_angle_gamma 47.587517
_cell_volume 770.919946
_symmetry_space_group_name_H-M "P -1"
_symmetry_group_IT_number 2
_symmetry_cell_setting 'triclinic'
loop_
_space_group_symop_operation_xyz
x,y,z
-x,-y,-z
loop_
_atom_site_type_symbol
_atom_site_label
_atom_site_fract_x
_atom_site_fract_y
_atom_site_fract_z
Si Si1 0.348316 0.414144 0.290427
Si Si2 0.183177 0.616403 0.189132
Si Si3 0.174092 0.754150 0.567670
Si Si4 0.419415 0.746370 0.462856
Si Si5 0.389238 0.678449 0.973510
Si Si6 0.379055 0.205646 0.775606
Si Si7 0.147296 0.347845 0.090053
Si Si8 0.229206 0.299439 0.678954
O O1 0.283219 0.450000 0.228810
O O2 0.194483 0.654876 0.452657
O O3 0.480653 0.424660 0.195449
O O4 0.449059 0.101041 0.280828
O O5 0.141209 0.468874 0.184153
O O6 0.290859 0.605203 0.034366
O O7 0.019628 0.949480 0.303042
O O8 0.284168 0.804238 0.494623
O O9 0.229596 0.517879 0.622166
O O10 0.500000 0.500000 0.500000
O O11 0.571849 0.635231 0.295534
O O12 0.328412 0.040483 0.555098
O O13 0.500000 0.500000 0.000000
O O14 0.255750 0.019539 0.058261
O O15 0.325719 0.165993 0.720913
O O16 0.225826 0.383160 0.947014
O O17 0.959025 0.535787 0.180871
#
# Coordination Sequence:
#
# PCOD8023840 Si02
#       8
#     2   2   2   2   2   2   2   2
#     4  10  23  42  66  96 133 172 216 273 319 385
#     4  11  23  44  65  97 133 174 220 262 328 390
#     4  12  23  42  67  98 133 169 218 267 330 391
#     4  12  24  42  67  97 129 177 216 265 327 388
#     4   9  21  40  64  91 129 175 212 265 319 376
#     4  11  24  43  67  99 130 171 218 272 323 385
#     4  11  24  43  68  97 133 172 217 270 326 388
#     4  12  23  46  66  97 137 167 216 275 329 384
#
# _framework density 20.754428000000001
#
# number of rings (size 3 to 8) (size 9 to 14) (size 15 to 20)
#    0.000    1.000    5.000    1.875    1.750    4.500 
#    2.250    2.500    0.000    0.000    0.000    0.000 
#    0.000    0.000    0.000    0.000    0.000    0.000 
#
# Total GULP energy -198373.311315 kJ/mol
# GULP energy per Si atom -12398.331957 kJ/mol
# Density = 2.070719 g / cm^3
# Si number density = 20.754428 Si / 1000 Ang^3
#
#
#
# Elastic Constant Matrix: (Units=GPa)
#
#
# Indices 1 2 3 4 5 6 
#
# 1 94.2950 35.3697 28.6207 -13.5107 -6.3630 4.7277
# 2 35.3697 102.7354 25.5584 -9.3441 -6.1391 -11.0528
# 3 28.6207 25.5584 92.9705 -13.9319 -10.5383 -1.1579
# 4 -13.5107 -9.3441 -13.9319 34.7834 3.1207 -3.6236
# 5 -6.3630 -6.1391 -10.5383 3.1207 37.9347 -2.4472
# 6 4.7277 -11.0528 -1.1579 -3.6236 -2.4472 26.5569
#
#
#
# Elastic Compliance Matrix: (Units=1/GPa)
#
#
# Indices 1 2 3 4 5 6 
#
# 1 0.013569 -0.004166 -0.002637 0.002657 0.000402 -0.003865
# 2 -0.004166 0.012468 -0.001703 0.001592 0.001113 0.006176
# 3 -0.002637 -0.001703 0.012880 0.003550 0.002636 0.001049
# 4 0.002657 0.001592 0.003550 0.032177 -0.000656 0.004674
# 5 0.000402 0.001113 0.002636 -0.000656 0.027586 0.002959
# 6 -0.003865 0.006176 0.001049 0.004674 0.002959 0.041870
#
#
# Mechanical properties :
#
#
# Convention : Reuss Voigt Hill
#
# Bulk Modulus (GPa) = 45.65091 52.12206 48.88648
# Shear Modulus (GPa) = 30.32836 33.21848 31.77342
#
# Velocity S-wave (km/s) = 3.82684 4.00503 3.91695
# Velocity P-wave (km/s) = 6.44746 6.82314 6.63796
#
# Compressibility (1/GPa) = 0.02190537
#
# Stress axis : x y z
#
# Youngs Moduli (GPa) = 73.69498 80.20845 77.64090
#
# Poissons Ratio (x) = 0.33414 0.20470
# Poissons Ratio (y) = 0.30701 0.13224
# Poissons Ratio (z) = 0.19430 0.13661
#
# Static dielectric constant tensor:
#      x y z
#    x 3.589980 -0.315150 0.407740 
#    y -0.315150 3.047130 1.403600 
#    z 0.407740 1.403600 0.936530 
# 
# 
# High freq. dielectric constant tensor:
#      x y z
#    x 1.808960 -0.003610 -0.016160 
#    y -0.003610 1.816360 -0.008440 
#    z -0.016160 -0.008440 1.824620 
# 
# From -- ./inp_files/68480.got.cif
#   From: 2010.06.25/outbox.cif.g09.slc.cpg/sg2_35_cif.got.tgz:68480.got - 2010.06.27 13:26:56.
