data_PCOD8023658
_publ_section_title
;
Structure prediction by ZEFSAII (Michael W. Deem and Ramdas Pophale) SiO2 
 PCOD8023658
Probable space group: P -1
;
_chemical_formula_sum "Si O2"
_cell_formula_units_Z 16
_cell_length_a 11.627718
_cell_length_b 6.697658
_cell_length_c 25.244242
_cell_angle_alpha 45.817490
_cell_angle_beta 147.861666
_cell_angle_gamma 121.531124
_cell_volume 738.268539
_symmetry_space_group_name_H-M "P -1"
_symmetry_group_IT_number 2
_symmetry_cell_setting 'triclinic'
loop_
_space_group_symop_operation_xyz
x,y,z
-x,-y,-z
loop_
_atom_site_type_symbol
_atom_site_label
_atom_site_fract_x
_atom_site_fract_y
_atom_site_fract_z
Si Si1 0.718217 0.232721 0.033172
Si Si2 0.117856 0.747344 0.019739
Si Si3 0.265418 0.249084 0.586123
Si Si4 0.284063 0.892028 0.454797
Si Si5 0.017252 0.372582 0.208694
Si Si6 0.059675 0.069570 0.437543
Si Si7 0.769363 0.595401 0.175222
Si Si8 0.273254 0.766372 0.189900
O O1 0.891164 0.399938 0.098006
O O2 0.764338 0.916391 0.134161
O O3 0.737588 0.191451 0.985189
O O4 0.487048 0.427718 0.922046
O O5 0.278647 0.683361 0.145008
O O6 0.000000 0.500000 0.000000
O O7 0.933233 0.005260 0.916458
O O8 0.270658 0.563359 0.509652
O O9 0.502636 0.128530 0.726281
O O10 0.209466 0.066857 0.548364
O O11 0.081036 0.189205 0.567800
O O12 0.500000 0.000000 0.500000
O O13 0.083414 0.045615 0.311732
O O14 0.245103 0.005590 0.477737
O O15 0.242651 0.493355 0.263551
O O16 0.870799 0.546457 0.165153
O O17 0.899692 0.370579 0.309227
#
# Coordination Sequence:
#
# PCOD8023658 Si02
#       8
#     2   2   2   2   2   2   2   2
#     4  11  22  40  66  91 127 171 213 261 324 384
#     4  11  24  41  63  94 131 166 211 264 318 393
#     4  11  24  46  67  94 129 175 219 266 328 388
#     4  11  23  42  67  99 128 168 214 271 329 386
#     4  11  21  41  64  94 131 161 213 269 321 380
#     4  10  25  45  67  93 132 172 220 271 320 390
#     4  10  23  42  61  95 125 170 215 265 319 382
#     4  11  24  41  65  96 130 168 211 269 325 379
#
# _framework density 21.672329999999999
#
# number of rings (size 3 to 8) (size 9 to 14) (size 15 to 20)
#    0.000    1.250    3.750    1.500    1.750    2.500 
#   13.500    0.000    0.000    0.000    0.000    0.000 
#    0.000    0.000    0.000    0.000    0.000    0.000 
#
# Total GULP energy -198276.879590 kJ/mol
# GULP energy per Si atom -12392.304974 kJ/mol
# Density = 2.162300 g / cm^3
# Si number density = 21.672330 Si / 1000 Ang^3
#
#
#
# Elastic Constant Matrix: (Units=GPa)
#
#
# Indices 1 2 3 4 5 6 
#
# 1 137.1261 40.6015 51.4127 19.8017 2.5227 6.9106
# 2 40.6015 84.2592 38.1387 17.1162 1.1968 16.1533
# 3 51.4127 38.1387 71.1777 28.6053 -1.0173 -0.2769
# 4 19.8017 17.1162 28.6053 39.9420 2.0514 -6.0783
# 5 2.5227 1.1968 -1.0173 2.0514 31.5687 5.0020
# 6 6.9106 16.1533 -0.2769 -6.0783 5.0020 36.4085
#
#
#
# Elastic Compliance Matrix: (Units=1/GPa)
#
#
# Indices 1 2 3 4 5 6 
#
# 1 0.010344 -0.001836 -0.006617 0.000282 -0.000824 -0.001039
# 2 -0.001836 0.018258 -0.007260 -0.003034 0.000751 -0.008417
# 3 -0.006617 -0.007260 0.028235 -0.013626 0.002266 0.002105
# 4 0.000282 -0.003034 -0.013626 0.037378 -0.004041 0.007984
# 5 -0.000824 0.000751 0.002266 -0.004041 0.032898 -0.005354
# 6 -0.001039 -0.008417 0.002105 0.007984 -0.005354 0.033482
#
#
# Mechanical properties :
#
#
# Convention : Reuss Voigt Hill
#
# Bulk Modulus (GPa) = 39.35034 61.42986 50.39010
# Shear Modulus (GPa) = 24.93877 32.41120 28.67498
#
# Velocity S-wave (km/s) = 3.39591 3.87138 3.64141
# Velocity P-wave (km/s) = 5.79419 6.95628 6.40166
#
# Compressibility (1/GPa) = 0.02541274
#
# Stress axis : x y z
#
# Youngs Moduli (GPa) = 96.67639 54.77056 35.41650
#
# Poissons Ratio (x) = 0.10053 0.23435
# Poissons Ratio (y) = 0.17745 0.25712
# Poissons Ratio (z) = 0.63970 0.39762
#
# Static dielectric constant tensor:
#      x y z
#    x 4.147360 0.247360 -0.170600 
#    y 0.247360 3.735090 0.031630 
#    z -0.170600 0.031630 3.909110 
# 
# 
# High freq. dielectric constant tensor:
#      x y z
#    x 1.862620 0.010580 -0.006360 
#    y 0.010580 1.850070 -0.002300 
#    z -0.006360 -0.002300 1.850720 
# 
# From -- ./inp_files/371093.got.cif
#   From: 2010.06.25/outbox.cif.g09.slc.cpg/sg2_186_cif.got.tgz:371093.got - 2010.06.27 13:26:56.
