data_PCOD8023279
_publ_section_title
;
Structure prediction by ZEFSAII (Michael W. Deem and Ramdas Pophale) SiO2 
 PCOD8023279
Probable space group: P -1
;
_chemical_formula_sum "Si O2"
_cell_formula_units_Z 16
_cell_length_a 11.903763
_cell_length_b 9.623648
_cell_length_c 12.680545
_cell_angle_alpha 39.318806
_cell_angle_beta 119.547042
_cell_angle_gamma 128.203957
_cell_volume 722.989709
_symmetry_space_group_name_H-M "P -1"
_symmetry_group_IT_number 2
_symmetry_cell_setting 'triclinic'
loop_
_space_group_symop_operation_xyz
x,y,z
-x,-y,-z
loop_
_atom_site_type_symbol
_atom_site_label
_atom_site_fract_x
_atom_site_fract_y
_atom_site_fract_z
Si Si1 0.938041 0.970256 0.629436
Si Si2 0.099792 0.210841 0.069686
Si Si3 0.828385 0.003728 0.951496
Si Si4 0.373159 0.593282 0.451492
Si Si5 0.356116 0.855454 0.083156
Si Si6 0.161649 0.729129 0.870563
Si Si7 0.680734 0.850215 0.430313
Si Si8 0.082492 0.521768 0.416842
O O1 0.816115 0.855620 0.552966
O O2 0.047612 0.845229 0.749997
O O3 0.854614 0.899754 0.743248
O O4 0.016268 0.261750 0.478984
O O5 0.092464 0.461547 0.947038
O O6 0.940533 0.004796 0.090387
O O7 0.205144 0.215469 0.019595
O O8 0.681661 0.963468 0.965070
O O9 0.919534 0.268826 0.782695
O O10 0.368011 0.665785 0.282692
O O11 0.529916 0.754664 0.480399
O O12 0.345350 0.314431 0.590384
O O13 0.253121 0.606391 0.465068
O O14 0.224465 0.719725 0.021011
O O15 0.500000 0.000000 0.000000
O O16 0.288385 0.886246 0.756753
O O17 0.000000 0.500000 0.500000
#
# Coordination Sequence:
#
# PCOD8023279 Si02
#       8
#     2   2   2   2   2   2   2   2
#     4  12  23  39  65 101 129 171 225 276 324 387
#     4  11  23  40  63  96 132 166 217 276 328 383
#     4  10  23  41  64  94 133 170 213 270 330 392
#     4  10  23  41  64  94 133 170 213 270 330 392
#     4  11  22  41  67  93 129 172 220 268 326 394
#     4  12  23  39  65 101 129 171 225 276 324 387
#     4  11  23  40  63  96 132 166 217 276 328 383
#     4  11  22  41  67  93 129 172 220 268 326 394
#
# _framework density 22.130330000000001
#
# number of rings (size 3 to 8) (size 9 to 14) (size 15 to 20)
#    0.000    1.000    5.000    2.250    3.500    0.000 
#    0.000    1.250    0.000    0.000    0.000    0.000 
#    0.000    0.000    0.000    0.000    0.000    0.000 
#
# Total GULP energy -198213.612932 kJ/mol
# GULP energy per Si atom -12388.350808 kJ/mol
# Density = 2.207996 g / cm^3
# Si number density = 22.130330 Si / 1000 Ang^3
#
#
#
# Elastic Constant Matrix: (Units=GPa)
#
#
# Indices 1 2 3 4 5 6 
#
# 1 151.4610 43.7998 23.6420 0.4035 -16.0266 -0.2740
# 2 43.7998 93.3699 28.4852 0.4278 4.5088 -0.2960
# 3 23.6420 28.4852 73.8904 0.0473 -5.4975 0.0070
# 4 0.4035 0.4278 0.0473 21.3985 -0.2031 -5.0422
# 5 -16.0266 4.5088 -5.4975 -0.2031 39.2877 0.2079
# 6 -0.2740 -0.2960 0.0070 -5.0422 0.2079 37.0963
#
#
#
# Elastic Compliance Matrix: (Units=1/GPa)
#
#
# Indices 1 2 3 4 5 6 
#
# 1 0.008217 -0.003753 -0.000910 -0.000042 0.003655 0.000005
# 2 -0.003753 0.014022 -0.004485 -0.000217 -0.003769 0.000077
# 3 -0.000910 -0.004485 0.015728 0.000083 0.002345 -0.000047
# 4 -0.000042 -0.000217 0.000083 0.048285 0.000234 0.006560
# 5 0.003655 -0.003769 0.002345 0.000234 0.027707 -0.000127
# 6 0.000005 0.000077 -0.000047 0.006560 -0.000127 0.027850
#
#
# Mechanical properties :
#
#
# Convention : Reuss Voigt Hill
#
# Bulk Modulus (GPa) = 50.83802 56.73059 53.78430
# Shear Modulus (GPa) = 30.00082 34.40946 32.20514
#
# Velocity S-wave (km/s) = 3.68590 3.94744 3.81891
# Velocity P-wave (km/s) = 6.41377 6.81666 6.61828
#
# Compressibility (1/GPa) = 0.01967032
#
# Stress axis : x y z
#
# Youngs Moduli (GPa) = 121.70495 71.31553 63.57986
#
# Poissons Ratio (x) = 0.26765 0.05787
# Poissons Ratio (y) = 0.45676 0.28516
# Poissons Ratio (z) = 0.11078 0.31986
#
# Static dielectric constant tensor:
#      x y z
#    x 4.184560 -0.004390 -0.043220 
#    y -0.004390 3.861370 -0.006550 
#    z -0.043220 -0.006550 4.332910 
# 
# 
# High freq. dielectric constant tensor:
#      x y z
#    x 1.870530 -0.000440 0.004340 
#    y -0.000440 1.846440 -0.000560 
#    z 0.004340 -0.000560 1.878600 
# 
# From -- ./inp_files/418952.got.cif
#   From: 2010.06.25/outbox.cif.g09.slc.cpg/sg2_210_cif.got.tgz:418952.got - 2010.06.27 13:26:56.
