data_PCOD8023163
_publ_section_title
;
Structure prediction by ZEFSAII (Michael W. Deem and Ramdas Pophale) SiO2 
 PCOD8023163
Probable space group: P -1
;
_chemical_formula_sum "Si O2"
_cell_formula_units_Z 14
_cell_length_a 8.728006
_cell_length_b 8.588348
_cell_length_c 10.090401
_cell_angle_alpha 91.144273
_cell_angle_beta 66.147683
_cell_angle_gamma 113.178812
_cell_volume 627.152647
_symmetry_space_group_name_H-M "P -1"
_symmetry_group_IT_number 2
_symmetry_cell_setting 'triclinic'
loop_
_space_group_symop_operation_xyz
x,y,z
-x,-y,-z
loop_
_atom_site_type_symbol
_atom_site_label
_atom_site_fract_x
_atom_site_fract_y
_atom_site_fract_z
Si Si1 0.045156 0.657134 0.888252
Si Si2 0.221375 0.595657 0.561706
Si Si3 0.797900 0.971040 0.115670
Si Si4 0.785764 0.890290 0.668760
Si Si5 0.598366 0.871104 0.454670
Si Si6 0.333200 0.314343 0.043132
Si Si7 0.975083 0.247880 0.550392
O O1 0.855664 0.666015 0.911476
O O2 0.143760 0.629845 0.725134
O O3 0.192461 0.837074 0.905240
O O4 0.000000 0.500000 0.000000
O O5 0.442346 0.679425 0.480815
O O6 0.149080 0.391000 0.567882
O O7 0.156808 0.671512 0.459662
O O8 0.751889 0.922857 0.285871
O O9 0.648659 0.813295 0.079075
O O10 0.000000 0.000000 0.000000
O O11 0.686730 0.865495 0.562848
O O12 0.653555 0.774799 0.826017
O O13 0.955909 0.835778 0.594955
O O14 0.861234 0.091346 0.688150
O O15 0.500000 0.000000 0.500000
O O16 0.500000 0.500000 0.000000
#
# Coordination Sequence:
#
# PCOD8023163 Si02
#       7
#     2   2   2   2   2   2   2
#     4  11  24  44  68  96 138 184 228 283 354 418
#     4  11  23  43  69 105 137 170 240 289 346 402
#     4  10  25  47  71  98 141 186 228 280 359 421
#     4  11  24  44  69  99 138 187 236 277 353 412
#     4  12  24  44  73 105 135 176 236 293 334 412
#     4  11  27  46  66 100 141 182 233 289 343 418
#     4  10  23  40  71  97 136 180 223 292 343 410
#
# _framework density 22.323114
#
# number of rings (size 3 to 8) (size 9 to 14) (size 15 to 20)
#    0.000    1.143    4.286    0.000   12.000    1.714 
#    0.000    1.429    0.000    0.000    0.000    0.000 
#    0.000    0.000    0.000    0.000    0.000    0.000 
#
# Total GULP energy -173492.731963 kJ/mol
# GULP energy per Si atom -12392.337997 kJ/mol
# Density = 2.227231 g / cm^3
# Si number density = 22.323114 Si / 1000 Ang^3
#
#
#
# Elastic Constant Matrix: (Units=GPa)
#
#
# Indices 1 2 3 4 5 6 
#
# 1 66.1236 37.2073 35.0431 -11.1979 7.7595 13.0573
# 2 37.2073 229.4714 70.7873 -19.4316 12.4964 33.2092
# 3 35.0431 70.7873 144.6117 -19.2599 8.5896 2.5278
# 4 -11.1979 -19.4316 -19.2599 39.1790 -0.0187 -1.8141
# 5 7.7595 12.4964 8.5896 -0.0187 30.7236 -2.6628
# 6 13.0573 33.2092 2.5278 -1.8141 -2.6628 39.0409
#
#
#
# Elastic Compliance Matrix: (Units=1/GPa)
#
#
# Indices 1 2 3 4 5 6 
#
# 1 0.019638 -0.000719 -0.003632 0.003198 -0.004158 -0.005856
# 2 -0.000719 0.006177 -0.002451 0.001424 -0.002072 -0.004931
# 3 -0.003632 -0.002451 0.009298 0.002446 -0.000443 0.002781
# 4 0.003198 0.001424 0.002446 0.028287 -0.002164 -0.001273
# 5 -0.004158 -0.002072 -0.000443 -0.002164 0.035038 0.005471
# 6 -0.005856 -0.004931 0.002781 -0.001273 0.005471 0.031901
#
#
# Mechanical properties :
#
#
# Convention : Reuss Voigt Hill
#
# Bulk Modulus (GPa) = 46.48773 80.69800 63.59286
# Shear Modulus (GPa) = 33.08788 41.59996 37.34392
#
# Velocity S-wave (km/s) = 3.85414 4.32155 4.09452
# Velocity P-wave (km/s) = 6.37778 7.81854 7.13462
#
# Compressibility (1/GPa) = 0.02151105
#
# Stress axis : x y z
#
# Youngs Moduli (GPa) = 50.92076 161.87937 107.54836
#
# Poissons Ratio (x) = 0.11643 0.39057
# Poissons Ratio (y) = 0.03663 0.26356
# Poissons Ratio (z) = 0.18492 0.39670
#
# Static dielectric constant tensor:
#      x y z
#    x 4.272760 0.055100 0.276860 
#    y 0.055100 5.042550 0.004840 
#    z 0.276860 0.004840 4.397140 
# 
# 
# High freq. dielectric constant tensor:
#      x y z
#    x 1.858230 0.008850 0.000840 
#    y 0.008850 1.911540 -0.006910 
#    z 0.000840 -0.006910 1.873100 
# 
# From -- ./inp_files/157398.got.cif
#   From: 2010.06.25/outbox.cif.g09.slc.cpg/sg2_79_cif.got.tgz:157398.got - 2010.06.27 13:26:56.
