data_PCOD8023641
_publ_section_title
;
Structure prediction by ZEFSAII (Michael W. Deem and Ramdas Pophale) SiO2 
 PCOD8023641
Probable space group: P -1
;
_chemical_formula_sum "Si O2"
_cell_formula_units_Z 14
_cell_length_a 8.443060
_cell_length_b 9.080895
_cell_length_c 9.414410
_cell_angle_alpha 67.648392
_cell_angle_beta 103.422127
_cell_angle_gamma 114.998921
_cell_volume 602.835532
_symmetry_space_group_name_H-M "P -1"
_symmetry_group_IT_number 2
_symmetry_cell_setting 'triclinic'
loop_
_space_group_symop_operation_xyz
x,y,z
-x,-y,-z
loop_
_atom_site_type_symbol
_atom_site_label
_atom_site_fract_x
_atom_site_fract_y
_atom_site_fract_z
Si Si1 0.014407 0.818045 0.554040
Si Si2 0.824618 0.219934 0.679336
Si Si3 0.678430 0.001228 0.973886
Si Si4 0.877213 0.308323 0.088650
Si Si5 0.886278 0.799780 0.071408
Si Si6 0.323567 0.486848 0.392117
Si Si7 0.665303 0.508106 0.943139
O O1 0.823078 0.687645 0.518798
O O2 0.160473 0.821240 0.467335
O O3 0.070349 0.756541 0.733217
O O4 0.000000 0.000000 0.500000
O O5 0.693877 0.045089 0.792588
O O6 0.740978 0.362022 0.631837
O O7 0.024234 0.281702 0.762366
O O8 0.847023 0.164537 0.012514
O O9 0.500000 0.000000 0.000000
O O10 0.702859 0.820661 0.078522
O O11 0.690602 0.332091 0.057465
O O12 0.000000 0.500000 0.000000
O O13 0.835928 0.678770 0.964213
O O14 0.000000 0.000000 0.000000
O O15 0.500000 0.500000 0.500000
O O16 0.354248 0.481106 0.232693
O O17 0.500000 0.500000 0.000000
#
# Coordination Sequence:
#
# PCOD8023641 Si02
#       7
#     2   2   2   2   2   2   2
#     4  12  28  48  76 110 149 193 248 309 372 437
#     4  11  25  46  73 106 146 197 247 297 371 443
#     4  11  23  43  73 110 151 185 238 308 373 433
#     4  12  23  48  76 105 141 196 251 293 357 458
#     4  10  23  41  75 104 142 184 245 296 362 436
#     4  12  29  49  71 104 151 195 246 308 376 433
#     4  12  26  44  74 107 140 188 251 300 364 439
#
# _framework density 23.223580999999999
#
# number of rings (size 3 to 8) (size 9 to 14) (size 15 to 20)
#    0.000    0.571    2.857    4.714    8.000    1.143 
#    0.000    1.429    0.000    0.000    0.000    0.000 
#    0.000    0.000    0.000    0.000    0.000    0.000 
#
# Total GULP energy -173522.506650 kJ/mol
# GULP energy per Si atom -12394.464761 kJ/mol
# Density = 2.317072 g / cm^3
# Si number density = 23.223581 Si / 1000 Ang^3
#
#
#
# Elastic Constant Matrix: (Units=GPa)
#
#
# Indices 1 2 3 4 5 6 
#
# 1 127.4115 43.2037 68.5553 -13.5233 1.8359 -42.6667
# 2 43.2037 118.0731 53.7281 -2.6769 4.3086 -38.8536
# 3 68.5553 53.7281 159.1743 -5.5328 2.1963 -21.3931
# 4 -13.5233 -2.6769 -5.5328 33.6956 -8.7674 1.2962
# 5 1.8359 4.3086 2.1963 -8.7674 56.0237 -5.7371
# 6 -42.6667 -38.8536 -21.3931 1.2962 -5.7371 52.2118
#
#
#
# Elastic Compliance Matrix: (Units=1/GPa)
#
#
# Indices 1 2 3 4 5 6 
#
# 1 0.014059 0.000271 -0.004678 0.004902 0.001474 0.009814
# 2 0.000271 0.012560 -0.003240 0.000267 0.000038 0.008238
# 3 -0.004678 -0.003240 0.009030 -0.000635 -0.000312 -0.002552
# 4 0.004902 0.000267 -0.000635 0.032813 0.005360 0.003719
# 5 0.001474 0.000038 -0.000312 0.005360 0.018962 0.003055
# 6 0.009814 0.008238 -0.002552 0.003719 0.003055 0.032501
#
#
# Mechanical properties :
#
#
# Convention : Reuss Voigt Hill
#
# Bulk Modulus (GPa) = 49.12688 81.73701 65.43194
# Shear Modulus (GPa) = 35.21021 44.33101 39.77061
#
# Velocity S-wave (km/s) = 3.89799 4.37381 4.14274
# Velocity P-wave (km/s) = 6.43886 7.79609 7.14975
#
# Compressibility (1/GPa) = 0.02035546
#
# Stress axis : x y z
#
# Youngs Moduli (GPa) = 71.12848 79.61679 110.74252
#
# Poissons Ratio (x) = -0.02158 0.51800
# Poissons Ratio (y) = -0.01928 0.35885
# Poissons Ratio (z) = 0.33271 0.25799
#
# Static dielectric constant tensor:
#      x y z
#    x 5.102130 -0.183640 0.330860 
#    y -0.183640 4.393580 0.157060 
#    z 0.330860 0.157060 4.221090 
# 
# 
# High freq. dielectric constant tensor:
#      x y z
#    x 1.957720 -0.026380 0.005160 
#    y -0.026380 1.931500 0.000740 
#    z 0.005160 0.000740 1.903280 
# 
# From -- ./inp_files/157697.got.cif
#   From: 2010.06.25/outbox.cif.g09.slc.cpg/sg2_79_cif.got.tgz:157697.got - 2010.06.27 13:26:56.
