data_PCOD8023275
_publ_section_title
;
Structure prediction by ZEFSAII (Michael W. Deem and Ramdas Pophale) SiO2 
 PCOD8023275
Probable space group: P -1
;
_chemical_formula_sum "Si O2"
_cell_formula_units_Z 16
_cell_length_a 9.170684
_cell_length_b 12.693961
_cell_length_c 14.608819
_cell_angle_alpha 39.834961
_cell_angle_beta 130.871521
_cell_angle_gamma 128.199307
_cell_volume 799.844043
_symmetry_space_group_name_H-M "P -1"
_symmetry_group_IT_number 2
_symmetry_cell_setting 'triclinic'
loop_
_space_group_symop_operation_xyz
x,y,z
-x,-y,-z
loop_
_atom_site_type_symbol
_atom_site_label
_atom_site_fract_x
_atom_site_fract_y
_atom_site_fract_z
Si Si1 0.701609 0.493367 0.139571
Si Si2 0.305316 0.066639 0.894696
Si Si3 0.207263 0.072435 0.645323
Si Si4 0.577466 0.365449 0.561271
Si Si5 0.163870 0.511553 0.134593
Si Si6 0.096143 0.774862 0.674411
Si Si7 0.886655 0.263418 0.884134
Si Si8 0.594956 0.549817 0.258369
O O1 0.750858 0.315951 0.251540
O O2 0.694651 0.497847 0.243483
O O3 0.878044 0.653517 0.075862
O O4 0.500000 0.500000 0.000000
O O5 0.201150 0.072979 0.751041
O O6 0.340556 0.249966 0.832363
O O7 0.500000 0.000000 0.000000
O O8 0.160665 0.940606 0.990781
O O9 0.400953 0.197372 0.597968
O O10 0.995163 0.111117 0.508460
O O11 0.209915 0.887560 0.729583
O O12 0.500000 0.500000 0.500000
O O13 0.775289 0.323596 0.712247
O O14 0.641217 0.443248 0.435499
O O15 0.205744 0.684784 0.093792
O O16 0.361869 0.495720 0.176455
O O17 0.096696 0.361473 0.279305
O O18 0.000000 0.500000 0.000000
#
# Coordination Sequence:
#
# PCOD8023275 Si02
#       8
#     2   2   2   2   2   2   2   2
#     4  11  27  46  64  91 141 178 217 262 330 406
#     4  12  22  37  68 103 127 162 221 278 327 373
#     4  11  21  39  69  98 129 162 222 289 317 376
#     4  12  19  40  66  98 129 161 219 279 324 388
#     4  11  19  34  63  90 121 168 228 264 314 378
#     4  10  23  41  64  93 129 173 219 270 328 381
#     4  11  23  40  64  93 130 172 217 274 323 385
#     4  12  24  39  67  96 129 177 213 267 338 382
#
# _framework density 20.003900000000002
#
# number of rings (size 3 to 8) (size 9 to 14) (size 15 to 20)
#    0.000    0.750    6.250    3.000    1.750    1.000 
#    0.000    0.625    0.000    0.000    0.000    0.000 
#    0.000    0.000    0.000    0.000    0.000    0.000 
#
# Total GULP energy -198392.054086 kJ/mol
# GULP energy per Si atom -12399.503380 kJ/mol
# Density = 1.995837 g / cm^3
# Si number density = 20.003900 Si / 1000 Ang^3
#
#
#
# Elastic Constant Matrix: (Units=GPa)
#
#
# Indices 1 2 3 4 5 6 
#
# 1 100.8185 44.3439 40.1375 -7.4025 0.5334 -7.9511
# 2 44.3439 113.7559 48.8965 -5.6891 6.8707 -6.8178
# 3 40.1375 48.8965 115.5895 7.7058 -5.2753 -2.5468
# 4 -7.4025 -5.6891 7.7058 38.6362 2.9082 0.5651
# 5 0.5334 6.8707 -5.2753 2.9082 31.3065 3.4635
# 6 -7.9511 -6.8178 -2.5468 0.5651 3.4635 39.0302
#
#
#
# Elastic Compliance Matrix: (Units=1/GPa)
#
#
# Indices 1 2 3 4 5 6 
#
# 1 0.013060 -0.003425 -0.003244 0.002653 -0.000469 0.001854
# 2 -0.003425 0.012436 -0.004365 0.002309 -0.003786 0.001492
# 3 -0.003244 -0.004365 0.012025 -0.003913 0.003502 -0.000893
# 4 0.002653 0.002309 -0.003913 0.027793 -0.003863 0.000629
# 5 -0.000469 -0.003786 0.003502 -0.003863 0.034117 -0.003500
# 6 0.001854 0.001492 -0.000893 0.000629 -0.003500 0.026503
#
#
# Mechanical properties :
#
#
# Convention : Reuss Voigt Hill
#
# Bulk Modulus (GPa) = 64.70879 66.32441 65.51660
# Shear Modulus (GPa) = 32.64738 34.91364 33.78051
#
# Velocity S-wave (km/s) = 4.04425 4.18226 4.11383
# Velocity P-wave (km/s) = 7.36385 7.51994 7.44230
#
# Compressibility (1/GPa) = 0.01545385
#
# Stress axis : x y z
#
# Youngs Moduli (GPa) = 76.56997 80.41450 83.15862
#
# Poissons Ratio (x) = 0.27539 0.26974
# Poissons Ratio (y) = 0.26222 0.36300
# Poissons Ratio (z) = 0.24837 0.35102
#
# Static dielectric constant tensor:
#      x y z
#    x 3.798860 0.270540 -0.595390 
#    y 0.270540 4.063150 -0.385920 
#    z -0.595390 -0.385920 4.434980 
# 
# 
# High freq. dielectric constant tensor:
#      x y z
#    x 1.753940 0.006800 -0.008800 
#    y 0.006800 1.800580 0.004690 
#    z -0.008800 0.004690 1.789520 
# 
# From -- ./inp_files/239331.got.cif
#   From: 2010.06.25/outbox.cif.g09.slc.cpg/sg2_120_cif.got.tgz:239331.got - 2010.06.27 13:26:56.
