data_PCOD8023673
_publ_section_title
;
Structure prediction by ZEFSAII (Michael W. Deem and Ramdas Pophale) SiO2 
 PCOD8023673
Probable space group: P -1
;
_chemical_formula_sum "Si O2"
_cell_formula_units_Z 10
_cell_length_a 14.606946
_cell_length_b 15.235049
_cell_length_c 11.363433
_cell_angle_alpha 39.040064
_cell_angle_beta 28.923005
_cell_angle_gamma 19.522478
_cell_volume 390.066137
_symmetry_space_group_name_H-M "P -1"
_symmetry_group_IT_number 2
_symmetry_cell_setting 'triclinic'
loop_
_space_group_symop_operation_xyz
x,y,z
-x,-y,-z
loop_
_atom_site_type_symbol
_atom_site_label
_atom_site_fract_x
_atom_site_fract_y
_atom_site_fract_z
Si Si1 0.263304 0.566024 0.289232
Si Si2 0.852988 0.212458 0.168597
Si Si3 0.366275 0.941211 0.659095
Si Si4 0.954380 0.718524 0.915865
Si Si5 0.367796 0.882484 0.322245
O O1 0.416400 0.501816 0.315501
O O2 0.841157 0.885925 0.410390
O O3 0.299547 0.376243 0.419351
O O4 0.500000 0.500000 0.000000
O O5 0.885179 0.055169 0.376412
O O6 0.990874 0.259814 0.035614
O O7 0.099207 0.034843 0.958736
O O8 0.500000 0.000000 0.500000
O O9 0.321940 0.398979 0.805524
O O10 0.917919 0.868228 0.708759
O O11 0.576950 0.866797 0.181728
#
# Coordination Sequence:
#
# PCOD8023673 Si02
#       5
#     2   2   2   2   2
#     4  10  23  43  63  95 133 166 217 272 315 384
#     4  11  23  41  72  92 129 176 212 256 337 373
#     4  11  25  44  65  98 136 168 219 271 318 389
#     4  10  23  42  62  98 126 167 212 269 316 380
#     4  10  23  42  63  94 134 159 218 267 312 386
#
# _framework density 25.636676999999999
#
# number of rings (size 3 to 8) (size 9 to 14) (size 15 to 20)
#    0.000    1.600    0.000    4.200    2.800    9.600 
#    7.200    0.000    0.000    0.000    0.000    0.000 
#    0.000    0.000    0.000    0.000    0.000    0.000 
#
# Total GULP energy -123987.484809 kJ/mol
# GULP energy per Si atom -12398.748481 kJ/mol
# Density = 2.557833 g / cm^3
# Si number density = 25.636677 Si / 1000 Ang^3
#
#
#
# Elastic Constant Matrix: (Units=GPa)
#
#
# Indices 1 2 3 4 5 6 
#
# 1 163.8926 23.8309 9.5480 -8.8582 -9.5104 5.2706
# 2 23.8309 87.1799 3.1443 -26.2049 2.6090 10.1348
# 3 9.5480 3.1443 51.7495 -15.5665 2.6139 3.8482
# 4 -8.8582 -26.2049 -15.5665 24.6529 6.6423 -3.1270
# 5 -9.5104 2.6090 2.6139 6.6423 28.0281 4.6213
# 6 5.2706 10.1348 3.8482 -3.1270 4.6213 24.0788
#
#
#
# Elastic Compliance Matrix: (Units=1/GPa)
#
#
# Indices 1 2 3 4 5 6 
#
# 1 0.006676 -0.002500 -0.001943 -0.002559 0.003467 -0.001096
# 2 -0.002500 0.021616 0.008974 0.029940 -0.010108 -0.004157
# 3 -0.001943 0.008974 0.028764 0.029680 -0.010880 -0.002006
# 4 -0.002559 0.029940 0.029680 0.098537 -0.030069 0.001783
# 5 0.003467 -0.010108 -0.010880 -0.030069 0.047211 -0.007732
# 6 -0.001096 -0.004157 -0.002006 0.001783 -0.007732 0.045556
#
#
# Mechanical properties :
#
#
# Convention : Reuss Voigt Hill
#
# Bulk Modulus (GPa) = 15.12493 41.76317 28.44405
# Shear Modulus (GPa) = 19.13231 33.10522 26.11876
#
# Velocity S-wave (km/s) = 2.73479 3.59740 3.19533
# Velocity P-wave (km/s) = 3.98555 5.79489 4.97320
#
# Compressibility (1/GPa) = 0.06611601
#
# Stress axis : x y z
#
# Youngs Moduli (GPa) = 149.78042 46.26261 34.76616
#
# Poissons Ratio (x) = 0.11568 0.06756
# Poissons Ratio (y) = 0.37452 -0.31198
# Poissons Ratio (z) = 0.29106 -0.41515
#
# Static dielectric constant tensor:
#      x y z
#    x 5.394830 -0.740780 -0.242530 
#    y -0.740780 5.300820 -0.175080 
#    z -0.242530 -0.175080 4.423730 
# 
# 
# High freq. dielectric constant tensor:
#      x y z
#    x 2.039990 -0.003470 -0.006100 
#    y -0.003470 2.029170 -0.019660 
#    z -0.006100 -0.019660 2.008590 
# 
# From -- ./inp_files/20608.got.cif
#   From: 2010.06.25/outbox.cif.g09.slc.cpg/sg2_11_cif.got.tgz:20608.got - 2010.06.27 13:26:56.
