data_PCOD8023838
_publ_section_title
;
Structure prediction by ZEFSAII (Michael W. Deem and Ramdas Pophale) SiO2 
 PCOD8023838
Probable space group: P -1
;
_chemical_formula_sum "Si O2"
_cell_formula_units_Z 16
_cell_length_a 11.729579
_cell_length_b 18.401659
_cell_length_c 9.426689
_cell_angle_alpha 151.162099
_cell_angle_beta 119.473242
_cell_angle_gamma 50.757788
_cell_volume 749.485421
_symmetry_space_group_name_H-M "P -1"
_symmetry_group_IT_number 2
_symmetry_cell_setting 'triclinic'
loop_
_space_group_symop_operation_xyz
x,y,z
-x,-y,-z
loop_
_atom_site_type_symbol
_atom_site_label
_atom_site_fract_x
_atom_site_fract_y
_atom_site_fract_z
Si Si1 0.099431 0.340978 0.882137
Si Si2 0.892110 0.447461 0.199336
Si Si3 0.402520 0.908872 0.756187
Si Si4 0.104874 0.084732 0.223201
Si Si5 0.365014 0.420365 0.171236
Si Si6 0.373463 0.746972 0.738097
Si Si7 0.431766 0.395334 0.853125
Si Si8 0.903780 0.772595 0.837225
O O1 0.097678 0.177912 0.526753
O O2 0.259381 0.333867 0.970500
O O3 0.000000 0.500000 0.000000
O O4 0.034223 0.367861 0.045273
O O5 0.743710 0.493613 0.100811
O O6 0.859255 0.621764 0.558360
O O7 0.943567 0.295922 0.091924
O O8 0.417507 0.769336 0.643880
O O9 0.476436 0.801811 0.476910
O O10 0.500000 0.000000 0.000000
O O11 0.228086 0.051215 0.876786
O O12 0.065335 0.211189 0.281125
O O13 0.273668 0.933863 0.061183
O O14 0.000000 0.000000 0.000000
O O15 0.288521 0.630244 0.490824
O O16 0.475247 0.345059 0.240367
O O17 0.453610 0.374160 0.998394
O O18 0.500000 0.500000 0.000000
#
# Coordination Sequence:
#
# PCOD8023838 Si02
#       8
#     2   2   2   2   2   2   2   2
#     4  12  23  41  68  94 130 175 216 271 323 388
#     4  11  24  42  67 101 126 172 224 267 323 394
#     4  11  23  43  65  94 132 174 212 269 332 387
#     4  11  24  43  66  96 134 173 211 274 332 388
#     4  11  24  44  68  97 129 173 223 267 327 392
#     4  10  25  43  65  98 131 170 220 270 327 391
#     4  12  24  42  67  96 134 170 215 270 330 391
#     4  10  23  42  66  96 130 169 218 268 323 389
#
# _framework density 21.347978999999999
#
# number of rings (size 3 to 8) (size 9 to 14) (size 15 to 20)
#    0.000    1.000    5.000    0.750    3.500    2.500 
#    0.000    1.250    0.000    0.000    0.000    0.000 
#    0.000    0.000    0.000    0.000    0.000    0.000 
#
# Total GULP energy -198301.946102 kJ/mol
# GULP energy per Si atom -12393.871631 kJ/mol
# Density = 2.129939 g / cm^3
# Si number density = 21.347979 Si / 1000 Ang^3
#
#
#
# Elastic Constant Matrix: (Units=GPa)
#
#
# Indices 1 2 3 4 5 6 
#
# 1 81.1701 13.4554 27.3538 3.2320 4.0657 1.3389
# 2 13.4554 106.5284 27.7350 12.7770 -5.8327 9.8654
# 3 27.3538 27.7350 125.4166 1.3104 -6.2606 2.4647
# 4 3.2320 12.7770 1.3104 23.9597 0.7641 3.4250
# 5 4.0657 -5.8327 -6.2606 0.7641 43.4578 -6.2906
# 6 1.3389 9.8654 2.4647 3.4250 -6.2906 19.9807
#
#
#
# Elastic Compliance Matrix: (Units=1/GPa)
#
#
# Indices 1 2 3 4 5 6 
#
# 1 0.013567 -0.000903 -0.002831 -0.001061 -0.001854 -0.000516
# 2 -0.000903 0.011072 -0.002080 -0.005118 0.000778 -0.004028
# 3 -0.002831 -0.002080 0.009101 0.000899 0.001333 0.000360
# 4 -0.001061 -0.005118 0.000899 0.045482 -0.002123 -0.005978
# 5 -0.001854 0.000778 0.001333 -0.002123 0.024632 0.007695
# 6 -0.000516 -0.004028 0.000360 -0.005978 0.007695 0.055474
#
#
# Mechanical properties :
#
#
# Convention : Reuss Voigt Hill
#
# Bulk Modulus (GPa) = 45.22362 50.02261 47.62311
# Shear Modulus (GPa) = 28.03837 33.78436 30.91137
#
# Velocity S-wave (km/s) = 3.62801 3.98245 3.80936
# Velocity P-wave (km/s) = 6.22736 6.68053 6.45792
#
# Compressibility (1/GPa) = 0.02211234
#
# Stress axis : x y z
#
# Youngs Moduli (GPa) = 73.70788 90.31600 109.87956
#
# Poissons Ratio (x) = 0.08157 0.31103
# Poissons Ratio (y) = 0.06657 0.22856
# Poissons Ratio (z) = 0.20864 0.18787
#
# Static dielectric constant tensor:
#      x y z
#    x 3.551630 0.264250 -0.302140 
#    y 0.264250 3.969860 0.192690 
#    z -0.302140 0.192690 2.201220 
# 
# 
# High freq. dielectric constant tensor:
#      x y z
#    x 1.831830 0.005020 -0.006120 
#    y 0.005020 1.841090 0.004510 
#    z -0.006120 0.004510 1.848770 
# 
# From -- ./inp_files/209546.got.cif
#   From: 2010.06.25/outbox.cif.g09.slc.cpg/sg2_105_cif.got.tgz:209546.got - 2010.06.27 13:26:56.
