data_PCOD8023687
_publ_section_title
;
Structure prediction by ZEFSAII (Michael W. Deem and Ramdas Pophale) SiO2 
 PCOD8023687
Probable space group: P -1
;
_chemical_formula_sum "Si O2"
_cell_formula_units_Z 16
_cell_length_a 22.737303
_cell_length_b 5.262273
_cell_length_c 8.744672
_cell_angle_alpha 89.423526
_cell_angle_beta 45.992152
_cell_angle_gamma 76.090976
_cell_volume 711.782752
_symmetry_space_group_name_H-M "P -1"
_symmetry_group_IT_number 2
_symmetry_cell_setting 'triclinic'
loop_
_space_group_symop_operation_xyz
x,y,z
-x,-y,-z
loop_
_atom_site_type_symbol
_atom_site_label
_atom_site_fract_x
_atom_site_fract_y
_atom_site_fract_z
Si Si1 0.736345 0.066140 0.446197
Si Si2 0.446476 0.936393 0.231128
Si Si3 0.409787 0.494567 0.832997
Si Si4 0.988454 0.264394 0.919438
Si Si5 0.779069 0.465228 0.837105
Si Si6 0.470164 0.234371 0.434838
Si Si7 0.794632 0.502123 0.168505
Si Si8 0.157404 0.081172 0.435858
O O1 0.768165 0.796930 0.289298
O O2 0.788571 0.031072 0.508896
O O3 0.634387 0.151064 0.674563
O O4 0.746036 0.317090 0.336016
O O5 0.515793 0.732937 0.214513
O O6 0.408515 0.196767 0.409490
O O7 0.500000 0.000000 0.000000
O O8 0.414092 0.483534 0.637711
O O9 0.440139 0.753123 0.806403
O O10 0.315732 0.509892 0.059444
O O11 0.057193 0.204661 0.658499
O O12 0.000000 0.500000 0.000000
O O13 0.896222 0.357814 0.005829
O O14 0.000000 0.000000 0.000000
O O15 0.812150 0.684918 0.693682
O O16 0.836044 0.160563 0.693608
O O17 0.774718 0.522958 0.024245
O O18 0.500000 0.000000 0.500000
#
# Coordination Sequence:
#
# PCOD8023687 Si02
#       8
#     2   2   2   2   2   2   2   2
#     4  12  26  45  73 103 140 186 247 281 346 423
#     4  11  25  40  62  96 133 179 231 292 335 395
#     4  10  23  42  63  90 134 188 223 282 344 406
#     4  12  23  48  78 106 140 182 230 275 362 422
#     4  12  28  43  72 106 148 180 235 292 356 399
#     4   9  21  39  62  87 120 182 232 274 339 404
#     4  12  26  48  75 108 135 187 234 293 337 434
#     4  12  26  47  71 108 142 185 223 299 353 425
#
# _framework density 22.478770999999998
#
# number of rings (size 3 to 8) (size 9 to 14) (size 15 to 20)
#    0.000    0.750    2.500    3.750   12.250    1.500 
#    0.000    0.000    0.000    0.000    0.000    0.000 
#    0.000    0.000    0.000    0.000    0.000    0.000 
#
# Total GULP energy -198259.624285 kJ/mol
# GULP energy per Si atom -12391.226518 kJ/mol
# Density = 2.242761 g / cm^3
# Si number density = 22.478771 Si / 1000 Ang^3
#
#
#
# Elastic Constant Matrix: (Units=GPa)
#
#
# Indices 1 2 3 4 5 6 
#
# 1 74.0296 4.8046 16.2822 -5.8031 -2.5965 -6.7414
# 2 4.8046 117.9536 29.3918 -21.2875 8.7206 15.8223
# 3 16.2822 29.3918 107.1685 -25.4351 -10.1301 -2.4383
# 4 -5.8031 -21.2875 -25.4351 46.8492 3.5247 0.0569
# 5 -2.5965 8.7206 -10.1301 3.5247 45.2048 5.4559
# 6 -6.7414 15.8223 -2.4383 0.0569 5.4559 30.8164
#
#
#
# Elastic Compliance Matrix: (Units=1/GPa)
#
#
# Indices 1 2 3 4 5 6 
#
# 1 0.014278 -0.000459 -0.001832 0.000556 0.000068 0.003201
# 2 -0.000459 0.010618 -0.002298 0.003695 -0.002233 -0.005346
# 3 -0.001832 -0.002298 0.011653 0.004872 0.002417 0.001264
# 4 0.000556 0.003695 0.004872 0.025849 -0.001462 -0.001179
# 5 0.000068 -0.002233 0.002417 -0.001462 0.023552 -0.002814
# 6 0.003201 -0.005346 0.001264 -0.001179 -0.002814 0.036496
#
#
# Mechanical properties :
#
#
# Convention : Reuss Voigt Hill
#
# Bulk Modulus (GPa) = 36.53486 44.45656 40.49571
# Shear Modulus (GPa) = 35.52424 41.15228 38.33826
#
# Velocity S-wave (km/s) = 3.97967 4.28333 4.13429
# Velocity P-wave (km/s) = 6.11599 6.65452 6.39093
#
# Compressibility (1/GPa) = 0.02737112
#
# Stress axis : x y z
#
# Youngs Moduli (GPa) = 70.03592 94.17816 85.81234
#
# Poissons Ratio (x) = 0.04324 0.15721
# Poissons Ratio (y) = 0.03216 0.19721
# Poissons Ratio (z) = 0.12831 0.21644
#
# Static dielectric constant tensor:
#      x y z
#    x -0.503190 -5.481870 -4.712030 
#    y -5.481870 -2.718700 -5.524620 
#    z -4.712030 -5.524620 -0.052620 
# 
# 
# High freq. dielectric constant tensor:
#      x y z
#    x 1.894430 0.013090 -0.001140 
#    y 0.013090 1.898830 -0.009590 
#    z -0.001140 -0.009590 1.897010 
# 
# From -- ./inp_files/340396.got.cif
#   From: 2010.06.25/outbox.cif.g09.slc.cpg/sg2_171_cif.got.tgz:340396.got - 2010.06.27 13:26:56.
