data_PCOD8023744
_publ_section_title
;
Structure prediction by ZEFSAII (Michael W. Deem and Ramdas Pophale) SiO2 
 PCOD8023744
Probable space group: P -1
;
_chemical_formula_sum "Si O2"
_cell_formula_units_Z 14
_cell_length_a 10.947548
_cell_length_b 26.299470
_cell_length_c 13.249552
_cell_angle_alpha 23.628964
_cell_angle_beta 144.024739
_cell_angle_gamma 155.945144
_cell_volume 614.455640
_symmetry_space_group_name_H-M "P -1"
_symmetry_group_IT_number 2
_symmetry_cell_setting 'triclinic'
loop_
_space_group_symop_operation_xyz
x,y,z
-x,-y,-z
loop_
_atom_site_type_symbol
_atom_site_label
_atom_site_fract_x
_atom_site_fract_y
_atom_site_fract_z
Si Si1 0.816119 0.195659 0.173269
Si Si2 0.043973 0.233393 0.857037
Si Si3 0.339965 0.381599 0.443958
Si Si4 0.210683 0.813486 0.424358
Si Si5 0.204146 0.712982 0.233911
Si Si6 0.158874 0.118186 0.636920
Si Si7 0.113841 0.502957 0.963083
O O1 0.060570 0.190642 0.366186
O O2 0.481285 0.993974 0.342236
O O3 0.830777 0.254261 0.963525
O O4 0.852566 0.329123 0.032226
O O5 0.309099 0.445020 0.603791
O O6 0.780189 0.123690 0.795217
O O7 0.921945 0.227641 0.892043
O O8 0.108820 0.109099 0.130558
O O9 0.240367 0.205308 0.646232
O O10 0.112470 0.306040 0.520574
O O11 0.345178 0.491731 0.159149
O O12 0.273582 0.691691 0.672400
O O13 0.535579 0.820343 0.302976
O O14 0.000000 0.500000 0.500000
O O15 0.000000 0.500000 0.000000
#
# Coordination Sequence:
#
# PCOD8023744 Si02
#       7
#     2   2   2   2   2   2   2
#     4  11  25  45  70 103 134 180 223 276 345 395
#     4  12  24  43  67  99 141 176 229 278 330 401
#     4  10  23  42  65 101 133 179 226 275 338 398
#     4  11  23  41  70 101 137 181 221 276 342 397
#     4  12  25  48  70  96 140 177 227 285 330 400
#     4  11  25  45  68 102 133 177 229 279 336 399
#     4   9  21  41  66  97 134 174 223 272 332 398
#
# _framework density 22.784396999999998
#
# number of rings (size 3 to 8) (size 9 to 14) (size 15 to 20)
#    0.000    1.143    2.857    2.571    0.000    9.143 
#    2.571    0.000    0.000    0.000    0.000    0.000 
#    0.000    0.000    0.000    0.000    0.000    0.000 
#
# Total GULP energy -173456.006975 kJ/mol
# GULP energy per Si atom -12389.714784 kJ/mol
# Density = 2.273254 g / cm^3
# Si number density = 22.784397 Si / 1000 Ang^3
#
#
#
# Elastic Constant Matrix: (Units=GPa)
#
#
# Indices 1 2 3 4 5 6 
#
# 1 119.9338 48.1791 57.0450 -10.4062 13.6166 -20.7774
# 2 48.1791 98.0866 36.5816 -8.6900 -0.8223 -16.4039
# 3 57.0450 36.5816 127.4519 -7.1994 11.9768 -16.6194
# 4 -10.4062 -8.6900 -7.1994 41.6476 -11.7534 6.1737
# 5 13.6166 -0.8223 11.9768 -11.7534 35.6280 -6.1753
# 6 -20.7774 -16.4039 -16.6194 6.1737 -6.1753 34.2019
#
#
#
# Elastic Compliance Matrix: (Units=1/GPa)
#
#
# Indices 1 2 3 4 5 6 
#
# 1 0.012809 -0.004345 -0.003755 0.000294 -0.003070 0.003265
# 2 -0.004345 0.013793 -0.001815 0.002062 0.003862 0.003419
# 3 -0.003755 -0.001815 0.010423 -0.000299 -0.001929 0.001619
# 4 0.000294 0.002062 -0.000299 0.027241 0.008617 -0.002339
# 5 -0.003070 0.003862 -0.001929 0.008617 0.033433 0.003531
# 6 0.003265 0.003419 0.001619 -0.002339 0.003531 0.034708
#
#
# Mechanical properties :
#
#
# Convention : Reuss Voigt Hill
#
# Bulk Modulus (GPa) = 58.15390 69.89816 64.02603
# Shear Modulus (GPa) = 31.65160 35.87328 33.76244
#
# Velocity S-wave (km/s) = 3.73121 3.97226 3.85362
# Velocity P-wave (km/s) = 6.64391 7.19605 6.92549
#
# Compressibility (1/GPa) = 0.01719575
#
# Stress axis : x y z
#
# Youngs Moduli (GPa) = 78.06870 72.50124 95.94026
#
# Poissons Ratio (x) = 0.31501 0.36027
# Poissons Ratio (y) = 0.33920 0.17411
# Poissons Ratio (z) = 0.29316 0.13157
#
# Static dielectric constant tensor:
#      x y z
#    x 3.838290 -0.231440 0.328350 
#    y -0.231440 4.256210 -0.049290 
#    z 0.328350 -0.049290 4.761280 
# 
# 
# High freq. dielectric constant tensor:
#      x y z
#    x 1.879510 -0.022390 0.017910 
#    y -0.022390 1.905070 -0.007940 
#    z 0.017910 -0.007940 1.919050 
# 
# From -- ./inp_files/275719.got.cif
#   From: 2010.06.25/outbox.cif.g09.slc.cpg/sg2_138_cif.got.tgz:275719.got - 2010.06.27 13:26:56.
