data_PCOD8023014
_publ_section_title
;
Structure prediction by ZEFSAII (Michael W. Deem and Ramdas Pophale) SiO2 
 PCOD8023014
Probable space group: P -1
;
_chemical_formula_sum "Si O2"
_cell_formula_units_Z 16
_cell_length_a 10.710696
_cell_length_b 14.600872
_cell_length_c 13.442147
_cell_angle_alpha 71.845286
_cell_angle_beta 31.053995
_cell_angle_gamma 92.833872
_cell_volume 787.043215
_symmetry_space_group_name_H-M "P -1"
_symmetry_group_IT_number 2
_symmetry_cell_setting 'triclinic'
loop_
_space_group_symop_operation_xyz
x,y,z
-x,-y,-z
loop_
_atom_site_type_symbol
_atom_site_label
_atom_site_fract_x
_atom_site_fract_y
_atom_site_fract_z
Si Si1 0.243853 0.730575 0.045616
Si Si2 0.940314 0.839989 0.274630
Si Si3 0.227946 0.084173 0.904674
Si Si4 0.677138 0.274016 0.383646
Si Si5 0.277118 0.179070 0.158429
Si Si6 0.920783 0.896100 0.475644
Si Si7 0.287635 0.528760 0.588645
Si Si8 0.215739 0.269471 0.968432
O O1 0.002546 0.757427 0.202962
O O2 0.059931 0.596218 0.163895
O O3 0.360985 0.732158 0.077027
O O4 0.557602 0.842351 0.732080
O O5 0.603998 0.793356 0.482355
O O6 0.955422 0.826750 0.387724
O O7 0.221710 0.990240 0.012672
O O8 0.097347 0.145349 0.030601
O O9 0.571712 0.190586 0.584763
O O10 0.000000 0.000000 0.000000
O O11 0.776597 0.406504 0.305787
O O12 0.961305 0.290385 0.130439
O O13 0.045025 0.144417 0.424020
O O14 0.268258 0.256199 0.052630
O O15 0.169173 0.046286 0.238034
O O16 0.500000 0.500000 0.500000
O O17 0.460014 0.611705 0.343403
#
# Coordination Sequence:
#
# PCOD8023014 Si02
#       8
#     2   2   2   2   2   2   2   2
#     4  10  23  40  65  86 132 163 208 265 293 372
#     4  11  20  36  64  97 117 170 204 249 331 360
#     4   9  21  36  57  97 129 158 207 248 324 373
#     4  10  24  38  64  93 123 168 203 263 317 366
#     4   9  21  44  59  94 125 166 206 252 316 365
#     4   9  21  39  62  95 126 161 208 253 309 369
#     4  11  24  45  63  93 124 164 219 258 306 372
#     4  11  23  42  63  89 134 164 202 262 309 375
#
# _framework density 20.329252
#
# number of rings (size 3 to 8) (size 9 to 14) (size 15 to 20)
#    0.750    1.250    2.500    0.000    3.500    4.500 
#    4.500    0.625    0.000    0.000    0.000    0.000 
#    0.000    0.000    0.000    0.000    0.000    0.000 
#
# Total GULP energy -198226.800386 kJ/mol
# GULP energy per Si atom -12389.175024 kJ/mol
# Density = 2.028298 g / cm^3
# Si number density = 20.329252 Si / 1000 Ang^3
#
#
#
# Elastic Constant Matrix: (Units=GPa)
#
#
# Indices 1 2 3 4 5 6 
#
# 1 78.9756 19.5483 15.9615 -14.5214 7.2988 11.2721
# 2 19.5483 104.0528 21.0969 -5.3643 0.4288 19.3907
# 3 15.9615 21.0969 40.9001 -8.7627 -7.4719 12.8703
# 4 -14.5214 -5.3643 -8.7627 32.8477 6.4590 -1.4529
# 5 7.2988 0.4288 -7.4719 6.4590 33.9526 -0.2354
# 6 11.2721 19.3907 12.8703 -1.4529 -0.2354 30.4718
#
#
#
# Elastic Compliance Matrix: (Units=1/GPa)
#
#
# Indices 1 2 3 4 5 6 
#
# 1 0.016021 -0.001202 -0.004254 0.006729 -0.005667 -0.003088
# 2 -0.001202 0.011643 -0.003978 0.000242 -0.000847 -0.005279
# 3 -0.004254 -0.003978 0.033574 0.004533 0.007423 -0.009802
# 4 0.006729 0.000242 0.004533 0.035978 -0.007316 -0.002899
# 5 -0.005667 -0.000847 0.007423 -0.007316 0.033703 -0.000589
# 6 -0.003088 -0.005279 -0.009802 -0.002899 -0.000589 0.041316
#
#
# Mechanical properties :
#
#
# Convention : Reuss Voigt Hill
#
# Bulk Modulus (GPa) = 23.60209 37.46021 30.53115
# Shear Modulus (GPa) = 24.36345 30.60920 27.48633
#
# Velocity S-wave (km/s) = 3.46561 3.88451 3.68102
# Velocity P-wave (km/s) = 5.25824 6.21176 5.75478
#
# Compressibility (1/GPa) = 0.04236914
#
# Stress axis : x y z
#
# Youngs Moduli (GPa) = 62.41749 85.89181 29.78514
#
# Poissons Ratio (x) = 0.10321 0.12672
# Poissons Ratio (y) = 0.07500 0.11849
# Poissons Ratio (z) = 0.26555 0.34169
#
# Static dielectric constant tensor:
#      x y z
#    x 3.693020 0.103850 0.361790 
#    y 0.103850 3.632620 -0.220540 
#    z 0.361790 -0.220540 3.837780 
# 
# 
# High freq. dielectric constant tensor:
#      x y z
#    x 1.786290 0.022400 0.011980 
#    y 0.022400 1.786690 -0.003430 
#    z 0.011980 -0.003430 1.782500 
# 
# From -- ./inp_files/521587.got.cif
#   From: 2010.06.25/outbox.cif.g09.slc.cpg/sg2_261_cif.got.tgz:521587.got - 2010.06.27 13:26:56.
