data_PCOD8023615
_publ_section_title
;
Structure prediction by ZEFSAII (Michael W. Deem and Ramdas Pophale) SiO2 
 PCOD8023615
Probable space group: P -1
;
_chemical_formula_sum "Si O2"
_cell_formula_units_Z 12
_cell_length_a 5.292994
_cell_length_b 16.186727
_cell_length_c 9.344980
_cell_angle_alpha 128.284110
_cell_angle_beta 82.745144
_cell_angle_gamma 121.438607
_cell_volume 512.513625
_symmetry_space_group_name_H-M "P -1"
_symmetry_group_IT_number 2
_symmetry_cell_setting 'triclinic'
loop_
_space_group_symop_operation_xyz
x,y,z
-x,-y,-z
loop_
_atom_site_type_symbol
_atom_site_label
_atom_site_fract_x
_atom_site_fract_y
_atom_site_fract_z
Si Si1 0.673331 0.716524 0.383986
Si Si2 0.667410 0.240438 0.039619
Si Si3 0.108868 0.642689 0.153366
Si Si4 0.082519 0.972073 0.758215
Si Si5 0.842328 0.104620 0.044196
Si Si6 0.372998 0.585769 0.566451
O O1 0.430738 0.717393 0.297061
O O2 0.495589 0.652098 0.475113
O O3 0.830672 0.646115 0.243232
O O4 0.959159 0.867199 0.530145
O O5 0.897660 0.239612 0.139231
O O6 0.512553 0.305588 0.198833
O O7 0.852120 0.313239 0.964751
O O8 0.443159 0.089013 0.851409
O O9 0.000000 0.500000 0.000000
O O10 0.964191 0.881806 0.813593
O O11 0.918094 0.046755 0.843000
O O12 0.500000 0.000000 0.000000
O O13 0.500000 0.500000 0.500000
O O14 0.000000 0.500000 0.500000
#
# Coordination Sequence:
#
# PCOD8023615 Si02
#       6
#     2   2   2   2   2   2
#     4  12  27  48  75 105 148 186 243 303 361 430
#     4  11  26  44  76 102 148 191 245 295 367 434
#     4  12  29  51  71 102 152 198 235 296 366 433
#     4  10  23  41  72 106 144 182 241 305 372 414
#     4   9  19  39  66 104 142 180 229 296 365 416
#     4  12  27  46  75 109 138 191 255 297 345 426
#
# _framework density 23.414014000000002
#
# number of rings (size 3 to 8) (size 9 to 14) (size 15 to 20)
#    0.000    1.000    0.000    6.500   14.000    1.333 
#    0.000    0.000    0.000    0.000    0.000    0.000 
#    0.000    0.000    0.000    0.000    0.000    0.000 
#
# Total GULP energy -148658.681150 kJ/mol
# GULP energy per Si atom -12388.223429 kJ/mol
# Density = 2.336072 g / cm^3
# Si number density = 23.414014 Si / 1000 Ang^3
#
#
#
# Elastic Constant Matrix: (Units=GPa)
#
#
# Indices 1 2 3 4 5 6 
#
# 1 121.5630 36.3355 25.6749 -4.6627 -21.6168 -10.8610
# 2 36.3355 137.9774 44.7861 -5.6509 -9.4087 -7.5234
# 3 25.6749 44.7861 106.4446 4.9090 -10.6984 3.9173
# 4 -4.6627 -5.6509 4.9090 35.0976 7.0724 -6.2060
# 5 -21.6168 -9.4087 -10.6984 7.0724 39.0551 -0.3606
# 6 -10.8610 -7.5234 3.9173 -6.2060 -0.3606 40.9126
#
#
#
# Elastic Compliance Matrix: (Units=1/GPa)
#
#
# Indices 1 2 3 4 5 6 
#
# 1 0.010137 -0.001723 -0.001383 0.000787 0.004699 0.002668
# 2 -0.001723 0.009036 -0.003562 0.002075 -0.000111 0.001859
# 3 -0.001383 -0.003562 0.011691 -0.003289 0.002151 -0.002621
# 4 0.000787 0.002075 -0.003289 0.031520 -0.005621 0.005637
# 5 0.004699 -0.000111 0.002151 -0.005621 0.029790 0.000431
# 6 0.002668 0.001859 -0.002621 0.005637 0.000431 0.026602
#
#
# Mechanical properties :
#
#
# Convention : Reuss Voigt Hill
#
# Bulk Modulus (GPa) = 57.04331 64.39756 60.72043
# Shear Modulus (GPa) = 36.24391 40.29230 38.26810
#
# Velocity S-wave (km/s) = 3.93868 4.15283 4.04717
# Velocity P-wave (km/s) = 6.71566 7.11043 6.91586
#
# Compressibility (1/GPa) = 0.01753054
#
# Stress axis : x y z
#
# Youngs Moduli (GPa) = 98.64583 110.66715 85.53665
#
# Poissons Ratio (x) = 0.19064 0.11826
# Poissons Ratio (y) = 0.16994 0.30465
# Poissons Ratio (z) = 0.13638 0.39416
#
# Static dielectric constant tensor:
#      x y z
#    x 4.135570 -0.267200 -0.131810 
#    y -0.267200 4.407080 0.114990 
#    z -0.131810 0.114990 4.383690 
# 
# 
# High freq. dielectric constant tensor:
#      x y z
#    x 1.944540 -0.004720 -0.004650 
#    y -0.004720 1.931510 0.016080 
#    z -0.004650 0.016080 1.919760 
# 
# From -- ./inp_files/135910.got.cif
#   From: 2010.06.25/outbox.cif.g09.slc.cpg/sg2_68_cif.got.tgz:135910.got - 2010.06.27 13:26:56.
