data_PCOD8023392
_publ_section_title
;
Structure prediction by ZEFSAII (Michael W. Deem and Ramdas Pophale) SiO2 
 PCOD8023392
Probable space group: P -1
;
_chemical_formula_sum "Si O2"
_cell_formula_units_Z 16
_cell_length_a 11.443860
_cell_length_b 26.525342
_cell_length_c 6.855609
_cell_angle_alpha 135.363549
_cell_angle_beta 131.305550
_cell_angle_gamma 29.128837
_cell_volume 707.215584
_symmetry_space_group_name_H-M "P -1"
_symmetry_group_IT_number 2
_symmetry_cell_setting 'triclinic'
loop_
_space_group_symop_operation_xyz
x,y,z
-x,-y,-z
loop_
_atom_site_type_symbol
_atom_site_label
_atom_site_fract_x
_atom_site_fract_y
_atom_site_fract_z
Si Si1 0.982760 0.225956 0.531469
Si Si2 0.097464 0.034508 0.312093
Si Si3 0.167316 0.526005 0.425657
Si Si4 0.553011 0.372237 0.721965
Si Si5 0.365323 0.805285 0.555045
Si Si6 0.408498 0.188114 0.848427
Si Si7 0.702171 0.378469 0.299894
Si Si8 0.666230 0.663948 0.132432
O O1 0.071586 0.115149 0.375241
O O2 0.200561 0.204780 0.707573
O O3 0.786177 0.324153 0.740546
O O4 0.843605 0.272384 0.299216
O O5 0.930840 0.095091 0.491830
O O6 0.381965 0.923221 0.360301
O O7 0.000000 0.000000 0.000000
O O8 0.301730 0.490137 0.682204
O O9 0.104769 0.628757 0.571244
O O10 0.909783 0.577632 0.296024
O O11 0.352861 0.411666 0.179394
O O12 0.544987 0.289610 0.464166
O O13 0.571600 0.380713 0.993516
O O14 0.448039 0.766163 0.314168
O O15 0.480181 0.832818 0.871302
O O16 0.310992 0.290980 0.903526
O O17 0.500000 0.500000 0.500000
#
# Coordination Sequence:
#
# PCOD8023392 Si02
#       8
#     2   2   2   2   2   2   2   2
#     4  11  24  41  66  98 131 171 213 272 323 383
#     4   9  22  44  70  96 128 168 219 269 332 388
#     4  11  23  42  59  99 133 176 213 266 314 388
#     4  11  24  41  63  94 135 173 224 258 318 392
#     4  10  23  41  66  96 126 176 214 272 321 386
#     4  11  22  43  69  95 133 168 215 276 328 379
#     4  12  24  38  63  95 133 178 216 262 320 383
#     4  11  24  41  66  95 137 167 226 261 323 390
#
# _framework density 22.623934999999999
#
# number of rings (size 3 to 8) (size 9 to 14) (size 15 to 20)
#    0.000    1.250    3.750    1.500    1.750    1.000 
#    0.000    3.750    0.000    7.500    0.000    0.000 
#    0.000    0.000    0.000    0.000    0.000    0.000 
#
# Total GULP energy -198248.748656 kJ/mol
# GULP energy per Si atom -12390.546791 kJ/mol
# Density = 2.257244 g / cm^3
# Si number density = 22.623935 Si / 1000 Ang^3
#
#
#
# Elastic Constant Matrix: (Units=GPa)
#
#
# Indices 1 2 3 4 5 6 
#
# 1 75.3315 12.5819 31.7924 -4.5200 9.0444 2.5540
# 2 12.5819 81.7544 29.7557 -6.7780 7.3539 1.3158
# 3 31.7924 29.7557 98.6671 -8.3352 -4.7774 -5.4503
# 4 -4.5200 -6.7780 -8.3352 30.2800 0.7958 8.0077
# 5 9.0444 7.3539 -4.7774 0.7958 30.9040 1.8383
# 6 2.5540 1.3158 -5.4503 8.0077 1.8383 32.5655
#
#
#
# Elastic Compliance Matrix: (Units=1/GPa)
#
#
# Indices 1 2 3 4 5 6 
#
# 1 0.016477 0.000201 -0.005627 0.001725 -0.005644 -0.002347
# 2 0.000201 0.014458 -0.004504 0.002601 -0.004158 -0.001759
# 3 -0.005627 -0.004504 0.013764 0.001191 0.004675 0.002370
# 4 0.001725 0.002601 0.001191 0.036599 -0.001349 -0.008964
# 5 -0.005644 -0.004158 0.004675 -0.001349 0.035774 -0.000295
# 6 -0.002347 -0.001759 0.002370 -0.008964 -0.000295 0.033580
#
#
# Mechanical properties :
#
#
# Convention : Reuss Voigt Hill
#
# Bulk Modulus (GPa) = 40.25873 44.89034 42.57453
# Shear Modulus (GPa) = 27.96556 30.85811 29.41184
#
# Velocity S-wave (km/s) = 3.51964 3.69719 3.60951
# Velocity P-wave (km/s) = 5.86094 6.17338 6.01919
#
# Compressibility (1/GPa) = 0.02483934
#
# Stress axis : x y z
#
# Youngs Moduli (GPa) = 60.69202 69.16614 72.65194
#
# Poissons Ratio (x) = -0.01389 0.40880
# Poissons Ratio (y) = -0.01218 0.32720
# Poissons Ratio (z) = 0.34151 0.31150
#
# Static dielectric constant tensor:
#      x y z
#    x 8.631290 2.755880 3.222010 
#    y 2.755880 6.217330 2.305100 
#    z 3.222010 2.305100 6.123530 
# 
# 
# High freq. dielectric constant tensor:
#      x y z
#    x 1.901320 -0.001790 0.015750 
#    y -0.001790 1.887050 0.005440 
#    z 0.015750 0.005440 1.881040 
# 
# From -- ./inp_files/48284.got.cif
#   From: 2010.06.25/outbox.cif.g09.slc.cpg/sg2_25_cif.got.tgz:48284.got - 2010.06.27 13:26:56.
