data_PCOD8023652
_publ_section_title
;
Structure prediction by ZEFSAII (Michael W. Deem and Ramdas Pophale) SiO2 
 PCOD8023652
Probable space group: P -1
;
_chemical_formula_sum "Si O2"
_cell_formula_units_Z 16
_cell_length_a 12.630167
_cell_length_b 12.140844
_cell_length_c 12.164431
_cell_angle_alpha 90.700894
_cell_angle_beta 128.544778
_cell_angle_gamma 130.141198
_cell_volume 804.749552
_symmetry_space_group_name_H-M "P -1"
_symmetry_group_IT_number 2
_symmetry_cell_setting 'triclinic'
loop_
_space_group_symop_operation_xyz
x,y,z
-x,-y,-z
loop_
_atom_site_type_symbol
_atom_site_label
_atom_site_fract_x
_atom_site_fract_y
_atom_site_fract_z
Si Si1 0.312496 0.156260 0.935529
Si Si2 0.992464 0.441805 0.232451
Si Si3 0.651790 0.037727 0.909922
Si Si4 0.170780 0.461019 0.773151
Si Si5 0.519799 0.897387 0.572334
Si Si6 0.912053 0.069769 0.676630
Si Si7 0.823144 0.981565 0.383624
Si Si8 0.878089 0.258054 0.380092
O O1 0.085877 0.083057 0.812267
O O2 0.364171 0.168021 0.838364
O O3 0.580288 0.388607 0.135873
O O4 0.259603 0.010848 0.968928
O O5 0.271781 0.661375 0.385867
O O6 0.827765 0.441210 0.133094
O O7 0.003750 0.387903 0.354977
O O8 0.868479 0.276455 0.059530
O O9 0.583298 0.961780 0.740638
O O10 0.415628 0.927257 0.818000
O O11 0.091844 0.294681 0.776872
O O12 0.977265 0.380278 0.558085
O O13 0.500000 0.000000 0.500000
O O14 0.740665 0.973440 0.668671
O O15 0.732540 0.932424 0.451425
O O16 0.962087 0.187824 0.443017
O O17 0.000000 0.000000 0.500000
#
# Coordination Sequence:
#
# PCOD8023652 Si02
#       8
#     2   2   2   2   2   2   2   2
#     4  11  21  39  65  97 124 157 218 267 317 373
#     4  12  22  38  67  97 122 163 213 264 317 370
#     4  12  24  39  67  97 126 164 211 267 318 371
#     4  11  20  36  65  96 123 163 211 262 323 369
#     4  12  25  46  61  88 134 173 212 255 313 388
#     4  10  23  42  61  87 134 174 202 259 318 377
#     4   9  19  37  63  87 124 161 200 263 317 357
#     4  11  19  38  61  99 128 155 207 274 321 356
#
# _framework density 19.881964
#
# number of rings (size 3 to 8) (size 9 to 14) (size 15 to 20)
#    0.000    1.000    5.000    3.375    0.000    1.000 
#    2.250    0.625    0.000    0.000    0.000    0.000 
#    0.000    0.000    0.000    0.000    0.000    0.000 
#
# Total GULP energy -198237.710177 kJ/mol
# GULP energy per Si atom -12389.856886 kJ/mol
# Density = 1.983671 g / cm^3
# Si number density = 19.881964 Si / 1000 Ang^3
#
#
#
# Elastic Constant Matrix: (Units=GPa)
#
#
# Indices 1 2 3 4 5 6 
#
# 1 107.2892 46.5336 44.2970 3.0955 12.5672 -3.6711
# 2 46.5336 100.4081 50.2027 -1.4079 10.0562 -2.1593
# 3 44.2970 50.2027 103.4128 9.9725 2.6430 -3.2119
# 4 3.0955 -1.4079 9.9725 36.4241 3.1500 10.7849
# 5 12.5672 10.0562 2.6430 3.1500 29.7805 -2.2458
# 6 -3.6711 -2.1593 -3.2119 10.7849 -2.2458 18.3813
#
#
#
# Elastic Compliance Matrix: (Units=1/GPa)
#
#
# Indices 1 2 3 4 5 6 
#
# 1 0.012921 -0.003843 -0.003502 -0.000341 -0.003713 0.001264
# 2 -0.003843 0.015102 -0.006027 0.003639 -0.003525 -0.002612
# 3 -0.003502 -0.006027 0.014715 -0.005686 0.003177 0.004888
# 4 -0.000341 0.003639 -0.005686 0.036457 -0.006154 -0.022777
# 5 -0.003713 -0.003525 0.003177 -0.006154 0.037275 0.007565
# 6 0.001264 -0.002612 0.004888 -0.022777 0.007565 0.069491
#
#
# Mechanical properties :
#
#
# Convention : Reuss Voigt Hill
#
# Bulk Modulus (GPa) = 62.52551 65.90852 64.21701
# Shear Modulus (GPa) = 22.93190 28.25564 25.59377
#
# Velocity S-wave (km/s) = 3.39986 3.77393 3.59177
# Velocity P-wave (km/s) = 6.85045 7.22578 7.04062
#
# Compressibility (1/GPa) = 0.01599347
#
# Stress axis : x y z
#
# Youngs Moduli (GPa) = 77.39125 66.21785 67.95772
#
# Poissons Ratio (x) = 0.25448 0.23800
# Poissons Ratio (y) = 0.29741 0.40958
# Poissons Ratio (z) = 0.27104 0.39910
#
# Static dielectric constant tensor:
#      x y z
#    x 4.556990 0.404750 -2.393690 
#    y 0.404750 3.981190 -1.329110 
#    z -2.393690 -1.329110 8.923640 
# 
# 
# High freq. dielectric constant tensor:
#      x y z
#    x 1.766050 -0.020560 -0.009740 
#    y -0.020560 1.774650 -0.006580 
#    z -0.009740 -0.006580 1.782100 
# 
# From -- ./inp_files/428435.got.cif
#   From: 2010.06.25/outbox.cif.g09.slc.cpg/sg2_215_cif.got.tgz:428435.got - 2010.06.27 13:26:56.
