data_PCOD8023917
_publ_section_title
;
Structure prediction by ZEFSAII (Michael W. Deem and Ramdas Pophale) SiO2 
 PCOD8023917
Probable space group: P -1
;
_chemical_formula_sum "Si O2"
_cell_formula_units_Z 14
_cell_length_a 29.322058
_cell_length_b 7.129040
_cell_length_c 9.478692
_cell_angle_alpha 60.802341
_cell_angle_beta 24.289567
_cell_angle_gamma 51.605495
_cell_volume 619.685700
_symmetry_space_group_name_H-M "P -1"
_symmetry_group_IT_number 2
_symmetry_cell_setting 'triclinic'
loop_
_space_group_symop_operation_xyz
x,y,z
-x,-y,-z
loop_
_atom_site_type_symbol
_atom_site_label
_atom_site_fract_x
_atom_site_fract_y
_atom_site_fract_z
Si Si1 0.128245 0.422225 0.081505
Si Si2 0.500073 0.568179 0.708246
Si Si3 0.167021 0.926406 0.194153
Si Si4 0.725801 0.978774 0.675624
Si Si5 0.368299 0.404489 0.933011
Si Si6 0.234865 0.741840 0.782858
Si Si7 0.045195 0.153633 0.730010
O O1 0.000000 0.500000 0.500000
O O2 0.068225 0.559738 0.049917
O O3 0.213217 0.125680 0.948309
O O4 0.220107 0.518904 0.845052
O O5 0.439496 0.407536 0.873853
O O6 0.536206 0.699628 0.431736
O O7 0.621320 0.373675 0.525201
O O8 0.403519 0.779221 0.006847
O O9 0.051970 0.060496 0.581435
O O10 0.272241 0.689910 0.065228
O O11 0.136484 0.853104 0.153217
O O12 0.822072 0.879915 0.574009
O O13 0.789833 0.047264 0.340086
O O14 0.699468 0.757870 0.788073
O O15 0.000000 0.000000 0.000000
#
# Coordination Sequence:
#
# PCOD8023917 Si02
#       7
#     2   2   2   2   2   2   2
#     4  10  24  44  68  94 135 175 217 270 325 389
#     4  10  23  42  67  97 136 172 216 274 327 397
#     4  10  24  43  68  92 136 170 218 270 318 397
#     4  12  24  43  68 100 137 169 219 277 328 389
#     4  10  23  42  69 102 128 173 222 265 337 389
#     4  11  25  43  69 104 126 176 222 266 340 386
#     4  11  23  45  68  97 134 173 219 271 330 387
#
# _framework density 22.592099000000001
#
# number of rings (size 3 to 8) (size 9 to 14) (size 15 to 20)
#    0.000    1.429    2.857    0.857    8.000    8.571 
#    0.000    1.429    0.000    0.000    0.000    0.000 
#    0.000    0.000    0.000    0.000    0.000    0.000 
#
# Total GULP energy -173462.393209 kJ/mol
# GULP energy per Si atom -12390.170943 kJ/mol
# Density = 2.254068 g / cm^3
# Si number density = 22.592099 Si / 1000 Ang^3
#
#
#
# Elastic Constant Matrix: (Units=GPa)
#
#
# Indices 1 2 3 4 5 6 
#
# 1 83.4262 42.4396 8.2226 -0.6932 6.7608 -5.8948
# 2 42.4396 144.2109 31.0126 -18.9753 -2.8490 -5.2635
# 3 8.2226 31.0126 51.7619 -6.1683 10.8106 0.4242
# 4 -0.6932 -18.9753 -6.1683 36.8245 1.8063 -2.3977
# 5 6.7608 -2.8490 10.8106 1.8063 22.6133 -9.5501
# 6 -5.8948 -5.2635 0.4242 -2.3977 -9.5501 27.4889
#
#
#
# Elastic Compliance Matrix: (Units=1/GPa)
#
#
# Indices 1 2 3 4 5 6 
#
# 1 0.014855 -0.005073 0.001661 -0.001773 -0.005712 0.000049
# 2 -0.005073 0.010713 -0.006696 0.004200 0.007427 0.004013
# 3 0.001661 -0.006696 0.026937 0.001474 -0.017401 -0.007258
# 4 -0.001773 0.004200 0.001474 0.029752 -0.000886 0.002689
# 5 -0.005712 0.007427 -0.017401 -0.000886 0.064948 0.022952
# 6 0.000049 0.004013 -0.007258 0.002689 0.022952 0.045478
#
#
# Mechanical properties :
#
#
# Convention : Reuss Voigt Hill
#
# Bulk Modulus (GPa) = 30.97105 49.19428 40.08267
# Shear Modulus (GPa) = 22.35499 30.56695 26.46097
#
# Velocity S-wave (km/s) = 3.14905 3.68230 3.42606
# Velocity P-wave (km/s) = 5.19236 6.31675 5.78195
#
# Compressibility (1/GPa) = 0.03228821
#
# Stress axis : x y z
#
# Youngs Moduli (GPa) = 67.31538 93.34220 37.12400
#
# Poissons Ratio (x) = 0.47356 -0.06167
# Poissons Ratio (y) = 0.34151 0.24860
# Poissons Ratio (z) = -0.11182 0.62506
#
# Static dielectric constant tensor:
#      x y z
#    x 4.360160 -0.162210 0.074530 
#    y -0.162210 4.396320 0.035520 
#    z 0.074530 0.035520 3.967550 
# 
# 
# High freq. dielectric constant tensor:
#      x y z
#    x 1.898170 -0.011740 -0.002880 
#    y -0.011740 1.896500 -0.004320 
#    z -0.002880 -0.004320 1.875820 
# 
# From -- ./inp_files/273789.got.cif
#   From: 2010.06.25/outbox.cif.g09.slc.cpg/sg2_137_cif.got.tgz:273789.got - 2010.06.27 13:26:56.
