data_PCOD8023990
_publ_section_title
;
Structure prediction by ZEFSAII (Michael W. Deem and Ramdas Pophale) SiO2 
 PCOD8023990
Probable space group: P -1
;
_chemical_formula_sum "Si O2"
_cell_formula_units_Z 16
_cell_length_a 13.777450
_cell_length_b 10.855499
_cell_length_c 10.862861
_cell_angle_alpha 110.831784
_cell_angle_beta 147.203315
_cell_angle_gamma 55.835068
_cell_volume 703.143093
_symmetry_space_group_name_H-M "P -1"
_symmetry_group_IT_number 2
_symmetry_cell_setting 'triclinic'
loop_
_space_group_symop_operation_xyz
x,y,z
-x,-y,-z
loop_
_atom_site_type_symbol
_atom_site_label
_atom_site_fract_x
_atom_site_fract_y
_atom_site_fract_z
Si Si1 0.361919 0.779491 0.385701
Si Si2 0.993491 0.271610 0.940817
Si Si3 0.209194 0.432946 0.320620
Si Si4 0.431608 0.967293 0.714587
Si Si5 0.788877 0.440697 0.389516
Si Si6 0.332289 0.926635 0.142525
Si Si7 0.546156 0.294888 0.021562
Si Si8 0.266872 0.200551 0.820563
O O1 0.207971 0.713655 0.201205
O O2 0.599024 0.636872 0.595248
O O3 0.329703 0.879436 0.509364
O O4 0.338513 0.872993 0.269513
O O5 0.943606 0.388179 0.814783
O O6 0.106250 0.326576 0.177591
O O7 0.130780 0.097911 0.977811
O O8 0.293138 0.431247 0.545438
O O9 0.464579 0.063117 0.674987
O O10 0.266902 0.076338 0.682580
O O11 0.664192 0.858848 0.986920
O O12 0.711883 0.319879 0.284237
O O13 0.040985 0.355263 0.623238
O O14 0.666616 0.540567 0.175383
O O15 0.325398 0.807921 0.996752
O O16 0.465809 0.211445 0.994049
#
# Coordination Sequence:
#
# PCOD8023990 Si02
#       8
#     2   2   2   2   2   2   2   2
#     4  12  24  43  71  99 135 178 222 283 333 400
#     4  11  26  41  68 101 133 179 226 269 341 406
#     4  11  25  46  64 100 140 177 219 281 336 396
#     4  10  23  42  68  98 138 171 224 280 334 397
#     4  11  23  43  68  95 137 180 218 278 338 401
#     4  11  22  47  66 101 139 170 226 284 335 391
#     4  10  24  43  67 100 133 176 229 275 329 409
#     4  10  23  43  65  99 131 181 221 272 334 400
#
# _framework density 22.754968999999999
#
# number of rings (size 3 to 8) (size 9 to 14) (size 15 to 20)
#    0.000    1.250    2.500    2.250    5.250    1.000 
#    2.250    2.500    0.000    0.000    0.000    0.000 
#    0.000    0.000    0.000    0.000    0.000    0.000 
#
# Total GULP energy -198314.726208 kJ/mol
# GULP energy per Si atom -12394.670388 kJ/mol
# Density = 2.270318 g / cm^3
# Si number density = 22.754969 Si / 1000 Ang^3
#
#
#
# Elastic Constant Matrix: (Units=GPa)
#
#
# Indices 1 2 3 4 5 6 
#
# 1 83.7949 29.8576 45.3783 16.3984 2.7043 0.3002
# 2 29.8576 108.5020 49.4210 14.9943 12.6354 -5.5249
# 3 45.3783 49.4210 102.4822 28.1294 14.4996 -3.9325
# 4 16.3984 14.9943 28.1294 40.9872 -1.1548 -10.7791
# 5 2.7043 12.6354 14.4996 -1.1548 24.1605 -1.7173
# 6 0.3002 -5.5249 -3.9325 -10.7791 -1.7173 24.2315
#
#
#
# Elastic Compliance Matrix: (Units=1/GPa)
#
#
# Indices 1 2 3 4 5 6 
#
# 1 0.016279 -0.001770 -0.006217 -0.002155 0.002562 -0.002391
# 2 -0.001770 0.012284 -0.004494 -0.000353 -0.003426 0.001694
# 3 -0.006217 -0.004494 0.018392 -0.009468 -0.008642 -0.002787
# 4 -0.002155 -0.000353 -0.009468 0.036110 0.008907 0.015104
# 5 0.002562 -0.003426 -0.008642 0.008907 0.048878 0.005211
# 6 -0.002391 0.001694 -0.002787 0.015104 0.005211 0.048320
#
#
# Mechanical properties :
#
#
# Convention : Reuss Voigt Hill
#
# Bulk Modulus (GPa) = 45.46752 60.45479 52.96115
# Shear Modulus (GPa) = 23.52311 29.21733 26.37022
#
# Velocity S-wave (km/s) = 3.21870 3.58718 3.40792
# Velocity P-wave (km/s) = 5.81705 6.61684 6.22979
#
# Compressibility (1/GPa) = 0.02199372
#
# Stress axis : x y z
#
# Youngs Moduli (GPa) = 61.42796 81.40503 54.37064
#
# Poissons Ratio (x) = 0.14409 0.33804
# Poissons Ratio (y) = 0.10873 0.24432
# Poissons Ratio (z) = 0.38192 0.36580
#
# Static dielectric constant tensor:
#      x y z
#    x 3.903480 0.000210 -0.012200 
#    y 0.000210 4.260380 0.087200 
#    z -0.012200 0.087200 3.956650 
# 
# 
# High freq. dielectric constant tensor:
#      x y z
#    x 1.886030 -0.001470 -0.003620 
#    y -0.001470 1.913660 0.001710 
#    z -0.003620 0.001710 1.888610 
# 
# From -- ./inp_files/451699.got.cif
#   From: 2010.06.25/outbox.cif.g09.slc.cpg/sg2_226_cif.got.tgz:451699.got - 2010.06.27 13:26:56.
