data_PCOD8023261
_publ_section_title
;
Structure prediction by ZEFSAII (Michael W. Deem and Ramdas Pophale) SiO2 
 PCOD8023261
Probable space group: P -1
;
_chemical_formula_sum "Si O2"
_cell_formula_units_Z 16
_cell_length_a 8.908637
_cell_length_b 15.173611
_cell_length_c 8.946354
_cell_angle_alpha 38.657507
_cell_angle_beta 114.386685
_cell_angle_gamma 104.688035
_cell_volume 682.968064
_symmetry_space_group_name_H-M "P -1"
_symmetry_group_IT_number 2
_symmetry_cell_setting 'triclinic'
loop_
_space_group_symop_operation_xyz
x,y,z
-x,-y,-z
loop_
_atom_site_type_symbol
_atom_site_label
_atom_site_fract_x
_atom_site_fract_y
_atom_site_fract_z
Si Si1 0.881209 0.412336 0.335697
Si Si2 0.307999 0.760028 0.293857
Si Si3 0.442576 0.805831 0.996528
Si Si4 0.018729 0.061946 0.098811
Si Si5 0.887793 0.739944 0.874944
Si Si6 0.163452 0.776300 0.700950
Si Si7 0.373941 0.126865 0.628609
Si Si8 0.203074 0.213392 0.751812
O O1 0.777696 0.363477 0.497683
O O2 0.812299 0.356429 0.225179
O O3 0.076312 0.357601 0.507339
O O4 0.854606 0.580220 0.099141
O O5 0.459425 0.798064 0.407223
O O6 0.373366 0.704920 0.228669
O O7 0.179719 0.903352 0.030775
O O8 0.344021 0.802739 0.804403
O O9 0.423795 0.958482 0.869268
O O10 0.639933 0.763900 0.107126
O O11 0.086951 0.188364 0.052081
O O12 0.077583 0.910128 0.395577
O O13 0.101878 0.082812 0.940820
O O14 0.727060 0.827883 0.621153
O O15 0.050257 0.746853 0.832345
O O16 0.260284 0.178061 0.654606
#
# Coordination Sequence:
#
# PCOD8023261 Si02
#       8
#     2   2   2   2   2   2   2   2
#     4  11  27  43  69  95 136 177 219 265 326 401
#     4  10  23  41  64 101 129 176 210 272 326 391
#     4  11  23  43  67 101 135 167 218 280 333 377
#     4  11  24  42  72  97 131 169 229 273 317 390
#     4  12  24  47  65  96 138 178 215 264 339 391
#     4  12  24  41  69 100 125 175 223 273 321 382
#     4  11  23  41  71  96 138 170 215 273 340 379
#     4  10  24  41  66 101 131 171 215 273 327 385
#
# _framework density 23.427157999999999
#
# number of rings (size 3 to 8) (size 9 to 14) (size 15 to 20)
#    0.000    1.000    3.750    3.000    5.250    5.000 
#    0.000    1.875    0.000    0.000    0.000    0.000 
#    0.000    0.000    0.000    0.000    0.000    0.000 
#
# Total GULP energy -198467.606014 kJ/mol
# GULP energy per Si atom -12404.225376 kJ/mol
# Density = 2.337384 g / cm^3
# Si number density = 23.427158 Si / 1000 Ang^3
#
#
#
# Elastic Constant Matrix: (Units=GPa)
#
#
# Indices 1 2 3 4 5 6 
#
# 1 123.0724 5.4296 21.8427 9.8077 3.7414 15.2766
# 2 5.4296 46.1715 4.1506 -13.3974 -2.5163 8.8986
# 3 21.8427 4.1506 30.9188 5.8436 -17.3876 -0.8616
# 4 9.8077 -13.3974 5.8436 34.5362 12.0549 8.3164
# 5 3.7414 -2.5163 -17.3876 12.0549 26.8908 7.9968
# 6 15.2766 8.8986 -0.8616 8.3164 7.9968 25.2650
#
#
#
# Elastic Compliance Matrix: (Units=1/GPa)
#
#
# Indices 1 2 3 4 5 6 
#
# 1 0.012132 0.003193 -0.019575 0.008239 -0.015697 -0.006871
# 2 0.003193 0.033390 -0.022966 0.026725 -0.019020 -0.017251
# 3 -0.019575 -0.022966 0.117712 -0.061315 0.100515 0.012307
# 4 0.008239 0.026725 -0.061315 0.075299 -0.065986 -0.020386
# 5 -0.015697 -0.019020 0.100515 -0.065986 0.132328 -0.000546
# 6 -0.006871 -0.017251 0.012307 -0.020386 -0.000546 0.057114
#
#
# Mechanical properties :
#
#
# Convention : Reuss Voigt Hill
#
# Bulk Modulus (GPa) = 11.82897 29.22317 20.52607
# Shear Modulus (GPa) = 9.34840 28.58772 18.96806
#
# Velocity S-wave (km/s) = 1.99977 3.49704 2.84854
# Velocity P-wave (km/s) = 3.22371 5.36720 4.42714
#
# Compressibility (1/GPa) = 0.08453820
#
# Stress axis : x y z
#
# Youngs Moduli (GPa) = 82.42529 29.94883 8.49530
#
# Poissons Ratio (x) = -0.09561 0.16630
# Poissons Ratio (y) = -0.26315 0.19510
# Poissons Ratio (z) = 1.61350 0.68779
#
# Static dielectric constant tensor:
#      x y z
#    x 4.467490 0.141210 0.074130 
#    y 0.141210 4.278270 0.353980 
#    z 0.074130 0.353980 4.122280 
# 
# 
# High freq. dielectric constant tensor:
#      x y z
#    x 1.941300 0.011820 -0.001510 
#    y 0.011820 1.929470 0.023460 
#    z -0.001510 0.023460 1.920630 
# 
# From -- ./inp_files/205385.got.cif
#   From: 2010.06.25/outbox.cif.g09.slc.cpg/sg2_103_cif.got.tgz:205385.got - 2010.06.27 13:26:56.
