data_PCOD8023450
_publ_section_title
;
Structure prediction by ZEFSAII (Michael W. Deem and Ramdas Pophale) SiO2 
 PCOD8023450
Probable space group: P -1
;
_chemical_formula_sum "Si O2"
_cell_formula_units_Z 14
_cell_length_a 12.679345
_cell_length_b 11.371630
_cell_length_c 7.824075
_cell_angle_alpha 121.792598
_cell_angle_beta 61.813422
_cell_angle_gamma 145.796152
_cell_volume 537.422366
_symmetry_space_group_name_H-M "P -1"
_symmetry_group_IT_number 2
_symmetry_cell_setting 'triclinic'
loop_
_space_group_symop_operation_xyz
x,y,z
-x,-y,-z
loop_
_atom_site_type_symbol
_atom_site_label
_atom_site_fract_x
_atom_site_fract_y
_atom_site_fract_z
Si Si1 0.211587 0.175111 0.688687
Si Si2 0.592293 0.875103 0.294716
Si Si3 0.260256 0.486637 0.043606
Si Si4 0.791737 0.726794 0.741948
Si Si5 0.345027 0.660816 0.634482
Si Si6 0.337761 0.138698 0.224606
Si Si7 0.131614 0.739585 0.858459
O O1 0.337395 0.212554 0.766057
O O2 0.245415 0.132341 0.451026
O O3 0.268119 0.389256 0.800136
O O4 0.993759 0.971907 0.742328
O O5 0.455781 0.740752 0.128359
O O6 0.479014 0.840037 0.515446
O O7 0.769431 0.125500 0.292824
O O8 0.214002 0.338136 0.115731
O O9 0.093453 0.450018 0.129726
O O10 0.744850 0.564806 0.519593
O O11 0.645893 0.725932 0.829491
O O12 0.460249 0.745929 0.789071
O O13 0.179554 0.622386 0.767816
O O14 0.202729 0.895368 0.080591
#
# Coordination Sequence:
#
# PCOD8023450 Si02
#       7
#     2   2   2   2   2   2   2
#     4  11  21  42  64  98 132 162 218 268 315 374
#     4  10  23  41  67  97 127 166 214 269 316 376
#     4  11  23  40  69 101 125 165 215 266 323 376
#     4  11  21  40  67  95 125 168 212 266 317 371
#     4  10  25  43  64  96 129 170 216 259 320 382
#     4  11  24  41  66  90 132 174 212 263 316 376
#     4  12  23  45  66  94 135 168 209 265 319 384
#
# _framework density 26.050274999999999
#
# number of rings (size 3 to 8) (size 9 to 14) (size 15 to 20)
#    0.000    1.143    2.857    3.429    0.000    5.714 
#    5.143    0.714    0.000    0.000    0.000    0.000 
#    0.000    0.000    0.000    0.000    0.000    0.000 
#
# Total GULP energy -173637.739024 kJ/mol
# GULP energy per Si atom -12402.695645 kJ/mol
# Density = 2.599098 g / cm^3
# Si number density = 26.050275 Si / 1000 Ang^3
#
#
#
# Elastic Constant Matrix: (Units=GPa)
#
#
# Indices 1 2 3 4 5 6 
#
# 1 135.9935 12.8778 49.0299 -0.4472 -20.5464 32.4624
# 2 12.8778 57.2962 -9.4467 4.6742 -2.7878 23.7620
# 3 49.0299 -9.4467 76.5535 14.9301 -3.8506 15.3873
# 4 -0.4472 4.6742 14.9301 27.7581 1.7170 -2.9799
# 5 -20.5464 -2.7878 -3.8506 1.7170 50.7275 -3.5989
# 6 32.4624 23.7620 15.3873 -2.9799 -3.5989 33.1425
#
#
#
# Elastic Compliance Matrix: (Units=1/GPa)
#
#
# Indices 1 2 3 4 5 6 
#
# 1 0.012287 -0.000768 -0.006809 0.002935 0.003776 -0.007649
# 2 -0.000768 0.035207 0.014922 -0.017561 0.001018 -0.032887
# 3 -0.006809 0.014922 0.026544 -0.018808 -0.000571 -0.018106
# 4 0.002935 -0.017561 -0.018808 0.051692 -0.001325 0.022952
# 5 0.003776 0.001018 -0.000571 -0.001325 0.021159 -0.001984
# 6 -0.007649 -0.032887 -0.018106 0.022952 -0.001984 0.071498
#
#
# Mechanical properties :
#
#
# Convention : Reuss Voigt Hill
#
# Bulk Modulus (GPa) = 11.27021 41.64059 26.45540
# Shear Modulus (GPa) = 21.43423 36.81776 29.12599
#
# Velocity S-wave (km/s) = 2.87157 3.76351 3.34738
# Velocity P-wave (km/s) = 3.91538 5.90803 5.01174
#
# Compressibility (1/GPa) = 0.08872953
#
# Stress axis : x y z
#
# Youngs Moduli (GPa) = 81.38816 28.40337 37.67351
#
# Poissons Ratio (x) = 0.02180 0.25652
# Poissons Ratio (y) = 0.06247 -0.56218
# Poissons Ratio (z) = 0.55417 -0.42385
#
# Static dielectric constant tensor:
#      x y z
#    x 5.046350 0.180120 0.190590 
#    y 0.180120 4.476870 -0.203220 
#    z 0.190590 -0.203220 4.837740 
# 
# 
# High freq. dielectric constant tensor:
#      x y z
#    x 2.055210 0.012490 0.005330 
#    y 0.012490 2.033980 -0.012980 
#    z 0.005330 -0.012980 2.052550 
# 
# From -- ./inp_files/155609.got.cif
#   From: 2010.06.25/outbox.cif.g09.slc.cpg/sg2_78_cif.got.tgz:155609.got - 2010.06.27 13:26:56.
