data_PCOD8023178
_publ_section_title
;
Structure prediction by ZEFSAII (Michael W. Deem and Ramdas Pophale) SiO2 
 PCOD8023178
Probable space group: P -1
;
_chemical_formula_sum "Si O2"
_cell_formula_units_Z 16
_cell_length_a 12.246601
_cell_length_b 20.281376
_cell_length_c 11.835194
_cell_angle_alpha 151.923841
_cell_angle_beta 54.761580
_cell_angle_gamma 142.823326
_cell_volume 749.443876
_symmetry_space_group_name_H-M "P -1"
_symmetry_group_IT_number 2
_symmetry_cell_setting 'triclinic'
loop_
_space_group_symop_operation_xyz
x,y,z
-x,-y,-z
loop_
_atom_site_type_symbol
_atom_site_label
_atom_site_fract_x
_atom_site_fract_y
_atom_site_fract_z
Si Si1 0.409524 0.789656 0.335917
Si Si2 0.782356 0.621620 0.799904
Si Si3 0.158319 0.865472 0.808246
Si Si4 0.744421 0.061909 0.725814
Si Si5 0.953759 0.033045 0.393397
Si Si6 0.264585 0.973569 0.662109
Si Si7 0.110095 0.500425 0.250304
Si Si8 0.353686 0.175425 0.358033
O O1 0.277146 0.814597 0.405325
O O2 0.261102 0.570537 0.163666
O O3 0.584616 0.985894 0.612728
O O4 0.525510 0.803302 0.183266
O O5 0.857454 0.563178 0.753428
O O6 0.559891 0.419144 0.581174
O O7 0.933156 0.740816 0.782983
O O8 0.793703 0.780734 0.094013
O O9 0.232689 0.994826 0.842587
O O10 0.160685 0.700154 0.549261
O O11 0.313646 0.037717 0.071266
O O12 0.901069 0.067868 0.594800
O O13 0.624027 0.899520 0.656037
O O14 0.878396 0.299327 0.045346
O O15 0.925126 0.119613 0.437564
O O16 0.180425 0.155499 0.443477
#
# Coordination Sequence:
#
# PCOD8023178 Si02
#       8
#     2   2   2   2   2   2   2   2
#     4   9  20  40  64  90 120 155 204 254 294 357
#     4  11  23  38  60  93 123 160 200 244 308 360
#     4  10  23  41  60  88 126 162 198 251 292 363
#     4  11  21  38  63  95 124 151 197 255 313 354
#     4  10  23  41  60  88 126 162 198 251 292 363
#     4   9  20  43  62  82 124 169 197 241 301 346
#     4  11  21  38  63  95 124 151 197 255 313 354
#     4  11  23  38  60  93 123 160 200 244 308 360
#
# _framework density 21.349164999999999
#
# number of rings (size 3 to 8) (size 9 to 14) (size 15 to 20)
#    0.000    1.750    3.750    0.750    0.000    7.000 
#    0.000   23.125    0.000    0.000    0.000    0.000 
#    0.000    0.000    0.000    0.000    0.000    0.000 
#
# Total GULP energy -198349.446322 kJ/mol
# GULP energy per Si atom -12396.840395 kJ/mol
# Density = 2.130057 g / cm^3
# Si number density = 21.349165 Si / 1000 Ang^3
#
#
#
# Elastic Constant Matrix: (Units=GPa)
#
#
# Indices 1 2 3 4 5 6 
#
# 1 69.6086 6.8675 16.5970 8.7827 12.9830 -3.2845
# 2 6.8675 114.0893 26.5964 3.0529 16.7119 -13.4108
# 3 16.5970 26.5964 93.1105 14.6190 14.9518 10.0349
# 4 8.7827 3.0529 14.6190 35.0950 6.3412 13.5843
# 5 12.9830 16.7119 14.9518 6.3412 19.4851 -5.2741
# 6 -3.2845 -13.4108 10.0349 13.5843 -5.2741 25.5375
#
#
#
# Elastic Compliance Matrix: (Units=1/GPa)
#
#
# Indices 1 2 3 4 5 6 
#
# 1 0.016915 0.001193 -0.001769 -0.003304 -0.008938 0.003409
# 2 0.001193 0.011051 -0.002942 -0.001665 -0.005623 0.006837
# 3 -0.001769 -0.002942 0.014536 0.000236 -0.010156 -0.009707
# 4 -0.003304 -0.001665 0.000236 0.043729 -0.018489 -0.028471
# 5 -0.008938 -0.005623 -0.010156 -0.018489 0.083192 0.026905
# 6 0.003409 0.006837 -0.009707 -0.028471 0.026905 0.067703
#
#
# Mechanical properties :
#
#
# Convention : Reuss Voigt Hill
#
# Bulk Modulus (GPa) = 28.19682 41.88115 35.03899
# Shear Modulus (GPa) = 19.53253 31.14002 25.33628
#
# Velocity S-wave (km/s) = 3.02803 3.82331 3.44867
# Velocity P-wave (km/s) = 5.04593 6.25701 5.68382
#
# Compressibility (1/GPa) = 0.03546499
#
# Stress axis : x y z
#
# Youngs Moduli (GPa) = 59.11922 90.49029 68.79670
#
# Poissons Ratio (x) = -0.10791 0.12171
# Poissons Ratio (y) = -0.07050 0.20238
# Poissons Ratio (z) = 0.10459 0.26620
#
# Static dielectric constant tensor:
#      x y z
#    x 3.745040 -0.129660 0.017550 
#    y -0.129660 4.389940 -0.039850 
#    z 0.017550 -0.039850 3.666110 
# 
# 
# High freq. dielectric constant tensor:
#      x y z
#    x 1.834100 -0.003480 0.005180 
#    y -0.003480 1.853650 -0.003180 
#    z 0.005180 -0.003180 1.810710 
# 
# From -- ./inp_files/432329.got.cif
#   From: 2010.06.25/outbox.cif.g09.slc.cpg/sg2_217_cif.got.tgz:432329.got - 2010.06.27 13:26:56.
