data_PCOD8023638
_publ_section_title
;
Structure prediction by ZEFSAII (Michael W. Deem and Ramdas Pophale) SiO2 
 PCOD8023638
Probable space group: P -1
;
_chemical_formula_sum "Si O2"
_cell_formula_units_Z 14
_cell_length_a 5.090064
_cell_length_b 21.890773
_cell_length_c 11.071790
_cell_angle_alpha 145.139061
_cell_angle_beta 123.094656
_cell_angle_gamma 56.895163
_cell_volume 578.217819
_symmetry_space_group_name_H-M "P -1"
_symmetry_group_IT_number 2
_symmetry_cell_setting 'triclinic'
loop_
_space_group_symop_operation_xyz
x,y,z
-x,-y,-z
loop_
_atom_site_type_symbol
_atom_site_label
_atom_site_fract_x
_atom_site_fract_y
_atom_site_fract_z
Si Si1 0.785561 0.592521 0.207153
Si Si2 0.607529 0.312227 0.505363
Si Si3 0.469581 0.009834 0.691119
Si Si4 0.670410 0.071264 0.075241
Si Si5 0.277794 0.424471 0.376351
Si Si6 0.102455 0.634793 0.035646
Si Si7 0.963842 0.881355 0.446869
O O1 0.652574 0.631107 0.370413
O O2 0.953313 0.463168 0.048075
O O3 0.053070 0.655666 0.334606
O O4 0.488309 0.610306 0.066025
O O5 0.677472 0.181949 0.327954
O O6 0.484692 0.339330 0.382320
O O7 0.830239 0.945140 0.639984
O O8 0.279064 0.916526 0.531862
O O9 0.318171 0.086182 0.668225
O O10 0.471359 0.094359 0.937850
O O11 0.500000 0.000000 0.000000
O O12 0.000000 0.000000 0.000000
O O13 0.500000 0.500000 0.500000
O O14 0.000000 0.500000 0.500000
O O15 0.114773 0.360499 0.130370
O O16 0.025005 0.751316 0.273049
#
# Coordination Sequence:
#
# PCOD8023638 Si02
#       7
#     2   2   2   2   2   2   2
#     4  11  27  43  71 105 144 178 237 281 353 425
#     4  12  25  49  69 104 142 187 230 295 344 424
#     4  10  23  45  62 107 128 181 234 285 339 415
#     4  12  27  43  72 100 139 185 232 285 354 411
#     4  12  24  45  71 101 138 185 232 283 344 420
#     4  11  25  45  70 108 137 189 227 287 351 416
#     4  10  23  41  74  92 142 175 229 289 343 407
#
# _framework density 24.212326999999998
#
# number of rings (size 3 to 8) (size 9 to 14) (size 15 to 20)
#    0.000    0.857    2.857    2.571    6.000    5.714 
#    0.000    5.714    0.000    0.000    0.000    0.000 
#    0.000    0.000    0.000    0.000    0.000    0.000 
#
# Total GULP energy -173605.964462 kJ/mol
# GULP energy per Si atom -12400.426033 kJ/mol
# Density = 2.415722 g / cm^3
# Si number density = 24.212327 Si / 1000 Ang^3
#
#
#
# Elastic Constant Matrix: (Units=GPa)
#
#
# Indices 1 2 3 4 5 6 
#
# 1 138.1936 27.5590 36.9523 24.6462 7.7847 0.6746
# 2 27.5590 80.0338 28.5525 12.1533 14.4495 -0.3565
# 3 36.9523 28.5525 144.2605 16.7016 6.6352 4.0235
# 4 24.6462 12.1533 16.7016 56.3773 5.7052 1.8260
# 5 7.7847 14.4495 6.6352 5.7052 36.0673 -0.7787
# 6 0.6746 -0.3565 4.0235 1.8260 -0.7787 30.1915
#
#
#
# Elastic Compliance Matrix: (Units=1/GPa)
#
#
# Indices 1 2 3 4 5 6 
#
# 1 0.008539 -0.001921 -0.001465 -0.002854 -0.000349 0.000145
# 2 -0.001921 0.015008 -0.002113 -0.001279 -0.004997 0.000450
# 3 -0.001465 -0.002113 0.007897 -0.001200 -0.000121 -0.000975
# 4 -0.002854 -0.001279 -0.001200 0.019833 -0.001811 -0.001038
# 5 -0.000349 -0.004997 -0.000121 -0.001811 0.030131 0.000852
# 6 0.000145 0.000450 -0.000975 -0.001038 0.000852 0.033339
#
#
# Mechanical properties :
#
#
# Convention : Reuss Voigt Hill
#
# Bulk Modulus (GPa) = 48.90600 60.95727 54.93164
# Shear Modulus (GPa) = 37.71888 42.48883 40.10386
#
# Velocity S-wave (km/s) = 3.95123 4.19363 4.07423
# Velocity P-wave (km/s) = 6.40772 6.97707 6.69845
#
# Compressibility (1/GPa) = 0.02044739
#
# Stress axis : x y z
#
# Youngs Moduli (GPa) = 117.11097 66.62945 126.63028
#
# Poissons Ratio (x) = 0.12797 0.18547
# Poissons Ratio (y) = 0.22492 0.26760
# Poissons Ratio (z) = 0.17152 0.14080
#
# Static dielectric constant tensor:
#      x y z
#    x 4.311300 0.079080 -0.292500 
#    y 0.079080 4.765010 -0.474910 
#    z -0.292500 -0.474910 4.875120 
# 
# 
# High freq. dielectric constant tensor:
#      x y z
#    x 1.967150 0.000220 -0.003550 
#    y 0.000220 1.976580 -0.014790 
#    z -0.003550 -0.014790 1.974780 
# 
# From -- ./inp_files/371176.got.cif
#   From: 2010.06.25/outbox.cif.g09.slc.cpg/sg2_186_cif.got.tgz:371176.got - 2010.06.27 13:26:56.
