data_PCOD8023177
_publ_section_title
;
Structure prediction by ZEFSAII (Michael W. Deem and Ramdas Pophale) SiO2 
 PCOD8023177
Probable space group: P -1
;
_chemical_formula_sum "Si O2"
_cell_formula_units_Z 16
_cell_length_a 9.468563
_cell_length_b 13.929892
_cell_length_c 12.010285
_cell_angle_alpha 39.345040
_cell_angle_beta 135.485498
_cell_angle_gamma 117.278668
_cell_volume 688.480909
_symmetry_space_group_name_H-M "P -1"
_symmetry_group_IT_number 2
_symmetry_cell_setting 'triclinic'
loop_
_space_group_symop_operation_xyz
x,y,z
-x,-y,-z
loop_
_atom_site_type_symbol
_atom_site_label
_atom_site_fract_x
_atom_site_fract_y
_atom_site_fract_z
Si Si1 0.064378 0.558850 0.816651
Si Si2 0.892982 0.286405 0.515189
Si Si3 0.362600 0.528020 0.291161
Si Si4 0.075938 0.032763 0.277968
Si Si5 0.456839 0.330331 0.321084
Si Si6 0.809493 0.184668 0.184881
Si Si7 0.550558 0.011288 0.341644
Si Si8 0.918953 0.851848 0.046409
O O1 0.046673 0.587622 0.647508
O O2 0.116485 0.708884 0.773904
O O3 0.850979 0.530612 0.769078
O O4 0.241212 0.404744 0.072731
O O5 0.645200 0.316738 0.353018
O O6 0.987499 0.291317 0.689786
O O7 0.995323 0.118542 0.672117
O O8 0.500000 0.500000 0.500000
O O9 0.496852 0.439659 0.345706
O O10 0.318968 0.709418 0.077584
O O11 0.996473 0.076810 0.318986
O O12 0.325581 0.983879 0.476482
O O13 0.013257 0.171092 0.026146
O O14 0.455838 0.166506 0.524710
O O15 0.667887 0.075239 0.250049
O O16 0.326422 0.119900 0.120148
O O17 0.000000 0.000000 0.000000
#
# Coordination Sequence:
#
# PCOD8023177 Si02
#       8
#     2   2   2   2   2   2   2   2
#     4  11  24  49  70  97 138 182 227 278 337 400
#     4  11  24  43  68 101 140 178 224 280 338 406
#     4  11  27  47  68  96 140 182 225 278 343 405
#     4  11  22  40  68 100 140 167 228 278 337 397
#     4  11  24  45  71 100 138 180 226 277 339 401
#     4  11  25  43  71 106 131 175 233 282 332 405
#     4  12  22  41  73 107 130 177 230 280 336 402
#     4  10  23  41  59 100 144 176 214 279 341 393
#
# _framework density 23.239570000000001
#
# number of rings (size 3 to 8) (size 9 to 14) (size 15 to 20)
#    0.000    1.000    3.750    4.125    5.250    0.000 
#    0.000    3.750    0.000    0.000    0.000    0.000 
#    0.000    0.000    0.000    0.000    0.000    0.000 
#
# Total GULP energy -198329.508456 kJ/mol
# GULP energy per Si atom -12395.594279 kJ/mol
# Density = 2.318668 g / cm^3
# Si number density = 23.239570 Si / 1000 Ang^3
#
#
#
# Elastic Constant Matrix: (Units=GPa)
#
#
# Indices 1 2 3 4 5 6 
#
# 1 107.7849 13.5230 36.4008 -7.9963 -19.1435 -8.7525
# 2 13.5230 22.0173 3.6880 3.9409 1.4935 -0.1746
# 3 36.4008 3.6880 104.4642 17.7020 -16.4233 5.9583
# 4 -7.9963 3.9409 17.7020 41.4640 -7.0418 -8.4255
# 5 -19.1435 1.4935 -16.4233 -7.0418 39.4417 0.5191
# 6 -8.7525 -0.1746 5.9583 -8.4255 0.5191 21.1302
#
#
#
# Elastic Compliance Matrix: (Units=1/GPa)
#
#
# Indices 1 2 3 4 5 6 
#
# 1 0.015945 -0.010991 -0.006558 0.010664 0.007165 0.012440
# 2 -0.010991 0.054242 0.003223 -0.011968 -0.008057 -0.009587
# 3 -0.006558 0.003223 0.014123 -0.009565 0.001006 -0.010511
# 4 0.010664 -0.011968 -0.009565 0.037148 0.007994 0.021632
# 5 0.007165 -0.008057 0.001006 0.007994 0.030916 0.005045
# 6 0.012440 -0.009587 -0.010511 0.021632 0.005045 0.063865
#
#
# Mechanical properties :
#
#
# Convention : Reuss Voigt Hill
#
# Bulk Modulus (GPa) = 17.96710 37.94335 27.95522
# Shear Modulus (GPa) = 18.97929 32.45082 25.71505
#
# Velocity S-wave (km/s) = 2.86086 3.74084 3.33005
# Velocity P-wave (km/s) = 4.31981 5.91786 5.18082
#
# Compressibility (1/GPa) = 0.05565728
#
# Stress axis : x y z
#
# Youngs Moduli (GPa) = 62.71383 18.43580 70.80779
#
# Poissons Ratio (x) = 0.20263 0.46438
# Poissons Ratio (y) = 0.68930 -0.22822
# Poissons Ratio (z) = 0.41130 -0.05942
#
# Static dielectric constant tensor:
#      x y z
#    x 4.256420 -0.094010 -0.263140 
#    y -0.094010 3.959950 0.174680 
#    z -0.263140 0.174680 4.699540 
# 
# 
# High freq. dielectric constant tensor:
#      x y z
#    x 1.926560 -0.005830 -0.013360 
#    y -0.005830 1.894060 0.004670 
#    z -0.013360 0.004670 1.934390 
# 
# From -- ./inp_files/328984.got.cif
#   From: 2010.06.25/outbox.cif.g09.slc.cpg/sg2_165_cif.got.tgz:328984.got - 2010.06.27 13:26:56.
