data_PCOD8023974
_publ_section_title
;
Structure prediction by ZEFSAII (Michael W. Deem and Ramdas Pophale) SiO2 
 PCOD8023974
Probable space group: P -1
;
_chemical_formula_sum "Si O2"
_cell_formula_units_Z 16
_cell_length_a 12.808844
_cell_length_b 18.102039
_cell_length_c 8.719541
_cell_angle_alpha 50.138873
_cell_angle_beta 101.227265
_cell_angle_gamma 141.995832
_cell_volume 720.699739
_symmetry_space_group_name_H-M "P -1"
_symmetry_group_IT_number 2
_symmetry_cell_setting 'triclinic'
loop_
_space_group_symop_operation_xyz
x,y,z
-x,-y,-z
loop_
_atom_site_type_symbol
_atom_site_label
_atom_site_fract_x
_atom_site_fract_y
_atom_site_fract_z
Si Si1 0.407322 0.486117 0.285219
Si Si2 0.921130 0.095562 0.665387
Si Si3 0.887864 0.432766 0.394534
Si Si4 0.414498 0.157503 0.610840
Si Si5 0.306764 0.207176 0.774335
Si Si6 0.709460 0.115580 0.591657
Si Si7 0.745362 0.150298 0.193141
Si Si8 0.246327 0.156433 0.313643
O O1 0.314440 0.304249 0.534538
O O2 0.490739 0.610409 0.291640
O O3 0.163850 0.335626 0.371762
O O4 0.595020 0.637593 0.002311
O O5 0.773119 0.061688 0.747549
O O6 0.796539 0.966561 0.646518
O O7 0.915729 0.998108 0.912161
O O8 0.654713 0.302395 0.514599
O O9 0.874000 0.324166 0.437629
O O10 0.000000 0.500000 0.500000
O O11 0.026975 0.616357 0.088814
O O12 0.339194 0.135509 0.783518
O O13 0.398075 0.237540 0.387694
O O14 0.252855 0.947582 0.772176
O O15 0.734826 0.126665 0.402079
O O16 0.457441 0.942545 0.797149
O O17 0.000000 0.000000 0.500000
#
# Coordination Sequence:
#
# PCOD8023974 Si02
#       8
#     2   2   2   2   2   2   2   2
#     4  10  24  44  67  96 132 175 224 267 339 391
#     4  11  23  41  71  96 129 178 221 267 334 392
#     4  11  27  41  67 100 133 174 218 271 332 395
#     4  11  25  42  65 100 131 175 221 270 330 391
#     4  10  24  42  64  97 136 173 219 276 326 401
#     4  10  23  42  68  96 128 174 216 273 323 396
#     4  10  23  45  65  92 136 170 218 273 330 385
#     4  11  25  44  69 100 133 172 222 279 327 395
#
# _framework density 22.200648000000001
#
# number of rings (size 3 to 8) (size 9 to 14) (size 15 to 20)
#    0.000    1.500    1.250    1.500    7.000    7.000 
#    0.000    0.000    0.000    0.000    0.000    0.000 
#    0.000    0.000    0.000    0.000    0.000    0.000 
#
# Total GULP energy -198209.219564 kJ/mol
# GULP energy per Si atom -12388.076223 kJ/mol
# Density = 2.215012 g / cm^3
# Si number density = 22.200648 Si / 1000 Ang^3
#
#
#
# Elastic Constant Matrix: (Units=GPa)
#
#
# Indices 1 2 3 4 5 6 
#
# 1 90.1018 40.7693 32.5608 8.5911 0.2384 -17.5022
# 2 40.7693 83.5655 28.2709 -3.9942 2.5567 -9.1720
# 3 32.5608 28.2709 118.2502 -8.3487 -4.3727 -1.9274
# 4 8.5911 -3.9942 -8.3487 26.2492 0.8705 7.2047
# 5 0.2384 2.5567 -4.3727 0.8705 20.9656 4.8451
# 6 -17.5022 -9.1720 -1.9274 7.2047 4.8451 48.4003
#
#
#
# Elastic Compliance Matrix: (Units=1/GPa)
#
#
# Indices 1 2 3 4 5 6 
#
# 1 0.017985 -0.007176 -0.003880 -0.009982 -0.001249 0.006600
# 2 -0.007176 0.016333 -0.001711 0.004363 -0.002455 0.000028
# 3 -0.003880 -0.001711 0.010340 0.004841 0.002742 -0.002311
# 4 -0.009982 0.004363 0.004841 0.046159 0.000881 -0.009549
# 5 -0.001249 -0.002455 0.002742 0.000881 0.049918 -0.005936
# 6 0.006600 0.000028 -0.002311 -0.009549 -0.005936 0.024977
#
#
# Mechanical properties :
#
#
# Convention : Reuss Voigt Hill
#
# Bulk Modulus (GPa) = 52.29223 55.01327 53.65275
# Shear Modulus (GPa) = 25.30095 31.81080 28.55587
#
# Velocity S-wave (km/s) = 3.37953 3.78944 3.59034
# Velocity P-wave (km/s) = 6.23168 6.63177 6.43483
#
# Compressibility (1/GPa) = 0.01912330
#
# Stress axis : x y z
#
# Youngs Moduli (GPa) = 55.60186 61.22414 96.71482
#
# Poissons Ratio (x) = 0.43936 0.37525
# Poissons Ratio (y) = 0.39901 0.16550
# Poissons Ratio (z) = 0.21573 0.10477
#
# Static dielectric constant tensor:
#      x y z
#    x 4.062660 -0.049640 0.015980 
#    y -0.049640 4.130610 -0.086920 
#    z 0.015980 -0.086920 4.108810 
# 
# 
# High freq. dielectric constant tensor:
#      x y z
#    x 1.875810 -0.006080 0.004040 
#    y -0.006080 1.887830 0.000020 
#    z 0.004040 0.000020 1.873330 
# 
# From -- ./inp_files/279060.got.cif
#   From: 2010.06.25/outbox.cif.g09.slc.cpg/sg2_140_cif.got.tgz:279060.got - 2010.06.27 13:26:56.
