data_PCOD8023123
_publ_section_title
;
Structure prediction by ZEFSAII (Michael W. Deem and Ramdas Pophale) SiO2 
 PCOD8023123
Probable space group: P -1
;
_chemical_formula_sum "Si O2"
_cell_formula_units_Z 14
_cell_length_a 22.539626
_cell_length_b 10.839384
_cell_length_c 10.610303
_cell_angle_alpha 142.260419
_cell_angle_beta 155.771847
_cell_angle_gamma 37.261504
_cell_volume 621.628859
_symmetry_space_group_name_H-M "P -1"
_symmetry_group_IT_number 2
_symmetry_cell_setting 'triclinic'
loop_
_space_group_symop_operation_xyz
x,y,z
-x,-y,-z
loop_
_atom_site_type_symbol
_atom_site_label
_atom_site_fract_x
_atom_site_fract_y
_atom_site_fract_z
Si Si1 0.102371 0.854601 0.687273
Si Si2 0.028473 0.460321 0.171914
Si Si3 0.427296 0.115059 0.241546
Si Si4 0.374931 0.724054 0.940453
Si Si5 0.341916 0.970274 0.712872
Si Si6 0.727478 0.407616 0.609625
Si Si7 0.767992 0.948802 0.694306
O O1 0.029347 0.668912 0.416066
O O2 0.277592 0.765029 0.911918
O O3 0.000000 0.000000 0.500000
O O4 0.109236 0.960483 0.922236
O O5 0.193163 0.289857 0.371275
O O6 0.000000 0.500000 0.000000
O O7 0.904016 0.386693 0.950815
O O8 0.370331 0.345029 0.381257
O O9 0.596564 0.085235 0.497922
O O10 0.436810 0.926333 0.206566
O O11 0.312249 0.098312 0.891392
O O12 0.265027 0.706308 0.601274
O O13 0.500000 0.500000 0.000000
O O14 0.343210 0.724904 0.535991
O O15 0.213721 0.059941 0.430027
O O16 0.500000 0.000000 0.000000
#
# Coordination Sequence:
#
# PCOD8023123 Si02
#       7
#     2   2   2   2   2   2   2
#     4  12  23  38  61  90 128 172 208 252 318 386
#     4  12  24  42  62  92 136 172 208 260 323 388
#     4  10  23  40  68  97 126 169 221 271 321 378
#     4  11  22  36  60  95 130 165 214 263 321 382
#     4   9  23  46  68  94 129 166 222 273 323 379
#     4  11  23  42  66  94 131 170 214 275 318 380
#     4  11  24  42  65  92 129 173 215 265 323 380
#
# _framework density 22.521477000000001
#
# number of rings (size 3 to 8) (size 9 to 14) (size 15 to 20)
#    0.000    1.143    2.857    2.571    0.000    8.571 
#    0.000    1.429    0.000    0.000    0.000    0.000 
#    0.000    0.000    0.000    0.000    0.000    0.000 
#
# Total GULP energy -173436.642611 kJ/mol
# GULP energy per Si atom -12388.331615 kJ/mol
# Density = 2.247022 g / cm^3
# Si number density = 22.521477 Si / 1000 Ang^3
#
#
#
# Elastic Constant Matrix: (Units=GPa)
#
#
# Indices 1 2 3 4 5 6 
#
# 1 60.4337 28.7169 33.7999 7.5901 9.2679 16.1858
# 2 28.7169 121.3970 40.1029 14.8579 -7.2094 11.5963
# 3 33.7999 40.1029 129.1066 19.0076 -15.8706 19.2189
# 4 7.5901 14.8579 19.0076 46.0429 5.4449 4.5368
# 5 9.2679 -7.2094 -15.8706 5.4449 42.9198 -0.4052
# 6 16.1858 11.5963 19.2189 4.5368 -0.4052 34.2442
#
#
#
# Elastic Compliance Matrix: (Units=1/GPa)
#
#
# Indices 1 2 3 4 5 6 
#
# 1 0.024462 -0.003960 -0.005206 0.001093 -0.008082 -0.007540
# 2 -0.003960 0.010097 -0.001422 -0.002249 0.002307 -0.000424
# 3 -0.005206 -0.001422 0.011174 -0.003668 0.005456 -0.002779
# 4 0.001093 -0.002249 -0.003668 0.024478 -0.005085 -0.001000
# 5 -0.008082 0.002307 0.005456 -0.005085 0.028104 0.000983
# 6 -0.007540 -0.000424 -0.002779 -0.001000 0.000983 0.034613
#
#
# Mechanical properties :
#
#
# Convention : Reuss Voigt Hill
#
# Bulk Modulus (GPa) = 40.72118 57.35296 49.03707
# Shear Modulus (GPa) = 30.80890 38.52923 34.66906
#
# Velocity S-wave (km/s) = 3.70263 4.14064 3.92775
# Velocity P-wave (km/s) = 6.03321 6.95565 6.51079
#
# Compressibility (1/GPa) = 0.02455725
#
# Stress axis : x y z
#
# Youngs Moduli (GPa) = 40.87932 99.04221 89.49030
#
# Poissons Ratio (x) = 0.39225 0.46590
# Poissons Ratio (y) = 0.16190 0.12721
# Poissons Ratio (z) = 0.21282 0.14079
#
# Static dielectric constant tensor:
#      x y z
#    x 4.215130 0.121030 -0.341320 
#    y 0.121030 4.061970 0.142780 
#    z -0.341320 0.142780 4.519720 
# 
# 
# High freq. dielectric constant tensor:
#      x y z
#    x 1.867500 0.000820 -0.005900 
#    y 0.000820 1.884280 0.012810 
#    z -0.005900 0.012810 1.905860 
# 
# From -- ./inp_files/49300.got.cif
#   From: 2010.06.25/outbox.cif.g09.slc.cpg/sg2_25_cif.got.tgz:49300.got - 2010.06.27 13:26:56.
