data_PCOD8023952
_publ_section_title
;
Structure prediction by ZEFSAII (Michael W. Deem and Ramdas Pophale) SiO2 
 PCOD8023952
Probable space group: P -1
;
_chemical_formula_sum "Si O2"
_cell_formula_units_Z 16
_cell_length_a 14.358815
_cell_length_b 9.078184
_cell_length_c 19.463867
_cell_angle_alpha 88.186104
_cell_angle_beta 160.383307
_cell_angle_gamma 81.621803
_cell_volume 725.603039
_symmetry_space_group_name_H-M "P -1"
_symmetry_group_IT_number 2
_symmetry_cell_setting 'triclinic'
loop_
_space_group_symop_operation_xyz
x,y,z
-x,-y,-z
loop_
_atom_site_type_symbol
_atom_site_label
_atom_site_fract_x
_atom_site_fract_y
_atom_site_fract_z
Si Si1 0.303580 0.406835 0.761727
Si Si2 0.154128 0.434558 0.441864
Si Si3 0.701127 0.940349 0.470142
Si Si4 0.774755 0.739638 0.937204
Si Si5 0.277295 0.261254 0.249061
Si Si6 0.155911 0.686607 0.331966
Si Si7 0.644658 0.458719 0.884871
Si Si8 0.698393 0.038148 0.083513
O O1 0.583804 0.433622 0.923095
O O2 0.000000 0.500000 0.500000
O O3 0.193679 0.484402 0.761294
O O4 0.437461 0.203209 0.856141
O O5 0.285250 0.238643 0.514036
O O6 0.117065 0.542175 0.346163
O O7 0.403578 0.441194 0.667004
O O8 0.057276 0.913787 0.710829
O O9 0.485734 0.053556 0.252725
O O10 0.519760 0.052643 0.411747
O O11 0.907170 0.663069 0.953766
O O12 0.582022 0.650169 0.832296
O O13 0.081841 0.688425 0.199589
O O14 0.483159 0.350048 0.408886
O O15 0.014569 0.309624 0.125406
O O16 0.889080 0.874380 0.170290
O O17 0.500000 0.000000 0.000000
#
# Coordination Sequence:
#
# PCOD8023952 Si02
#       8
#     2   2   2   2   2   2   2   2
#     4  10  25  38  69 100 130 178 226 270 341 399
#     4  11  22  44  64 102 138 177 220 293 335 401
#     4   9  24  41  67  99 139 170 231 277 346 396
#     4  10  23  42  68 104 127 184 227 271 344 406
#     4   9  22  47  67 100 136 182 224 288 333 403
#     4  11  23  41  74  98 136 178 230 279 344 401
#     4  11  22  44  71  93 143 179 229 281 337 402
#     4  11  22  45  67  95 140 186 217 282 336 405
#
# _framework density 22.050623000000002
#
# number of rings (size 3 to 8) (size 9 to 14) (size 15 to 20)
#    0.750    1.000    2.500    0.375    7.000    2.500 
#    0.000    3.750    0.000    0.000    0.000    0.000 
#    0.000    0.000    0.000    0.000    0.000    0.000 
#
# Total GULP energy -198312.451736 kJ/mol
# GULP energy per Si atom -12394.528233 kJ/mol
# Density = 2.200043 g / cm^3
# Si number density = 22.050623 Si / 1000 Ang^3
#
#
#
# Elastic Constant Matrix: (Units=GPa)
#
#
# Indices 1 2 3 4 5 6 
#
# 1 97.8142 40.1727 58.5678 -4.7677 17.2555 5.1514
# 2 40.1727 138.8879 40.5453 -17.7149 -8.2077 12.6634
# 3 58.5678 40.5453 102.6028 -3.6749 0.8910 -0.4482
# 4 -4.7677 -17.7149 -3.6749 39.0606 -1.1968 -10.5274
# 5 17.2555 -8.2077 0.8910 -1.1968 41.9513 2.4259
# 6 5.1514 12.6634 -0.4482 -10.5274 2.4259 28.9850
#
#
#
# Elastic Compliance Matrix: (Units=1/GPa)
#
#
# Indices 1 2 3 4 5 6 
#
# 1 0.018511 -0.003033 -0.009331 -0.000694 -0.007931 -0.001698
# 2 -0.003033 0.009499 -0.001953 0.003104 0.003398 -0.002798
# 3 -0.009331 -0.001953 0.015840 0.000258 0.002977 0.002601
# 4 -0.000694 0.003104 0.000258 0.029516 0.001186 0.009392
# 5 -0.007931 0.003398 0.002977 0.001186 0.027846 -0.001929
# 6 -0.001698 -0.002798 0.002601 0.009392 -0.001929 0.039638
#
#
# Mechanical properties :
#
#
# Convention : Reuss Voigt Hill
#
# Bulk Modulus (GPa) = 65.72415 68.65294 67.18855
# Shear Modulus (GPa) = 28.64404 35.33398 31.98901
#
# Velocity S-wave (km/s) = 3.60809 4.00735 3.81295
# Velocity P-wave (km/s) = 6.87230 7.25352 7.06548
#
# Compressibility (1/GPa) = 0.01521511
#
# Stress axis : x y z
#
# Youngs Moduli (GPa) = 54.02206 105.27093 63.13304
#
# Poissons Ratio (x) = 0.31924 0.58913
# Poissons Ratio (y) = 0.16382 0.12332
# Poissons Ratio (z) = 0.50411 0.20563
#
# Static dielectric constant tensor:
#      x y z
#    x 4.700440 -0.419840 1.046750 
#    y -0.419840 4.469330 -0.867580 
#    z 1.046750 -0.867580 5.484210 
# 
# 
# High freq. dielectric constant tensor:
#      x y z
#    x 1.857270 0.006080 0.004660 
#    y 0.006080 1.868020 -0.008750 
#    z 0.004660 -0.008750 1.872920 
# 
# From -- ./inp_files/597179.got.cif
#   From: 2010.06.25/outbox.cif.g09.slc.cpg/sg2_299_cif.got.tgz:597179.got - 2010.06.27 13:26:56.
