data_PCOD8023828
_publ_section_title
;
Structure prediction by ZEFSAII (Michael W. Deem and Ramdas Pophale) SiO2 
 PCOD8023828
Probable space group: P -1
;
_chemical_formula_sum "Si O2"
_cell_formula_units_Z 14
_cell_length_a 10.760514
_cell_length_b 11.521640
_cell_length_c 16.979429
_cell_angle_alpha 35.849619
_cell_angle_beta 33.185450
_cell_angle_gamma 56.684711
_cell_volume 617.654936
_symmetry_space_group_name_H-M "P -1"
_symmetry_group_IT_number 2
_symmetry_cell_setting 'triclinic'
loop_
_space_group_symop_operation_xyz
x,y,z
-x,-y,-z
loop_
_atom_site_type_symbol
_atom_site_label
_atom_site_fract_x
_atom_site_fract_y
_atom_site_fract_z
Si Si1 0.063285 0.728757 0.801618
Si Si2 0.800932 0.813371 0.493948
Si Si3 0.752902 0.385443 0.387989
Si Si4 0.711766 0.109505 0.892004
Si Si5 0.792360 0.839484 0.139251
Si Si6 0.433257 0.378367 0.947394
Si Si7 0.122962 0.237919 0.337442
O O1 0.216091 0.732884 0.641309
O O2 0.810868 0.759192 0.897614
O O3 0.206483 0.952385 0.651723
O O4 0.000000 0.500000 0.000000
O O5 0.542212 0.616654 0.716315
O O6 0.793513 0.770532 0.614427
O O7 0.025128 0.776065 0.353713
O O8 0.865324 0.646028 0.176585
O O9 0.460958 0.276218 0.615533
O O10 0.914106 0.337137 0.397118
O O11 0.640642 0.280927 0.884183
O O12 0.500000 0.000000 0.000000
O O13 0.742523 0.947829 0.028375
O O14 0.000000 0.000000 0.000000
O O15 0.355540 0.379944 0.079430
O O16 0.000000 0.000000 0.500000
#
# Coordination Sequence:
#
# PCOD8023828 Si02
#       7
#     2   2   2   2   2   2   2
#     4  11  24  44  67  95 135 178 225 281 349 407
#     4  12  24  41  69 102 133 176 227 291 338 402
#     4  10  23  42  66  94 134 180 226 279 336 413
#     4  12  24  46  70  98 142 182 228 285 346 406
#     4  11  26  44  67 100 134 183 227 281 341 408
#     4  11  25  41  69 101 130 180 229 284 335 412
#     4  11  20  44  69  98 134 179 228 276 344 407
#
# _framework density 22.666376
#
# number of rings (size 3 to 8) (size 9 to 14) (size 15 to 20)
#    0.000    0.857    4.286    3.429    2.000    4.000 
#    2.571    0.000    0.000    0.000    0.000    0.000 
#    0.000    0.000    0.000    0.000    0.000    0.000 
#
# Total GULP energy -173503.239693 kJ/mol
# GULP energy per Si atom -12393.088550 kJ/mol
# Density = 2.261479 g / cm^3
# Si number density = 22.666376 Si / 1000 Ang^3
#
#
#
# Elastic Constant Matrix: (Units=GPa)
#
#
# Indices 1 2 3 4 5 6 
#
# 1 80.9122 16.7789 17.6971 -9.1230 9.2608 -7.6732
# 2 16.7789 123.8107 49.7030 -7.2754 -8.1873 -25.9143
# 3 17.6971 49.7030 137.5806 -7.9916 3.0920 -4.1199
# 4 -9.1230 -7.2754 -7.9916 39.5846 -5.0510 8.5355
# 5 9.2608 -8.1873 3.0920 -5.0510 25.5202 -10.5324
# 6 -7.6732 -25.9143 -4.1199 8.5355 -10.5324 30.5430
#
#
#
# Elastic Compliance Matrix: (Units=1/GPa)
#
#
# Indices 1 2 3 4 5 6 
#
# 1 0.013724 -0.001895 -0.000859 0.002111 -0.005361 -0.000715
# 2 -0.001895 0.014165 -0.004719 -0.000533 0.011963 0.015180
# 3 -0.000859 -0.004719 0.009107 0.001282 -0.004004 -0.004730
# 4 0.002111 -0.000533 0.001282 0.027599 0.001505 -0.006942
# 5 -0.005361 0.011963 -0.004004 0.001505 0.057116 0.027539
# 6 -0.000715 0.015180 -0.004730 -0.006942 0.027539 0.056239
#
#
# Mechanical properties :
#
#
# Convention : Reuss Voigt Hill
#
# Bulk Modulus (GPa) = 45.35209 56.74017 51.04613
# Shear Modulus (GPa) = 24.96933 36.33785 30.65359
#
# Velocity S-wave (km/s) = 3.32264 4.00829 3.68146
# Velocity P-wave (km/s) = 5.89677 6.81975 6.37498
#
# Compressibility (1/GPa) = 0.02204970
#
# Stress axis : x y z
#
# Youngs Moduli (GPa) = 72.86611 70.59612 109.81153
#
# Poissons Ratio (x) = 0.13379 0.09432
# Poissons Ratio (y) = 0.13809 0.51818
# Poissons Ratio (z) = 0.06259 0.33313
#
# Static dielectric constant tensor:
#      x y z
#    x 10.780970 2.907060 -4.086890 
#    y 2.907060 5.896820 -1.957650 
#    z -4.086890 -1.957650 7.004460 
# 
# 
# High freq. dielectric constant tensor:
#      x y z
#    x 1.874780 -0.007190 0.007620 
#    y -0.007190 1.908880 -0.000330 
#    z 0.007620 -0.000330 1.911790 
# 
# From -- ./inp_files/568556.got.cif
#   From: 2010.06.25/outbox.cif.g09.slc.cpg/sg2_285_cif.got.tgz:568556.got - 2010.06.27 13:26:56.
