data_PCOD8023322
_publ_section_title
;
Structure prediction by ZEFSAII (Michael W. Deem and Ramdas Pophale) SiO2 
 PCOD8023322
Probable space group: P -1
;
_chemical_formula_sum "Si O2"
_cell_formula_units_Z 10
_cell_length_a 10.183039
_cell_length_b 16.805449
_cell_length_c 16.833701
_cell_angle_alpha 16.967692
_cell_angle_beta 145.809206
_cell_angle_gamma 144.394189
_cell_volume 468.208488
_symmetry_space_group_name_H-M "P -1"
_symmetry_group_IT_number 2
_symmetry_cell_setting 'triclinic'
loop_
_space_group_symop_operation_xyz
x,y,z
-x,-y,-z
loop_
_atom_site_type_symbol
_atom_site_label
_atom_site_fract_x
_atom_site_fract_y
_atom_site_fract_z
Si Si1 0.295132 0.246380 0.123585
Si Si2 0.625772 0.936977 0.496794
Si Si3 0.484728 0.316258 0.780559
Si Si4 0.736360 0.398914 0.989518
Si Si5 0.776925 0.263471 0.827138
O O1 0.234045 0.077184 0.336463
O O2 0.374402 0.037094 0.296862
O O3 0.500000 0.500000 0.000000
O O4 0.057025 0.350951 0.874490
O O5 0.599447 0.636747 0.730468
O O6 0.763839 0.159694 0.294711
O O7 0.585980 0.277809 0.954942
O O8 0.699552 0.350457 0.792811
O O9 0.352588 0.585072 0.451190
O O10 0.289811 0.060946 0.906825
O O11 0.000000 0.500000 0.000000
#
# Coordination Sequence:
#
# PCOD8023322 Si02
#       5
#     2   2   2   2   2
#     4  11  24  44  70  94 131 173 222 267 309 388
#     4  11  25  40  66  99 125 168 226 255 330 373
#     4  10  23  41  65  95 127 167 213 266 326 375
#     4  12  24  43  66  97 134 168 213 273 323 384
#     4  10  23  42  66  93 127 169 217 263 317 380
#
# _framework density 21.358008000000002
#
# number of rings (size 3 to 8) (size 9 to 14) (size 15 to 20)
#    0.000    1.200    2.000    3.000    5.600    3.200 
#    0.000    6.000    0.000    0.000    0.000    0.000 
#    0.000    0.000    0.000    0.000    0.000    0.000 
#
# Total GULP energy -124011.893655 kJ/mol
# GULP energy per Si atom -12401.189366 kJ/mol
# Density = 2.130940 g / cm^3
# Si number density = 21.358008 Si / 1000 Ang^3
#
#
#
# Elastic Constant Matrix: (Units=GPa)
#
#
# Indices 1 2 3 4 5 6 
#
# 1 83.5078 43.1818 30.1555 16.2192 -2.5097 -5.9805
# 2 43.1818 84.7230 20.4602 12.0378 8.5659 10.3546
# 3 30.1555 20.4602 102.4233 1.1028 -7.0164 0.7756
# 4 16.2192 12.0378 1.1028 29.3077 -2.1166 4.9819
# 5 -2.5097 8.5659 -7.0164 -2.1166 53.3022 4.2746
# 6 -5.9805 10.3546 0.7756 4.9819 4.2746 33.9471
#
#
#
# Elastic Compliance Matrix: (Units=1/GPa)
#
#
# Indices 1 2 3 4 5 6 
#
# 1 0.020495 -0.009271 -0.004082 -0.008616 0.000960 0.007675
# 2 -0.009271 0.018072 -0.001022 -0.001358 -0.003004 -0.006545
# 3 -0.004082 -0.001022 0.011265 0.002588 0.001658 -0.001253
# 4 -0.008616 -0.001358 0.002588 0.040786 0.002370 -0.007447
# 5 0.000960 -0.003004 0.001658 0.002370 0.019745 -0.001786
# 6 0.007675 -0.006545 -0.001253 -0.007447 -0.001786 0.034152
#
#
# Mechanical properties :
#
#
# Convention : Reuss Voigt Hill
#
# Bulk Modulus (GPa) = 47.43486 50.91657 49.17572
# Shear Modulus (GPa) = 27.73284 35.10184 31.41734
#
# Velocity S-wave (km/s) = 3.60735 4.05841 3.83950
# Velocity P-wave (km/s) = 6.29350 6.77143 6.53683
#
# Compressibility (1/GPa) = 0.02108154
#
# Stress axis : x y z
#
# Youngs Moduli (GPa) = 48.79266 55.33449 88.77425
#
# Poissons Ratio (x) = 0.51301 0.36235
# Poissons Ratio (y) = 0.45236 0.09073
# Poissons Ratio (z) = 0.19916 0.05656
#
# Static dielectric constant tensor:
#      x y z
#    x 4.108370 -0.183290 -0.058350 
#    y -0.183290 3.447640 0.037060 
#    z -0.058350 0.037060 4.268020 
# 
# 
# High freq. dielectric constant tensor:
#      x y z
#    x 1.841600 -0.004710 0.001450 
#    y -0.004710 1.810240 -0.002630 
#    z 0.001450 -0.002630 1.860530 
# 
# From -- ./inp_files/22719.got.cif
#   From: 2010.06.25/outbox.cif.g09.slc.cpg/sg2_12_cif.got.tgz:22719.got - 2010.06.27 13:26:56.
