data_PCOD8023110
_publ_section_title
;
Structure prediction by ZEFSAII (Michael W. Deem and Ramdas Pophale) SiO2 
 PCOD8023110
Probable space group: P -1
;
_chemical_formula_sum "Si O2"
_cell_formula_units_Z 14
_cell_length_a 12.279726
_cell_length_b 8.964703
_cell_length_c 8.851845
_cell_angle_alpha 49.187155
_cell_angle_beta 69.813372
_cell_angle_gamma 87.485831
_cell_volume 669.185819
_symmetry_space_group_name_H-M "P -1"
_symmetry_group_IT_number 2
_symmetry_cell_setting 'triclinic'
loop_
_space_group_symop_operation_xyz
x,y,z
-x,-y,-z
loop_
_atom_site_type_symbol
_atom_site_label
_atom_site_fract_x
_atom_site_fract_y
_atom_site_fract_z
Si Si1 0.612390 0.977829 0.366608
Si Si2 0.822141 0.074737 0.665771
Si Si3 0.386672 0.849063 0.079744
Si Si4 0.159642 0.750261 0.778217
Si Si5 0.245492 0.364752 0.961061
Si Si6 0.955292 0.896494 0.932234
Si Si7 0.482257 0.478679 0.346871
O O1 0.599732 0.740958 0.507474
O O2 0.500000 0.000000 0.500000
O O3 0.729215 0.067703 0.348701
O O4 0.627319 0.090706 0.124875
O O5 0.729849 0.150863 0.766834
O O6 0.857629 0.226485 0.408278
O O7 0.766708 0.837335 0.794354
O O8 0.943234 0.078306 0.702649
O O9 0.408614 0.626418 0.215116
O O10 0.500000 0.000000 0.000000
O O11 0.178910 0.527566 0.952998
O O12 0.044657 0.769636 0.912358
O O13 0.177847 0.268383 0.898111
O O14 0.383860 0.482158 0.807681
O O15 0.000000 0.000000 0.000000
O O16 0.500000 0.500000 0.500000
#
# Coordination Sequence:
#
# PCOD8023110 Si02
#       7
#     2   2   2   2   2   2   2
#     4  12  26  39  64 100 132 167 217 265 314 386
#     4  10  23  41  67  95 125 170 213 262 322 376
#     4  12  21  40  65  90 135 172 209 266 318 374
#     4  12  23  44  67  93 131 168 213 265 320 382
#     4  10  23  40  68  91 129 169 212 256 327 371
#     4  10  23  44  69  92 126 165 216 269 318 376
#     4  12  23  40  67  96 131 173 214 257 325 383
#
# _framework density 20.920943999999999
#
# number of rings (size 3 to 8) (size 9 to 14) (size 15 to 20)
#    0.857    0.000    4.286    3.429    2.000    1.714 
#    0.000    0.714    0.000    0.000    0.000    0.000 
#    0.000    0.000    0.000    0.000    0.000    0.000 
#
# Total GULP energy -173482.733563 kJ/mol
# GULP energy per Si atom -12391.623826 kJ/mol
# Density = 2.087333 g / cm^3
# Si number density = 20.920944 Si / 1000 Ang^3
#
#
#
# Elastic Constant Matrix: (Units=GPa)
#
#
# Indices 1 2 3 4 5 6 
#
# 1 84.6320 38.0337 11.1845 -10.5266 7.9675 -10.3539
# 2 38.0337 128.3048 41.5130 -13.8082 10.3769 -20.3074
# 3 11.1845 41.5130 81.6180 -5.0861 15.5568 -14.0860
# 4 -10.5266 -13.8082 -5.0861 42.1287 -1.2161 -2.4814
# 5 7.9675 10.3769 15.5568 -1.2161 27.2095 -3.7616
# 6 -10.3539 -20.3074 -14.0860 -2.4814 -3.7616 52.5655
#
#
#
# Elastic Compliance Matrix: (Units=1/GPa)
#
#
# Indices 1 2 3 4 5 6 
#
# 1 0.014142 -0.003764 0.000943 0.002417 -0.002931 0.001488
# 2 -0.003764 0.010998 -0.004507 0.002259 -0.000082 0.002400
# 3 0.000943 -0.004507 0.016286 0.000643 -0.007522 0.002301
# 4 0.002417 0.002259 0.000643 0.025304 -0.000435 0.002684
# 5 -0.002931 -0.000082 -0.007522 -0.000435 0.041972 0.000358
# 6 0.001488 0.002400 0.002301 0.002684 0.000358 0.021013
#
#
# Mechanical properties :
#
#
# Convention : Reuss Voigt Hill
#
# Bulk Modulus (GPa) = 37.35804 52.89080 45.12442
# Shear Modulus (GPa) = 32.61675 37.96898 35.29287
#
# Velocity S-wave (km/s) = 3.95276 4.26476 4.11172
# Velocity P-wave (km/s) = 6.22318 7.04181 6.64511
#
# Compressibility (1/GPa) = 0.02676800
#
# Stress axis : x y z
#
# Youngs Moduli (GPa) = 70.71360 90.92732 61.40115
#
# Poissons Ratio (x) = 0.34229 -0.05789
# Poissons Ratio (y) = 0.26620 0.27675
# Poissons Ratio (z) = -0.06667 0.40983
#
# Static dielectric constant tensor:
#      x y z
#    x 4.040230 -0.004390 0.063600 
#    y -0.004390 3.861610 -0.044200 
#    z 0.063600 -0.044200 3.616410 
# 
# 
# High freq. dielectric constant tensor:
#      x y z
#    x 1.829520 -0.014690 0.004060 
#    y -0.014690 1.827740 -0.011210 
#    z 0.004060 -0.011210 1.801620 
# 
# From -- ./inp_files/236567.got.cif
#   From: 2010.06.25/outbox.cif.g09.slc.cpg/sg2_119_cif.got.tgz:236567.got - 2010.06.27 13:26:56.
