data_PCOD8023310
_publ_section_title
;
Structure prediction by ZEFSAII (Michael W. Deem and Ramdas Pophale) SiO2 
 PCOD8023310
Probable space group: P -1
;
_chemical_formula_sum "Si O2"
_cell_formula_units_Z 16
_cell_length_a 14.348766
_cell_length_b 8.063938
_cell_length_c 15.273211
_cell_angle_alpha 86.917307
_cell_angle_beta 43.166963
_cell_angle_gamma 54.696432
_cell_volume 742.432349
_symmetry_space_group_name_H-M "P -1"
_symmetry_group_IT_number 2
_symmetry_cell_setting 'triclinic'
loop_
_space_group_symop_operation_xyz
x,y,z
-x,-y,-z
loop_
_atom_site_type_symbol
_atom_site_label
_atom_site_fract_x
_atom_site_fract_y
_atom_site_fract_z
Si Si1 0.305819 0.848224 0.885795
Si Si2 0.412607 0.310078 0.003538
Si Si3 0.092335 0.902475 0.763000
Si Si4 0.951933 0.137375 0.668773
Si Si5 0.698963 0.989497 0.298068
Si Si6 0.210161 0.433988 0.668294
Si Si7 0.257102 0.103741 0.079293
Si Si8 0.667936 0.267013 0.702607
O O1 0.231905 0.002257 0.841888
O O2 0.552701 0.532535 0.723557
O O3 0.296638 0.003392 0.957524
O O4 0.126594 0.877913 0.032721
O O5 0.188377 0.578489 0.200053
O O6 0.627738 0.132001 0.923753
O O7 0.390150 0.144318 0.995184
O O8 0.463097 0.356304 0.877182
O O9 0.240740 0.924533 0.674541
O O10 0.212572 0.610575 0.712208
O O11 0.021964 0.953080 0.707378
O O12 0.807251 0.184822 0.694193
O O13 0.176559 0.978830 0.467662
O O14 0.438891 0.198713 0.466849
O O15 0.820541 0.697314 0.242994
O O16 0.006772 0.622378 0.732864
#
# Coordination Sequence:
#
# PCOD8023310 Si02
#       8
#     2   2   2   2   2   2   2   2
#     4  11  22  41  64  97 132 170 224 274 327 399
#     4  11  21  43  64  97 136 174 217 264 336 403
#     4  11  22  41  68  94 130 180 219 277 332 395
#     4  11  22  39  69  99 136 166 222 268 330 404
#     4  11  24  43  64  94 131 175 230 274 333 396
#     4  10  23  42  62  91 128 177 218 282 330 381
#     4  10  23  41  65  91 133 176 212 277 333 389
#     4  11  22  38  67 101 130 175 213 271 330 398
#
# _framework density 21.550785000000001
#
# number of rings (size 3 to 8) (size 9 to 14) (size 15 to 20)
#    0.000    1.250    2.500    4.125    0.000    3.000 
#    9.000    1.250    0.000    0.000    0.000    0.000 
#    0.000    0.000    0.000    0.000    0.000    0.000 
#
# Total GULP energy -198259.426820 kJ/mol
# GULP energy per Si atom -12391.214176 kJ/mol
# Density = 2.150173 g / cm^3
# Si number density = 21.550785 Si / 1000 Ang^3
#
#
#
# Elastic Constant Matrix: (Units=GPa)
#
#
# Indices 1 2 3 4 5 6 
#
# 1 58.7214 41.4164 16.7330 1.8731 -11.5882 -0.0037
# 2 41.4164 131.8775 40.7377 5.8157 3.1618 0.7865
# 3 16.7330 40.7377 116.2357 10.1150 5.3355 -3.9835
# 4 1.8731 5.8157 10.1150 36.5976 -3.1300 0.4025
# 5 -11.5882 3.1618 5.3355 -3.1300 21.6749 0.0787
# 6 -0.0037 0.7865 -3.9835 0.4025 0.0787 30.7473
#
#
#
# Elastic Compliance Matrix: (Units=1/GPa)
#
#
# Indices 1 2 3 4 5 6 
#
# 1 0.026448 -0.008206 -0.001831 0.001830 0.016052 -0.000089
# 2 -0.008206 0.011078 -0.002363 -0.001159 -0.005587 -0.000561
# 3 -0.001831 -0.002363 0.010135 -0.002648 -0.003517 0.001417
# 4 0.001830 -0.001159 -0.002648 0.028663 0.005941 -0.000704
# 5 0.016052 -0.005587 -0.003517 0.005941 0.057259 -0.000535
# 6 -0.000089 -0.000561 0.001417 -0.000704 -0.000535 0.032732
#
#
# Mechanical properties :
#
#
# Convention : Reuss Voigt Hill
#
# Bulk Modulus (GPa) = 43.73968 56.06765 49.90366
# Shear Modulus (GPa) = 25.15915 31.66712 28.41314
#
# Velocity S-wave (km/s) = 3.42048 3.83746 3.63495
# Velocity P-wave (km/s) = 5.99498 6.76075 6.38935
#
# Compressibility (1/GPa) = 0.02286254
#
# Stress axis : x y z
#
# Youngs Moduli (GPa) = 37.80997 90.26729 98.66329
#
# Poissons Ratio (x) = 0.74070 0.18062
# Poissons Ratio (y) = 0.31025 0.23317
# Poissons Ratio (z) = 0.06922 0.21333
#
# Static dielectric constant tensor:
#      x y z
#    x 3.739720 -0.219800 -0.143630 
#    y -0.219800 4.225880 0.168950 
#    z -0.143630 0.168950 4.002250 
# 
# 
# High freq. dielectric constant tensor:
#      x y z
#    x 1.828010 -0.007340 -0.011820 
#    y -0.007340 1.858580 0.009180 
#    z -0.011820 0.009180 1.844160 
# 
# From -- ./inp_files/528598.got.cif
#   From: 2010.06.25/outbox.cif.g09.slc.cpg/sg2_265_cif.got.tgz:528598.got - 2010.06.27 13:26:56.
