data_PCOD8023579
_publ_section_title
;
Structure prediction by ZEFSAII (Michael W. Deem and Ramdas Pophale) SiO2 
 PCOD8023579
Probable space group: P -1
;
_chemical_formula_sum "Si O2"
_cell_formula_units_Z 16
_cell_length_a 8.975417
_cell_length_b 12.788589
_cell_length_c 12.717674
_cell_angle_alpha 132.043599
_cell_angle_beta 112.582211
_cell_angle_gamma 43.446634
_cell_volume 730.416922
_symmetry_space_group_name_H-M "P -1"
_symmetry_group_IT_number 2
_symmetry_cell_setting 'triclinic'
loop_
_space_group_symop_operation_xyz
x,y,z
-x,-y,-z
loop_
_atom_site_type_symbol
_atom_site_label
_atom_site_fract_x
_atom_site_fract_y
_atom_site_fract_z
Si Si1 0.035804 0.929977 0.080079
Si Si2 0.095084 0.585185 0.862914
Si Si3 0.171753 0.770263 0.401160
Si Si4 0.523848 0.727388 0.092729
Si Si5 0.113926 0.738433 0.597843
Si Si6 0.642789 0.595186 0.398857
Si Si7 0.139299 0.488298 0.122484
Si Si8 0.379294 0.075441 0.406849
O O1 0.293988 0.785116 0.080318
O O2 0.966022 0.809403 0.993904
O O3 0.889219 0.112172 0.240025
O O4 0.000000 0.000000 0.000000
O O5 0.301641 0.457379 0.911482
O O6 0.178332 0.524467 0.725585
O O7 0.917033 0.566552 0.824278
O O8 0.218936 0.703889 0.489924
O O9 0.406881 0.674233 0.350281
O O10 0.079155 0.688310 0.259663
O O11 0.000000 0.000000 0.500000
O O12 0.505641 0.899363 0.241436
O O13 0.605750 0.676052 0.958087
O O14 0.268320 0.535894 0.562724
O O15 0.869979 0.823745 0.575028
O O16 0.611260 0.776691 0.542422
O O17 0.000000 0.500000 0.000000
O O18 0.500000 0.000000 0.500000
#
# Coordination Sequence:
#
# PCOD8023579 Si02
#       8
#     2   2   2   2   2   2   2   2
#     4  11  23  42  69 101 137 179 233 278 341 417
#     4  11  22  41  72  94 138 176 229 279 343 399
#     4  12  28  44  72 103 137 178 235 290 345 409
#     4  10  23  41  70  99 136 176 231 283 343 402
#     4  11  26  44  67  99 143 182 227 282 354 413
#     4  12  24  43  71  96 142 184 225 285 354 410
#     4  10  25  44  67 101 139 170 225 286 347 395
#     4  11  22  41  70 103 133 178 234 286 333 414
#
# _framework density 21.905298999999999
#
# number of rings (size 3 to 8) (size 9 to 14) (size 15 to 20)
#    0.000    1.000    2.500    3.375   10.500    0.000 
#    0.000    0.625    0.000    0.000    0.000    0.000 
#    0.000    0.000    0.000    0.000    0.000    0.000 
#
# Total GULP energy -198436.506155 kJ/mol
# GULP energy per Si atom -12402.281635 kJ/mol
# Density = 2.185544 g / cm^3
# Si number density = 21.905299 Si / 1000 Ang^3
#
#
#
# Elastic Constant Matrix: (Units=GPa)
#
#
# Indices 1 2 3 4 5 6 
#
# 1 78.2841 16.1372 45.5949 16.0455 4.4818 23.4518
# 2 16.1372 104.7911 37.0215 19.5130 7.2730 20.4734
# 3 45.5949 37.0215 141.0143 24.2631 11.7691 20.5174
# 4 16.0455 19.5130 24.2631 38.4195 12.1413 7.9650
# 5 4.4818 7.2730 11.7691 12.1413 42.4244 2.6652
# 6 23.4518 20.4734 20.5174 7.9650 2.6652 33.8642
#
#
#
# Elastic Compliance Matrix: (Units=1/GPa)
#
#
# Indices 1 2 3 4 5 6 
#
# 1 0.018901 0.001331 -0.004336 -0.003911 0.000751 -0.010406
# 2 0.001331 0.011983 -0.001990 -0.004116 -0.000089 -0.005985
# 3 -0.004336 -0.001990 0.009721 -0.002793 -0.001039 -0.000945
# 4 -0.003911 -0.004116 -0.002793 0.034098 -0.007832 -0.000514
# 5 0.000751 -0.000089 -0.001039 -0.007832 0.026040 -0.000044
# 6 -0.010406 -0.005985 -0.000945 -0.000514 -0.000044 0.041052
#
#
# Mechanical properties :
#
#
# Convention : Reuss Voigt Hill
#
# Bulk Modulus (GPa) = 32.66501 57.95518 45.31009
# Shear Modulus (GPa) = 30.86606 37.96402 34.41504
#
# Velocity S-wave (km/s) = 3.75783 4.16757 3.96799
# Velocity P-wave (km/s) = 5.81142 7.04789 6.45931
#
# Compressibility (1/GPa) = 0.03061380
#
# Stress axis : x y z
#
# Youngs Moduli (GPa) = 52.90613 83.45275 102.87296
#
# Poissons Ratio (x) = -0.11104 0.44611
# Poissons Ratio (y) = -0.07039 0.20468
# Poissons Ratio (z) = 0.22943 0.16604
#
# Static dielectric constant tensor:
#      x y z
#    x 4.163630 0.404700 -0.147990 
#    y 0.404700 3.777860 0.246490 
#    z -0.147990 0.246490 4.216100 
# 
# 
# High freq. dielectric constant tensor:
#      x y z
#    x 1.865520 0.008700 0.002840 
#    y 0.008700 1.852000 0.010940 
#    z 0.002840 0.010940 1.874640 
# 
# From -- ./inp_files/378021.got.cif
#   From: 2010.06.25/outbox.cif.g09.slc.cpg/sg2_190_cif.got.tgz:378021.got - 2010.06.27 13:26:56.
