data_PCOD8023332
_publ_section_title
;
Structure prediction by ZEFSAII (Michael W. Deem and Ramdas Pophale) SiO2 
 PCOD8023332
Probable space group: P -1
;
_chemical_formula_sum "Si O2"
_cell_formula_units_Z 12
_cell_length_a 18.649413
_cell_length_b 21.381308
_cell_length_c 11.775073
_cell_angle_alpha 159.013227
_cell_angle_beta 30.688883
_cell_angle_gamma 160.545575
_cell_volume 551.823136
_symmetry_space_group_name_H-M "P -1"
_symmetry_group_IT_number 2
_symmetry_cell_setting 'triclinic'
loop_
_space_group_symop_operation_xyz
x,y,z
-x,-y,-z
loop_
_atom_site_type_symbol
_atom_site_label
_atom_site_fract_x
_atom_site_fract_y
_atom_site_fract_z
Si Si1 0.362881 0.536058 0.290330
Si Si2 0.067478 0.362721 0.190071
Si Si3 0.515991 0.187553 0.724452
Si Si4 0.680734 0.088244 0.711193
Si Si5 0.157620 0.394919 0.566723
Si Si6 0.710320 0.772412 0.740163
O O1 0.171478 0.414095 0.258182
O O2 0.247188 0.390398 0.321909
O O3 0.547588 0.861701 0.607435
O O4 0.500000 0.500000 0.000000
O O5 0.240865 0.496179 0.078012
O O6 0.000000 0.500000 0.500000
O O7 0.860948 0.035862 0.899556
O O8 0.500000 0.000000 0.500000
O O9 0.463925 0.077254 0.482589
O O10 0.356673 0.179000 0.977116
O O11 0.913740 0.229229 0.602945
O O12 0.688499 0.297016 0.087928
O O13 0.154013 0.259168 0.447127
O O14 0.500000 0.500000 0.500000
#
# Coordination Sequence:
#
# PCOD8023332 Si02
#       6
#     2   2   2   2   2   2
#     4  11  23  42  69  96 131 173 227 273 329 397
#     4  11  24  42  68  99 129 175 223 267 332 398
#     4  11  22  42  67  93 128 177 219 266 332 395
#     4  10  23  41  65  96 131 171 221 273 326 394
#     4  11  23  41  65  98 132 173 220 274 333 390
#     4  12  26  43  65  98 137 171 221 279 331 395
#
# _framework density 21.746098
#
# number of rings (size 3 to 8) (size 9 to 14) (size 15 to 20)
#    0.000    1.000    1.667    5.500    2.333    2.667 
#    0.000    0.000    0.000    0.000    0.000    0.000 
#    0.000    0.000    0.000    0.000    0.000    0.000 
#
# Total GULP energy -148754.918153 kJ/mol
# GULP energy per Si atom -12396.243179 kJ/mol
# Density = 2.169660 g / cm^3
# Si number density = 21.746098 Si / 1000 Ang^3
#
#
#
# Elastic Constant Matrix: (Units=GPa)
#
#
# Indices 1 2 3 4 5 6 
#
# 1 86.1283 24.8258 39.1822 3.0128 -19.2022 -2.7154
# 2 24.8258 120.5637 43.8582 22.8543 -8.4369 -13.6043
# 3 39.1822 43.8582 101.9850 19.5490 -22.6841 6.6163
# 4 3.0128 22.8543 19.5490 52.2621 -3.4969 -9.4198
# 5 -19.2022 -8.4369 -22.6841 -3.4969 38.9749 0.4364
# 6 -2.7154 -13.6043 6.6163 -9.4198 0.4364 30.5054
#
#
#
# Elastic Compliance Matrix: (Units=1/GPa)
#
#
# Indices 1 2 3 4 5 6 
#
# 1 0.015198 -0.001159 -0.004922 0.002231 0.004545 0.002527
# 2 -0.001159 0.011086 -0.004448 -0.002263 -0.001020 0.005122
# 3 -0.004922 -0.004448 0.016306 -0.004844 0.005753 -0.007536
# 4 0.002231 -0.002263 -0.004844 0.023123 -0.000218 0.007384
# 5 0.004545 -0.001020 0.005753 -0.000218 0.031024 -0.001809
# 6 0.002527 0.005122 -0.007536 0.007384 -0.001809 0.039230
#
#
# Mechanical properties :
#
#
# Convention : Reuss Voigt Hill
#
# Bulk Modulus (GPa) = 46.43822 58.26771 52.35296
# Shear Modulus (GPa) = 30.44989 37.73587 34.09288
#
# Velocity S-wave (km/s) = 3.74605 4.17021 3.96380
# Velocity P-wave (km/s) = 6.33337 7.07391 6.71386
#
# Compressibility (1/GPa) = 0.02153399
#
# Stress axis : x y z
#
# Youngs Moduli (GPa) = 65.79608 90.19982 61.32718
#
# Poissons Ratio (x) = 0.10454 0.30183
# Poissons Ratio (y) = 0.07625 0.27278
# Poissons Ratio (z) = 0.32382 0.40120
#
# Static dielectric constant tensor:
#      x y z
#    x 3.582910 0.323920 -0.257590 
#    y 0.323920 3.679390 0.321740 
#    z -0.257590 0.321740 2.672070 
# 
# 
# High freq. dielectric constant tensor:
#      x y z
#    x 1.846580 -0.000080 -0.021920 
#    y -0.000080 1.876960 0.011870 
#    z -0.021920 0.011870 1.858200 
# 
# From -- ./inp_files/173644.got.cif
#   From: 2010.06.25/outbox.cif.g09.slc.cpg/sg2_87_cif.got.tgz:173644.got - 2010.06.27 13:26:56.
