data_PCOD8023173
_publ_section_title
;
Structure prediction by ZEFSAII (Michael W. Deem and Ramdas Pophale) SiO2 
 PCOD8023173
Probable space group: P -1
;
_chemical_formula_sum "Si O2"
_cell_formula_units_Z 10
_cell_length_a 11.841954
_cell_length_b 5.200228
_cell_length_c 8.677046
_cell_angle_alpha 91.321547
_cell_angle_beta 82.240858
_cell_angle_gamma 128.628239
_cell_volume 412.315855
_symmetry_space_group_name_H-M "P -1"
_symmetry_group_IT_number 2
_symmetry_cell_setting 'triclinic'
loop_
_space_group_symop_operation_xyz
x,y,z
-x,-y,-z
loop_
_atom_site_type_symbol
_atom_site_label
_atom_site_fract_x
_atom_site_fract_y
_atom_site_fract_z
Si Si1 0.595361 0.622958 0.136719
Si Si2 0.139362 0.128660 0.369550
Si Si3 0.596381 0.112458 0.331878
Si Si4 0.826993 0.315873 0.517375
Si Si5 0.916287 0.126086 0.961151
O O1 0.581542 0.332603 0.223652
O O2 0.539471 0.776633 0.254154
O O3 0.500000 0.500000 0.000000
O O4 0.760487 0.914150 0.065853
O O5 0.218314 0.520046 0.348628
O O6 0.245007 0.063045 0.430452
O O7 0.093466 0.922421 0.220189
O O8 0.000000 0.000000 0.500000
O O9 0.766391 0.316652 0.360712
O O10 0.500000 0.000000 0.500000
O O11 0.000000 0.500000 0.500000
O O12 0.000000 0.500000 0.000000
O O13 0.000000 0.000000 0.000000
#
# Coordination Sequence:
#
# PCOD8023173 Si02
#       5
#     2   2   2   2   2
#     4  12  30  52  75 112 161 201 254 318 389 455
#     4  10  23  41  71 102 146 187 245 301 379 438
#     4  12  28  49  80 108 149 208 263 307 376 463
#     4  10  23  40  73 103 144 181 251 309 371 425
#     4  12  28  46  77 111 152 199 253 316 389 447
#
# _framework density 24.253250999999999
#
# number of rings (size 3 to 8) (size 9 to 14) (size 15 to 20)
#    0.000    0.800    0.000    4.800   22.400    0.000 
#    0.000    0.000    0.000    0.000    0.000    0.000 
#    0.000    0.000    0.000    0.000    0.000    0.000 
#
# Total GULP energy -123882.456303 kJ/mol
# GULP energy per Si atom -12388.245630 kJ/mol
# Density = 2.419805 g / cm^3
# Si number density = 24.253251 Si / 1000 Ang^3
#
#
#
# Elastic Constant Matrix: (Units=GPa)
#
#
# Indices 1 2 3 4 5 6 
#
# 1 166.9347 84.7583 73.7105 5.1298 30.8307 -45.9639
# 2 84.7583 129.3419 52.1009 15.2385 10.9432 -54.7220
# 3 73.7105 52.1009 159.2425 18.9325 13.1403 -27.8251
# 4 5.1298 15.2385 18.9325 49.9057 -5.5706 -9.7885
# 5 30.8307 10.9432 13.1403 -5.5706 59.0950 -2.6071
# 6 -45.9639 -54.7220 -27.8251 -9.7885 -2.6071 71.5673
#
#
#
# Elastic Compliance Matrix: (Units=1/GPa)
#
#
# Indices 1 2 3 4 5 6 
#
# 1 0.011154 -0.004998 -0.002986 0.001507 -0.003989 0.002242
# 2 -0.004998 0.014779 -0.000988 -0.002144 0.000216 0.007420
# 3 -0.002986 -0.000988 0.008355 -0.002558 -0.000349 0.000213
# 4 0.001507 -0.002144 -0.002558 0.022049 0.002321 0.001434
# 5 -0.003989 0.000216 -0.000349 0.002321 0.019193 -0.001516
# 6 0.002242 0.007420 0.000213 0.001434 -0.001516 0.021310
#
#
# Mechanical properties :
#
#
# Convention : Reuss Voigt Hill
#
# Bulk Modulus (GPa) = 61.18548 97.40650 79.29599
# Shear Modulus (GPa) = 41.58642 52.44356 47.01499
#
# Velocity S-wave (km/s) = 4.14535 4.65513 4.40762
# Velocity P-wave (km/s) = 6.94222 8.31523 7.65956
#
# Compressibility (1/GPa) = 0.01634375
#
# Stress axis : x y z
#
# Youngs Moduli (GPa) = 89.65158 67.66574 119.68485
#
# Poissons Ratio (x) = 0.33820 0.35739
# Poissons Ratio (y) = 0.44809 0.11824
# Poissons Ratio (z) = 0.26771 0.06685
#
# Static dielectric constant tensor:
#      x y z
#    x 9.103330 -14.657950 -0.353090 
#    y -14.657950 51.363810 1.734540 
#    z -0.353090 1.734540 4.623990 
# 
# 
# High freq. dielectric constant tensor:
#      x y z
#    x 1.992180 -0.024530 0.006440 
#    y -0.024530 1.977740 0.014060 
#    z 0.006440 0.014060 1.962000 
# 
# From -- ./inp_files/228231.got.cif
#   From: 2010.06.25/outbox.cif.g09.slc.cpg/sg2_115_cif.got.tgz:228231.got - 2010.06.27 13:26:56.
