data_PCOD8023477
_publ_section_title
;
Structure prediction by ZEFSAII (Michael W. Deem and Ramdas Pophale) SiO2 
 PCOD8023477
Probable space group: P -1
;
_chemical_formula_sum "Si O2"
_cell_formula_units_Z 14
_cell_length_a 11.033047
_cell_length_b 14.137823
_cell_length_c 17.290984
_cell_angle_alpha 29.551599
_cell_angle_beta 149.071400
_cell_angle_gamma 149.917058
_cell_volume 603.562170
_symmetry_space_group_name_H-M "P -1"
_symmetry_group_IT_number 2
_symmetry_cell_setting 'triclinic'
loop_
_space_group_symop_operation_xyz
x,y,z
-x,-y,-z
loop_
_atom_site_type_symbol
_atom_site_label
_atom_site_fract_x
_atom_site_fract_y
_atom_site_fract_z
Si Si1 0.735669 0.981285 0.326336
Si Si2 0.930059 0.794741 0.161311
Si Si3 0.640149 0.857572 0.196345
Si Si4 0.217753 0.198146 0.246030
Si Si5 0.608942 0.342475 0.942807
Si Si6 0.615525 0.377837 0.201942
Si Si7 0.506500 0.951853 0.378908
O O1 0.505979 0.908769 0.317031
O O2 0.647338 0.811806 0.325382
O O3 0.767323 0.204445 0.145383
O O4 0.000000 0.000000 0.500000
O O5 0.675013 0.755790 0.099079
O O6 0.873760 0.570564 0.246142
O O7 0.203985 0.857116 0.312859
O O8 0.000000 0.000000 0.000000
O O9 0.467738 0.647583 0.197120
O O10 0.937402 0.986624 0.232286
O O11 0.500000 0.000000 0.000000
O O12 0.190870 0.416848 0.088792
O O13 0.394946 0.219013 0.254282
O O14 0.358202 0.174332 0.416440
O O15 0.679679 0.213428 0.303150
O O16 0.500000 0.500000 0.000000
#
# Coordination Sequence:
#
# PCOD8023477 Si02
#       7
#     2   2   2   2   2   2   2
#     4  11  22  44  65  93 131 177 223 273 314 386
#     4  11  21  40  69  98 130 167 214 269 336 396
#     4  10  23  41  68  90 129 179 226 261 320 383
#     4  11  24  42  66  99 134 171 213 277 334 388
#     4  10  23  43  70  95 131 173 223 267 333 398
#     4  11  23  39  67  99 127 171 213 261 339 398
#     4  12  23  41  66  96 136 168 215 276 327 388
#
# _framework density 23.195623000000001
#
# number of rings (size 3 to 8) (size 9 to 14) (size 15 to 20)
#    0.000    1.143    4.286    2.143    0.000    5.714 
#    0.000    2.143    0.000    0.000    0.000    0.000 
#    0.000    0.000    0.000    0.000    0.000    0.000 
#
# Total GULP energy -173444.543584 kJ/mol
# GULP energy per Si atom -12388.895970 kJ/mol
# Density = 2.314283 g / cm^3
# Si number density = 23.195623 Si / 1000 Ang^3
#
#
#
# Elastic Constant Matrix: (Units=GPa)
#
#
# Indices 1 2 3 4 5 6 
#
# 1 95.7250 27.3113 13.4694 -1.1047 -21.9426 -9.1121
# 2 27.3113 79.1146 18.4184 7.3122 6.5000 -11.7147
# 3 13.4694 18.4184 108.0011 15.1024 -3.7849 -4.3277
# 4 -1.1047 7.3122 15.1024 34.5737 -1.8983 -0.7755
# 5 -21.9426 6.5000 -3.7849 -1.8983 36.8583 7.5208
# 6 -9.1121 -11.7147 -4.3277 -0.7755 7.5208 32.5850
#
#
#
# Elastic Compliance Matrix: (Units=1/GPa)
#
#
# Indices 1 2 3 4 5 6 
#
# 1 0.014489 -0.005909 -0.000836 0.002607 0.009794 -0.000382
# 2 -0.005909 0.016941 -0.001730 -0.003325 -0.008077 0.005993
# 3 -0.000836 -0.001730 0.010264 -0.004106 0.000594 0.000273
# 4 0.002607 -0.003325 -0.004106 0.031675 0.003569 -0.001082
# 5 0.009794 -0.008077 0.000594 0.003569 0.036343 -0.008389
# 6 -0.000382 0.005993 0.000273 -0.001082 -0.008389 0.034684
#
#
# Mechanical properties :
#
#
# Convention : Reuss Voigt Hill
#
# Bulk Modulus (GPa) = 40.41428 44.58210 42.49819
# Shear Modulus (GPa) = 29.48203 35.71283 32.59743
#
# Velocity S-wave (km/s) = 3.56900 3.92808 3.75284
# Velocity P-wave (km/s) = 5.86896 6.31148 6.09424
#
# Compressibility (1/GPa) = 0.02474373
#
# Stress axis : x y z
#
# Youngs Moduli (GPa) = 69.01780 59.02798 97.42480
#
# Poissons Ratio (x) = 0.34882 0.08143
# Poissons Ratio (y) = 0.40786 0.16855
# Poissons Ratio (z) = 0.05769 0.10212
#
# Static dielectric constant tensor:
#      x y z
#    x 4.706780 -0.997130 -0.175230 
#    y -0.997130 4.952980 0.126160 
#    z -0.175230 0.126160 4.096550 
# 
# 
# High freq. dielectric constant tensor:
#      x y z
#    x 1.925520 -0.015740 0.000550 
#    y -0.015740 1.905140 0.011390 
#    z 0.000550 0.011390 1.911920 
# 
# From -- ./inp_files/181022.got.cif
#   From: 2010.06.25/outbox.cif.g09.slc.cpg/sg2_91_cif.got.tgz:181022.got - 2010.06.27 13:26:56.
