data_PCOD8023781
_publ_section_title
;
Structure prediction by ZEFSAII (Michael W. Deem and Ramdas Pophale) SiO2 
 PCOD8023781
Probable space group: P -1
;
_chemical_formula_sum "Si O2"
_cell_formula_units_Z 16
_cell_length_a 15.109591
_cell_length_b 8.879513
_cell_length_c 8.868683
_cell_angle_alpha 92.137044
_cell_angle_beta 41.317930
_cell_angle_gamma 102.220248
_cell_volume 754.021730
_symmetry_space_group_name_H-M "P -1"
_symmetry_group_IT_number 2
_symmetry_cell_setting 'triclinic'
loop_
_space_group_symop_operation_xyz
x,y,z
-x,-y,-z
loop_
_atom_site_type_symbol
_atom_site_label
_atom_site_fract_x
_atom_site_fract_y
_atom_site_fract_z
Si Si1 0.402739 0.254684 0.510398
Si Si2 0.900827 0.917301 0.992351
Si Si3 0.280530 0.609366 0.337750
Si Si4 0.438275 0.880528 0.939878
Si Si5 0.533777 0.395334 0.637443
Si Si6 0.019555 0.715845 0.629883
Si Si7 0.182467 0.978837 0.200430
Si Si8 0.749236 0.664856 0.824723
O O1 0.253934 0.154319 0.753160
O O2 0.445856 0.150102 0.321407
O O3 0.516105 0.292576 0.503368
O O4 0.389804 0.421778 0.476719
O O5 0.968892 0.783429 0.846865
O O6 0.893814 0.031400 0.864168
O O7 0.000000 0.000000 0.000000
O O8 0.366642 0.670100 0.381964
O O9 0.287098 0.431500 0.288397
O O10 0.121284 0.615868 0.553063
O O11 0.355670 0.713731 0.106751
O O12 0.333841 0.952133 0.979966
O O13 0.500000 0.000000 0.000000
O O14 0.380808 0.377379 0.898549
O O15 0.878334 0.608308 0.728679
O O16 0.093213 0.853866 0.425768
O O17 0.202264 0.149147 0.258579
#
# Coordination Sequence:
#
# PCOD8023781 Si02
#       8
#     2   2   2   2   2   2   2   2
#     4  11  25  43  66  94 138 176 215 279 336 391
#     4  11  24  42  64  93 130 182 218 264 335 400
#     4  11  24  40  68  99 127 172 230 272 324 397
#     4  11  25  41  66 101 128 165 223 279 332 390
#     4  11  23  42  67  98 132 178 220 270 337 398
#     4  10  23  43  65  96 134 173 223 277 324 389
#     4  10  23  42  65  96 133 171 222 275 324 391
#     4  11  19  41  66  94 133 171 222 264 333 386
#
# _framework density 21.219548
#
# number of rings (size 3 to 8) (size 9 to 14) (size 15 to 20)
#    0.000    1.250    3.750    3.000    5.250    2.500 
#    0.000    0.625    0.000    0.000    0.000    0.000 
#    0.000    0.000    0.000    0.000    0.000    0.000 
#
# Total GULP energy -198359.063809 kJ/mol
# GULP energy per Si atom -12397.441488 kJ/mol
# Density = 2.117125 g / cm^3
# Si number density = 21.219548 Si / 1000 Ang^3
#
#
#
# Elastic Constant Matrix: (Units=GPa)
#
#
# Indices 1 2 3 4 5 6 
#
# 1 136.5236 46.1848 37.4639 11.0099 -3.6898 6.6242
# 2 46.1848 77.1352 22.1805 17.9859 4.5063 16.4038
# 3 37.4639 22.1805 94.2710 21.9946 -5.4651 1.7805
# 4 11.0099 17.9859 21.9946 32.4574 8.1524 4.3377
# 5 -3.6898 4.5063 -5.4651 8.1524 27.6756 6.9982
# 6 6.6242 16.4038 1.7805 4.3377 6.9982 34.1882
#
#
#
# Elastic Compliance Matrix: (Units=1/GPa)
#
#
# Indices 1 2 3 4 5 6 
#
# 1 0.009903 -0.005588 -0.002874 0.001330 0.001142 0.000510
# 2 -0.005588 0.019846 -0.000479 -0.007810 0.000113 -0.007447
# 3 -0.002874 -0.000479 0.014505 -0.009982 0.005454 0.000182
# 4 0.001330 -0.007810 -0.009982 0.044814 -0.014025 0.001195
# 5 0.001142 0.000113 0.005454 -0.014025 0.043414 -0.007666
# 6 0.000510 -0.007447 0.000182 0.001195 -0.007666 0.034132
#
#
# Mechanical properties :
#
#
# Convention : Reuss Voigt Hill
#
# Bulk Modulus (GPa) = 37.92233 57.73203 47.82718
# Shear Modulus (GPa) = 25.86828 32.33762 29.10295
#
# Velocity S-wave (km/s) = 3.49532 3.90802 3.70742
# Velocity P-wave (km/s) = 5.84807 6.90142 6.39646
#
# Compressibility (1/GPa) = 0.02636969
#
# Stress axis : x y z
#
# Youngs Moduli (GPa) = 100.98197 50.38761 68.94376
#
# Poissons Ratio (x) = 0.28157 0.19818
# Poissons Ratio (y) = 0.56429 0.03305
# Poissons Ratio (z) = 0.29027 0.02416
#
# Static dielectric constant tensor:
#      x y z
#    x 4.053300 0.102550 -0.147540 
#    y 0.102550 3.744290 0.005840 
#    z -0.147540 0.005840 3.908030 
# 
# 
# High freq. dielectric constant tensor:
#      x y z
#    x 1.837660 0.008970 -0.011350 
#    y 0.008970 1.826900 0.001300 
#    z -0.011350 0.001300 1.835210 
# 
# From -- ./inp_files/298664.got.cif
#   From: 2010.06.25/outbox.cif.g09.slc.cpg/sg2_150_cif.got.tgz:298664.got - 2010.06.27 13:26:56.
