data_PCOD8023582
_publ_section_title
;
Structure prediction by ZEFSAII (Michael W. Deem and Ramdas Pophale) SiO2 
 PCOD8023582
Probable space group: P -1
;
_chemical_formula_sum "Si O2"
_cell_formula_units_Z 14
_cell_length_a 10.648241
_cell_length_b 10.547321
_cell_length_c 11.859971
_cell_angle_alpha 125.754722
_cell_angle_beta 110.518012
_cell_angle_gamma 37.121439
_cell_volume 633.990475
_symmetry_space_group_name_H-M "P -1"
_symmetry_group_IT_number 2
_symmetry_cell_setting 'triclinic'
loop_
_space_group_symop_operation_xyz
x,y,z
-x,-y,-z
loop_
_atom_site_type_symbol
_atom_site_label
_atom_site_fract_x
_atom_site_fract_y
_atom_site_fract_z
Si Si1 0.050691 0.735735 0.685642
Si Si2 0.299232 0.923790 0.063281
Si Si3 0.545681 0.516548 0.217168
Si Si4 0.299114 0.241184 0.871668
Si Si5 0.083940 0.943252 0.372165
Si Si6 0.664439 0.741321 0.353722
Si Si7 0.072412 0.190455 0.899565
O O1 0.243216 0.684176 0.742287
O O2 0.140852 0.479900 0.612983
O O3 0.843736 0.965940 0.813790
O O4 0.978705 0.827541 0.580145
O O5 0.454826 0.931833 0.123948
O O6 0.439982 0.637465 0.947848
O O7 0.138281 0.092290 0.996261
O O8 0.338675 0.687494 0.320232
O O9 0.546855 0.687029 0.245872
O O10 0.249228 0.255263 0.730409
O O11 0.264551 0.109691 0.856897
O O12 0.143171 0.512667 0.014668
O O13 0.972491 0.923154 0.243661
O O14 0.000000 0.000000 0.500000
O O15 0.500000 0.000000 0.500000
#
# Coordination Sequence:
#
# PCOD8023582 Si02
#       7
#     2   2   2   2   2   2   2
#     4  10  24  42  73  98 132 174 225 285 330 389
#     4  12  21  44  73 105 127 170 236 281 335 392
#     4  10  23  41  71 100 128 175 224 281 333 386
#     4  11  24  40  67  98 136 178 221 273 341 394
#     4  12  26  44  68 101 136 180 226 271 342 406
#     4  10  23  45  65  96 138 179 218 276 335 398
#     4  11  23  43  65  97 141 173 219 282 328 400
#
# _framework density 22.082352
#
# number of rings (size 3 to 8) (size 9 to 14) (size 15 to 20)
#    0.857    0.286    4.286    1.714    4.000    1.714 
#    2.571    2.857    0.000    0.000    0.000    0.000 
#    0.000    0.000    0.000    0.000    0.000    0.000 
#
# Total GULP energy -173537.958673 kJ/mol
# GULP energy per Si atom -12395.568477 kJ/mol
# Density = 2.203209 g / cm^3
# Si number density = 22.082352 Si / 1000 Ang^3
#
#
#
# Elastic Constant Matrix: (Units=GPa)
#
#
# Indices 1 2 3 4 5 6 
#
# 1 77.8092 27.9528 15.9765 -1.0178 -25.9003 -12.6262
# 2 27.9528 85.4492 29.5706 4.1623 -17.5426 -7.7675
# 3 15.9765 29.5706 71.0183 9.5191 -32.2188 6.9647
# 4 -1.0178 4.1623 9.5191 40.2258 3.9493 -4.6428
# 5 -25.9003 -17.5426 -32.2188 3.9493 38.8747 -1.7975
# 6 -12.6262 -7.7675 6.9647 -4.6428 -1.7975 45.3533
#
#
#
# Elastic Compliance Matrix: (Units=1/GPa)
#
#
# Indices 1 2 3 4 5 6 
#
# 1 0.018972 -0.004078 0.003386 -0.000739 0.013891 0.004538
# 2 -0.004078 0.015164 -0.005963 0.000081 -0.000715 0.002358
# 3 0.003386 -0.005963 0.028071 -0.008752 0.023518 -0.004353
# 4 -0.000739 0.000081 -0.008752 0.028347 -0.010420 0.003641
# 5 0.013891 -0.000715 0.023518 -0.010420 0.055264 0.001257
# 6 0.004538 0.002358 -0.004353 0.003641 0.001257 0.024807
#
#
# Mechanical properties :
#
#
# Convention : Reuss Voigt Hill
#
# Bulk Modulus (GPa) = 20.45090 42.36406 31.40748
# Shear Modulus (GPa) = 24.97063 35.60923 30.28993
#
# Velocity S-wave (km/s) = 3.36638 4.02003 3.70764
# Velocity P-wave (km/s) = 4.93876 6.38543 5.70811
#
# Compressibility (1/GPa) = 0.04889761
#
# Stress axis : x y z
#
# Youngs Moduli (GPa) = 52.70796 65.94604 35.62344
#
# Poissons Ratio (x) = 0.26891 -0.12062
# Poissons Ratio (y) = 0.21493 0.21243
# Poissons Ratio (z) = -0.17846 0.39326
#
# Static dielectric constant tensor:
#      x y z
#    x 4.107180 0.008910 -0.083550 
#    y 0.008910 4.002320 0.014320 
#    z -0.083550 0.014320 3.660560 
# 
# 
# High freq. dielectric constant tensor:
#      x y z
#    x 1.872480 -0.001060 -0.008550 
#    y -0.001060 1.878840 0.004060 
#    z -0.008550 0.004060 1.845990 
# 
# From -- ./inp_files/426522.got.cif
#   From: 2010.06.25/outbox.cif.g09.slc.cpg/sg2_214_cif.got.tgz:426522.got - 2010.06.27 13:26:56.
