data_PCOD8023973
_publ_section_title
;
Structure prediction by ZEFSAII (Michael W. Deem and Ramdas Pophale) SiO2 
 PCOD8023973
Probable space group: P -1
;
_chemical_formula_sum "Si O2"
_cell_formula_units_Z 14
_cell_length_a 8.883638
_cell_length_b 13.994957
_cell_length_c 5.235525
_cell_angle_alpha 74.227711
_cell_angle_beta 105.417921
_cell_angle_gamma 122.684732
_cell_volume 521.488858
_symmetry_space_group_name_H-M "P -1"
_symmetry_group_IT_number 2
_symmetry_cell_setting 'triclinic'
loop_
_space_group_symop_operation_xyz
x,y,z
-x,-y,-z
loop_
_atom_site_type_symbol
_atom_site_label
_atom_site_fract_x
_atom_site_fract_y
_atom_site_fract_z
Si Si1 0.667743 0.012588 0.810331
Si Si2 0.398018 0.602101 0.812144
Si Si3 0.739615 0.542893 0.651266
Si Si4 0.883750 0.098146 0.366287
Si Si5 0.430133 0.818577 0.181594
Si Si6 0.287336 0.242148 0.436965
Si Si7 0.140728 0.681413 0.799424
O O1 0.590848 0.101228 0.672642
O O2 0.772061 0.006413 0.609182
O O3 0.799430 0.052368 0.085942
O O4 0.494714 0.889728 0.888859
O O5 0.355741 0.531251 0.584289
O O6 0.609657 0.704983 0.825954
O O7 0.272840 0.660273 0.693368
O O8 0.373934 0.524461 0.100981
O O9 0.741604 0.660689 0.516326
O O10 0.942401 0.567921 0.782856
O O11 0.091620 0.125880 0.416649
O O12 0.881746 0.211885 0.371014
O O13 0.576223 0.781883 0.325399
O O14 0.233811 0.706948 0.107218
#
# Coordination Sequence:
#
# PCOD8023973 Si02
#       7
#     2   2   2   2   2   2   2
#     4  10  23  45  68  96 130 169 213 261 318 385
#     4  12  24  43  67  95 128 171 219 266 315 378
#     4  11  26  44  65  94 132 170 214 268 322 376
#     4  10  24  43  66  96 133 169 210 264 321 380
#     4  10  23  43  70  98 129 168 215 265 319 383
#     4  11  25  42  66  97 132 170 214 266 323 378
#     4  10  23  42  68  96 128 171 218 263 317 381
#
# _framework density 26.846211
#
# number of rings (size 3 to 8) (size 9 to 14) (size 15 to 20)
#    0.000    1.429    0.000    3.429    0.000   20.000 
#    0.000    0.000    0.000    0.000    0.000    0.000 
#    0.000    0.000    0.000    0.000    0.000    0.000 
#
# Total GULP energy -173512.099118 kJ/mol
# GULP energy per Si atom -12393.721366 kJ/mol
# Density = 2.678511 g / cm^3
# Si number density = 26.846211 Si / 1000 Ang^3
#
#
#
# Elastic Constant Matrix: (Units=GPa)
#
#
# Indices 1 2 3 4 5 6 
#
# 1 159.6520 14.5096 28.0516 3.4964 8.8700 19.3826
# 2 14.5096 34.3011 5.5869 6.2483 -2.1826 12.1366
# 3 28.0516 5.5869 76.9263 6.9998 -1.0367 -11.9694
# 4 3.4964 6.2483 6.9998 14.3219 1.2811 -4.1385
# 5 8.8700 -2.1826 -1.0367 1.2811 46.8655 -3.5032
# 6 19.3826 12.1366 -11.9694 -4.1385 -3.5032 42.2619
#
#
#
# Elastic Compliance Matrix: (Units=1/GPa)
#
#
# Indices 1 2 3 4 5 6 
#
# 1 0.007595 -0.001102 -0.003314 -0.000842 -0.001864 -0.004342
# 2 -0.001102 0.038178 -0.002638 -0.018969 0.001479 -0.012941
# 3 -0.003314 -0.002638 0.015792 -0.004016 0.001448 0.006477
# 4 -0.000842 -0.018969 -0.004016 0.084147 -0.002159 0.012757
# 5 -0.001864 0.001479 0.001448 -0.002159 0.022034 0.002455
# 6 -0.004342 -0.012941 0.006477 0.012757 0.002455 0.032657
#
#
# Mechanical properties :
#
#
# Convention : Reuss Voigt Hill
#
# Bulk Modulus (GPa) = 21.07168 40.79727 30.93448
# Shear Modulus (GPa) = 21.70801 35.53860 28.62331
#
# Velocity S-wave (km/s) = 2.84668 3.64233 3.26881
# Velocity P-wave (km/s) = 4.32098 5.73746 5.07884
#
# Compressibility (1/GPa) = 0.04745706
#
# Stress axis : x y z
#
# Youngs Moduli (GPa) = 131.66230 26.19332 63.32236
#
# Poissons Ratio (x) = 0.02886 0.20984
# Poissons Ratio (y) = 0.14507 0.16707
# Poissons Ratio (z) = 0.43630 0.06911
#
# Static dielectric constant tensor:
#      x y z
#    x 5.503990 0.219930 -0.010790 
#    y 0.219930 5.247100 -0.337150 
#    z -0.010790 -0.337150 4.573180 
# 
# 
# High freq. dielectric constant tensor:
#      x y z
#    x 2.102700 0.001430 0.010460 
#    y 0.001430 2.090430 -0.009090 
#    z 0.010460 -0.009090 2.059690 
# 
# From -- ./inp_files/34676.got.cif
#   From: 2010.06.25/outbox.cif.g09.slc.cpg/sg2_18_cif.got.tgz:34676.got - 2010.06.27 13:26:56.
