data_PCOD8023729
_publ_section_title
;
Structure prediction by ZEFSAII (Michael W. Deem and Ramdas Pophale) SiO2 
 PCOD8023729
Probable space group: P -1
;
_chemical_formula_sum "Si O2"
_cell_formula_units_Z 16
_cell_length_a 5.404309
_cell_length_b 15.831984
_cell_length_c 19.301829
_cell_angle_alpha 26.411466
_cell_angle_beta 94.559255
_cell_angle_gamma 101.624153
_cell_volume 699.948393
_symmetry_space_group_name_H-M "P -1"
_symmetry_group_IT_number 2
_symmetry_cell_setting 'triclinic'
loop_
_space_group_symop_operation_xyz
x,y,z
-x,-y,-z
loop_
_atom_site_type_symbol
_atom_site_label
_atom_site_fract_x
_atom_site_fract_y
_atom_site_fract_z
Si Si1 0.795660 0.111154 0.939462
Si Si2 0.081533 0.066308 0.565588
Si Si3 0.495274 0.231404 0.556741
Si Si4 0.524846 0.519684 0.904446
Si Si5 0.831267 0.947023 0.192794
Si Si6 0.106249 0.749272 0.697777
Si Si7 0.249856 0.083623 0.210144
Si Si8 0.889104 0.596397 0.364418
O O1 0.877477 0.320330 0.746931
O O2 0.500000 0.000000 0.000000
O O3 0.818537 0.133592 0.007456
O O4 0.000000 0.000000 0.000000
O O5 0.283170 0.240359 0.487300
O O6 0.909982 0.174658 0.436971
O O7 0.213453 0.942473 0.607616
O O8 0.929516 0.898449 0.741406
O O9 0.387439 0.106153 0.715377
O O10 0.660337 0.449507 0.422779
O O11 0.648435 0.092703 0.627683
O O12 0.815266 0.627551 0.805802
O O13 0.313294 0.624465 0.794689
O O14 0.500000 0.500000 0.000000
O O15 0.454147 0.293396 0.041731
O O16 0.780572 0.762929 0.273730
O O17 0.108230 0.001771 0.195378
O O18 0.000000 0.500000 0.500000
#
# Coordination Sequence:
#
# PCOD8023729 Si02
#       8
#     2   2   2   2   2   2   2   2
#     4  10  23  42  66  94 129 171 223 279 334 395
#     4  10  25  44  69 102 139 179 225 293 347 406
#     4  11  23  41  70  99 139 179 236 282 350 407
#     4  12  25  44  71 101 135 182 233 277 345 419
#     4  10  23  42  64  96 133 181 224 282 344 401
#     4  11  26  46  74 102 138 183 231 284 349 419
#     4  11  24  42  67  98 140 179 227 287 340 411
#     4  11  21  42  70  98 131 183 235 278 341 411
#
# _framework density 22.858829
#
# number of rings (size 3 to 8) (size 9 to 14) (size 15 to 20)
#    0.000    1.250    2.500    2.250    7.000    3.000 
#    0.000    0.000    0.000    0.000    0.000    0.000 
#    0.000    0.000    0.000    0.000    0.000    0.000 
#
# Total GULP energy -198244.919992 kJ/mol
# GULP energy per Si atom -12390.307500 kJ/mol
# Density = 2.280680 g / cm^3
# Si number density = 22.858829 Si / 1000 Ang^3
#
#
#
# Elastic Constant Matrix: (Units=GPa)
#
#
# Indices 1 2 3 4 5 6 
#
# 1 94.0810 29.9331 27.0712 6.5602 -7.1384 23.6515
# 2 29.9331 130.0131 58.6132 6.1323 -5.9793 25.2460
# 3 27.0712 58.6132 114.3129 18.4093 -9.1990 27.0991
# 4 6.5602 6.1323 18.4093 49.5093 4.7481 2.4696
# 5 -7.1384 -5.9793 -9.1990 4.7481 40.1726 -3.8153
# 6 23.6515 25.2460 27.0991 2.4696 -3.8153 27.2154
#
#
#
# Elastic Compliance Matrix: (Units=1/GPa)
#
#
# Indices 1 2 3 4 5 6 
#
# 1 0.013861 -0.001010 0.000169 -0.001370 0.001474 -0.010947
# 2 -0.001010 0.010751 -0.004199 0.000620 -0.000087 -0.004983
# 3 0.000169 -0.004199 0.014005 -0.004452 0.002238 -0.009480
# 4 -0.001370 0.000620 -0.004452 0.022172 -0.003550 0.002538
# 5 0.001474 -0.000087 0.002238 -0.003550 0.026126 0.000557
# 6 -0.010947 -0.004983 -0.009480 0.002538 0.000557 0.060167
#
#
# Mechanical properties :
#
#
# Convention : Reuss Voigt Hill
#
# Bulk Modulus (GPa) = 35.03973 63.29355 49.16664
# Shear Modulus (GPa) = 29.99855 38.23209 34.11532
#
# Velocity S-wave (km/s) = 3.62655 4.09410 3.86740
# Velocity P-wave (km/s) = 5.73567 7.07798 6.44188
#
# Compressibility (1/GPa) = 0.02853903
#
# Stress axis : x y z
#
# Youngs Moduli (GPa) = 72.14503 93.01042 71.40225
#
# Poissons Ratio (x) = 0.09389 -0.01210
# Poissons Ratio (y) = 0.07283 0.29984
# Poissons Ratio (z) = -0.01223 0.39058
#
# Static dielectric constant tensor:
#      x y z
#    x 4.059250 0.130830 -0.074410 
#    y 0.130830 4.242270 0.207300 
#    z -0.074410 0.207300 4.850780 
# 
# 
# High freq. dielectric constant tensor:
#      x y z
#    x 1.896520 0.012350 -0.006810 
#    y 0.012350 1.909060 0.018490 
#    z -0.006810 0.018490 1.907230 
# 
# From -- ./inp_files/340551.got.cif
#   From: 2010.06.25/outbox.cif.g09.slc.cpg/sg2_171_cif.got.tgz:340551.got - 2010.06.27 13:26:56.
