data_PCOD8023335
_publ_section_title
;
Structure prediction by ZEFSAII (Michael W. Deem and Ramdas Pophale) SiO2 
 PCOD8023335
Probable space group: P -1
;
_chemical_formula_sum "Si O2"
_cell_formula_units_Z 16
_cell_length_a 12.410956
_cell_length_b 11.384841
_cell_length_c 14.321680
_cell_angle_alpha 104.303273
_cell_angle_beta 152.505009
_cell_angle_gamma 93.297575
_cell_volume 711.388612
_symmetry_space_group_name_H-M "P -1"
_symmetry_group_IT_number 2
_symmetry_cell_setting 'triclinic'
loop_
_space_group_symop_operation_xyz
x,y,z
-x,-y,-z
loop_
_atom_site_type_symbol
_atom_site_label
_atom_site_fract_x
_atom_site_fract_y
_atom_site_fract_z
Si Si1 0.743128 0.959058 0.723236
Si Si2 0.376665 0.908301 0.187406
Si Si3 0.103087 0.080777 0.494577
Si Si4 0.800872 0.934932 0.053224
Si Si5 0.860645 0.364746 0.793570
Si Si6 0.466901 0.572617 0.076623
Si Si7 0.959183 0.567710 0.742161
Si Si8 0.608543 0.613671 0.840756
O O1 0.477663 0.777390 0.472102
O O2 0.609706 0.041250 0.682916
O O3 0.889633 0.014073 0.744193
O O4 0.000000 0.000000 0.000000
O O5 0.672091 0.939031 0.386108
O O6 0.098377 0.727805 0.933591
O O7 0.344702 0.012141 0.114641
O O8 0.230959 0.256596 0.638880
O O9 0.000000 0.000000 0.500000
O O10 0.838599 0.002720 0.199777
O O11 0.580815 0.749473 0.857738
O O12 0.852553 0.428597 0.701191
O O13 0.000000 0.500000 0.000000
O O14 0.076908 0.317196 0.952071
O O15 0.395756 0.456656 0.079828
O O16 0.500000 0.500000 0.000000
O O17 0.203585 0.586924 0.864243
O O18 0.673375 0.525949 0.460515
#
# Coordination Sequence:
#
# PCOD8023335 Si02
#       8
#     2   2   2   2   2   2   2   2
#     4  10  23  41  65  96 134 176 215 269 329 392
#     4  10  23  42  66  95 131 169 219 269 324 396
#     4  11  24  42  67  94 125 170 217 274 330 388
#     4  11  24  41  66  94 130 170 218 265 331 390
#     4  11  26  40  63  96 132 174 222 267 326 391
#     4  10  23  43  66  95 128 167 221 277 332 397
#     4  10  23  42  65  95 132 173 218 271 331 393
#     4  11  24  41  65  94 130 175 216 271 331 391
#
# _framework density 22.491222
#
# number of rings (size 3 to 8) (size 9 to 14) (size 15 to 20)
#    0.000    1.500    0.000    3.750   10.500    5.500 
#    0.000    0.000    0.000    0.000    0.000    0.000 
#    0.000    0.000    0.000    0.000    0.000    0.000 
#
# Total GULP energy -198376.762494 kJ/mol
# GULP energy per Si atom -12398.547656 kJ/mol
# Density = 2.244003 g / cm^3
# Si number density = 22.491222 Si / 1000 Ang^3
#
#
#
# Elastic Constant Matrix: (Units=GPa)
#
#
# Indices 1 2 3 4 5 6 
#
# 1 109.5708 9.0248 23.9953 14.9736 -21.4604 -7.9890
# 2 9.0248 93.8950 12.5018 23.3371 -3.7273 -7.1278
# 3 23.9953 12.5018 104.9982 26.0586 -6.4103 -6.4281
# 4 14.9736 23.3371 26.0586 42.0099 -1.2511 -2.3115
# 5 -21.4604 -3.7273 -6.4103 -1.2511 31.3278 9.5273
# 6 -7.9890 -7.1278 -6.4281 -2.3115 9.5273 31.3649
#
#
#
# Elastic Compliance Matrix: (Units=1/GPa)
#
#
# Indices 1 2 3 4 5 6 
#
# 1 0.011269 0.000154 -0.001390 -0.003013 0.007276 0.000188
# 2 0.000154 0.012554 0.000425 -0.007148 0.000721 0.002233
# 3 -0.001390 0.000425 0.011624 -0.006851 0.000783 0.001382
# 4 -0.003013 -0.007148 -0.006851 0.032986 -0.002847 -0.000500
# 5 0.007276 0.000721 0.000783 -0.002847 0.040147 -0.010227
# 6 0.000188 0.002233 0.001382 -0.000500 -0.010227 0.035791
#
#
# Mechanical properties :
#
#
# Convention : Reuss Voigt Hill
#
# Bulk Modulus (GPa) = 29.56557 44.38974 36.97765
# Shear Modulus (GPa) = 31.79292 38.47000 35.13146
#
# Velocity S-wave (km/s) = 3.76383 4.14024 3.95651
# Velocity P-wave (km/s) = 5.66237 6.52953 6.11135
#
# Compressibility (1/GPa) = 0.03382313
#
# Stress axis : x y z
#
# Youngs Moduli (GPa) = 88.74141 79.65893 86.02979
#
# Poissons Ratio (x) = -0.01226 0.11960
# Poissons Ratio (y) = -0.01366 -0.03655
# Poissons Ratio (z) = 0.12337 -0.03384
#
# Static dielectric constant tensor:
#      x y z
#    x 4.558560 -0.592160 -0.099660 
#    y -0.592160 4.541100 -0.007040 
#    z -0.099660 -0.007040 4.068890 
# 
# 
# High freq. dielectric constant tensor:
#      x y z
#    x 1.882600 0.001770 -0.007340 
#    y 0.001770 1.896760 0.006350 
#    z -0.007340 0.006350 1.895680 
# 
# From -- ./inp_files/519882.got.cif
#   From: 2010.06.25/outbox.cif.g09.slc.cpg/sg2_260_cif.got.tgz:519882.got - 2010.06.27 13:26:56.
