data_PCOD8023238
_publ_section_title
;
Structure prediction by ZEFSAII (Michael W. Deem and Ramdas Pophale) SiO2 
 PCOD8023238
Probable space group: P -1
;
_chemical_formula_sum "Si O2"
_cell_formula_units_Z 14
_cell_length_a 22.977103
_cell_length_b 9.281065
_cell_length_c 5.127124
_cell_angle_alpha 79.376164
_cell_angle_beta 105.020179
_cell_angle_gamma 42.127524
_cell_volume 576.411186
_symmetry_space_group_name_H-M "P -1"
_symmetry_group_IT_number 2
_symmetry_cell_setting 'triclinic'
loop_
_space_group_symop_operation_xyz
x,y,z
-x,-y,-z
loop_
_atom_site_type_symbol
_atom_site_label
_atom_site_fract_x
_atom_site_fract_y
_atom_site_fract_z
Si Si1 0.744594 0.071884 0.495511
Si Si2 0.348593 0.425878 0.786365
Si Si3 0.971687 0.932921 0.291081
Si Si4 0.884637 0.807622 0.272814
Si Si5 0.363940 0.005870 0.600340
Si Si6 0.824610 0.432061 0.632620
Si Si7 0.472944 0.916700 0.268278
O O1 0.686904 0.340292 0.248913
O O2 0.814713 0.875366 0.396431
O O3 0.652699 0.134854 0.407378
O O4 0.820882 0.933686 0.882748
O O5 0.253601 0.498273 0.676135
O O6 0.438310 0.161351 0.164882
O O7 0.399216 0.337889 0.579520
O O8 0.911026 0.919939 0.355971
O O9 0.085386 0.650420 0.382938
O O10 0.000000 0.000000 0.500000
O O11 0.886821 0.170643 0.915009
O O12 0.000000 0.500000 0.500000
O O13 0.245333 0.325089 0.331523
O O14 0.413035 0.949056 0.954972
O O15 0.447531 0.881226 0.513186
#
# Coordination Sequence:
#
# PCOD8023238 Si02
#       7
#     2   2   2   2   2   2   2
#     4  12  26  44  71  98 137 182 223 279 336 400
#     4  10  23  46  69 102 134 175 229 278 338 400
#     4  11  24  39  65  97 127 179 221 279 324 397
#     4  12  27  44  66  99 139 182 225 276 333 398
#     4  11  25  44  68 100 134 181 218 280 337 401
#     4  10  23  41  63  94 134 170 226 271 334 396
#     4  10  25  44  72  99 136 176 222 284 337 399
#
# _framework density 24.288217
#
# number of rings (size 3 to 8) (size 9 to 14) (size 15 to 20)
#    0.000    1.143    1.429    3.000   10.000    7.429 
#    0.000    0.000    0.000    0.000    0.000    0.000 
#    0.000    0.000    0.000    0.000    0.000    0.000 
#
# Total GULP energy -173504.172716 kJ/mol
# GULP energy per Si atom -12393.155194 kJ/mol
# Density = 2.423294 g / cm^3
# Si number density = 24.288217 Si / 1000 Ang^3
#
#
#
# Elastic Constant Matrix: (Units=GPa)
#
#
# Indices 1 2 3 4 5 6 
#
# 1 121.3735 3.0508 23.5415 7.8016 -2.5977 11.8111
# 2 3.0508 65.9914 12.3556 -2.4620 -10.0461 3.1991
# 3 23.5415 12.3556 65.0395 3.8669 2.6921 6.1729
# 4 7.8016 -2.4620 3.8669 34.8042 -6.2714 0.3761
# 5 -2.5977 -10.0461 2.6921 -6.2714 27.9927 6.2368
# 6 11.8111 3.1991 6.1729 0.3761 6.2368 47.5061
#
#
#
# Elastic Compliance Matrix: (Units=1/GPa)
#
#
# Indices 1 2 3 4 5 6 
#
# 1 0.009168 0.000445 -0.003184 -0.001382 0.001470 -0.002078
# 2 0.000445 0.017192 -0.003746 0.002927 0.007630 -0.001807
# 3 -0.003184 -0.003746 0.017589 -0.002155 -0.003648 -0.000746
# 4 -0.001382 0.002927 -0.002155 0.030989 0.008274 -0.000905
# 5 0.001470 0.007630 -0.003648 0.008274 0.042140 -0.006003
# 6 -0.002078 -0.001807 -0.000746 -0.000905 -0.006003 0.022580
#
#
# Mechanical properties :
#
#
# Convention : Reuss Voigt Hill
#
# Bulk Modulus (GPa) = 32.27861 36.70002 34.48932
# Shear Modulus (GPa) = 30.68320 36.29103 33.48711
#
# Velocity S-wave (km/s) = 3.55814 3.86966 3.71717
# Velocity P-wave (km/s) = 5.49538 5.92526 5.71436
#
# Compressibility (1/GPa) = 0.03098026
#
# Stress axis : x y z
#
# Youngs Moduli (GPa) = 109.07509 58.16493 56.85267
#
# Poissons Ratio (x) = -0.02590 0.18105
# Poissons Ratio (y) = -0.04857 0.21295
# Poissons Ratio (z) = 0.34735 0.21786
#
# Static dielectric constant tensor:
#      x y z
#    x 4.779610 -0.258680 0.090280 
#    y -0.258680 4.708440 -0.208000 
#    z 0.090280 -0.208000 3.936000 
# 
# 
# High freq. dielectric constant tensor:
#      x y z
#    x 1.983850 -0.008350 0.014220 
#    y -0.008350 1.967050 -0.008880 
#    z 0.014220 -0.008880 1.956310 
# 
# From -- ./inp_files/78422.got.cif
#   From: 2010.06.25/outbox.cif.g09.slc.cpg/sg2_40_cif.got.tgz:78422.got - 2010.06.27 13:26:56.
