data_PCOD8023174
_publ_section_title
;
Structure prediction by ZEFSAII (Michael W. Deem and Ramdas Pophale) SiO2 
 PCOD8023174
Probable space group: P -1
;
_chemical_formula_sum "Si O2"
_cell_formula_units_Z 16
_cell_length_a 17.892436
_cell_length_b 8.678078
_cell_length_c 18.653890
_cell_angle_alpha 28.933237
_cell_angle_beta 29.224942
_cell_angle_gamma 38.179878
_cell_volume 681.098068
_symmetry_space_group_name_H-M "P -1"
_symmetry_group_IT_number 2
_symmetry_cell_setting 'triclinic'
loop_
_space_group_symop_operation_xyz
x,y,z
-x,-y,-z
loop_
_atom_site_type_symbol
_atom_site_label
_atom_site_fract_x
_atom_site_fract_y
_atom_site_fract_z
Si Si1 0.499203 0.614116 0.068870
Si Si2 0.002069 0.179172 0.675706
Si Si3 0.326249 0.838940 0.988440
Si Si4 0.231918 0.910143 0.706253
Si Si5 0.204270 0.477335 0.597336
Si Si6 0.295424 0.911742 0.233719
Si Si7 0.923344 0.636094 0.864062
Si Si8 0.485254 0.465725 0.609451
O O1 0.613369 0.291783 0.087732
O O2 0.398581 0.625082 0.221534
O O3 0.386492 0.613573 0.095467
O O4 0.598207 0.919055 0.867738
O O5 0.000000 0.500000 0.500000
O O6 0.012298 0.887227 0.730996
O O7 0.856755 0.166626 0.855473
O O8 0.149555 0.130662 0.623054
O O9 0.378770 0.179897 0.826891
O O10 0.398962 0.778775 0.590946
O O11 0.254007 0.123716 0.670498
O O12 0.135100 0.619475 0.928625
O O13 0.172179 0.733932 0.454724
O O14 0.342938 0.595617 0.479291
O O15 0.046794 0.460533 0.778527
O O16 0.218944 0.176541 0.135503
O O17 0.500000 0.500000 0.500000
#
# Coordination Sequence:
#
# PCOD8023174 Si02
#       8
#     2   2   2   2   2   2   2   2
#     4  10  23  40  73 103 145 182 237 295 365 418
#     4  12  27  47  76 106 144 191 245 301 365 438
#     4  11  24  45  72 109 143 191 243 299 363 432
#     4  12  28  49  73 105 146 194 242 301 368 434
#     4  12  28  46  73 107 144 191 248 298 365 433
#     4  11  23  45  71 108 143 190 239 305 350 433
#     4  12  26  48  71 105 149 193 240 300 369 429
#     4  12  27  48  74 105 147 193 242 301 365 441
#
# _framework density 23.491475999999999
#
# number of rings (size 3 to 8) (size 9 to 14) (size 15 to 20)
#    0.000    0.500    3.750    3.000    8.750    2.000 
#    0.000    0.000    0.000    0.000    0.000    0.000 
#    0.000    0.000    0.000    0.000    0.000    0.000 
#
# Total GULP energy -198388.805603 kJ/mol
# GULP energy per Si atom -12399.300350 kJ/mol
# Density = 2.343801 g / cm^3
# Si number density = 23.491476 Si / 1000 Ang^3
#
#
#
# Elastic Constant Matrix: (Units=GPa)
#
#
# Indices 1 2 3 4 5 6 
#
# 1 74.5487 28.5764 17.9670 -0.7172 4.6119 6.8777
# 2 28.5764 137.8331 20.5451 21.8683 6.7022 21.1492
# 3 17.9670 20.5451 82.8652 0.8063 9.4574 -3.9017
# 4 -0.7172 21.8683 0.8063 41.7684 -0.7433 0.2181
# 5 4.6119 6.7022 9.4574 -0.7433 33.2231 -3.0174
# 6 6.8777 21.1492 -3.9017 0.2181 -3.0174 44.2048
#
#
#
# Elastic Compliance Matrix: (Units=1/GPa)
#
#
# Indices 1 2 3 4 5 6 
#
# 1 0.015318 -0.002823 -0.002599 0.001782 -0.000898 -0.001332
# 2 -0.002823 0.009664 -0.001763 -0.005079 -0.001571 -0.004422
# 3 -0.002599 -0.001763 0.013501 0.000555 -0.002911 0.002238
# 4 0.001782 -0.005079 0.000555 0.026634 0.001412 0.002167
# 5 -0.000898 -0.001571 -0.002911 0.001412 0.031655 0.002788
# 6 -0.001332 -0.004422 0.002238 0.002167 0.002788 0.025322
#
#
# Mechanical properties :
#
#
# Convention : Reuss Voigt Hill
#
# Bulk Modulus (GPa) = 41.47319 47.71379 44.59349
# Shear Modulus (GPa) = 34.60145 39.04983 36.82564
#
# Velocity S-wave (km/s) = 3.84205 4.08155 3.96361
# Velocity P-wave (km/s) = 6.11348 6.52436 6.32226
#
# Compressibility (1/GPa) = 0.02411197
#
# Stress axis : x y z
#
# Youngs Moduli (GPa) = 65.28172 103.47590 74.07009
#
# Poissons Ratio (x) = 0.29213 0.19250
# Poissons Ratio (y) = 0.18430 0.13062
# Poissons Ratio (z) = 0.16966 0.18247
#
# Static dielectric constant tensor:
#      x y z
#    x 4.190850 0.182010 0.045920 
#    y 0.182010 4.364110 0.147230 
#    z 0.045920 0.147230 4.014310 
# 
# 
# High freq. dielectric constant tensor:
#      x y z
#    x 1.928800 0.014170 -0.002540 
#    y 0.014170 1.938610 0.006940 
#    z -0.002540 0.006940 1.929890 
# 
# From -- ./inp_files/206972.got.cif
#   From: 2010.06.25/outbox.cif.g09.slc.cpg/sg2_104_cif.got.tgz:206972.got - 2010.06.27 13:26:56.
