data_PCOD8023520
_publ_section_title
;
Structure prediction by ZEFSAII (Michael W. Deem and Ramdas Pophale) SiO2 
 PCOD8023520
Probable space group: P -1
;
_chemical_formula_sum "Si O2"
_cell_formula_units_Z 14
_cell_length_a 9.154547
_cell_length_b 16.892023
_cell_length_c 12.138043
_cell_angle_alpha 161.220229
_cell_angle_beta 110.141791
_cell_angle_gamma 70.921348
_cell_volume 567.312037
_symmetry_space_group_name_H-M "P -1"
_symmetry_group_IT_number 2
_symmetry_cell_setting 'triclinic'
loop_
_space_group_symop_operation_xyz
x,y,z
-x,-y,-z
loop_
_atom_site_type_symbol
_atom_site_label
_atom_site_fract_x
_atom_site_fract_y
_atom_site_fract_z
Si Si1 0.461214 0.707293 0.352921
Si Si2 0.743043 0.557619 0.349404
Si Si3 0.325509 0.449095 0.425779
Si Si4 0.338037 0.950373 0.446995
Si Si5 0.931402 0.354474 0.530846
Si Si6 0.192627 0.914472 0.653371
Si Si7 0.946734 0.719796 0.196583
O O1 0.616553 0.751046 0.521548
O O2 0.315398 0.679952 0.364782
O O3 0.389381 0.943846 0.580821
O O4 0.500000 0.500000 0.000000
O O5 0.698166 0.489411 0.371518
O O6 0.909933 0.691291 0.557579
O O7 0.737295 0.306189 0.947411
O O8 0.500000 0.500000 0.500000
O O9 0.213102 0.634790 0.575463
O O10 0.282295 0.166960 0.023857
O O11 0.223836 0.173296 0.680584
O O12 0.500000 0.000000 0.500000
O O13 0.906733 0.141048 0.334565
O O14 0.952034 0.621596 0.944674
O O15 0.078685 0.927260 0.531024
O O16 0.000000 0.500000 0.000000
#
# Coordination Sequence:
#
# PCOD8023520 Si02
#       7
#     2   2   2   2   2   2   2
#     4  10  23  41  69 106 147 185 243 306 367 438
#     4  11  26  46  69 106 148 194 251 306 368 442
#     4  12  28  48  71 103 150 199 254 304 362 453
#     4  11  25  40  73 110 148 193 242 304 378 437
#     4  11  25  46  75 104 145 191 250 311 368 443
#     4  11  25  46  75 104 146 197 248 297 387 430
#     4  10  23  42  76 109 145 186 241 308 374 435
#
# _framework density 24.677776999999999
#
# number of rings (size 3 to 8) (size 9 to 14) (size 15 to 20)
#    0.000    1.143    0.000    4.714   16.000    4.571 
#    0.000    0.000    0.000    0.000    0.000    0.000 
#    0.000    0.000    0.000    0.000    0.000    0.000 
#
# Total GULP energy -173474.967037 kJ/mol
# GULP energy per Si atom -12391.069074 kJ/mol
# Density = 2.462161 g / cm^3
# Si number density = 24.677777 Si / 1000 Ang^3
#
#
#
# Elastic Constant Matrix: (Units=GPa)
#
#
# Indices 1 2 3 4 5 6 
#
# 1 183.9460 43.9380 14.1008 -2.4497 1.2134 -27.8218
# 2 43.9380 118.9072 22.5062 -20.1842 -2.2250 -35.9248
# 3 14.1008 22.5062 60.3268 2.3922 8.2831 -3.7687
# 4 -2.4497 -20.1842 2.3922 38.9771 -1.3528 -4.3987
# 5 1.2134 -2.2250 8.2831 -1.3528 42.5411 4.0374
# 6 -27.8218 -35.9248 -3.7687 -4.3987 4.0374 56.8960
#
#
#
# Elastic Compliance Matrix: (Units=1/GPa)
#
#
# Indices 1 2 3 4 5 6 
#
# 1 0.006166 -0.001592 -0.000673 -0.000184 -0.000321 0.001974
# 2 -0.001592 0.013801 -0.004757 0.008303 0.001181 0.008179
# 3 -0.000673 -0.004757 0.019069 -0.004048 -0.003871 -0.002108
# 4 -0.000184 0.008303 -0.004048 0.031056 0.001534 0.007176
# 5 -0.000321 0.001181 -0.003871 0.001534 0.024502 -0.001288
# 6 0.001974 0.008179 -0.002108 0.007176 -0.001288 0.024212
#
#
# Mechanical properties :
#
#
# Convention : Reuss Voigt Hill
#
# Bulk Modulus (GPa) = 40.01202 58.25222 49.13212
# Shear Modulus (GPa) = 35.41555 46.52517 40.97036
#
# Velocity S-wave (km/s) = 3.79241 4.34672 4.07899
# Velocity P-wave (km/s) = 5.95193 6.98916 6.49129
#
# Compressibility (1/GPa) = 0.02499249
#
# Stress axis : x y z
#
# Youngs Moduli (GPa) = 162.16666 72.45820 52.44181
#
# Poissons Ratio (x) = 0.11536 0.03527
# Poissons Ratio (y) = 0.25819 0.24947
# Poissons Ratio (z) = 0.10908 0.34470
#
# Static dielectric constant tensor:
#      x y z
#    x 6.672840 1.040090 -2.196510 
#    y 1.040090 5.971620 -1.486530 
#    z -2.196510 -1.486530 8.524820 
# 
# 
# High freq. dielectric constant tensor:
#      x y z
#    x 2.006150 -0.006370 -0.005540 
#    y -0.006370 1.996150 -0.008680 
#    z -0.005540 -0.008680 1.961640 
# 
# From -- ./inp_files/403676.got.cif
#   From: 2010.06.25/outbox.cif.g09.slc.cpg/sg2_202_cif.got.tgz:403676.got - 2010.06.27 13:26:56.
