data_PCOD8023256
_publ_section_title
;
Structure prediction by ZEFSAII (Michael W. Deem and Ramdas Pophale) SiO2 
 PCOD8023256
Probable space group: P -1
;
_chemical_formula_sum "Si O2"
_cell_formula_units_Z 16
_cell_length_a 12.524436
_cell_length_b 18.278868
_cell_length_c 8.486841
_cell_angle_alpha 121.060090
_cell_angle_beta 148.468398
_cell_angle_gamma 42.657840
_cell_volume 653.936990
_symmetry_space_group_name_H-M "P -1"
_symmetry_group_IT_number 2
_symmetry_cell_setting 'triclinic'
loop_
_space_group_symop_operation_xyz
x,y,z
-x,-y,-z
loop_
_atom_site_type_symbol
_atom_site_label
_atom_site_fract_x
_atom_site_fract_y
_atom_site_fract_z
Si Si1 0.108107 0.553863 0.784805
Si Si2 0.859520 0.143719 0.141427
Si Si3 0.485920 0.782851 0.927113
Si Si4 0.413919 0.246543 0.457882
Si Si5 0.394864 0.938029 0.733032
Si Si6 0.467960 0.370384 0.414806
Si Si7 0.296931 0.598205 0.506360
Si Si8 0.019028 0.708448 0.596958
O O1 0.878983 0.651870 0.724457
O O2 0.192123 0.601608 0.812578
O O3 0.000000 0.500000 0.500000
O O4 0.392490 0.459492 0.123246
O O5 0.726149 0.205003 0.210429
O O6 0.940650 0.204697 0.212153
O O7 0.636576 0.157051 0.769434
O O8 0.128316 0.015680 0.374256
O O9 0.325171 0.897218 0.748320
O O10 0.642998 0.669090 0.893082
O O11 0.706095 0.770372 0.296957
O O12 0.381964 0.174451 0.218043
O O13 0.525093 0.301862 0.570535
O O14 0.500000 0.000000 0.000000
O O15 0.259311 0.506100 0.334596
O O16 0.737255 0.341443 0.638137
O O17 0.085505 0.682226 0.466149
#
# Coordination Sequence:
#
# PCOD8023256 Si02
#       8
#     2   2   2   2   2   2   2   2
#     4  12  24  42  68 104 146 186 235 286 356 412
#     4  12  23  47  71 102 140 183 235 290 355 419
#     4  11  23  44  70 100 137 190 231 293 353 419
#     4  11  25  44  71 104 147 183 235 292 353 419
#     4  11  25  46  74 105 138 186 238 296 356 421
#     4  10  23  41  63  99 142 184 235 288 352 412
#     4  11  23  39  65 100 140 190 234 287 345 421
#     4  12  23  41  71 100 143 182 241 284 352 415
#
# _framework density 24.467189999999999
#
# number of rings (size 3 to 8) (size 9 to 14) (size 15 to 20)
#    0.000    0.750    3.750    4.125    0.000    6.000 
#    0.000    3.750    0.000    0.000    0.000    0.000 
#    0.000    0.000    0.000    0.000    0.000    0.000 
#
# Total GULP energy -198240.034966 kJ/mol
# GULP energy per Si atom -12390.002185 kJ/mol
# Density = 2.441150 g / cm^3
# Si number density = 24.467190 Si / 1000 Ang^3
#
#
#
# Elastic Constant Matrix: (Units=GPa)
#
#
# Indices 1 2 3 4 5 6 
#
# 1 110.0787 32.2011 6.6782 0.2591 5.1686 12.2094
# 2 32.2011 97.1589 31.2001 21.8332 6.0214 6.6647
# 3 6.6782 31.2001 82.9134 7.1469 4.5373 7.7789
# 4 0.2591 21.8332 7.1469 39.8927 2.5011 -0.8148
# 5 5.1686 6.0214 4.5373 2.5011 26.8553 -0.8703
# 6 12.2094 6.6647 7.7789 -0.8148 -0.8703 49.8376
#
#
#
# Elastic Compliance Matrix: (Units=1/GPa)
#
#
# Indices 1 2 3 4 5 6 
#
# 1 0.010493 -0.003923 0.000745 0.001997 -0.001521 -0.002156
# 2 -0.003923 0.014757 -0.004514 -0.007180 -0.001137 -0.000445
# 3 0.000745 -0.004514 0.013949 0.000027 -0.001548 -0.001783
# 4 0.001997 -0.007180 0.000027 0.029089 -0.001459 0.000917
# 5 -0.001521 -0.001137 -0.001548 -0.001459 0.038227 0.001410
# 6 -0.002156 -0.000445 -0.001783 0.000917 0.001410 0.020971
#
#
# Mechanical properties :
#
#
# Convention : Reuss Voigt Hill
#
# Bulk Modulus (GPa) = 41.99384 47.81220 44.90302
# Shear Modulus (GPa) = 33.15453 37.98856 35.57155
#
# Velocity S-wave (km/s) = 3.68511 3.94462 3.81707
# Velocity P-wave (km/s) = 5.94199 6.35063 6.14971
#
# Compressibility (1/GPa) = 0.02381301
#
# Stress axis : x y z
#
# Youngs Moduli (GPa) = 95.30368 67.76587 71.68945
#
# Poissons Ratio (x) = 0.26586 -0.05338
# Poissons Ratio (y) = 0.37390 0.32361
# Poissons Ratio (z) = -0.07096 0.30590
#
# Static dielectric constant tensor:
#      x y z
#    x 4.769060 0.264930 -0.122010 
#    y 0.264930 4.380860 0.179360 
#    z -0.122010 0.179360 4.147560 
# 
# 
# High freq. dielectric constant tensor:
#      x y z
#    x 1.989410 0.014820 -0.010030 
#    y 0.014820 1.966120 0.015050 
#    z -0.010030 0.015050 1.959000 
# 
# From -- ./inp_files/279742.got.cif
#   From: 2010.06.25/outbox.cif.g09.slc.cpg/sg2_140_cif.got.tgz:279742.got - 2010.06.27 13:26:56.
