data_PCOD8023933
_publ_section_title
;
Structure prediction by ZEFSAII (Michael W. Deem and Ramdas Pophale) SiO2 
 PCOD8023933
Probable space group: P -1
;
_chemical_formula_sum "Si O2"
_cell_formula_units_Z 14
_cell_length_a 9.481783
_cell_length_b 9.815583
_cell_length_c 13.751285
_cell_angle_alpha 138.850902
_cell_angle_beta 73.845233
_cell_angle_gamma 127.089183
_cell_volume 632.951393
_symmetry_space_group_name_H-M "P -1"
_symmetry_group_IT_number 2
_symmetry_cell_setting 'triclinic'
loop_
_space_group_symop_operation_xyz
x,y,z
-x,-y,-z
loop_
_atom_site_type_symbol
_atom_site_label
_atom_site_fract_x
_atom_site_fract_y
_atom_site_fract_z
Si Si1 0.654012 0.272026 0.722051
Si Si2 0.961491 0.970390 0.684516
Si Si3 0.331642 0.956800 0.223210
Si Si4 0.680102 0.873327 0.411633
Si Si5 0.995567 0.856619 0.017128
Si Si6 0.666420 0.519159 0.376163
Si Si7 0.287311 0.770829 0.936350
O O1 0.502593 0.288314 0.709653
O O2 0.567106 0.070862 0.722420
O O3 0.730689 0.159977 0.574301
O O4 0.815762 0.552975 0.886897
O O5 0.865519 0.104745 0.743103
O O6 0.810747 0.662788 0.515868
O O7 0.153324 0.101055 0.660216
O O8 0.999574 0.999613 0.808663
O O9 0.471909 0.252547 0.309300
O O10 0.270320 0.726907 0.032589
O O11 0.629007 0.710774 0.435493
O O12 0.178612 0.879359 0.984227
O O13 0.000000 0.000000 0.000000
O O14 0.771523 0.477283 0.249977
O O15 0.500000 0.000000 0.000000
#
# Coordination Sequence:
#
# PCOD8023933 Si02
#       7
#     2   2   2   2   2   2   2
#     4  11  26  45  65  96 144 173 228 274 345 392
#     4  11  24  41  72 100 128 179 228 271 332 395
#     4  10  23  42  68 100 133 182 220 279 329 398
#     4  11  26  43  70 101 136 181 216 287 333 398
#     4  11  27  45  67  99 142 178 219 283 342 398
#     4  11  22  43  74  99 138 173 233 267 336 405
#     4   9  22  40  68  98 130 176 225 270 322 400
#
# _framework density 22.118601999999999
#
# number of rings (size 3 to 8) (size 9 to 14) (size 15 to 20)
#    0.000    1.429    1.429    1.714   10.000    5.143 
#    0.000    2.143    0.000    0.000    0.000    0.000 
#    0.000    0.000    0.000    0.000    0.000    0.000 
#
# Total GULP energy -173505.523193 kJ/mol
# GULP energy per Si atom -12393.251657 kJ/mol
# Density = 2.206826 g / cm^3
# Si number density = 22.118602 Si / 1000 Ang^3
#
#
#
# Elastic Constant Matrix: (Units=GPa)
#
#
# Indices 1 2 3 4 5 6 
#
# 1 126.0400 67.4168 45.1596 -10.7275 14.2047 7.0922
# 2 67.4168 105.1531 39.9559 -5.1307 8.1375 -11.2385
# 3 45.1596 39.9559 152.3916 -21.1348 15.9178 3.4702
# 4 -10.7275 -5.1307 -21.1348 28.7486 -4.4143 0.6308
# 5 14.2047 8.1375 15.9178 -4.4143 33.7100 -9.1045
# 6 7.0922 -11.2385 3.4702 0.6308 -9.1045 39.3103
#
#
#
# Elastic Compliance Matrix: (Units=1/GPa)
#
#
# Indices 1 2 3 4 5 6 
#
# 1 0.014069 -0.008858 -0.000878 0.002435 -0.004711 -0.006123
# 2 -0.008858 0.016583 -0.002416 -0.001886 0.002561 0.007176
# 3 -0.000878 -0.002416 0.008517 0.005094 -0.002956 -0.002050
# 4 0.002435 -0.001886 0.005094 0.039404 0.001736 -0.001658
# 5 -0.004711 0.002561 -0.002956 0.001736 0.035356 0.010004
# 6 -0.006123 0.007176 -0.002050 -0.001658 0.010004 0.031119
#
#
# Mechanical properties :
#
#
# Convention : Reuss Voigt Hill
#
# Bulk Modulus (GPa) = 67.25827 76.51659 71.88743
# Shear Modulus (GPa) = 28.68496 35.75728 32.22112
#
# Velocity S-wave (km/s) = 3.60512 4.02508 3.82087
# Velocity P-wave (km/s) = 6.91398 7.50137 7.21366
#
# Compressibility (1/GPa) = 0.01486806
#
# Stress axis : x y z
#
# Youngs Moduli (GPa) = 71.07880 60.30114 117.40668
#
# Poissons Ratio (x) = 0.53412 0.10304
# Poissons Ratio (y) = 0.62959 0.28361
# Poissons Ratio (z) = 0.06238 0.14567
#
# Static dielectric constant tensor:
#      x y z
#    x 4.215550 -0.061800 -0.176640 
#    y -0.061800 5.558870 -1.271640 
#    z -0.176640 -1.271640 5.458220 
# 
# 
# High freq. dielectric constant tensor:
#      x y z
#    x 1.867130 0.003580 0.006750 
#    y 0.003580 1.856180 -0.022010 
#    z 0.006750 -0.022010 1.895420 
# 
# From -- ./inp_files/213528.got.cif
#   From: 2010.06.25/outbox.cif.g09.slc.cpg/sg2_107_cif.got.tgz:213528.got - 2010.06.27 13:26:56.
