data_PCOD8023947
_publ_section_title
;
Structure prediction by ZEFSAII (Michael W. Deem and Ramdas Pophale) SiO2 
 PCOD8023947
Probable space group: P -1
;
_chemical_formula_sum "Si O2"
_cell_formula_units_Z 14
_cell_length_a 25.493609
_cell_length_b 9.584859
_cell_length_c 11.709760
_cell_angle_alpha 140.023643
_cell_angle_beta 29.740431
_cell_angle_gamma 152.656093
_cell_volume 651.826159
_symmetry_space_group_name_H-M "P -1"
_symmetry_group_IT_number 2
_symmetry_cell_setting 'triclinic'
loop_
_space_group_symop_operation_xyz
x,y,z
-x,-y,-z
loop_
_atom_site_type_symbol
_atom_site_label
_atom_site_fract_x
_atom_site_fract_y
_atom_site_fract_z
Si Si1 0.639130 0.567073 0.822083
Si Si2 0.355918 0.717461 0.157989
Si Si3 0.669701 0.295477 0.389352
Si Si4 0.159070 0.814826 0.654501
Si Si5 0.863936 0.175502 0.897328
Si Si6 0.886395 0.907441 0.253420
Si Si7 0.122447 0.105606 0.095027
O O1 0.596116 0.401196 0.920183
O O2 0.686022 0.449085 0.571927
O O3 0.776312 0.926340 0.806515
O O4 0.500000 0.500000 0.000000
O O5 0.284036 0.811945 0.423470
O O6 0.241448 0.460948 0.120750
O O7 0.500000 0.000000 0.000000
O O8 0.741913 0.544207 0.307003
O O9 0.500000 0.000000 0.500000
O O10 0.759175 0.200348 0.173016
O O11 0.999132 0.485747 0.775160
O O12 0.164172 0.924414 0.584591
O O13 0.193038 0.048698 0.830604
O O14 0.922177 0.093424 0.832327
O O15 0.974479 0.016669 0.275417
O O16 0.000000 0.000000 0.000000
#
# Coordination Sequence:
#
# PCOD8023947 Si02
#       7
#     2   2   2   2   2   2   2
#     4  11  26  43  65  99 130 173 226 268 323 407
#     4  11  28  44  63  99 135 175 218 276 340 384
#     4  12  24  42  71  98 134 176 219 275 329 387
#     4  11  24  43  69  94 132 176 215 276 332 389
#     4  11  23  42  68  98 130 171 223 272 335 382
#     4  10  23  42  68 103 129 172 229 267 325 401
#     4  10  23  42  68  97 130 168 227 270 322 405
#
# _framework density 21.478120000000001
#
# number of rings (size 3 to 8) (size 9 to 14) (size 15 to 20)
#    0.000    1.143    4.286    1.286    6.000    5.714 
#    0.000    0.000    0.000    0.000    0.000    0.000 
#    0.000    0.000    0.000    0.000    0.000    0.000 
#
# Total GULP energy -173619.893657 kJ/mol
# GULP energy per Si atom -12401.420976 kJ/mol
# Density = 2.142923 g / cm^3
# Si number density = 21.478120 Si / 1000 Ang^3
#
#
#
# Elastic Constant Matrix: (Units=GPa)
#
#
# Indices 1 2 3 4 5 6 
#
# 1 114.4000 45.3972 18.2960 -1.5599 -13.2149 -0.6987
# 2 45.3972 128.8204 35.0045 -12.7896 11.0527 -9.7284
# 3 18.2960 35.0045 90.4353 1.0489 4.4357 10.5763
# 4 -1.5599 -12.7896 1.0489 42.5693 3.1599 8.5763
# 5 -13.2149 11.0527 4.4357 3.1599 35.6505 7.7187
# 6 -0.6987 -9.7284 10.5763 8.5763 7.7187 30.8592
#
#
#
# Elastic Compliance Matrix: (Units=1/GPa)
#
#
# Indices 1 2 3 4 5 6 
#
# 1 0.011390 -0.004694 -0.000511 -0.000975 0.006339 -0.002361
# 2 -0.004694 0.011766 -0.004002 0.002767 -0.006392 0.005804
# 3 -0.000511 -0.004002 0.013372 -0.000411 0.000705 -0.005919
# 4 -0.000975 0.002767 -0.000411 0.025583 -0.002232 -0.005561
# 5 0.006339 -0.006392 0.000705 -0.002232 0.034693 -0.010171
# 6 -0.002361 0.005804 -0.005919 -0.005561 -0.010171 0.040299
#
#
# Mechanical properties :
#
#
# Convention : Reuss Voigt Hill
#
# Bulk Modulus (GPa) = 55.20409 59.00567 57.10488
# Shear Modulus (GPa) = 30.94901 37.47968 34.21435
#
# Velocity S-wave (km/s) = 3.80011 4.18187 3.99555
# Velocity P-wave (km/s) = 6.70915 7.13088 6.92323
#
# Compressibility (1/GPa) = 0.01811460
#
# Stress axis : x y z
#
# Youngs Moduli (GPa) = 87.79449 84.99156 74.78140
#
# Poissons Ratio (x) = 0.39897 0.03820
# Poissons Ratio (y) = 0.41212 0.29927
# Poissons Ratio (z) = 0.04485 0.34013
#
# Static dielectric constant tensor:
#      x y z
#    x 4.417870 -0.196370 -0.284040 
#    y -0.196370 4.062920 0.061010 
#    z -0.284040 0.061010 3.148920 
# 
# 
# High freq. dielectric constant tensor:
#      x y z
#    x 1.848680 -0.006470 -0.007050 
#    y -0.006470 1.852500 0.005430 
#    z -0.007050 0.005430 1.840940 
# 
# From -- ./inp_files/283474.got.cif
#   From: 2010.06.25/outbox.cif.g09.slc.cpg/sg2_142_cif.got.tgz:283474.got - 2010.06.27 13:26:56.
