data_PCOD8023590
_publ_section_title
;
Structure prediction by ZEFSAII (Michael W. Deem and Ramdas Pophale) SiO2 
 PCOD8023590
Probable space group: P -1
;
_chemical_formula_sum "Si O2"
_cell_formula_units_Z 16
_cell_length_a 7.618258
_cell_length_b 11.417877
_cell_length_c 8.124688
_cell_angle_alpha 61.610951
_cell_angle_beta 109.029347
_cell_angle_gamma 108.250665
_cell_volume 577.028514
_symmetry_space_group_name_H-M "P -1"
_symmetry_group_IT_number 2
_symmetry_cell_setting 'triclinic'
loop_
_space_group_symop_operation_xyz
x,y,z
-x,-y,-z
loop_
_atom_site_type_symbol
_atom_site_label
_atom_site_fract_x
_atom_site_fract_y
_atom_site_fract_z
Si Si1 0.666361 0.094465 0.663120
Si Si2 0.353502 0.856324 0.754460
Si Si3 0.074484 0.008903 0.696992
Si Si4 0.794079 0.784987 0.873759
Si Si5 0.116033 0.638379 0.006937
Si Si6 0.547918 0.682239 0.568675
Si Si7 0.213374 0.495939 0.444202
Si Si8 0.055904 0.247173 0.728257
O O1 0.719345 0.128821 0.463636
O O2 0.494828 0.173159 0.607940
O O3 0.850896 0.161804 0.780567
O O4 0.580337 0.929145 0.779393
O O5 0.304624 0.700078 0.913321
O O6 0.254816 0.936572 0.807560
O O7 0.144220 0.162800 0.672850
O O8 0.000000 0.000000 0.500000
O O9 0.880384 0.948484 0.785339
O O10 0.609271 0.718146 0.755507
O O11 0.976480 0.742719 0.869698
O O12 0.787323 0.729909 0.094022
O O13 0.159690 0.610844 0.230475
O O14 0.000000 0.500000 0.000000
O O15 0.353460 0.571671 0.576280
O O16 0.696995 0.615361 0.557318
O O17 0.039126 0.396607 0.552073
#
# Coordination Sequence:
#
# PCOD8023590 Si02
#       8
#     2   2   2   2   2   2   2   2
#     4  11  23  43  70 105 141 176 231 289 355 396
#     4  10  23  41  71 104 138 182 227 291 345 410
#     4  11  21  44  74  97 138 186 231 281 347 415
#     4  11  25  43  70 105 138 179 236 289 345 402
#     4  11  22  44  74 101 138 187 236 276 342 421
#     4  11  25  47  69 100 144 182 230 292 341 414
#     4  11  25  48  72 101 138 191 236 271 353 420
#     4  12  25  44  75 105 138 184 232 289 341 421
#
# _framework density 27.728265
#
# number of rings (size 3 to 8) (size 9 to 14) (size 15 to 20)
#    0.000    1.000    2.500    4.125    1.750    3.500 
#    4.500    6.875    0.000    0.000    0.000    0.000 
#    0.000    0.000    0.000    0.000    0.000    0.000 
#
# Total GULP energy -198211.152723 kJ/mol
# GULP energy per Si atom -12388.197045 kJ/mol
# Density = 2.766515 g / cm^3
# Si number density = 27.728265 Si / 1000 Ang^3
#
#
#
# Elastic Constant Matrix: (Units=GPa)
#
#
# Indices 1 2 3 4 5 6 
#
# 1 60.0637 30.7596 23.9035 -4.6794 -1.4880 39.6126
# 2 30.7596 190.8329 78.3944 -0.3392 -8.3104 38.1830
# 3 23.9035 78.3944 147.4539 -6.5479 -5.9028 38.8809
# 4 -4.6794 -0.3392 -6.5479 54.1214 17.1928 -8.4905
# 5 -1.4880 -8.3104 -5.9028 17.1928 38.0868 -4.0577
# 6 39.6126 38.1830 38.8809 -8.4905 -4.0577 50.5950
#
#
#
# Elastic Compliance Matrix: (Units=1/GPa)
#
#
# Indices 1 2 3 4 5 6 
#
# 1 0.035091 -0.000888 0.002294 -0.000846 -0.001154 -0.028801
# 2 -0.000888 0.007178 -0.003012 -0.001217 0.001347 -0.002504
# 3 0.002294 -0.003012 0.009892 0.000232 0.000107 -0.007077
# 4 -0.000846 -0.001217 0.000232 0.022230 -0.009835 0.004344
# 5 -0.001154 0.001347 0.000107 -0.009835 0.031029 0.000643
# 6 -0.028801 -0.002504 -0.007077 0.004344 0.000643 0.050423
#
#
# Mechanical properties :
#
#
# Convention : Reuss Voigt Hill
#
# Bulk Modulus (GPa) = 20.42933 73.82953 47.12943
# Shear Modulus (GPa) = 28.51093 46.24683 37.37888
#
# Velocity S-wave (km/s) = 3.21008 4.08837 3.67555
# Velocity P-wave (km/s) = 4.59599 6.99788 5.92003
#
# Compressibility (1/GPa) = 0.04894923
#
# Stress axis : x y z
#
# Youngs Moduli (GPa) = 28.49747 139.31113 101.09091
#
# Poissons Ratio (x) = 0.12364 -0.23190
# Poissons Ratio (y) = 0.02529 0.30452
# Poissons Ratio (z) = -0.06537 0.41966
#
# Static dielectric constant tensor:
#      x y z
#    x 5.686910 -0.257800 -0.018950 
#    y -0.257800 4.511890 1.128470 
#    z -0.018950 1.128470 2.784120 
# 
# 
# High freq. dielectric constant tensor:
#      x y z
#    x 2.146220 -0.018800 0.006590 
#    y -0.018800 2.154080 -0.012430 
#    z 0.006590 -0.012430 2.083830 
# 
# From -- ./inp_files/185252.got.cif
#   From: 2010.06.25/outbox.cif.g09.slc.cpg/sg2_93_cif.got.tgz:185252.got - 2010.06.27 13:26:56.
