data_PCOD8023321
_publ_section_title
;
Structure prediction by ZEFSAII (Michael W. Deem and Ramdas Pophale) SiO2 
 PCOD8023321
Probable space group: P -1
;
_chemical_formula_sum "Si O2"
_cell_formula_units_Z 16
_cell_length_a 11.686943
_cell_length_b 8.554519
_cell_length_c 21.390386
_cell_angle_alpha 111.585174
_cell_angle_beta 140.797017
_cell_angle_gamma 41.004949
_cell_volume 755.907552
_symmetry_space_group_name_H-M "P -1"
_symmetry_group_IT_number 2
_symmetry_cell_setting 'triclinic'
loop_
_space_group_symop_operation_xyz
x,y,z
-x,-y,-z
loop_
_atom_site_type_symbol
_atom_site_label
_atom_site_fract_x
_atom_site_fract_y
_atom_site_fract_z
Si Si1 0.147446 0.259446 0.771971
Si Si2 0.709311 0.189078 0.184316
Si Si3 0.852897 0.476831 0.082300
Si Si4 0.512318 0.895256 0.759873
Si Si5 0.913505 0.751035 0.481782
Si Si6 0.069541 0.064584 0.204206
Si Si7 0.595510 0.875773 0.590606
Si Si8 0.463920 0.549859 0.722085
O O1 0.228026 0.316222 0.872901
O O2 0.858451 0.541929 0.653170
O O3 0.081709 0.119061 0.747903
O O4 0.432711 0.041506 0.813802
O O5 0.634562 0.372442 0.235707
O O6 0.878950 0.166925 0.200082
O O7 0.399752 0.338487 0.050274
O O8 0.173450 0.266827 0.154714
O O9 0.853543 0.298394 0.093013
O O10 0.536425 0.677713 0.744302
O O11 0.241794 0.139456 0.634951
O O12 0.000000 0.500000 0.500000
O O13 0.203059 0.656311 0.586536
O O14 0.687659 0.994582 0.474150
O O15 0.311675 0.027917 0.317435
O O16 0.229455 0.782050 0.203181
O O17 0.500000 0.000000 0.500000
#
# Coordination Sequence:
#
# PCOD8023321 Si02
#       8
#     2   2   2   2   2   2   2   2
#     4  10  23  41  65  95 126 170 218 264 321 384
#     4  11  25  43  65  95 134 169 219 271 323 379
#     4  11  23  44  67  94 127 177 219 267 321 383
#     4  11  23  42  65  96 132 166 220 265 325 385
#     4  12  21  42  65  92 133 168 212 264 321 391
#     4  11  23  41  63  94 130 166 217 268 321 383
#     4  11  22  40  65  93 129 172 216 259 322 388
#     4  11  25  41  63  99 130 168 213 269 327 386
#
# _framework density 21.166609999999999
#
# number of rings (size 3 to 8) (size 9 to 14) (size 15 to 20)
#    0.000    1.000    3.750    3.375    0.000    6.500 
#    0.000    1.875    0.000    0.000    0.000    0.000 
#    0.000    0.000    0.000    0.000    0.000    0.000 
#
# Total GULP energy -198471.809531 kJ/mol
# GULP energy per Si atom -12404.488096 kJ/mol
# Density = 2.111843 g / cm^3
# Si number density = 21.166610 Si / 1000 Ang^3
#
#
#
# Elastic Constant Matrix: (Units=GPa)
#
#
# Indices 1 2 3 4 5 6 
#
# 1 117.7550 31.6395 6.2636 -13.5747 -1.5989 -4.0606
# 2 31.6395 105.6177 5.7908 -17.9833 -5.6273 -3.3395
# 3 6.2636 5.7908 63.1151 -6.2204 -7.1192 -1.5300
# 4 -13.5747 -17.9833 -6.2204 19.8331 4.2026 -7.8139
# 5 -1.5989 -5.6273 -7.1192 4.2026 26.5166 -6.1254
# 6 -4.0606 -3.3395 -1.5300 -7.8139 -6.1254 33.5299
#
#
#
# Elastic Compliance Matrix: (Units=1/GPa)
#
#
# Indices 1 2 3 4 5 6 
#
# 1 0.009756 -0.001846 -0.000189 0.005913 -0.000255 0.002321
# 2 -0.001846 0.012083 0.000447 0.010995 0.001726 0.003878
# 3 -0.000189 0.000447 0.016964 0.005830 0.004397 0.002958
# 4 0.005913 0.010995 0.005830 0.074357 -0.003181 0.018824
# 5 -0.000255 0.001726 0.004397 -0.003181 0.041403 0.007164
# 6 0.002321 0.003878 0.002958 0.018824 0.007164 0.036322
#
#
# Mechanical properties :
#
#
# Convention : Reuss Voigt Hill
#
# Bulk Modulus (GPa) = 28.06716 41.54173 34.80445
# Shear Modulus (GPa) = 24.27933 32.16220 28.22076
#
# Velocity S-wave (km/s) = 3.39050 3.90228 3.65536
# Velocity P-wave (km/s) = 5.34941 6.32237 5.85613
#
# Compressibility (1/GPa) = 0.03562883
#
# Stress axis : x y z
#
# Youngs Moduli (GPa) = 102.49671 82.75924 58.94811
#
# Poissons Ratio (x) = 0.15275 0.01112
# Poissons Ratio (y) = 0.18918 -0.02634
# Poissons Ratio (z) = 0.01933 -0.03698
#
# Static dielectric constant tensor:
#      x y z
#    x 4.021850 -0.032940 -0.217150 
#    y -0.032940 3.910160 -0.128610 
#    z -0.217150 -0.128610 3.856240 
# 
# 
# High freq. dielectric constant tensor:
#      x y z
#    x 1.843000 -0.003660 -0.011280 
#    y -0.003660 1.839230 -0.011260 
#    z -0.011280 -0.011260 1.823040 
# 
# From -- ./inp_files/256031.got.cif
#   From: 2010.06.25/outbox.cif.g09.slc.cpg/sg2_129_cif.got.tgz:256031.got - 2010.06.27 13:26:56.
