data_PCOD8023605
_publ_section_title
;
Structure prediction by ZEFSAII (Michael W. Deem and Ramdas Pophale) SiO2 
 PCOD8023605
Probable space group: P -1
;
_chemical_formula_sum "Si O2"
_cell_formula_units_Z 16
_cell_length_a 9.727379
_cell_length_b 5.476735
_cell_length_c 16.880656
_cell_angle_alpha 49.470367
_cell_angle_beta 99.748203
_cell_angle_gamma 94.531297
_cell_volume 673.087144
_symmetry_space_group_name_H-M "P -1"
_symmetry_group_IT_number 2
_symmetry_cell_setting 'triclinic'
loop_
_space_group_symop_operation_xyz
x,y,z
-x,-y,-z
loop_
_atom_site_type_symbol
_atom_site_label
_atom_site_fract_x
_atom_site_fract_y
_atom_site_fract_z
Si Si1 0.821401 0.815563 0.875311
Si Si2 0.872712 0.157797 0.074945
Si Si3 0.671932 0.352683 0.334172
Si Si4 0.380726 0.630463 0.249719
Si Si5 0.158042 0.572533 0.515931
Si Si6 0.151701 0.189202 0.291021
Si Si7 0.381364 0.317703 0.483171
Si Si8 0.853502 0.435015 0.193104
O O1 0.866341 0.971490 0.762692
O O2 0.962872 0.860791 0.930872
O O3 0.680763 0.007986 0.849440
O O4 0.795352 0.432487 0.954914
O O5 0.843259 0.276923 0.138434
O O6 0.810111 0.816390 0.117031
O O7 0.545379 0.614781 0.248899
O O8 0.790426 0.485241 0.376554
O O9 0.745591 0.256747 0.278350
O O10 0.589519 0.070179 0.432520
O O11 0.285139 0.398401 0.239158
O O12 0.351159 0.508168 0.360754
O O13 0.241135 0.328948 0.518642
O O14 0.000000 0.500000 0.500000
O O15 0.185386 0.940248 0.417311
O O16 0.009171 0.392118 0.254102
O O17 0.500000 0.500000 0.500000
#
# Coordination Sequence:
#
# PCOD8023605 Si02
#       8
#     2   2   2   2   2   2   2   2
#     4  10  23  41  72 100 129 174 235 299 346 405
#     4  10  24  46  72 101 136 176 235 301 354 406
#     4  12  28  42  64 100 145 188 224 286 346 422
#     4  12  23  42  66  99 135 178 234 282 346 414
#     4  12  26  40  66  99 142 183 228 281 346 417
#     4  11  23  41  68 100 133 177 235 286 344 416
#     4  12  24  43  65  96 139 186 233 280 340 414
#     4  11  26  45  69 102 140 183 231 289 359 418
#
# _framework density 23.771066999999999
#
# number of rings (size 3 to 8) (size 9 to 14) (size 15 to 20)
#    0.000    0.750    5.000    1.875    8.750    2.500 
#    0.000    1.250    0.000    0.000    0.000    0.000 
#    0.000    0.000    0.000    0.000    0.000    0.000 
#
# Total GULP energy -198246.212469 kJ/mol
# GULP energy per Si atom -12390.388279 kJ/mol
# Density = 2.371696 g / cm^3
# Si number density = 23.771067 Si / 1000 Ang^3
#
#
#
# Elastic Constant Matrix: (Units=GPa)
#
#
# Indices 1 2 3 4 5 6 
#
# 1 130.2057 13.2055 24.2607 5.5163 23.9290 -3.7633
# 2 13.2055 68.8115 16.0014 -8.5306 12.2914 -1.3753
# 3 24.2607 16.0014 87.0303 -13.8031 15.8918 -7.9580
# 4 5.5163 -8.5306 -13.8031 39.9621 -8.2843 -6.0863
# 5 23.9290 12.2914 15.8918 -8.2843 36.4779 -4.9439
# 6 -3.7633 -1.3753 -7.9580 -6.0863 -4.9439 30.3483
#
#
#
# Elastic Compliance Matrix: (Units=1/GPa)
#
#
# Indices 1 2 3 4 5 6 
#
# 1 0.009348 -0.000716 -0.002050 -0.003552 -0.005952 -0.001093
# 2 -0.000716 0.015996 -0.001726 0.002158 -0.003676 0.000017
# 3 -0.002050 -0.001726 0.013959 0.004800 -0.002539 0.003877
# 4 -0.003552 0.002158 0.004800 0.030454 0.007546 0.008253
# 5 -0.005952 -0.003676 -0.002539 0.007546 0.036167 0.005835
# 6 -0.001093 0.000017 0.003877 0.008253 0.005835 0.036438
#
#
# Mechanical properties :
#
#
# Convention : Reuss Voigt Hill
#
# Bulk Modulus (GPa) = 32.98575 43.66474 38.32525
# Shear Modulus (GPa) = 30.96880 36.86299 33.91589
#
# Velocity S-wave (km/s) = 3.61334 3.94223 3.78136
# Velocity P-wave (km/s) = 5.59597 6.25542 5.93486
#
# Compressibility (1/GPa) = 0.03031612
#
# Stress axis : x y z
#
# Youngs Moduli (GPa) = 106.97947 62.51671 71.64023
#
# Poissons Ratio (x) = 0.04476 0.14690
# Poissons Ratio (y) = 0.07660 0.12368
# Poissons Ratio (z) = 0.21936 0.10793
#
# Static dielectric constant tensor:
#      x y z
#    x -4.834940 -1.928040 -10.973100 
#    y -1.928040 3.625020 -2.279250 
#    z -10.973100 -2.279250 -9.168290 
# 
# 
# High freq. dielectric constant tensor:
#      x y z
#    x 1.928830 -0.011970 0.013890 
#    y -0.011970 1.933920 -0.005100 
#    z 0.013890 -0.005100 1.945660 
# 
# From -- ./inp_files/49356.got.cif
#   From: 2010.06.25/outbox.cif.g09.slc.cpg/sg2_25_cif.got.tgz:49356.got - 2010.06.27 13:26:56.
