data_PCOD8023508
_publ_section_title
;
Structure prediction by ZEFSAII (Michael W. Deem and Ramdas Pophale) SiO2 
 PCOD8023508
Probable space group: P -1
;
_chemical_formula_sum "Si O2"
_cell_formula_units_Z 16
_cell_length_a 8.374623
_cell_length_b 8.255338
_cell_length_c 10.960978
_cell_angle_alpha 93.719300
_cell_angle_beta 92.994908
_cell_angle_gamma 63.903486
_cell_volume 678.866372
_symmetry_space_group_name_H-M "P -1"
_symmetry_group_IT_number 2
_symmetry_cell_setting 'triclinic'
loop_
_space_group_symop_operation_xyz
x,y,z
-x,-y,-z
loop_
_atom_site_type_symbol
_atom_site_label
_atom_site_fract_x
_atom_site_fract_y
_atom_site_fract_z
Si Si1 0.745258 0.663573 0.333635
Si Si2 0.444866 0.772426 0.801714
Si Si3 0.136861 0.954373 0.114370
Si Si4 0.469096 0.131324 0.873143
Si Si5 0.131922 0.695624 0.820393
Si Si6 0.080990 0.661408 0.254314
Si Si7 0.623194 0.582233 0.567823
Si Si8 0.742425 0.550185 0.961143
O O1 0.563648 0.787014 0.260872
O O2 0.834414 0.455190 0.285918
O O3 0.701373 0.670640 0.474285
O O4 0.885213 0.743406 0.309789
O O5 0.242358 0.807616 0.794865
O O6 0.512304 0.743923 0.663764
O O7 0.563150 0.590841 0.877267
O O8 0.469402 0.937644 0.872512
O O9 0.341394 0.881436 0.075513
O O10 0.120151 0.815339 0.201577
O O11 0.073670 0.153028 0.184838
O O12 0.000000 0.000000 0.000000
O O13 0.299841 0.268376 0.954501
O O14 0.200111 0.619599 0.955384
O O15 0.216033 0.577992 0.366198
O O16 0.102161 0.509296 0.140844
O O17 0.500000 0.500000 0.500000
#
# Coordination Sequence:
#
# PCOD8023508 Si02
#       8
#     2   2   2   2   2   2   2   2
#     4  11  25  47  71 101 137 185 238 283 342 408
#     4  11  23  42  70 102 136 180 232 286 349 404
#     4  12  25  43  67 104 147 181 226 284 346 412
#     4  11  26  43  70 102 143 180 231 281 349 414
#     4  11  23  40  68  98 144 176 226 283 351 412
#     4  11  25  44  71 102 141 184 231 286 347 410
#     4  11  23  46  77 100 135 182 239 290 343 404
#     4  10  23  41  68  98 139 183 226 275 347 417
#
# _framework density 23.568705000000001
#
# number of rings (size 3 to 8) (size 9 to 14) (size 15 to 20)
#    0.000    1.000    2.500    3.375    8.750    4.500 
#    0.000    0.625    0.000    0.000    0.000    0.000 
#    0.000    0.000    0.000    0.000    0.000    0.000 
#
# Total GULP energy -198340.834374 kJ/mol
# GULP energy per Si atom -12396.302148 kJ/mol
# Density = 2.351506 g / cm^3
# Si number density = 23.568705 Si / 1000 Ang^3
#
#
#
# Elastic Constant Matrix: (Units=GPa)
#
#
# Indices 1 2 3 4 5 6 
#
# 1 95.2017 27.9022 33.4471 -0.6047 -12.7346 -5.7009
# 2 27.9022 103.6777 33.9603 -15.6778 -6.7313 -9.6223
# 3 33.4471 33.9603 132.0430 -21.4549 -16.7032 -8.5921
# 4 -0.6047 -15.6778 -21.4549 35.6257 -0.3232 0.7891
# 5 -12.7346 -6.7313 -16.7032 -0.3232 34.4521 0.2793
# 6 -5.7009 -9.6223 -8.5921 0.7891 0.2793 35.7713
#
#
#
# Elastic Compliance Matrix: (Units=1/GPa)
#
#
# Indices 1 2 3 4 5 6 
#
# 1 0.012578 -0.002689 -0.002481 -0.002453 0.002892 0.000717
# 2 -0.002689 0.011725 -0.001421 0.004213 0.000629 0.002286
# 3 -0.002481 -0.001421 0.010001 0.005356 0.003692 0.001477
# 4 -0.002453 0.004213 0.005356 0.033105 0.002813 0.001277
# 5 0.002892 0.000629 0.003692 0.002813 0.032024 0.001205
# 6 0.000717 0.002286 0.001477 0.001277 0.001205 0.029002
#
#
# Mechanical properties :
#
#
# Convention : Reuss Voigt Hill
#
# Bulk Modulus (GPa) = 47.34663 57.94905 52.64784
# Shear Modulus (GPa) = 33.63455 36.87736 35.25595
#
# Velocity S-wave (km/s) = 3.78178 3.95989 3.87186
# Velocity P-wave (km/s) = 6.26111 6.74895 6.50960
#
# Compressibility (1/GPa) = 0.02112083
#
# Stress axis : x y z
#
# Youngs Moduli (GPa) = 79.50461 85.29027 99.99366
#
# Poissons Ratio (x) = 0.22936 0.24804
# Poissons Ratio (y) = 0.21380 0.14214
# Poissons Ratio (z) = 0.19721 0.12124
#
# Static dielectric constant tensor:
#      x y z
#    x 4.145180 -0.370440 -0.163940 
#    y -0.370440 4.519380 0.022440 
#    z -0.163940 0.022440 4.411880 
# 
# 
# High freq. dielectric constant tensor:
#      x y z
#    x 1.926980 -0.015870 -0.010570 
#    y -0.015870 1.938150 -0.006960 
#    z -0.010570 -0.006960 1.933940 
# 
# From -- ./inp_files/379171.got.cif
#   From: 2010.06.25/outbox.cif.g09.slc.cpg/sg2_190_cif.got.tgz:379171.got - 2010.06.27 13:26:56.
