data_PCOD8023440
_publ_section_title
;
Structure prediction by ZEFSAII (Michael W. Deem and Ramdas Pophale) SiO2 
 PCOD8023440
Probable space group: P -1
;
_chemical_formula_sum "Si O2"
_cell_formula_units_Z 14
_cell_length_a 12.197066
_cell_length_b 9.597767
_cell_length_c 9.196082
_cell_angle_alpha 57.474753
_cell_angle_beta 78.112863
_cell_angle_gamma 49.936934
_cell_volume 678.120550
_symmetry_space_group_name_H-M "P -1"
_symmetry_group_IT_number 2
_symmetry_cell_setting 'triclinic'
loop_
_space_group_symop_operation_xyz
x,y,z
-x,-y,-z
loop_
_atom_site_type_symbol
_atom_site_label
_atom_site_fract_x
_atom_site_fract_y
_atom_site_fract_z
Si Si1 0.104078 0.008520 0.653605
Si Si2 0.432159 0.726184 0.824357
Si Si3 0.924869 0.421624 0.648744
Si Si4 0.577743 0.959536 0.152243
Si Si5 0.116440 0.307311 0.914538
Si Si6 0.020180 0.223282 0.255065
Si Si7 0.579645 0.772725 0.528843
O O1 0.110609 0.099004 0.446890
O O2 0.971754 0.208034 0.675076
O O3 0.257224 0.883808 0.765389
O O4 0.072352 0.846723 0.729743
O O5 0.481956 0.825962 0.863035
O O6 0.506169 0.679310 0.670339
O O7 0.500000 0.500000 0.000000
O O8 0.752343 0.608033 0.601199
O O9 0.000000 0.500000 0.500000
O O10 0.976516 0.370802 0.830122
O O11 0.746228 0.840187 0.145026
O O12 0.556813 0.814394 0.337887
O O13 0.500000 0.000000 0.000000
O O14 0.097954 0.518080 0.838569
O O15 0.135151 0.176755 0.127154
O O16 0.500000 0.000000 0.500000
#
# Coordination Sequence:
#
# PCOD8023440 Si02
#       7
#     2   2   2   2   2   2   2
#     4  11  23  45  64  92 133 168 215 261 326 378
#     4  11  26  44  63  93 132 174 211 264 326 384
#     4  12  20  41  71  93 125 165 221 260 313 387
#     4  11  24  42  66  92 129 167 220 264 318 384
#     4  11  23  41  67  98 123 167 219 267 318 376
#     4  10  25  38  67  96 126 164 209 275 315 375
#     4  10  23  41  67  95 124 174 210 261 323 386
#
# _framework density 20.645295999999998
#
# number of rings (size 3 to 8) (size 9 to 14) (size 15 to 20)
#    0.000    1.143    4.286    0.857    6.000    4.000 
#    0.000    0.714    0.000    0.000    0.000    0.000 
#    0.000    0.000    0.000    0.000    0.000    0.000 
#
# Total GULP energy -173574.767371 kJ/mol
# GULP energy per Si atom -12398.197669 kJ/mol
# Density = 2.059831 g / cm^3
# Si number density = 20.645296 Si / 1000 Ang^3
#
#
#
# Elastic Constant Matrix: (Units=GPa)
#
#
# Indices 1 2 3 4 5 6 
#
# 1 81.8817 47.5700 55.7669 -4.1133 9.1707 0.1011
# 2 47.5700 105.0012 62.8765 4.1125 0.7338 -9.8258
# 3 55.7669 62.8765 169.0108 2.8970 -9.2096 3.5950
# 4 -4.1133 4.1125 2.8970 30.8053 -0.8529 2.1890
# 5 9.1707 0.7338 -9.2096 -0.8529 43.9035 1.5761
# 6 0.1011 -9.8258 3.5950 2.1890 1.5761 42.5577
#
#
#
# Elastic Compliance Matrix: (Units=1/GPa)
#
#
# Indices 1 2 3 4 5 6 
#
# 1 0.019735 -0.006551 -0.004378 0.003874 -0.004812 -0.001211
# 2 -0.006551 0.015038 -0.003457 -0.002830 0.000196 0.003918
# 3 -0.004378 -0.003457 0.008851 -0.000762 0.002872 -0.001603
# 4 0.003874 -0.002830 -0.000762 0.033588 -0.000186 -0.002319
# 5 -0.004812 0.000196 0.002872 -0.000186 0.024417 -0.001081
# 6 -0.001211 0.003918 -0.001603 -0.002319 -0.001081 0.024700
#
#
# Mechanical properties :
#
#
# Convention : Reuss Voigt Hill
#
# Bulk Modulus (GPa) = 67.32744 76.48006 71.90375
# Shear Modulus (GPa) = 31.24018 36.09864 33.66941
#
# Velocity S-wave (km/s) = 3.89419 4.18606 4.04276
# Velocity P-wave (km/s) = 7.27337 7.77749 7.52965
#
# Compressibility (1/GPa) = 0.01485279
#
# Stress axis : x y z
#
# Youngs Moduli (GPa) = 50.67131 66.49940 112.98212
#
# Poissons Ratio (x) = 0.43563 0.49459
# Poissons Ratio (y) = 0.33194 0.39059
# Poissons Ratio (z) = 0.22182 0.22989
#
# Static dielectric constant tensor:
#      x y z
#    x 3.723250 -0.200670 -0.201720 
#    y -0.200670 4.090040 0.302680 
#    z -0.201720 0.302680 4.287110 
# 
# 
# High freq. dielectric constant tensor:
#      x y z
#    x 1.789830 -0.003410 -0.001570 
#    y -0.003410 1.809960 0.008460 
#    z -0.001570 0.008460 1.828080 
# 
# From -- ./inp_files/159138.got.cif
#   From: 2010.06.25/outbox.cif.g09.slc.cpg/sg2_80_cif.got.tgz:159138.got - 2010.06.27 13:26:56.
