data_PCOD8023296
_publ_section_title
;
Structure prediction by ZEFSAII (Michael W. Deem and Ramdas Pophale) SiO2 
 PCOD8023296
Probable space group: P -1
;
_chemical_formula_sum "Si O2"
_cell_formula_units_Z 14
_cell_length_a 6.840103
_cell_length_b 16.284958
_cell_length_c 8.460071
_cell_angle_alpha 43.926676
_cell_angle_beta 98.343096
_cell_angle_gamma 99.929667
_cell_volume 643.665306
_symmetry_space_group_name_H-M "P -1"
_symmetry_group_IT_number 2
_symmetry_cell_setting 'triclinic'
loop_
_space_group_symop_operation_xyz
x,y,z
-x,-y,-z
loop_
_atom_site_type_symbol
_atom_site_label
_atom_site_fract_x
_atom_site_fract_y
_atom_site_fract_z
Si Si1 0.239383 0.181353 0.018148
Si Si2 0.631594 0.047548 0.802681
Si Si3 0.266765 0.609347 0.971750
Si Si4 0.420447 0.627830 0.301626
Si Si5 0.605251 0.793873 0.646803
Si Si6 0.108633 0.737309 0.312114
Si Si7 0.879836 0.651319 0.698661
O O1 0.283227 0.176837 0.215664
O O2 0.249325 0.053036 0.120445
O O3 0.394422 0.272996 0.816663
O O4 0.017641 0.219254 0.910821
O O5 0.492657 0.091606 0.586280
O O6 0.793308 0.151119 0.733684
O O7 0.500000 0.000000 0.000000
O O8 0.288573 0.637653 0.118710
O O9 0.266721 0.469218 0.132184
O O10 0.444385 0.679882 0.798835
O O11 0.058803 0.653819 0.838964
O O12 0.500000 0.500000 0.500000
O O13 0.277782 0.654416 0.393528
O O14 0.760638 0.762361 0.575008
O O15 0.958758 0.659212 0.518047
#
# Coordination Sequence:
#
# PCOD8023296 Si02
#       7
#     2   2   2   2   2   2   2
#     4  11  25  45  68 100 136 180 220 277 334 396
#     4  12  24  46  71  97 135 178 227 277 333 396
#     4  10  23  41  64  97 139 174 224 270 335 397
#     4  11  25  43  68  99 138 177 221 276 339 395
#     4  11  24  44  67  98 137 177 224 273 335 393
#     4  12  25  44  70 102 136 172 229 274 335 397
#     4  11  23  40  69 100 135 179 223 273 334 394
#
# _framework density 21.750433000000001
#
# number of rings (size 3 to 8) (size 9 to 14) (size 15 to 20)
#    0.000    0.857    2.857    3.857    2.000    6.857 
#    0.000    1.429    0.000    0.000    0.000    0.000 
#    0.000    0.000    0.000    0.000    0.000    0.000 
#
# Total GULP energy -173663.914595 kJ/mol
# GULP energy per Si atom -12404.565328 kJ/mol
# Density = 2.170093 g / cm^3
# Si number density = 21.750433 Si / 1000 Ang^3
#
#
#
# Elastic Constant Matrix: (Units=GPa)
#
#
# Indices 1 2 3 4 5 6 
#
# 1 86.0814 57.9373 39.7911 -9.5529 6.6743 -20.3783
# 2 57.9373 108.2548 40.8288 -9.6875 9.9731 -7.5857
# 3 39.7911 40.8288 120.0244 0.2339 8.6319 -4.3587
# 4 -9.5529 -9.6875 0.2339 11.3690 -19.5577 -0.1491
# 5 6.6743 9.9731 8.6319 -19.5577 27.3206 0.3792
# 6 -20.3783 -7.5857 -4.3587 -0.1491 0.3792 39.6886
#
#
#
# Elastic Compliance Matrix: (Units=1/GPa)
#
#
# Indices 1 2 3 4 5 6 
#
# 1 0.019192 -0.009848 -0.001179 -0.027794 -0.020728 0.007936
# 2 -0.009848 0.015211 -0.001744 -0.001218 -0.003435 -0.002312
# 3 -0.001179 -0.001744 0.008164 0.023720 0.015327 -0.000100
# 4 -0.027794 -0.001218 0.023720 -0.271104 -0.194178 -0.011062
# 5 -0.020728 -0.003435 0.015327 -0.194178 -0.100796 -0.009383
# 6 0.007936 -0.002312 -0.000100 -0.011062 -0.009383 0.028866
#
#
# Mechanical properties :
#
#
# Convention : Reuss Voigt Hill
#
# Bulk Modulus (GPa) = 58.74190 65.71945 62.23067
# Shear Modulus (GPa) = -18.57014 27.39587 4.41287
#
# Velocity S-wave (km/s) = -2.92513 3.55287 1.42593
# Velocity P-wave (km/s) = 3.95694 6.86377 5.60218
#
# Compressibility (1/GPa) = 0.01702362
#
# Stress axis : x y z
#
# Youngs Moduli (GPa) = 52.10602 65.74031 122.49169
#
# Poissons Ratio (x) = 0.64741 0.14447
# Poissons Ratio (y) = 0.51314 0.21364
# Poissons Ratio (z) = 0.06146 0.11466
#
# Static dielectric constant tensor:
#      x y z
#    x 3.930790 0.213880 0.071920 
#    y 0.213880 3.942600 0.021950 
#    z 0.071920 0.021950 4.163990 
# 
# 
# High freq. dielectric constant tensor:
#      x y z
#    x 1.860290 0.008160 0.009780 
#    y 0.008160 1.861430 0.005370 
#    z 0.009780 0.005370 1.862160 
# 
# From -- ./inp_files/27731.got.cif
#   From: 2010.06.25/outbox.cif.g09.slc.cpg/sg2_14_cif.got.tgz:27731.got - 2010.06.27 13:26:56.
