data_PCOD8023646
_publ_section_title
;
Structure prediction by ZEFSAII (Michael W. Deem and Ramdas Pophale) SiO2 
 PCOD8023646
Probable space group: P -1
;
_chemical_formula_sum "Si O2"
_cell_formula_units_Z 16
_cell_length_a 15.374728
_cell_length_b 12.594880
_cell_length_c 8.962439
_cell_angle_alpha 106.163941
_cell_angle_beta 73.085055
_cell_angle_gamma 154.118940
_cell_volume 724.211070
_symmetry_space_group_name_H-M "P -1"
_symmetry_group_IT_number 2
_symmetry_cell_setting 'triclinic'
loop_
_space_group_symop_operation_xyz
x,y,z
-x,-y,-z
loop_
_atom_site_type_symbol
_atom_site_label
_atom_site_fract_x
_atom_site_fract_y
_atom_site_fract_z
Si Si1 0.336836 0.663402 0.883167
Si Si2 0.280230 0.365271 0.895036
Si Si3 0.810053 0.054420 0.412821
Si Si4 0.727323 0.211355 0.477023
Si Si5 0.909082 0.837721 0.771340
Si Si6 0.464727 0.518943 0.365016
Si Si7 0.982498 0.634174 0.296704
Si Si8 0.718439 0.206430 0.815585
O O1 0.386288 0.595186 0.887708
O O2 0.147516 0.438335 0.782950
O O3 0.508481 0.913208 0.804745
O O4 0.286560 0.681860 0.059517
O O5 0.449198 0.459836 0.806201
O O6 0.235654 0.318148 0.074376
O O7 0.074682 0.114661 0.809468
O O8 0.783260 0.144835 0.382103
O O9 0.974222 0.153614 0.289448
O O10 0.873838 0.131718 0.585319
O O11 0.586489 0.764524 0.406073
O O12 0.840973 0.415399 0.392916
O O13 0.797053 0.309994 0.649368
O O14 0.500000 0.000000 0.500000
O O15 0.768935 0.707310 0.644193
O O16 0.500000 0.500000 0.500000
O O17 0.117320 0.696448 0.153794
#
# Coordination Sequence:
#
# PCOD8023646 Si02
#       8
#     2   2   2   2   2   2   2   2
#     4  11  24  40  66  93 136 169 215 272 329 380
#     4  10  25  43  69  96 129 181 217 272 332 394
#     4  10  25  40  68  97 125 177 216 270 335 387
#     4  11  23  42  68  96 136 170 223 269 324 396
#     4  10  24  48  66  95 133 169 233 266 329 404
#     4  11  26  42  70 100 130 166 223 278 338 390
#     4  11  24  41  66  93 133 169 220 266 323 395
#     4  10  23  42  58  98 129 173 218 258 327 400
#
# _framework density 22.093007
#
# number of rings (size 3 to 8) (size 9 to 14) (size 15 to 20)
#    0.000    1.500    1.250    2.250   12.250    1.000 
#    0.000    0.000    0.000    0.000    0.000    0.000 
#    0.000    0.000    0.000    0.000    0.000    0.000 
#
# Total GULP energy -198315.714809 kJ/mol
# GULP energy per Si atom -12394.732176 kJ/mol
# Density = 2.204272 g / cm^3
# Si number density = 22.093007 Si / 1000 Ang^3
#
#
#
# Elastic Constant Matrix: (Units=GPa)
#
#
# Indices 1 2 3 4 5 6 
#
# 1 120.0983 33.1361 -15.6310 34.6163 -7.6893 19.2985
# 2 33.1361 66.8995 16.4689 26.1726 -8.2408 6.7388
# 3 -15.6310 16.4689 155.2470 -40.9885 -12.6842 -24.9394
# 4 34.6163 26.1726 -40.9885 57.4442 4.7520 7.9872
# 5 -7.6893 -8.2408 -12.6842 4.7520 33.5899 4.4686
# 6 19.2985 6.7388 -24.9394 7.9872 4.4686 48.0652
#
#
#
# Elastic Compliance Matrix: (Units=1/GPa)
#
#
# Indices 1 2 3 4 5 6 
#
# 1 0.011451 -0.002498 -0.000478 -0.005834 0.003162 -0.003820
# 2 -0.002498 0.024682 -0.006933 -0.014564 0.005477 -0.004144
# 3 -0.000478 -0.006933 0.010670 0.010362 0.000092 0.004970
# 4 -0.005834 -0.014564 0.010362 0.034857 -0.006536 0.004576
# 5 0.003162 0.005477 0.000092 -0.006536 0.033330 -0.004002
# 6 -0.003820 -0.004144 0.004970 0.004576 -0.004002 0.025110
#
#
# Mechanical properties :
#
#
# Convention : Reuss Voigt Hill
#
# Bulk Modulus (GPa) = 37.05623 45.57695 41.31659
# Shear Modulus (GPa) = 29.60089 48.37123 38.98606
#
# Velocity S-wave (km/s) = 3.66434 4.68422 4.20531
# Velocity P-wave (km/s) = 5.89173 7.06613 6.50548
#
# Compressibility (1/GPa) = 0.02698601
#
# Stress axis : x y z
#
# Youngs Moduli (GPa) = 87.32673 40.51578 93.71728
#
# Poissons Ratio (x) = 0.10120 0.04476
# Poissons Ratio (y) = 0.21812 0.64977
# Poissons Ratio (z) = 0.04171 0.28091
#
# Static dielectric constant tensor:
#      x y z
#    x 4.305010 0.363590 -0.116740 
#    y 0.363590 4.404120 0.252770 
#    z -0.116740 0.252770 4.069290 
# 
# 
# High freq. dielectric constant tensor:
#      x y z
#    x 1.869860 0.010500 -0.014370 
#    y 0.010500 1.876470 0.002970 
#    z -0.014370 0.002970 1.867260 
# 
# From -- ./inp_files/307981.got.cif
#   From: 2010.06.25/outbox.cif.g09.slc.cpg/sg2_154_cif.got.tgz:307981.got - 2010.06.27 13:26:56.
