data_PCOD8023864
_publ_section_title
;
Structure prediction by ZEFSAII (Michael W. Deem and Ramdas Pophale) SiO2 
 PCOD8023864
Probable space group: P -1
;
_chemical_formula_sum "Si O2"
_cell_formula_units_Z 14
_cell_length_a 9.248106
_cell_length_b 12.022980
_cell_length_c 7.856945
_cell_angle_alpha 101.563385
_cell_angle_beta 60.736304
_cell_angle_gamma 131.757003
_cell_volume 557.921411
_symmetry_space_group_name_H-M "P -1"
_symmetry_group_IT_number 2
_symmetry_cell_setting 'triclinic'
loop_
_space_group_symop_operation_xyz
x,y,z
-x,-y,-z
loop_
_atom_site_type_symbol
_atom_site_label
_atom_site_fract_x
_atom_site_fract_y
_atom_site_fract_z
Si Si1 0.149681 0.152480 0.751142
Si Si2 0.940042 0.134403 0.181583
Si Si3 0.658532 0.964651 0.863819
Si Si4 0.627745 0.384917 0.417056
Si Si5 0.436689 0.630741 0.935383
Si Si6 0.576328 0.116803 0.346883
Si Si7 0.224734 0.418935 0.294514
O O1 0.366450 0.298166 0.574852
O O2 0.163691 0.022402 0.714891
O O3 0.923223 0.093472 0.776058
O O4 0.150407 0.198323 0.960985
O O5 0.762919 0.118398 0.152110
O O6 0.993962 0.250835 0.333317
O O7 0.565333 0.807118 0.956472
O O8 0.624781 0.933257 0.671412
O O9 0.500000 0.000000 0.000000
O O10 0.688534 0.425543 0.194393
O O11 0.681776 0.280672 0.410189
O O12 0.780296 0.531739 0.496866
O O13 0.598282 0.599454 0.823529
O O14 0.268016 0.534789 0.160314
O O15 0.500000 0.000000 0.500000
#
# Coordination Sequence:
#
# PCOD8023864 Si02
#       7
#     2   2   2   2   2   2   2
#     4  11  22  41  73 103 130 181 234 287 337 412
#     4  11  23  41  70 104 134 184 237 269 350 416
#     4  11  23  41  68  99 137 172 227 289 344 397
#     4  11  25  42  71 102 137 178 235 287 342 405
#     4  10  23  42  67 100 135 181 229 281 339 410
#     4  11  24  42  65 102 143 172 221 297 344 397
#     4  11  23  43  71  96 141 188 224 280 343 416
#
# _framework density 25.093140999999999
#
# number of rings (size 3 to 8) (size 9 to 14) (size 15 to 20)
#    0.000    1.143    4.286    2.143    4.000    4.000 
#    0.000    2.857    3.143    0.000    0.000    0.000 
#    0.000    0.000    0.000    0.000    0.000    0.000 
#
# Total GULP energy -173446.869915 kJ/mol
# GULP energy per Si atom -12389.062137 kJ/mol
# Density = 2.503603 g / cm^3
# Si number density = 25.093141 Si / 1000 Ang^3
#
#
#
# Elastic Constant Matrix: (Units=GPa)
#
#
# Indices 1 2 3 4 5 6 
#
# 1 114.5039 35.9437 11.6314 14.5055 7.3046 -9.4513
# 2 35.9437 87.8502 13.4578 12.7159 10.1475 -10.0203
# 3 11.6314 13.4578 59.5024 7.3114 7.9842 -6.6488
# 4 14.5055 12.7159 7.3114 26.6676 -4.9198 -0.2959
# 5 7.3046 10.1475 7.9842 -4.9198 34.5369 3.5283
# 6 -9.4513 -10.0203 -6.6488 -0.2959 3.5283 38.1642
#
#
#
# Elastic Compliance Matrix: (Units=1/GPa)
#
#
# Indices 1 2 3 4 5 6 
#
# 1 0.010630 -0.003188 -0.000308 -0.004541 -0.002081 0.001899
# 2 -0.003188 0.014561 -0.000998 -0.005734 -0.004520 0.003233
# 3 -0.000308 -0.000998 0.018820 -0.005422 -0.005109 0.003371
# 4 -0.004541 -0.005734 -0.005422 0.046154 0.010905 -0.004225
# 5 -0.002081 -0.004520 -0.005109 0.010905 0.034035 -0.005654
# 6 0.001899 0.003233 0.003371 -0.004225 -0.005654 0.028599
#
#
# Mechanical properties :
#
#
# Convention : Reuss Voigt Hill
#
# Bulk Modulus (GPa) = 28.55092 42.65802 35.60447
# Shear Modulus (GPa) = 28.82493 33.26197 31.04345
#
# Velocity S-wave (km/s) = 3.39295 3.64475 3.52110
# Velocity P-wave (km/s) = 5.17225 5.89483 5.54532
#
# Compressibility (1/GPa) = 0.03502514
#
# Stress axis : x y z
#
# Youngs Moduli (GPa) = 94.07338 68.67634 53.13397
#
# Poissons Ratio (x) = 0.21893 0.01634
# Poissons Ratio (y) = 0.29989 0.05301
# Poissons Ratio (z) = 0.02893 0.06852
#
# Static dielectric constant tensor:
#      x y z
#    x 6.799180 -0.252290 -1.054170 
#    y -0.252290 4.788660 0.593530 
#    z -1.054170 0.593530 5.592590 
# 
# 
# High freq. dielectric constant tensor:
#      x y z
#    x 2.011070 -0.015490 0.006710 
#    y -0.015490 1.993830 0.023660 
#    z 0.006710 0.023660 1.992110 
# 
# From -- ./inp_files/180114.got.cif
#   From: 2010.06.25/outbox.cif.g09.slc.cpg/sg2_91_cif.got.tgz:180114.got - 2010.06.27 13:26:56.
