data_PCOD8023154
_publ_section_title
;
Structure prediction by ZEFSAII (Michael W. Deem and Ramdas Pophale) SiO2 
 PCOD8023154
Probable space group: P -1
;
_chemical_formula_sum "Si O2"
_cell_formula_units_Z 16
_cell_length_a 14.987662
_cell_length_b 8.667889
_cell_length_c 9.286737
_cell_angle_alpha 80.773393
_cell_angle_beta 140.401020
_cell_angle_gamma 109.850272
_cell_volume 712.913561
_symmetry_space_group_name_H-M "P -1"
_symmetry_group_IT_number 2
_symmetry_cell_setting 'triclinic'
loop_
_space_group_symop_operation_xyz
x,y,z
-x,-y,-z
loop_
_atom_site_type_symbol
_atom_site_label
_atom_site_fract_x
_atom_site_fract_y
_atom_site_fract_z
Si Si1 0.624161 0.731543 0.219744
Si Si2 0.470661 0.319753 0.563404
Si Si3 0.010010 0.240992 0.029085
Si Si4 0.801076 0.883430 0.920467
Si Si5 0.223815 0.674053 0.948904
Si Si6 0.834089 0.989904 0.257387
Si Si7 0.695732 0.432637 0.222704
Si Si8 0.084674 0.512161 0.275856
O O1 0.608929 0.695677 0.376995
O O2 0.734215 0.914790 0.286059
O O3 0.686953 0.608160 0.230728
O O4 0.464102 0.713252 0.954533
O O5 0.500000 0.500000 0.500000
O O6 0.361576 0.177047 0.346386
O O7 0.624036 0.280337 0.774881
O O8 0.900138 0.341978 0.840474
O O9 0.900211 0.072113 0.982390
O O10 0.106288 0.225962 0.013421
O O11 0.121859 0.354794 0.275009
O O12 0.781794 0.868571 0.070985
O O13 0.234870 0.556038 0.849804
O O14 0.087316 0.556685 0.884583
O O15 0.187603 0.835283 0.826287
O O16 0.000000 0.000000 0.500000
O O17 0.805455 0.392424 0.476633
#
# Coordination Sequence:
#
# PCOD8023154 Si02
#       8
#     2   2   2   2   2   2   2   2
#     4  10  25  45  67 105 133 187 232 284 359 416
#     4  11  26  47  76 103 146 178 236 295 349 426
#     4  10  24  40  67  98 135 181 239 286 350 418
#     4  11  25  45  68 101 134 190 233 283 363 405
#     4  11  25  44  66 110 135 188 235 285 352 415
#     4  12  28  46  71 101 149 183 238 293 344 422
#     4  10  23  40  70  95 137 176 236 284 351 416
#     4  11  21  42  65 102 139 177 236 294 346 411
#
# _framework density 22.443114999999999
#
# number of rings (size 3 to 8) (size 9 to 14) (size 15 to 20)
#    0.000    1.250    1.250    2.625   12.250    4.500 
#    0.000    0.000    0.000    0.000    0.000    0.000 
#    0.000    0.000    0.000    0.000    0.000    0.000 
#
# Total GULP energy -198292.263693 kJ/mol
# GULP energy per Si atom -12393.266481 kJ/mol
# Density = 2.239203 g / cm^3
# Si number density = 22.443115 Si / 1000 Ang^3
#
#
#
# Elastic Constant Matrix: (Units=GPa)
#
#
# Indices 1 2 3 4 5 6 
#
# 1 113.8243 25.4824 42.6348 -6.6427 -13.6595 -0.0896
# 2 25.4824 71.3137 35.6428 -13.1599 1.2065 -0.0297
# 3 42.6348 35.6428 168.3392 4.5596 -4.1381 -0.1377
# 4 -6.6427 -13.1599 4.5596 28.1751 -10.3125 -6.4975
# 5 -13.6595 1.2065 -4.1381 -10.3125 36.7451 0.6271
# 6 -0.0896 -0.0297 -0.1377 -6.4975 0.6271 35.4797
#
#
#
# Elastic Compliance Matrix: (Units=1/GPa)
#
#
# Indices 1 2 3 4 5 6 
#
# 1 0.010952 -0.002116 -0.002309 0.003938 0.004975 0.000650
# 2 -0.002116 0.018259 -0.003561 0.009282 0.000789 0.001682
# 3 -0.002309 -0.003561 0.007360 -0.003922 -0.001002 -0.000681
# 4 0.003938 0.009282 -0.003922 0.048585 0.014205 0.008649
# 5 0.004975 0.000789 -0.001002 0.014205 0.032877 0.002030
# 6 0.000650 0.001682 -0.000681 0.008649 0.002030 0.029734
#
#
# Mechanical properties :
#
#
# Convention : Reuss Voigt Hill
#
# Bulk Modulus (GPa) = 48.54870 62.33301 55.44086
# Shear Modulus (GPa) = 29.30757 36.72780 33.01768
#
# Velocity S-wave (km/s) = 3.61759 4.04974 3.83975
# Velocity P-wave (km/s) = 6.25525 7.04991 6.66443
#
# Compressibility (1/GPa) = 0.02059787
#
# Stress axis : x y z
#
# Youngs Moduli (GPa) = 91.31080 54.76882 135.86507
#
# Poissons Ratio (x) = 0.11590 0.31377
# Poissons Ratio (y) = 0.19323 0.48376
# Poissons Ratio (z) = 0.21088 0.19501
#
# Static dielectric constant tensor:
#      x y z
#    x 4.341530 -0.142280 -0.068220 
#    y -0.142280 3.904100 0.085580 
#    z -0.068220 0.085580 4.344420 
# 
# 
# High freq. dielectric constant tensor:
#      x y z
#    x 1.898010 -0.001050 -0.003460 
#    y -0.001050 1.875580 0.003370 
#    z -0.003460 0.003370 1.896120 
# 
# From -- ./inp_files/298437.got.cif
#   From: 2010.06.25/outbox.cif.g09.slc.cpg/sg2_150_cif.got.tgz:298437.got - 2010.06.27 13:26:56.
