data_PCOD8023383
_publ_section_title
;
Structure prediction by ZEFSAII (Michael W. Deem and Ramdas Pophale) SiO2 
 PCOD8023383
Probable space group: P -1
;
_chemical_formula_sum "Si O2"
_cell_formula_units_Z 16
_cell_length_a 11.903050
_cell_length_b 9.252000
_cell_length_c 15.362106
_cell_angle_alpha 96.206303
_cell_angle_beta 29.486342
_cell_angle_gamma 106.048520
_cell_volume 768.216915
_symmetry_space_group_name_H-M "P -1"
_symmetry_group_IT_number 2
_symmetry_cell_setting 'triclinic'
loop_
_space_group_symop_operation_xyz
x,y,z
-x,-y,-z
loop_
_atom_site_type_symbol
_atom_site_label
_atom_site_fract_x
_atom_site_fract_y
_atom_site_fract_z
Si Si1 0.754456 0.694721 0.431584
Si Si2 0.520964 0.974689 0.163372
Si Si3 0.075414 0.352509 0.132076
Si Si4 0.200004 0.150797 0.909979
Si Si5 0.342085 0.205002 0.074276
Si Si6 0.548367 0.331616 0.537822
Si Si7 0.105219 0.014582 0.527584
Si Si8 0.274991 0.702445 0.035909
O O1 0.605562 0.511092 0.539565
O O2 0.635573 0.727590 0.424375
O O3 0.743450 0.808745 0.525864
O O4 0.043515 0.733050 0.232553
O O5 0.725150 0.918938 0.059996
O O6 0.294871 0.925493 0.380669
O O7 0.484476 0.881772 0.090507
O O8 0.597227 0.160754 0.110641
O O9 0.252424 0.315965 0.080817
O O10 0.177944 0.533272 0.045860
O O11 0.797515 0.300957 0.350854
O O12 0.075431 0.269514 0.034672
O O13 0.418625 0.227864 0.700513
O O14 0.000000 0.000000 0.000000
O O15 0.526454 0.309109 0.029155
O O16 0.102347 0.074601 0.269472
O O17 0.000000 0.000000 0.500000
#
# Coordination Sequence:
#
# PCOD8023383 Si02
#       8
#     2   2   2   2   2   2   2   2
#     4  10  23  41  66  94 127 169 211 263 317 369
#     4  11  23  38  61  94 125 164 209 258 311 372
#     4  10  25  41  65  95 124 171 208 257 326 371
#     4  11  25  41  63  94 124 164 210 260 316 375
#     4  11  22  42  62  93 134 162 210 266 311 375
#     4  10  23  46  63  91 132 166 211 264 313 377
#     4  12  23  37  64  97 122 168 211 253 321 370
#     4  11  20  42  65  90 129 168 209 261 311 377
#
# _framework density 20.827449999999999
#
# number of rings (size 3 to 8) (size 9 to 14) (size 15 to 20)
#    0.000    1.250    2.500    3.000    5.250    0.500 
#    0.000    2.500    0.000    8.250    0.000    0.000 
#    0.000    0.000    0.000    0.000    0.000    0.000 
#
# Total GULP energy -198237.631273 kJ/mol
# GULP energy per Si atom -12389.851955 kJ/mol
# Density = 2.078005 g / cm^3
# Si number density = 20.827450 Si / 1000 Ang^3
#
#
#
# Elastic Constant Matrix: (Units=GPa)
#
#
# Indices 1 2 3 4 5 6 
#
# 1 63.8022 36.0104 23.8902 -6.8066 6.8101 -2.5948
# 2 36.0104 111.1464 50.7371 15.7209 5.5015 11.1254
# 3 23.8902 50.7371 105.4270 18.2837 -6.0103 9.0091
# 4 -6.8066 15.7209 18.2837 33.1245 3.4402 0.0633
# 5 6.8101 5.5015 -6.0103 3.4402 25.1749 4.3828
# 6 -2.5948 11.1254 9.0091 0.0633 4.3828 34.3976
#
#
#
# Elastic Compliance Matrix: (Units=1/GPa)
#
#
# Indices 1 2 3 4 5 6 
#
# 1 0.024412 -0.007540 -0.005140 0.012359 -0.009048 0.006757
# 2 -0.007540 0.014534 -0.003871 -0.006252 -0.000478 -0.004183
# 3 -0.005140 -0.003871 0.014682 -0.008098 0.007532 -0.003926
# 4 0.012359 -0.006252 -0.008098 0.041260 -0.010655 0.006357
# 5 -0.009048 -0.000478 0.007532 -0.010655 0.047003 -0.008470
# 6 0.006757 -0.004183 -0.003926 0.006357 -0.008470 0.033030
#
#
# Mechanical properties :
#
#
# Convention : Reuss Voigt Hill
#
# Bulk Modulus (GPa) = 48.71716 55.73900 52.22808
# Shear Modulus (GPa) = 23.27023 29.85526 26.56275
#
# Velocity S-wave (km/s) = 3.34621 3.79021 3.57511
# Velocity P-wave (km/s) = 6.19444 6.78046 6.49406
#
# Compressibility (1/GPa) = 0.02052665
#
# Stress axis : x y z
#
# Youngs Moduli (GPa) = 40.96263 68.80460 68.10884
#
# Poissons Ratio (x) = 0.51875 0.35009
# Poissons Ratio (y) = 0.30884 0.26368
# Poissons Ratio (z) = 0.21055 0.26638
#
# Static dielectric constant tensor:
#      x y z
#    x 3.619520 -0.009180 -0.157160 
#    y -0.009180 3.850810 0.218410 
#    z -0.157160 0.218410 3.904360 
# 
# 
# High freq. dielectric constant tensor:
#      x y z
#    x 1.817040 0.002450 -0.008870 
#    y 0.002450 1.822390 0.008670 
#    z -0.008870 0.008670 1.820710 
# 
# From -- ./inp_files/272434.got.cif
#   From: 2010.06.25/outbox.cif.g09.slc.cpg/sg2_137_cif.got.tgz:272434.got - 2010.06.27 13:26:56.
