data_PCOD8023769
_publ_section_title
;
Structure prediction by ZEFSAII (Michael W. Deem and Ramdas Pophale) SiO2 
 PCOD8023769
Probable space group: P -1
;
_chemical_formula_sum "Si O2"
_cell_formula_units_Z 12
_cell_length_a 10.037974
_cell_length_b 5.248528
_cell_length_c 11.214727
_cell_angle_alpha 70.047189
_cell_angle_beta 66.060991
_cell_angle_gamma 96.513129
_cell_volume 485.293375
_symmetry_space_group_name_H-M "P -1"
_symmetry_group_IT_number 2
_symmetry_cell_setting 'triclinic'
loop_
_space_group_symop_operation_xyz
x,y,z
-x,-y,-z
loop_
_atom_site_type_symbol
_atom_site_label
_atom_site_fract_x
_atom_site_fract_y
_atom_site_fract_z
Si Si1 0.413407 0.769937 0.793610
Si Si2 0.910419 0.580377 0.411270
Si Si3 0.332183 0.815947 0.062749
Si Si4 0.616227 0.396581 0.686234
Si Si5 0.050400 0.023709 0.115394
Si Si6 0.899004 0.441575 0.180036
O O1 0.520045 0.606575 0.721709
O O2 0.270152 0.736782 0.764931
O O3 0.504158 0.099914 0.727181
O O4 0.344311 0.635479 0.968521
O O5 0.734380 0.536290 0.517662
O O6 0.916657 0.388069 0.323172
O O7 0.000000 0.500000 0.500000
O O8 0.986347 0.904106 0.289380
O O9 0.281377 0.627464 0.229929
O O10 0.223830 0.014275 0.042928
O O11 0.500000 0.000000 0.000000
O O12 0.029130 0.339692 0.077151
O O13 0.061213 0.206920 0.904337
#
# Coordination Sequence:
#
# PCOD8023769 Si02
#       6
#     2   2   2   2   2   2
#     4  11  25  41  64  93 130 166 206 255 310 371
#     4  10  23  42  66  93 126 162 210 259 309 368
#     4  10  23  43  66  94 125 164 212 258 310 367
#     4  11  23  41  66  93 126 167 207 258 307 367
#     4  10  23  42  65  94 124 161 212 255 311 369
#     4  10  24  42  62  98 124 166 206 252 319 365
#
# _framework density 24.727314
#
# number of rings (size 3 to 8) (size 9 to 14) (size 15 to 20)
#    1.000    0.667    1.667    1.500    2.333   11.333 
#    0.000    0.000    0.000    0.000    0.000    0.000 
#    0.000    0.000    0.000    0.000    0.000    0.000 
#
# Total GULP energy -148718.413028 kJ/mol
# GULP energy per Si atom -12393.201086 kJ/mol
# Density = 2.467103 g / cm^3
# Si number density = 24.727314 Si / 1000 Ang^3
#
#
#
# Elastic Constant Matrix: (Units=GPa)
#
#
# Indices 1 2 3 4 5 6 
#
# 1 162.0787 68.9696 30.9808 22.7187 -9.8584 -1.6350
# 2 68.9696 168.1951 56.9268 27.6398 -11.2433 -14.8078
# 3 30.9808 56.9268 106.8776 21.3623 -12.1729 6.0947
# 4 22.7187 27.6398 21.3623 42.4909 1.7871 -6.0190
# 5 -9.8584 -11.2433 -12.1729 1.7871 42.8480 13.8438
# 6 -1.6350 -14.8078 6.0947 -6.0190 13.8438 42.9711
#
#
#
# Elastic Compliance Matrix: (Units=1/GPa)
#
#
# Indices 1 2 3 4 5 6 
#
# 1 0.007819 -0.002811 0.000051 -0.002677 0.001705 -0.001603
# 2 -0.002811 0.008979 -0.003821 -0.001921 -0.000390 0.003386
# 3 0.000051 -0.003821 0.013266 -0.005184 0.004757 -0.005455
# 4 -0.002677 -0.001921 -0.005184 0.029918 -0.005788 0.006027
# 5 0.001705 -0.000390 0.004757 -0.005788 0.028712 -0.010805
# 6 -0.001603 0.003386 -0.005455 0.006027 -0.010805 0.029476
#
#
# Mechanical properties :
#
#
# Convention : Reuss Voigt Hill
#
# Bulk Modulus (GPa) = 59.16405 83.43398 71.29902
# Shear Modulus (GPa) = 36.50535 44.34694 40.42614
#
# Velocity S-wave (km/s) = 3.84646 4.23950 4.04775
# Velocity P-wave (km/s) = 6.61101 7.60127 7.12337
#
# Compressibility (1/GPa) = 0.01690216
#
# Stress axis : x y z
#
# Youngs Moduli (GPa) = 127.89561 111.36980 75.38066
#
# Poissons Ratio (x) = 0.31304 -0.00387
# Poissons Ratio (y) = 0.35949 0.28806
# Poissons Ratio (z) = -0.00656 0.42559
#
# Static dielectric constant tensor:
#      x y z
#    x 4.683610 0.208680 0.635300 
#    y 0.208680 4.668300 0.172080 
#    z 0.635300 0.172080 6.128890 
# 
# 
# High freq. dielectric constant tensor:
#      x y z
#    x 1.991700 0.005980 0.004450 
#    y 0.005980 1.981720 0.020940 
#    z 0.004450 0.020940 2.015210 
# 
# From -- ./inp_files/83078.got.cif
#   From: 2010.06.25/outbox.cif.g09.slc.cpg/sg2_42_cif.got.tgz:83078.got - 2010.06.27 13:26:56.
