data_PCOD8023046
_publ_section_title
;
Structure prediction by ZEFSAII (Michael W. Deem and Ramdas Pophale) SiO2 
 PCOD8023046
Probable space group: P -1
;
_chemical_formula_sum "Si O2"
_cell_formula_units_Z 14
_cell_length_a 14.843235
_cell_length_b 11.538861
_cell_length_c 5.354935
_cell_angle_alpha 103.296231
_cell_angle_beta 94.241817
_cell_angle_gamma 45.987724
_cell_volume 637.087390
_symmetry_space_group_name_H-M "P -1"
_symmetry_group_IT_number 2
_symmetry_cell_setting 'triclinic'
loop_
_space_group_symop_operation_xyz
x,y,z
-x,-y,-z
loop_
_atom_site_type_symbol
_atom_site_label
_atom_site_fract_x
_atom_site_fract_y
_atom_site_fract_z
Si Si1 0.837445 0.120246 0.259519
Si Si2 0.924679 0.932056 0.683525
Si Si3 0.031812 0.368587 0.628362
Si Si4 0.798397 0.653856 0.013120
Si Si5 0.606499 0.922473 0.782029
Si Si6 0.570150 0.477182 0.256885
Si Si7 0.422262 0.254661 0.704210
O O1 0.709511 0.298331 0.228980
O O2 0.942208 0.124038 0.320920
O O3 0.832167 0.058346 0.497867
O O4 0.866900 0.002113 0.981775
O O5 0.953574 0.767348 0.578926
O O6 0.163552 0.287887 0.736219
O O7 0.000000 0.500000 0.500000
O O8 0.918070 0.465469 0.855870
O O9 0.687698 0.662610 0.069439
O O10 0.745893 0.795187 0.864425
O O11 0.611333 0.805563 0.546612
O O12 0.565780 0.086975 0.735205
O O13 0.500000 0.000000 0.000000
O O14 0.500000 0.500000 0.500000
O O15 0.577463 0.612398 0.326636
O O16 0.500000 0.500000 0.000000
#
# Coordination Sequence:
#
# PCOD8023046 Si02
#       7
#     2   2   2   2   2   2   2
#     4  10  24  48  71  99 135 192 233 283 347 413
#     4  10  24  46  74  99 138 183 237 283 346 418
#     4  11  25  40  63 111 136 170 226 289 353 410
#     4  10  23  40  66 102 139 178 220 278 357 423
#     4   9  20  42  66 101 126 183 228 271 350 421
#     4  12  29  48  71 109 140 184 243 296 352 412
#     4  10  23  44  71  95 136 184 226 286 347 424
#
# _framework density 21.975007999999999
#
# number of rings (size 3 to 8) (size 9 to 14) (size 15 to 20)
#    0.000    1.714    0.000    1.714   12.000    3.429 
#   15.429    0.000    0.000    0.000    0.000    0.000 
#    0.000    0.000    0.000    0.000    0.000    0.000 
#
# Total GULP energy -173468.839842 kJ/mol
# GULP energy per Si atom -12390.631417 kJ/mol
# Density = 2.192499 g / cm^3
# Si number density = 21.975008 Si / 1000 Ang^3
#
#
#
# Elastic Constant Matrix: (Units=GPa)
#
#
# Indices 1 2 3 4 5 6 
#
# 1 79.6670 68.4589 36.0283 6.1536 3.4862 20.9604
# 2 68.4589 175.6907 60.1918 -13.2214 25.7007 3.9262
# 3 36.0283 60.1918 97.6642 -13.9362 2.6966 18.3394
# 4 6.1536 -13.2214 -13.9362 44.5096 0.9176 11.7942
# 5 3.4862 25.7007 2.6966 0.9176 22.4224 2.6980
# 6 20.9604 3.9262 18.3394 11.7942 2.6980 37.9320
#
#
#
# Elastic Compliance Matrix: (Units=1/GPa)
#
#
# Indices 1 2 3 4 5 6 
#
# 1 0.025759 -0.011213 -0.001284 -0.004374 0.010607 -0.011847
# 2 -0.011213 0.013983 -0.005150 0.002397 -0.014670 0.007537
# 3 -0.001284 -0.005150 0.016261 0.005977 0.004965 -0.008831
# 4 -0.004374 0.002397 0.005977 0.028172 -0.002822 -0.009280
# 5 0.010607 -0.014670 0.004965 -0.002822 0.060506 -0.010169
# 6 -0.011847 0.007537 -0.008831 -0.009280 -0.010169 0.040008
#
#
# Mechanical properties :
#
#
# Convention : Reuss Voigt Hill
#
# Bulk Modulus (GPa) = 48.28748 75.81999 62.05374
# Shear Modulus (GPa) = 22.03739 33.52898 27.78319
#
# Velocity S-wave (km/s) = 3.17020 3.91036 3.55957
# Velocity P-wave (km/s) = 5.95162 7.41388 6.72262
#
# Compressibility (1/GPa) = 0.02070930
#
# Stress axis : x y z
#
# Youngs Moduli (GPa) = 38.82078 71.51297 61.49801
#
# Poissons Ratio (x) = 0.80190 0.07896
# Poissons Ratio (y) = 0.43531 0.31670
# Poissons Ratio (z) = 0.04984 0.36828
#
# Static dielectric constant tensor:
#      x y z
#    x 3.662650 -0.206960 0.020590 
#    y -0.206960 4.599850 -0.123010 
#    z 0.020590 -0.123010 4.119900 
# 
# 
# High freq. dielectric constant tensor:
#      x y z
#    x 1.847740 -0.010100 -0.001110 
#    y -0.010100 1.883140 -0.008240 
#    z -0.001110 -0.008240 1.882950 
# 
# From -- ./inp_files/95358.got.cif
#   From: 2010.06.25/outbox.cif.g09.slc.cpg/sg2_48_cif.got.tgz:95358.got - 2010.06.27 13:26:56.
