data_PCOD8023472
_publ_section_title
;
Structure prediction by ZEFSAII (Michael W. Deem and Ramdas Pophale) SiO2 
 PCOD8023472
Probable space group: P -1
;
_chemical_formula_sum "Si O2"
_cell_formula_units_Z 16
_cell_length_a 16.480826
_cell_length_b 5.433768
_cell_length_c 24.455724
_cell_angle_alpha 55.698256
_cell_angle_beta 159.125666
_cell_angle_gamma 123.154313
_cell_volume 643.108326
_symmetry_space_group_name_H-M "P -1"
_symmetry_group_IT_number 2
_symmetry_cell_setting 'triclinic'
loop_
_space_group_symop_operation_xyz
x,y,z
-x,-y,-z
loop_
_atom_site_type_symbol
_atom_site_label
_atom_site_fract_x
_atom_site_fract_y
_atom_site_fract_z
Si Si1 0.787591 0.636564 0.217367
Si Si2 0.353798 0.790110 0.109889
Si Si3 0.843843 0.750433 0.463224
Si Si4 0.316531 0.393799 0.961828
Si Si5 0.383507 0.177652 0.576413
Si Si6 0.772508 0.869578 0.901410
Si Si7 0.397558 0.310585 0.407461
Si Si8 0.986295 0.775652 0.751872
O O1 0.741147 0.465079 0.151479
O O2 0.007393 0.540194 0.401460
O O3 0.554245 0.557623 0.114490
O O4 0.818180 0.974286 0.173112
O O5 0.613811 0.695096 0.290663
O O6 0.211630 0.488610 0.038106
O O7 0.266847 0.946858 0.090544
O O8 0.334726 0.034268 0.019123
O O9 0.783782 0.844739 0.474536
O O10 0.000000 0.000000 0.500000
O O11 0.100151 0.462907 0.854522
O O12 0.546222 0.488981 0.636403
O O13 0.230194 0.153856 0.429666
O O14 0.555922 0.913902 0.719943
O O15 0.000000 0.000000 0.000000
O O16 0.500000 0.500000 0.500000
O O17 0.123797 0.235347 0.254899
O O18 0.500000 0.000000 0.500000
#
# Coordination Sequence:
#
# PCOD8023472 Si02
#       8
#     2   2   2   2   2   2   2   2
#     4  11  23  43  70  99 146 184 247 292 369 424
#     4  11  26  47  72 105 143 187 248 286 364 433
#     4  11  21  45  71 102 142 196 245 300 357 435
#     4  11  25  42  66 106 143 187 235 302 363 435
#     4  10  23  45  68 104 140 183 248 295 363 434
#     4  11  26  48  72 102 141 191 238 302 356 431
#     4  10  23  41  68 103 137 177 231 294 355 419
#     4  11  23  42  71 103 142 188 237 303 368 433
#
# _framework density 24.879166999999999
#
# number of rings (size 3 to 8) (size 9 to 14) (size 15 to 20)
#    0.000    1.250    2.500    2.250    5.250    3.000 
#    2.250    1.875    0.000    0.000    0.000    0.000 
#    0.000    0.000    0.000    0.000    0.000    0.000 
#
# Total GULP energy -198223.065974 kJ/mol
# GULP energy per Si atom -12388.941623 kJ/mol
# Density = 2.482254 g / cm^3
# Si number density = 24.879167 Si / 1000 Ang^3
#
#
#
# Elastic Constant Matrix: (Units=GPa)
#
#
# Indices 1 2 3 4 5 6 
#
# 1 101.6412 42.9266 31.0694 -2.4953 19.7995 16.9744
# 2 42.9266 155.8620 23.8205 -3.8686 16.9131 19.0421
# 3 31.0694 23.8205 110.2397 -25.7722 11.4987 0.3456
# 4 -2.4953 -3.8686 -25.7722 35.4628 5.8925 5.7419
# 5 19.7995 16.9131 11.4987 5.8925 38.0644 3.4849
# 6 16.9744 19.0421 0.3456 5.7419 3.4849 47.6841
#
#
#
# Elastic Compliance Matrix: (Units=1/GPa)
#
#
# Indices 1 2 3 4 5 6 
#
# 1 0.013103 -0.002272 -0.002691 0.000048 -0.004690 -0.003401
# 2 -0.002272 0.007638 -0.000576 0.000941 -0.001981 -0.002205
# 3 -0.002691 -0.000576 0.012531 0.009418 -0.003608 0.000227
# 4 0.000048 0.000941 0.009418 0.037288 -0.008665 -0.004318
# 5 -0.004690 -0.001981 -0.003608 -0.008665 0.031913 0.001198
# 6 -0.003401 -0.002205 0.000227 -0.004318 0.001198 0.023493
#
#
# Mechanical properties :
#
#
# Convention : Reuss Voigt Hill
#
# Bulk Modulus (GPa) = 45.05829 62.59733 53.82781
# Shear Modulus (GPa) = 34.61582 42.23737 38.42659
#
# Velocity S-wave (km/s) = 3.73414 4.12479 3.93431
# Velocity P-wave (km/s) = 6.06151 6.92100 6.50547
#
# Compressibility (1/GPa) = 0.02219347
#
# Stress axis : x y z
#
# Youngs Moduli (GPa) = 76.31688 130.93139 79.79923
#
# Poissons Ratio (x) = 0.29748 0.21473
# Poissons Ratio (y) = 0.17339 0.04600
# Poissons Ratio (z) = 0.20536 0.07548
#
# Static dielectric constant tensor:
#      x y z
#    x 4.488290 0.619540 0.271410 
#    y 0.619540 4.727110 0.070540 
#    z 0.271410 0.070540 4.722430 
# 
# 
# High freq. dielectric constant tensor:
#      x y z
#    x 1.981860 0.028080 0.012050 
#    y 0.028080 1.990020 -0.006300 
#    z 0.012050 -0.006300 2.006070 
# 
# From -- ./inp_files/95453.got.cif
#   From: 2010.06.25/outbox.cif.g09.slc.cpg/sg2_48_cif.got.tgz:95453.got - 2010.06.27 13:26:56.
