data_PCOD8023437
_publ_section_title
;
Structure prediction by ZEFSAII (Michael W. Deem and Ramdas Pophale) SiO2 
 PCOD8023437
Probable space group: P -1
;
_chemical_formula_sum "Si O2"
_cell_formula_units_Z 16
_cell_length_a 8.567546
_cell_length_b 11.547736
_cell_length_c 14.999889
_cell_angle_alpha 139.542949
_cell_angle_beta 71.576739
_cell_angle_gamma 126.718364
_cell_volume 743.858012
_symmetry_space_group_name_H-M "P -1"
_symmetry_group_IT_number 2
_symmetry_cell_setting 'triclinic'
loop_
_space_group_symop_operation_xyz
x,y,z
-x,-y,-z
loop_
_atom_site_type_symbol
_atom_site_label
_atom_site_fract_x
_atom_site_fract_y
_atom_site_fract_z
Si Si1 0.141712 0.736257 0.068447
Si Si2 0.369782 0.444120 0.230368
Si Si3 0.039453 0.676018 0.846831
Si Si4 0.340341 0.051929 0.549855
Si Si5 0.243747 0.060061 0.384849
Si Si6 0.943543 0.685971 0.454814
Si Si7 0.444357 0.083418 0.973897
Si Si8 0.368753 0.543171 0.485938
O O1 0.118481 0.894627 0.229633
O O2 0.071306 0.736284 0.981279
O O3 0.381137 0.835962 0.084737
O O4 0.000000 0.500000 0.000000
O O5 0.554335 0.689466 0.311268
O O6 0.447104 0.294808 0.114127
O O7 0.311913 0.419892 0.330038
O O8 0.172964 0.368455 0.164749
O O9 0.039855 0.463542 0.707259
O O10 0.215838 0.876742 0.870987
O O11 0.211414 0.945343 0.418574
O O12 0.500000 0.000000 0.500000
O O13 0.165365 0.905446 0.568818
O O14 0.190612 0.235235 0.511445
O O15 0.486872 0.195206 0.402857
O O16 0.841635 0.540358 0.477103
O O17 0.500000 0.000000 0.000000
O O18 0.500000 0.500000 0.500000
#
# Coordination Sequence:
#
# PCOD8023437 Si02
#       8
#     2   2   2   2   2   2   2   2
#     4  11  25  42  66  98 133 174 224 269 321 399
#     4  11  24  45  66  99 134 175 214 279 333 387
#     4  11  24  43  69  96 135 172 224 267 334 389
#     4  11  23  42  66  98 137 170 215 271 336 394
#     4  10  23  41  67  94 132 170 222 272 321 386
#     4  11  22  40  70  99 124 175 220 269 326 390
#     4  10  25  42  71  91 130 178 221 261 333 397
#     4   9  22  38  69  95 128 159 231 269 320 375
#
# _framework density 21.509481999999998
#
# number of rings (size 3 to 8) (size 9 to 14) (size 15 to 20)
#    0.000    1.500    1.250    2.250   19.250    0.500 
#    2.250    0.625    0.000    0.000    0.000    0.000 
#    0.000    0.000    0.000    0.000    0.000    0.000 
#
# Total GULP energy -198241.581167 kJ/mol
# GULP energy per Si atom -12390.098823 kJ/mol
# Density = 2.146053 g / cm^3
# Si number density = 21.509482 Si / 1000 Ang^3
#
#
#
# Elastic Constant Matrix: (Units=GPa)
#
#
# Indices 1 2 3 4 5 6 
#
# 1 95.8668 34.1218 48.6915 4.9656 -3.6564 2.8191
# 2 34.1218 102.6600 18.0203 31.0060 0.2242 27.8354
# 3 48.6915 18.0203 113.1141 15.7367 -9.2383 -7.3725
# 4 4.9656 31.0060 15.7367 34.0029 -5.2566 6.2096
# 5 -3.6564 0.2242 -9.2383 -5.2566 36.6814 8.8786
# 6 2.8191 27.8354 -7.3725 6.2096 8.8786 34.8878
#
#
#
# Elastic Compliance Matrix: (Units=1/GPa)
#
#
# Indices 1 2 3 4 5 6 
#
# 1 0.015615 -0.006255 -0.006485 0.006321 0.000606 0.001079
# 2 -0.006255 0.019531 0.000894 -0.015018 0.000306 -0.012294
# 3 -0.006485 0.000894 0.012641 -0.006208 0.000825 0.003377
# 4 0.006321 -0.015018 -0.006208 0.045809 0.005581 0.000586
# 5 0.000606 0.000306 0.000825 0.005581 0.030474 -0.008867
# 6 0.001079 -0.012294 0.003377 0.000586 -0.008867 0.041251
#
#
# Mechanical properties :
#
#
# Convention : Reuss Voigt Hill
#
# Bulk Modulus (GPa) = 41.50092 57.03426 49.26759
# Shear Modulus (GPa) = 25.37498 35.16826 30.27162
#
# Velocity S-wave (km/s) = 3.43842 4.04791 3.75555
# Velocity P-wave (km/s) = 5.92450 6.95851 6.46222
#
# Compressibility (1/GPa) = 0.02409585
#
# Stress axis : x y z
#
# Youngs Moduli (GPa) = 64.04072 51.19973 79.10900
#
# Poissons Ratio (x) = 0.32024 0.51301
# Poissons Ratio (y) = 0.40056 -0.07072
# Poissons Ratio (z) = 0.41529 -0.04577
#
# Static dielectric constant tensor:
#      x y z
#    x 3.807440 0.290680 0.179200 
#    y 0.290680 4.249270 0.573940 
#    z 0.179200 0.573940 3.779730 
# 
# 
# High freq. dielectric constant tensor:
#      x y z
#    x 1.832800 0.015350 -0.000330 
#    y 0.015350 1.865750 0.019880 
#    z -0.000330 0.019880 1.831860 
# 
# From -- ./inp_files/333666.got.cif
#   From: 2010.06.25/outbox.cif.g09.slc.cpg/sg2_167_cif.got.tgz:333666.got - 2010.06.27 13:26:56.
