data_PCOD8023613
_publ_section_title
;
Structure prediction by ZEFSAII (Michael W. Deem and Ramdas Pophale) SiO2 
 PCOD8023613
Probable space group: P -1
;
_chemical_formula_sum "Si O2"
_cell_formula_units_Z 16
_cell_length_a 14.858617
_cell_length_b 10.873943
_cell_length_c 14.788195
_cell_angle_alpha 151.524540
_cell_angle_beta 42.159631
_cell_angle_gamma 138.919927
_cell_volume 724.595356
_symmetry_space_group_name_H-M "P -1"
_symmetry_group_IT_number 2
_symmetry_cell_setting 'triclinic'
loop_
_space_group_symop_operation_xyz
x,y,z
-x,-y,-z
loop_
_atom_site_type_symbol
_atom_site_label
_atom_site_fract_x
_atom_site_fract_y
_atom_site_fract_z
Si Si1 0.515632 0.815473 0.786310
Si Si2 0.611315 0.039063 0.361708
Si Si3 0.583802 0.132224 0.758769
Si Si4 0.230098 0.339012 0.944979
Si Si5 0.714952 0.702811 0.324428
Si Si6 0.963940 0.419088 0.126525
Si Si7 0.037758 0.876129 0.239147
Si Si8 0.756373 0.579889 0.507527
O O1 0.384456 0.539399 0.697454
O O2 0.659471 0.738525 0.636866
O O3 0.514924 0.976837 0.799818
O O4 0.500000 0.000000 0.000000
O O5 0.666304 0.360219 0.504639
O O6 0.500000 0.000000 0.500000
O O7 0.540492 0.855551 0.208681
O O8 0.745096 0.942575 0.226757
O O9 0.664193 0.964615 0.532929
O O10 0.688991 0.428791 0.894870
O O11 0.291928 0.414709 0.847383
O O12 0.062592 0.304998 0.045210
O O13 0.870140 0.803617 0.314777
O O14 0.823814 0.426681 0.286100
O O15 0.063924 0.713765 0.203745
O O16 0.904445 0.222837 0.958461
O O17 0.112921 0.196956 0.397204
#
# Coordination Sequence:
#
# PCOD8023613 Si02
#       8
#     2   2   2   2   2   2   2   2
#     4  12  25  41  71 110 143 170 229 293 358 416
#     4  12  27  48  67  99 141 187 243 292 330 406
#     4  12  23  41  74  99 134 188 221 291 359 399
#     4  11  23  46  68  97 138 188 234 283 332 415
#     4  11  22  44  69 106 144 172 230 285 354 418
#     4  10  23  43  70 103 138 179 228 280 348 417
#     4  10  23  41  72 103 142 178 216 286 357 418
#     4  12  25  46  69 102 142 179 229 286 346 420
#
# _framework density 22.081289000000002
#
# number of rings (size 3 to 8) (size 9 to 14) (size 15 to 20)
#    0.000    0.750    3.750    3.375    5.250    0.500 
#    2.250    2.500    0.000    0.000    0.000    0.000 
#    0.000    0.000    0.000    0.000    0.000    0.000 
#
# Total GULP energy -198438.621305 kJ/mol
# GULP energy per Si atom -12402.413832 kJ/mol
# Density = 2.203103 g / cm^3
# Si number density = 22.081289 Si / 1000 Ang^3
#
#
#
# Elastic Constant Matrix: (Units=GPa)
#
#
# Indices 1 2 3 4 5 6 
#
# 1 117.7767 29.1169 29.6045 -12.6618 -7.9832 -1.4635
# 2 29.1169 83.6429 25.3520 -3.1804 8.6979 8.1251
# 3 29.6045 25.3520 98.1752 -21.2884 -9.5436 6.8664
# 4 -12.6618 -3.1804 -21.2884 36.5149 6.5043 0.9376
# 5 -7.9832 8.6979 -9.5436 6.5043 33.8570 3.4733
# 6 -1.4635 8.1251 6.8664 0.9376 3.4733 33.0573
#
#
#
# Elastic Compliance Matrix: (Units=1/GPa)
#
#
# Indices 1 2 3 4 5 6 
#
# 1 0.010091 -0.003302 -0.001671 0.001798 0.002276 0.001315
# 2 -0.003302 0.014866 -0.003341 -0.000821 -0.005121 -0.002545
# 3 -0.001671 -0.003341 0.013451 0.006453 0.003280 -0.002574
# 4 0.001798 -0.000821 0.006453 0.032383 -0.003603 -0.001599
# 5 0.002276 -0.005121 0.003280 -0.003603 0.033284 -0.002717
# 6 0.001315 -0.002545 -0.002574 -0.001599 -0.002717 0.031800
#
#
# Mechanical properties :
#
#
# Convention : Reuss Voigt Hill
#
# Bulk Modulus (GPa) = 45.91457 51.97130 48.94294
# Shear Modulus (GPa) = 31.29628 35.05393 33.17511
#
# Velocity S-wave (km/s) = 3.76882 3.98866 3.88030
# Velocity P-wave (km/s) = 6.30692 6.69328 6.50297
#
# Compressibility (1/GPa) = 0.02177958
#
# Stress axis : x y z
#
# Youngs Moduli (GPa) = 99.09780 67.26606 74.34553
#
# Poissons Ratio (x) = 0.22214 0.12423
# Poissons Ratio (y) = 0.32727 0.24838
# Poissons Ratio (z) = 0.16559 0.22473
#
# Static dielectric constant tensor:
#      x y z
#    x 4.148170 -0.030700 -0.089780 
#    y -0.030700 3.744500 0.025330 
#    z -0.089780 0.025330 4.228970 
# 
# 
# High freq. dielectric constant tensor:
#      x y z
#    x 1.875550 0.006680 -0.002170 
#    y 0.006680 1.847070 -0.003490 
#    z -0.002170 -0.003490 1.884290 
# 
# From -- ./inp_files/532133.got.cif
#   From: 2010.06.25/outbox.cif.g09.slc.cpg/sg2_267_cif.got.tgz:532133.got - 2010.06.27 13:26:56.
