data_PCOD8023113
_publ_section_title
;
Structure prediction by ZEFSAII (Michael W. Deem and Ramdas Pophale) SiO2 
 PCOD8023113
Probable space group: P -1
;
_chemical_formula_sum "Si O2"
_cell_formula_units_Z 10
_cell_length_a 13.776838
_cell_length_b 9.999712
_cell_length_c 10.088337
_cell_angle_alpha 116.553180
_cell_angle_beta 141.761635
_cell_angle_gamma 36.119806
_cell_volume 435.033675
_symmetry_space_group_name_H-M "P -1"
_symmetry_group_IT_number 2
_symmetry_cell_setting 'triclinic'
loop_
_space_group_symop_operation_xyz
x,y,z
-x,-y,-z
loop_
_atom_site_type_symbol
_atom_site_label
_atom_site_fract_x
_atom_site_fract_y
_atom_site_fract_z
Si Si1 0.453582 0.930715 0.271605
Si Si2 0.036628 0.430725 0.191568
Si Si3 0.696262 0.963223 0.123725
Si Si4 0.531003 0.301060 0.306482
Si Si5 0.685425 0.207706 0.724243
O O1 0.748523 0.778400 0.550493
O O2 0.413403 0.833978 0.293953
O O3 0.207981 0.251726 0.161352
O O4 0.450288 0.863890 0.091857
O O5 0.975695 0.656149 0.243390
O O6 0.769327 0.537121 0.964478
O O7 0.742236 0.065453 0.318469
O O8 0.500000 0.000000 0.000000
O O9 0.655002 0.167845 0.524818
O O10 0.511242 0.492485 0.342911
O O11 0.000000 0.000000 0.000000
#
# Coordination Sequence:
#
# PCOD8023113 Si02
#       5
#     2   2   2   2   2
#     4  11  24  39  68  98 122 172 209 257 314 379
#     4  10  23  40  68  94 128 160 216 256 314 375
#     4  10  24  40  62  98 132 160 205 269 317 362
#     4  10  24  43  65  93 129 168 206 265 313 370
#     4  11  24  43  66  91 128 171 214 252 316 381
#
# _framework density 22.986726999999998
#
# number of rings (size 3 to 8) (size 9 to 14) (size 15 to 20)
#    0.000    1.600    2.000    0.600   14.000    5.600 
#    0.000    2.000    0.000    0.000    0.000    0.000 
#    0.000    0.000    0.000    0.000    0.000    0.000 
#
# Total GULP energy -123933.740985 kJ/mol
# GULP energy per Si atom -12393.374099 kJ/mol
# Density = 2.293441 g / cm^3
# Si number density = 22.986727 Si / 1000 Ang^3
#
#
#
# Elastic Constant Matrix: (Units=GPa)
#
#
# Indices 1 2 3 4 5 6 
#
# 1 101.0524 41.6624 57.1428 13.1666 -33.7167 -1.9260
# 2 41.6624 152.7813 64.3602 29.9113 -25.9108 -10.4318
# 3 57.1428 64.3602 142.4610 14.6552 -17.3101 -15.1165
# 4 13.1666 29.9113 14.6552 42.3319 -15.3929 -7.0304
# 5 -33.7167 -25.9108 -17.3101 -15.3929 38.3786 8.0703
# 6 -1.9260 -10.4318 -15.1165 -7.0304 8.0703 22.4510
#
#
#
# Elastic Compliance Matrix: (Units=1/GPa)
#
#
# Indices 1 2 3 4 5 6 
#
# 1 0.018399 -0.000577 -0.006242 0.000986 0.015034 -0.007988
# 2 -0.000577 0.009363 -0.003249 -0.004389 0.002633 -0.000207
# 3 -0.006242 -0.003249 0.011236 0.000029 -0.004068 0.006991
# 4 0.000986 -0.004389 0.000029 0.030479 0.009239 0.004288
# 5 0.015034 0.002633 -0.004068 0.009239 0.045815 -0.013801
# 6 -0.007988 -0.000207 0.006991 0.004288 -0.013801 0.054771
#
#
# Mechanical properties :
#
#
# Convention : Reuss Voigt Hill
#
# Bulk Modulus (GPa) = 53.01642 80.29174 66.65408
# Shear Modulus (GPa) = 25.44736 36.17425 30.81080
#
# Velocity S-wave (km/s) = 3.33084 3.97129 3.66508
# Velocity P-wave (km/s) = 6.15684 7.48556 6.85348
#
# Compressibility (1/GPa) = 0.01886208
#
# Stress axis : x y z
#
# Youngs Moduli (GPa) = 54.35165 106.80550 89.00312
#
# Poissons Ratio (x) = 0.06157 0.55553
# Poissons Ratio (y) = 0.03133 0.28920
# Poissons Ratio (z) = 0.33925 0.34704
#
# Static dielectric constant tensor:
#      x y z
#    x 3.806020 -0.011450 -0.062640 
#    y -0.011450 5.243690 0.061740 
#    z -0.062640 0.061740 4.472700 
# 
# 
# High freq. dielectric constant tensor:
#      x y z
#    x 1.885550 0.006100 -0.016410 
#    y 0.006100 1.920680 0.003140 
#    z -0.016410 0.003140 1.918810 
# 
# From -- ./inp_files/15926.got.cif
#   From: 2010.06.25/outbox.cif.g09.slc.cpg/sg2_8_cif.got.tgz:15926.got - 2010.06.27 13:26:56.
