data_PCOD8023268
_publ_section_title
;
Structure prediction by ZEFSAII (Michael W. Deem and Ramdas Pophale) SiO2 
 PCOD8023268
Probable space group: P -1
;
_chemical_formula_sum "Si O2"
_cell_formula_units_Z 16
_cell_length_a 7.718987
_cell_length_b 13.161492
_cell_length_c 9.839926
_cell_angle_alpha 112.472956
_cell_angle_beta 105.324787
_cell_angle_gamma 117.642682
_cell_volume 689.005514
_symmetry_space_group_name_H-M "P -1"
_symmetry_group_IT_number 2
_symmetry_cell_setting 'triclinic'
loop_
_space_group_symop_operation_xyz
x,y,z
-x,-y,-z
loop_
_atom_site_type_symbol
_atom_site_label
_atom_site_fract_x
_atom_site_fract_y
_atom_site_fract_z
Si Si1 0.287197 0.162870 0.502044
Si Si2 0.448784 0.854408 0.952015
Si Si3 0.958035 0.317511 0.834000
Si Si4 0.739764 0.460147 0.772857
Si Si5 0.229041 0.145901 0.177451
Si Si6 0.529916 0.930149 0.297161
Si Si7 0.074904 0.329958 0.301231
Si Si8 0.960896 0.216945 0.510065
O O1 0.467733 0.330699 0.664977
O O2 0.299780 0.128683 0.331349
O O3 0.332715 0.074349 0.555236
O O4 0.036341 0.119097 0.455051
O O5 0.558576 0.805505 0.851487
O O6 0.174504 0.738074 0.845993
O O7 0.546794 0.867282 0.129370
O O8 0.500000 0.000000 0.000000
O O9 0.875689 0.401738 0.801910
O O10 0.742043 0.161184 0.767678
O O11 0.065811 0.300204 0.715876
O O12 0.161133 0.408833 0.035336
O O13 0.767807 0.511825 0.648493
O O14 0.182282 0.257766 0.231702
O O15 0.000000 0.000000 0.000000
O O16 0.675188 0.101608 0.394380
O O17 0.057772 0.326970 0.460241
#
# Coordination Sequence:
#
# PCOD8023268 Si02
#       8
#     2   2   2   2   2   2   2   2
#     4  10  25  44  64  94 136 169 216 272 321 397
#     4  12  22  40  68  98 132 171 215 268 337 387
#     4  10  23  41  64  91 129 173 216 268 319 387
#     4  10  23  45  60  88 135 173 218 264 315 390
#     4  11  24  43  67  98 134 169 214 277 332 383
#     4  11  22  41  65  98 132 164 215 277 326 391
#     4  11  24  43  65  97 133 168 224 267 319 398
#     4  11  23  39  65  99 124 168 219 273 336 379
#
# _framework density 23.221875000000001
#
# number of rings (size 3 to 8) (size 9 to 14) (size 15 to 20)
#    0.000    1.250    3.750    1.500    3.500    6.000 
#    2.250    0.000    0.000    0.000    0.000    0.000 
#    0.000    0.000    0.000    0.000    0.000    0.000 
#
# Total GULP energy -198305.702141 kJ/mol
# GULP energy per Si atom -12394.106384 kJ/mol
# Density = 2.316902 g / cm^3
# Si number density = 23.221875 Si / 1000 Ang^3
#
#
#
# Elastic Constant Matrix: (Units=GPa)
#
#
# Indices 1 2 3 4 5 6 
#
# 1 76.3438 13.2921 30.6231 -12.1970 -11.7742 12.8435
# 2 13.2921 93.1331 20.8073 -10.7193 -7.5963 14.0767
# 3 30.6231 20.8073 142.9278 -29.4768 -15.6568 14.5237
# 4 -12.1970 -10.7193 -29.4768 36.0993 5.6922 0.0316
# 5 -11.7742 -7.5963 -15.6568 5.6922 38.5450 -8.5193
# 6 12.8435 14.0767 14.5237 0.0316 -8.5193 15.0252
#
#
#
# Elastic Compliance Matrix: (Units=1/GPa)
#
#
# Indices 1 2 3 4 5 6 
#
# 1 0.016568 0.000456 -0.001262 0.004532 0.001157 -0.012724
# 2 0.000456 0.013069 0.000141 0.004285 -0.000783 -0.013223
# 3 -0.001262 0.000141 0.009664 0.007403 0.000704 -0.008012
# 4 0.004532 0.004285 0.007403 0.037215 -0.004118 -0.017458
# 5 0.001157 -0.000783 0.000704 -0.004118 0.030676 0.016467
# 6 -0.012724 -0.013223 -0.008012 -0.017458 0.016467 0.106938
#
#
# Mechanical properties :
#
#
# Convention : Reuss Voigt Hill
#
# Bulk Modulus (GPa) = 26.33458 49.09442 37.71450
# Shear Modulus (GPa) = 21.91867 34.44605 28.18236
#
# Velocity S-wave (km/s) = 3.07560 3.85560 3.48747
# Velocity P-wave (km/s) = 4.89668 6.40377 5.70025
#
# Compressibility (1/GPa) = 0.03797289
#
# Stress axis : x y z
#
# Youngs Moduli (GPa) = 60.35579 76.51931 103.47289
#
# Poissons Ratio (x) = -0.03492 0.13059
# Poissons Ratio (y) = -0.02755 -0.01463
# Poissons Ratio (z) = 0.07617 -0.01082
#
# Static dielectric constant tensor:
#      x y z
#    x 3.867340 -0.002360 -0.112110 
#    y -0.002360 3.909090 -0.366860 
#    z -0.112110 -0.366860 4.315450 
# 
# 
# High freq. dielectric constant tensor:
#      x y z
#    x 1.900110 0.015030 0.005640 
#    y 0.015030 1.915730 -0.014900 
#    z 0.005640 -0.014900 1.932220 
# 
# From -- ./inp_files/207856.got.cif
#   From: 2010.06.25/outbox.cif.g09.slc.cpg/sg2_104_cif.got.tgz:207856.got - 2010.06.27 13:26:56.
