data_PCOD8023896
_publ_section_title
;
Structure prediction by ZEFSAII (Michael W. Deem and Ramdas Pophale) SiO2 
 PCOD8023896
Probable space group: P -1
;
_chemical_formula_sum "Si O2"
_cell_formula_units_Z 16
_cell_length_a 18.614120
_cell_length_b 21.376972
_cell_length_c 11.753283
_cell_angle_alpha 39.570765
_cell_angle_beta 28.724412
_cell_angle_gamma 20.291545
_cell_volume 741.060562
_symmetry_space_group_name_H-M "P -1"
_symmetry_group_IT_number 2
_symmetry_cell_setting 'triclinic'
loop_
_space_group_symop_operation_xyz
x,y,z
-x,-y,-z
loop_
_atom_site_type_symbol
_atom_site_label
_atom_site_fract_x
_atom_site_fract_y
_atom_site_fract_z
Si Si1 0.116857 0.675826 0.582578
Si Si2 0.343240 0.454856 0.191644
Si Si3 0.468460 0.194684 0.512864
Si Si4 0.877300 0.799928 0.975266
Si Si5 0.328842 0.348498 0.736583
Si Si6 0.579160 0.573038 0.133937
Si Si7 0.301652 0.886388 0.228475
Si Si8 0.943104 0.224957 0.716209
O O1 0.340257 0.460327 0.560197
O O2 0.284954 0.677903 0.385914
O O3 0.965730 0.779613 0.525701
O O4 0.878180 0.787108 0.854345
O O5 0.318223 0.359993 0.410285
O O6 0.101644 0.661182 0.292676
O O7 0.282930 0.483808 0.100866
O O8 0.658869 0.319174 0.970883
O O9 0.460323 0.234232 0.598333
O O10 0.301282 0.186889 0.738411
O O11 0.797483 0.991302 0.300940
O O12 0.204212 0.610918 0.831209
O O13 0.745414 0.978148 0.945090
O O14 0.537766 0.193269 0.762677
O O15 0.000000 0.500000 0.000000
O O16 0.510259 0.715026 0.090205
O O17 0.000000 0.000000 0.500000
#
# Coordination Sequence:
#
# PCOD8023896 Si02
#       8
#     2   2   2   2   2   2   2   2
#     4  11  20  41  68  94 132 165 215 269 341 388
#     4  10  24  45  65  91 130 178 223 269 329 383
#     4  12  25  41  68  98 135 168 222 278 325 396
#     4  12  25  41  66 101 132 173 215 276 339 396
#     4  12  24  40  69 102 140 174 208 278 349 397
#     4  11  24  45  66  92 135 178 217 272 327 398
#     4  12  25  42  68  99 134 174 223 268 332 406
#     4  10  23  42  67  95 126 171 221 276 322 391
#
# _framework density 21.590679999999999
#
# number of rings (size 3 to 8) (size 9 to 14) (size 15 to 20)
#    0.000    0.750    5.000    2.250    3.500    3.500 
#    0.000    1.250    0.000    0.000    0.000    0.000 
#    0.000    0.000    0.000    0.000    0.000    0.000 
#
# Total GULP energy -198497.153450 kJ/mol
# GULP energy per Si atom -12406.072091 kJ/mol
# Density = 2.154154 g / cm^3
# Si number density = 21.590680 Si / 1000 Ang^3
#
#
#
# Elastic Constant Matrix: (Units=GPa)
#
#
# Indices 1 2 3 4 5 6 
#
# 1 89.7429 40.4601 21.8436 -8.6026 16.2856 4.4741
# 2 40.4601 131.7764 21.1384 -12.4455 2.1071 25.4852
# 3 21.8436 21.1384 70.5498 -14.6632 6.2526 2.6124
# 4 -8.6026 -12.4455 -14.6632 41.4566 3.0190 -6.7297
# 5 16.2856 2.1071 6.2526 3.0190 30.9296 -0.6781
# 6 4.4741 25.4852 2.6124 -6.7297 -0.6781 32.7578
#
#
#
# Elastic Compliance Matrix: (Units=1/GPa)
#
#
# Indices 1 2 3 4 5 6 
#
# 1 0.015074 -0.004278 -0.002430 0.001788 -0.007292 0.001679
# 2 -0.004278 0.010613 -0.001647 0.000389 0.001662 -0.007427
# 3 -0.002430 -0.001647 0.016692 0.005299 -0.002471 0.001319
# 4 0.001788 0.000389 0.005299 0.027567 -0.004629 0.004598
# 5 -0.007292 0.001662 -0.002471 -0.004629 0.037003 -0.000285
# 6 0.001679 -0.007427 0.001319 0.004598 -0.000285 0.036909
#
#
# Mechanical properties :
#
#
# Convention : Reuss Voigt Hill
#
# Bulk Modulus (GPa) = 38.95621 50.99481 44.97551
# Shear Modulus (GPa) = 29.56430 34.93726 32.25078
#
# Velocity S-wave (km/s) = 3.70443 4.02700 3.86908
# Velocity P-wave (km/s) = 6.03153 6.72997 6.39030
#
# Compressibility (1/GPa) = 0.02566985
#
# Stress axis : x y z
#
# Youngs Moduli (GPa) = 66.33967 94.22680 59.91013
#
# Poissons Ratio (x) = 0.40309 0.14557
# Poissons Ratio (y) = 0.28379 0.09865
# Poissons Ratio (z) = 0.16119 0.15516
#
# Static dielectric constant tensor:
#      x y z
#    x 3.958730 0.141640 0.086140 
#    y 0.141640 3.891950 -0.188570 
#    z 0.086140 -0.188570 3.755240 
# 
# 
# High freq. dielectric constant tensor:
#      x y z
#    x 1.848190 0.012570 0.001920 
#    y 0.012570 1.859990 -0.008400 
#    z 0.001920 -0.008400 1.837180 
# 
# From -- ./inp_files/438589.got.cif
#   From: 2010.06.25/outbox.cif.g09.slc.cpg/sg2_220_cif.got.tgz:438589.got - 2010.06.27 13:26:56.
