data_PCOD8023936
_publ_section_title
;
Structure prediction by ZEFSAII (Michael W. Deem and Ramdas Pophale) SiO2 
 PCOD8023936
Probable space group: P -1
;
_chemical_formula_sum "Si O2"
_cell_formula_units_Z 16
_cell_length_a 11.633703
_cell_length_b 8.824745
_cell_length_c 11.451027
_cell_angle_alpha 129.080018
_cell_angle_beta 93.603133
_cell_angle_gamma 56.875153
_cell_volume 688.828514
_symmetry_space_group_name_H-M "P -1"
_symmetry_group_IT_number 2
_symmetry_cell_setting 'triclinic'
loop_
_space_group_symop_operation_xyz
x,y,z
-x,-y,-z
loop_
_atom_site_type_symbol
_atom_site_label
_atom_site_fract_x
_atom_site_fract_y
_atom_site_fract_z
Si Si1 0.775052 0.071277 0.756130
Si Si2 0.832656 0.732730 0.057622
Si Si3 0.795518 0.421804 0.271790
Si Si4 0.683267 0.280769 0.383096
Si Si5 0.601806 0.959539 0.592848
Si Si6 0.334561 0.414879 0.917028
Si Si7 0.937915 0.205200 0.494791
Si Si8 0.894198 0.706244 0.786729
O O1 0.773694 0.909415 0.780613
O O2 0.946184 0.954649 0.683957
O O3 0.703993 0.043532 0.621892
O O4 0.662702 0.369630 0.929801
O O5 0.752169 0.614653 0.007258
O O6 0.742667 0.991335 0.257828
O O7 0.825538 0.806576 0.959354
O O8 0.000000 0.500000 0.000000
O O9 0.743359 0.274125 0.253169
O O10 0.739787 0.503282 0.175939
O O11 0.971869 0.281523 0.212443
O O12 0.717574 0.655475 0.474387
O O13 0.500000 0.500000 0.500000
O O14 0.769726 0.319382 0.502811
O O15 0.500325 0.132083 0.781616
O O16 0.500000 0.000000 0.500000
O O17 0.942251 0.428414 0.637508
O O18 0.000000 0.000000 0.500000
#
# Coordination Sequence:
#
# PCOD8023936 Si02
#       8
#     2   2   2   2   2   2   2   2
#     4  12  23  43  69 101 135 182 241 287 346 420
#     4  12  25  44  69 104 144 186 238 293 351 419
#     4  11  22  43  71 101 135 184 234 286 349 422
#     4  12  27  47  71 106 146 188 234 299 367 423
#     4  10  23  42  68 100 137 179 229 289 356 421
#     4  11  24  41  67 102 140 181 231 288 353 420
#     4  12  26  43  70 105 140 186 240 297 352 422
#     4  12  24  43  71 101 136 180 240 289 341 416
#
# _framework density 23.22784
#
# number of rings (size 3 to 8) (size 9 to 14) (size 15 to 20)
#    0.000    0.500    3.750    5.250    0.000    3.000 
#    0.000    5.000    0.000    0.000    0.000    0.000 
#    0.000    0.000    0.000    0.000    0.000    0.000 
#
# Total GULP energy -198228.393053 kJ/mol
# GULP energy per Si atom -12389.274566 kJ/mol
# Density = 2.317497 g / cm^3
# Si number density = 23.227840 Si / 1000 Ang^3
#
#
#
# Elastic Constant Matrix: (Units=GPa)
#
#
# Indices 1 2 3 4 5 6 
#
# 1 125.8255 50.0603 33.8300 -2.6129 -0.8102 -4.1318
# 2 50.0603 93.6197 35.0781 -7.1730 -4.0309 18.0459
# 3 33.8300 35.0781 116.4813 17.7649 10.1698 0.0837
# 4 -2.6129 -7.1730 17.7649 39.2484 5.0614 0.5312
# 5 -0.8102 -4.0309 10.1698 5.0614 39.8272 1.9897
# 6 -4.1318 18.0459 0.0837 0.5312 1.9897 41.5575
#
#
#
# Elastic Compliance Matrix: (Units=1/GPa)
#
#
# Indices 1 2 3 4 5 6 
#
# 1 0.010814 -0.005979 -0.001355 0.000223 -0.000251 0.003683
# 2 -0.005979 0.017670 -0.004519 0.004649 0.002652 -0.008445
# 3 -0.001355 -0.004519 0.011461 -0.005773 -0.002778 0.002012
# 4 0.000223 0.004649 -0.005773 0.029200 -0.001648 -0.002279
# 5 -0.000251 0.002652 -0.002778 -0.001648 0.026411 -0.002414
# 6 0.003683 -0.008445 0.002012 -0.002279 -0.002414 0.028237
#
#
# Mechanical properties :
#
#
# Convention : Reuss Voigt Hill
#
# Bulk Modulus (GPa) = 61.57936 63.76260 62.67098
# Shear Modulus (GPa) = 32.69832 38.59048 35.64440
#
# Velocity S-wave (km/s) = 3.75603 4.08044 3.92159
# Velocity P-wave (km/s) = 6.73639 7.05057 6.89527
#
# Compressibility (1/GPa) = 0.01623921
#
# Stress axis : x y z
#
# Youngs Moduli (GPa) = 92.46870 56.59313 87.25064
#
# Poissons Ratio (x) = 0.33835 0.11824
# Poissons Ratio (y) = 0.55284 0.39432
# Poissons Ratio (z) = 0.12531 0.25577
#
# Static dielectric constant tensor:
#      x y z
#    x 7.059440 -0.346680 -1.722470 
#    y -0.346680 4.235200 0.459220 
#    z -1.722470 0.459220 5.603210 
# 
# 
# High freq. dielectric constant tensor:
#      x y z
#    x 1.929000 0.000340 0.005220 
#    y 0.000340 1.914040 0.013610 
#    z 0.005220 0.013610 1.925240 
# 
# From -- ./inp_files/420017.got.cif
#   From: 2010.06.25/outbox.cif.g09.slc.cpg/sg2_211_cif.got.tgz:420017.got - 2010.06.27 13:26:56.
