data_PCOD8023431
_publ_section_title
;
Structure prediction by ZEFSAII (Michael W. Deem and Ramdas Pophale) SiO2 
 PCOD8023431
Probable space group: P -1
;
_chemical_formula_sum "Si O2"
_cell_formula_units_Z 16
_cell_length_a 9.195881
_cell_length_b 14.107739
_cell_length_c 14.191836
_cell_angle_alpha 41.500333
_cell_angle_beta 86.495225
_cell_angle_gamma 118.838446
_cell_volume 733.029755
_symmetry_space_group_name_H-M "P -1"
_symmetry_group_IT_number 2
_symmetry_cell_setting 'triclinic'
loop_
_space_group_symop_operation_xyz
x,y,z
-x,-y,-z
loop_
_atom_site_type_symbol
_atom_site_label
_atom_site_fract_x
_atom_site_fract_y
_atom_site_fract_z
Si Si1 0.076624 0.068516 0.665032
Si Si2 0.807624 0.468051 0.514341
Si Si3 0.442344 0.595251 0.271464
Si Si4 0.064790 0.494913 0.144128
Si Si5 0.287459 0.772913 0.475514
Si Si6 0.607323 0.845171 0.892104
Si Si7 0.200878 0.860175 0.743836
Si Si8 0.166832 0.195737 0.770157
O O1 0.237350 0.331879 0.428778
O O2 0.143393 0.083581 0.759601
O O3 0.130705 0.970942 0.674449
O O4 0.790095 0.882588 0.801034
O O5 0.648106 0.340055 0.711347
O O6 0.680604 0.333965 0.518975
O O7 0.922486 0.715758 0.318905
O O8 0.000000 0.500000 0.500000
O O9 0.568100 0.595889 0.347176
O O10 0.617893 0.799776 0.033807
O O11 0.961039 0.426117 0.305743
O O12 0.885969 0.255819 0.269174
O O13 0.327572 0.623964 0.034903
O O14 0.076649 0.664421 0.974888
O O15 0.288640 0.914376 0.304483
O O16 0.510749 0.936927 0.416561
O O17 0.000000 0.000000 0.000000
#
# Coordination Sequence:
#
# PCOD8023431 Si02
#       8
#     2   2   2   2   2   2   2   2
#     4  11  22  40  63  92 122 163 207 252 313 375
#     4  11  23  38  62  95 127 166 211 253 306 370
#     4  11  23  42  60  90 132 164 208 255 302 381
#     4  10  23  43  64  91 124 157 209 270 311 371
#     4  11  22  42  64  89 127 165 210 257 315 366
#     4  11  23  40  62  90 127 167 203 258 316 372
#     4  10  23  41  67  93 116 163 213 258 321 370
#     4  11  22  39  62  90 128 165 206 251 307 369
#
# _framework density 21.827217000000001
#
# number of rings (size 3 to 8) (size 9 to 14) (size 15 to 20)
#    0.000    1.250    1.250    6.375    1.750    2.000 
#    0.000    2.500    0.000    0.000    0.000    0.000 
#    0.000    0.000    0.000    0.000    0.000    0.000 
#
# Total GULP energy -198320.807928 kJ/mol
# GULP energy per Si atom -12395.050496 kJ/mol
# Density = 2.177754 g / cm^3
# Si number density = 21.827217 Si / 1000 Ang^3
#
#
#
# Elastic Constant Matrix: (Units=GPa)
#
#
# Indices 1 2 3 4 5 6 
#
# 1 129.2197 20.6275 28.2785 -5.4123 -6.4982 -8.6069
# 2 20.6275 70.4965 13.7497 -8.4460 5.3053 -10.9824
# 3 28.2785 13.7497 85.8609 10.3658 -5.3739 -8.1539
# 4 -5.4123 -8.4460 10.3658 32.2348 8.8900 -0.6653
# 5 -6.4982 5.3053 -5.3739 8.8900 27.1281 -0.8659
# 6 -8.6069 -10.9824 -8.1539 -0.6653 -0.8659 34.0864
#
#
#
# Elastic Compliance Matrix: (Units=1/GPa)
#
#
# Indices 1 2 3 4 5 6 
#
# 1 0.008807 -0.001851 -0.002578 0.001423 0.001529 0.001077
# 2 -0.001851 0.017352 -0.003030 0.007130 -0.006634 0.004369
# 3 -0.002578 -0.003030 0.014357 -0.007255 0.005254 0.001799
# 4 0.001423 0.007130 -0.007255 0.039758 -0.015478 0.001304
# 5 0.001529 -0.006634 0.005254 -0.015478 0.044650 0.000338
# 6 0.001077 0.004369 0.001799 0.001304 0.000338 0.031481
#
#
# Mechanical properties :
#
#
# Convention : Reuss Voigt Hill
#
# Bulk Modulus (GPa) = 39.06674 45.65427 42.36050
# Shear Modulus (GPa) = 27.80025 33.55128 30.67576
#
# Velocity S-wave (km/s) = 3.57270 3.92488 3.75292
# Velocity P-wave (km/s) = 5.91235 6.44214 6.18292
#
# Compressibility (1/GPa) = 0.02559722
#
# Stress axis : x y z
#
# Youngs Moduli (GPa) = 113.55117 57.63097 69.65392
#
# Poissons Ratio (x) = 0.10666 0.17956
# Poissons Ratio (y) = 0.21015 0.21107
# Poissons Ratio (z) = 0.29273 0.17464
#
# Static dielectric constant tensor:
#      x y z
#    x 3.583010 0.929820 0.067220 
#    y 0.929820 3.603540 -0.383640 
#    z 0.067220 -0.383640 3.880280 
# 
# 
# High freq. dielectric constant tensor:
#      x y z
#    x 1.864530 0.015590 -0.006940 
#    y 0.015590 1.845160 0.000790 
#    z -0.006940 0.000790 1.863210 
# 
# From -- ./inp_files/503862.got.cif
#   From: 2010.06.25/outbox.cif.g09.slc.cpg/sg2_252_cif.got.tgz:503862.got - 2010.06.27 13:26:56.
