data_PCOD8023207
_publ_section_title
;
Structure prediction by ZEFSAII (Michael W. Deem and Ramdas Pophale) SiO2 
 PCOD8023207
Probable space group: P -1
;
_chemical_formula_sum "Si O2"
_cell_formula_units_Z 14
_cell_length_a 8.988683
_cell_length_b 9.401498
_cell_length_c 9.021013
_cell_angle_alpha 71.507278
_cell_angle_beta 78.142044
_cell_angle_gamma 69.732112
_cell_volume 674.283023
_symmetry_space_group_name_H-M "P -1"
_symmetry_group_IT_number 2
_symmetry_cell_setting 'triclinic'
loop_
_space_group_symop_operation_xyz
x,y,z
-x,-y,-z
loop_
_atom_site_type_symbol
_atom_site_label
_atom_site_fract_x
_atom_site_fract_y
_atom_site_fract_z
Si Si1 0.226439 0.240616 0.212045
Si Si2 0.493295 0.946277 0.186148
Si Si3 0.041823 0.786901 0.923830
Si Si4 0.585406 0.596847 0.350419
Si Si5 0.339218 0.495851 0.955707
Si Si6 0.840612 0.919763 0.206560
Si Si7 0.852883 0.651169 0.484081
O O1 0.218768 0.319587 0.347304
O O2 0.049485 0.253784 0.185879
O O3 0.336077 0.060078 0.258986
O O4 0.309245 0.331556 0.052814
O O5 0.475744 0.770665 0.263435
O O6 0.649694 0.963853 0.228692
O O7 0.500000 0.000000 0.000000
O O8 0.187976 0.638331 0.994043
O O9 0.111418 0.926077 0.818331
O O10 0.914690 0.838317 0.064912
O O11 0.500000 0.500000 0.500000
O O12 0.646060 0.491000 0.228152
O O13 0.729314 0.621579 0.403680
O O14 0.500000 0.500000 0.000000
O O15 0.906251 0.799776 0.368236
O O16 0.000000 0.500000 0.500000
#
# Coordination Sequence:
#
# PCOD8023207 Si02
#       7
#     2   2   2   2   2   2   2
#     4  12  23  39  68  93 121 177 210 261 318 382
#     4  11  21  43  67  91 131 164 216 263 316 379
#     4  11  23  39  64  91 125 163 221 257 315 384
#     4  11  25  42  64  94 129 165 208 270 320 372
#     4  12  24  40  65  93 126 166 220 260 317 384
#     4  10  23  41  62  93 128 168 206 268 319 375
#     4  11  24  43  62  90 134 166 209 263 322 374
#
# _framework density 20.762794
#
# number of rings (size 3 to 8) (size 9 to 14) (size 15 to 20)
#    0.000    0.857    2.857    4.714    0.000    5.143 
#    0.000    0.000    0.000    0.000    0.000    0.000 
#    0.000    0.000    0.000    0.000    0.000    0.000 
#
# Total GULP energy -173667.219510 kJ/mol
# GULP energy per Si atom -12404.801394 kJ/mol
# Density = 2.071554 g / cm^3
# Si number density = 20.762794 Si / 1000 Ang^3
#
#
#
# Elastic Constant Matrix: (Units=GPa)
#
#
# Indices 1 2 3 4 5 6 
#
# 1 112.4426 47.0398 25.2128 -8.5928 13.1502 1.1615
# 2 47.0398 112.5759 37.0666 -14.6515 3.1330 -11.4694
# 3 25.2128 37.0666 114.9825 -9.5268 -0.5621 9.1956
# 4 -8.5928 -14.6515 -9.5268 49.8089 8.5563 0.4971
# 5 13.1502 3.1330 -0.5621 8.5563 35.0940 -4.1539
# 6 1.1615 -11.4694 9.1956 0.4971 -4.1539 43.4357
#
#
#
# Elastic Compliance Matrix: (Units=1/GPa)
#
#
# Indices 1 2 3 4 5 6 
#
# 1 0.011589 -0.004432 -0.000887 0.001314 -0.004487 -0.001737
# 2 -0.004432 0.012476 -0.003196 0.002176 0.000451 0.004108
# 3 -0.000887 -0.003196 0.010232 0.000856 0.000221 -0.002975
# 4 0.001314 0.002176 0.000856 0.022166 -0.006134 -0.000482
# 5 -0.004487 0.000451 0.000221 -0.006134 0.032029 0.003326
# 6 -0.001737 0.004108 -0.002975 -0.000482 0.003326 0.025107
#
#
# Mechanical properties :
#
#
# Convention : Reuss Voigt Hill
#
# Bulk Modulus (GPa) = 57.91095 62.07105 59.99100
# Shear Modulus (GPa) = 36.66124 41.04653 38.85389
#
# Velocity S-wave (km/s) = 4.20660 4.45109 4.33057
# Velocity P-wave (km/s) = 7.17957 7.50843 7.34584
#
# Compressibility (1/GPa) = 0.01726789
#
# Stress axis : x y z
#
# Youngs Moduli (GPa) = 86.28584 80.15322 97.73570
#
# Poissons Ratio (x) = 0.35521 0.08667
# Poissons Ratio (y) = 0.38239 0.31238
# Poissons Ratio (z) = 0.07652 0.25619
#
# Static dielectric constant tensor:
#      x y z
#    x 8.592490 -5.591120 -0.795590 
#    y -5.591120 10.366680 0.529800 
#    z -0.795590 0.529800 4.146840 
# 
# 
# High freq. dielectric constant tensor:
#      x y z
#    x 1.814670 -0.001840 0.003760 
#    y -0.001840 1.826550 -0.008430 
#    z 0.003760 -0.008430 1.816090 
# 
# From -- ./inp_files/157127.got.cif
#   From: 2010.06.25/outbox.cif.g09.slc.cpg/sg2_79_cif.got.tgz:157127.got - 2010.06.27 13:26:56.
