data_PCOD8023782
_publ_section_title
;
Structure prediction by ZEFSAII (Michael W. Deem and Ramdas Pophale) SiO2 
 PCOD8023782
Probable space group: P -1
;
_chemical_formula_sum "Si O2"
_cell_formula_units_Z 16
_cell_length_a 16.536682
_cell_length_b 13.090338
_cell_length_c 18.548777
_cell_angle_alpha 45.302012
_cell_angle_beta 26.817110
_cell_angle_gamma 27.867130
_cell_volume 773.843982
_symmetry_space_group_name_H-M "P -1"
_symmetry_group_IT_number 2
_symmetry_cell_setting 'triclinic'
loop_
_space_group_symop_operation_xyz
x,y,z
-x,-y,-z
loop_
_atom_site_type_symbol
_atom_site_label
_atom_site_fract_x
_atom_site_fract_y
_atom_site_fract_z
Si Si1 0.203441 0.965507 0.156899
Si Si2 0.432477 0.551061 0.839746
Si Si3 0.060391 0.815660 0.586590
Si Si4 0.083126 0.239864 0.774077
Si Si5 0.312952 0.024939 0.548048
Si Si6 0.024981 0.617640 0.474910
Si Si7 0.216559 0.271928 0.232457
Si Si8 0.650930 0.320385 0.316759
O O1 0.363752 0.711390 0.167042
O O2 0.435769 0.937792 0.960077
O O3 0.052142 0.109024 0.280138
O O4 0.967049 0.111906 0.207684
O O5 0.629433 0.568108 0.689159
O O6 0.339700 0.600121 0.805665
O O7 0.121169 0.753908 0.031052
O O8 0.412217 0.555576 0.439656
O O9 0.901634 0.791370 0.681973
O O10 0.000000 0.000000 0.500000
O O11 0.424171 0.023482 0.638194
O O12 0.945813 0.479971 0.787432
O O13 0.084547 0.210951 0.701790
O O14 0.450766 0.778038 0.570553
O O15 0.128268 0.149180 0.559183
O O16 0.000000 0.500000 0.500000
O O17 0.829905 0.715129 0.652072
#
# Coordination Sequence:
#
# PCOD8023782 Si02
#       8
#     2   2   2   2   2   2   2   2
#     4  11  25  44  69  99 128 175 224 274 333 389
#     4  11  24  44  65  98 136 171 220 276 328 390
#     4  12  23  46  71  93 133 180 218 277 339 383
#     4  10  23  42  65  96 133 174 217 271 329 396
#     4  11  23  41  66  98 133 179 220 262 334 395
#     4  12  23  41  66  97 135 179 217 267 328 398
#     4  11  23  44  68  95 134 173 218 275 331 389
#     4  12  24  44  69  98 133 171 223 273 329 398
#
# _framework density 20.676003000000001
#
# number of rings (size 3 to 8) (size 9 to 14) (size 15 to 20)
#    0.000    0.750    6.250    0.750    3.500    2.000 
#    0.000    0.625    0.000    0.000    0.000    0.000 
#    0.000    0.000    0.000    0.000    0.000    0.000 
#
# Total GULP energy -198401.974888 kJ/mol
# GULP energy per Si atom -12400.123430 kJ/mol
# Density = 2.062894 g / cm^3
# Si number density = 20.676003 Si / 1000 Ang^3
#
#
#
# Elastic Constant Matrix: (Units=GPa)
#
#
# Indices 1 2 3 4 5 6 
#
# 1 116.6904 23.7555 60.3758 -0.2179 8.0746 -13.9627
# 2 23.7555 77.9850 34.0801 -0.6892 -8.9514 -2.9585
# 3 60.3758 34.0801 159.2723 3.3286 26.5683 -7.9957
# 4 -0.2179 -0.6892 3.3286 24.0457 2.9380 -0.6387
# 5 8.0746 -8.9514 26.5683 2.9380 23.9725 -2.0986
# 6 -13.9627 -2.9585 -7.9957 -0.6387 -2.0986 38.7413
#
#
#
# Elastic Compliance Matrix: (Units=1/GPa)
#
#
# Indices 1 2 3 4 5 6 
#
# 1 0.011230 -0.001664 -0.003747 0.000663 -0.000057 0.003155
# 2 -0.001664 0.017015 -0.005093 -0.000357 0.012630 0.000327
# 3 -0.003747 -0.005093 0.010905 -0.000140 -0.012724 -0.000180
# 4 0.000663 -0.000357 -0.000140 0.042270 -0.005331 0.000591
# 5 -0.000057 0.012630 -0.012724 -0.005331 0.061341 0.001553
# 6 0.003155 0.000327 -0.000180 0.000591 0.001553 0.027031
#
#
# Mechanical properties :
#
#
# Convention : Reuss Voigt Hill
#
# Bulk Modulus (GPa) = 55.12255 65.59672 60.35964
# Shear Modulus (GPa) = 25.40060 33.06765 29.23412
#
# Velocity S-wave (km/s) = 3.50881 4.00349 3.76429
# Velocity P-wave (km/s) = 6.56762 7.29147 6.93899
#
# Compressibility (1/GPa) = 0.01814140
#
# Stress axis : x y z
#
# Youngs Moduli (GPa) = 89.04907 58.77315 91.70114
#
# Poissons Ratio (x) = 0.09782 0.34359
# Poissons Ratio (y) = 0.14821 0.46702
# Poissons Ratio (z) = 0.33365 0.29932
#
# Static dielectric constant tensor:
#      x y z
#    x 3.963550 -0.051580 0.256650 
#    y -0.051580 3.811330 -0.024390 
#    z 0.256650 -0.024390 4.300790 
# 
# 
# High freq. dielectric constant tensor:
#      x y z
#    x 1.808750 -0.002910 0.001440 
#    y -0.002910 1.810650 -0.000300 
#    z 0.001440 -0.000300 1.821260 
# 
# From -- ./inp_files/205822.got.cif
#   From: 2010.06.25/outbox.cif.g09.slc.cpg/sg2_103_cif.got.tgz:205822.got - 2010.06.27 13:26:56.
