data_PCOD8023340
_publ_section_title
;
Structure prediction by ZEFSAII (Michael W. Deem and Ramdas Pophale) SiO2 
 PCOD8023340
Probable space group: P -1
;
_chemical_formula_sum "Si O2"
_cell_formula_units_Z 16
_cell_length_a 8.013990
_cell_length_b 19.118193
_cell_length_c 6.394109
_cell_angle_alpha 72.290869
_cell_angle_beta 60.866137
_cell_angle_gamma 54.417755
_cell_volume 695.638473
_symmetry_space_group_name_H-M "P -1"
_symmetry_group_IT_number 2
_symmetry_cell_setting 'triclinic'
loop_
_space_group_symop_operation_xyz
x,y,z
-x,-y,-z
loop_
_atom_site_type_symbol
_atom_site_label
_atom_site_fract_x
_atom_site_fract_y
_atom_site_fract_z
Si Si1 0.165044 0.293297 0.859625
Si Si2 0.275027 0.548366 0.958395
Si Si3 0.018764 0.051745 0.631200
Si Si4 0.834057 0.818181 0.702170
Si Si5 0.534507 0.259519 0.361770
Si Si6 0.650619 0.621648 0.016245
Si Si7 0.678269 0.106110 0.141134
Si Si8 0.731158 0.333197 0.488877
O O1 0.339451 0.253218 0.602713
O O2 0.239380 0.336077 0.955870
O O3 0.920528 0.370956 0.863920
O O4 0.148756 0.214696 0.038571
O O5 0.500000 0.500000 0.000000
O O6 0.194293 0.481550 0.013125
O O7 0.310689 0.583027 0.685336
O O8 0.098131 0.111197 0.426843
O O9 0.199244 0.988757 0.749249
O O10 0.000000 0.000000 0.500000
O O11 0.780964 0.105817 0.850346
O O12 0.582902 0.858315 0.742961
O O13 0.008334 0.731491 0.543681
O O14 0.703619 0.171157 0.218458
O O15 0.681991 0.273724 0.423189
O O16 0.409208 0.339607 0.212237
O O17 0.421522 0.637404 0.242609
#
# Coordination Sequence:
#
# PCOD8023340 Si02
#       8
#     2   2   2   2   2   2   2   2
#     4  10  25  42  63  95 128 176 223 270 329 390
#     4  11  22  41  60  96 131 176 227 276 332 384
#     4  11  26  48  71  99 138 169 212 271 332 392
#     4  11  23  45  69  97 134 171 221 265 329 394
#     4  11  22  43  67  94 134 172 220 275 327 392
#     4  11  21  42  65  89 135 176 221 277 330 385
#     4  11  25  45  70 103 130 173 219 265 331 396
#     4  10  23  41  65  97 132 178 221 275 330 385
#
# _framework density 23.000454000000001
#
# number of rings (size 3 to 8) (size 9 to 14) (size 15 to 20)
#    0.000    1.250    2.500    2.625    3.500    2.000 
#   11.250    0.000    0.000    0.000    0.000    0.000 
#    0.000    0.000    0.000    0.000    0.000    0.000 
#
# Total GULP energy -198371.386463 kJ/mol
# GULP energy per Si atom -12398.211654 kJ/mol
# Density = 2.294810 g / cm^3
# Si number density = 23.000454 Si / 1000 Ang^3
#
#
#
# Elastic Constant Matrix: (Units=GPa)
#
#
# Indices 1 2 3 4 5 6 
#
# 1 72.9781 35.1617 22.1131 -7.7370 -7.9863 -13.5179
# 2 35.1617 117.9860 59.5594 -17.1030 -8.1784 0.6118
# 3 22.1131 59.5594 133.5765 -8.0225 -23.7250 6.7693
# 4 -7.7370 -17.1030 -8.0225 45.2908 8.3467 -1.6334
# 5 -7.9863 -8.1784 -23.7250 8.3467 28.7096 -1.7571
# 6 -13.5179 0.6118 6.7693 -1.6334 -1.7571 44.5936
#
#
#
# Elastic Compliance Matrix: (Units=1/GPa)
#
#
# Indices 1 2 3 4 5 6 
#
# 1 0.017590 -0.004696 -0.000474 0.000744 0.003292 0.005625
# 2 -0.004696 0.012838 -0.005236 0.003659 -0.003088 -0.000793
# 3 -0.000474 -0.005236 0.011320 -0.001601 0.008103 -0.001529
# 4 0.000744 0.003659 -0.001601 0.024666 -0.007182 0.001039
# 5 0.003292 -0.003088 0.008103 -0.007182 0.043729 0.001270
# 6 0.005625 -0.000793 -0.001529 0.001039 0.001270 0.024461
#
#
# Mechanical properties :
#
#
# Convention : Reuss Voigt Hill
#
# Bulk Modulus (GPa) = 47.76142 62.02322 54.89232
# Shear Modulus (GPa) = 30.78917 37.56588 34.17753
#
# Velocity S-wave (km/s) = 3.66270 4.04575 3.85898
# Velocity P-wave (km/s) = 6.22075 6.98919 6.61614
#
# Compressibility (1/GPa) = 0.02093740
#
# Stress axis : x y z
#
# Youngs Moduli (GPa) = 56.85029 77.89084 88.34083
#
# Poissons Ratio (x) = 0.36578 0.04186
# Poissons Ratio (y) = 0.26698 0.46251
# Poissons Ratio (z) = 0.02694 0.40780
#
# Static dielectric constant tensor:
#      x y z
#    x 4.077750 -0.087070 -0.233590 
#    y -0.087070 4.504510 -0.060480 
#    z -0.233590 -0.060480 4.263910 
# 
# 
# High freq. dielectric constant tensor:
#      x y z
#    x 1.901420 -0.011050 -0.013040 
#    y -0.011050 1.920920 -0.009910 
#    z -0.013040 -0.009910 1.915060 
# 
# From -- ./inp_files/52356.got.cif
#   From: 2010.06.25/outbox.cif.g09.slc.cpg/sg2_27_cif.got.tgz:52356.got - 2010.06.27 13:26:56.
