data_PCOD8023155
_publ_section_title
;
Structure prediction by ZEFSAII (Michael W. Deem and Ramdas Pophale) SiO2 
 PCOD8023155
Probable space group: P -1
;
_chemical_formula_sum "Si O2"
_cell_formula_units_Z 14
_cell_length_a 21.603859
_cell_length_b 12.611579
_cell_length_c 22.576936
_cell_angle_alpha 162.082498
_cell_angle_beta 160.836171
_cell_angle_gamma 26.266020
_cell_volume 621.102766
_symmetry_space_group_name_H-M "P -1"
_symmetry_group_IT_number 2
_symmetry_cell_setting 'triclinic'
loop_
_space_group_symop_operation_xyz
x,y,z
-x,-y,-z
loop_
_atom_site_type_symbol
_atom_site_label
_atom_site_fract_x
_atom_site_fract_y
_atom_site_fract_z
Si Si1 0.938073 0.730739 0.165728
Si Si2 0.860947 0.302361 0.103265
Si Si3 0.655838 0.131200 0.555988
Si Si4 0.102517 0.285424 0.529170
Si Si5 0.490461 0.293349 0.696022
Si Si6 0.742844 0.561711 0.630818
Si Si7 0.219328 0.715510 0.606535
O O1 0.149985 0.621671 0.316251
O O2 0.844285 0.900732 0.229788
O O3 0.819949 0.403739 0.864089
O O4 0.951275 0.011272 0.274341
O O5 0.820061 0.462082 0.215651
O O6 0.057330 0.430360 0.321832
O O7 0.695334 0.410746 0.966758
O O8 0.865810 0.891198 0.895422
O O9 0.461568 0.325193 0.470896
O O10 0.718044 0.916632 0.440958
O O11 0.637112 0.858684 0.447192
O O12 0.000000 0.500000 0.500000
O O13 0.398877 0.629879 0.763988
O O14 0.500000 0.000000 0.500000
O O15 0.722744 0.298894 0.417583
#
# Coordination Sequence:
#
# PCOD8023155 Si02
#       7
#     2   2   2   2   2   2   2
#     4  11  25  41  65  95 131 176 213 268 330 382
#     4  10  23  40  70  96 129 173 221 270 316 384
#     4  11  24  42  67  94 137 171 214 274 316 386
#     4  11  24  47  70  94 125 175 229 267 326 386
#     4  11  22  41  66 103 128 171 219 262 327 380
#     4  11  23  39  62 101 129 173 213 261 338 379
#     4  11  22  40  64  96 138 173 215 264 319 392
#
# _framework density 22.540552999999999
#
# number of rings (size 3 to 8) (size 9 to 14) (size 15 to 20)
#    0.000    1.143    2.857    4.714    2.000    5.714 
#    0.000    4.286    0.000    0.000    0.000    0.000 
#    0.000    0.000    0.000    0.000    0.000    0.000 
#
# Total GULP energy -173665.720711 kJ/mol
# GULP energy per Si atom -12404.694336 kJ/mol
# Density = 2.248925 g / cm^3
# Si number density = 22.540553 Si / 1000 Ang^3
#
#
#
# Elastic Constant Matrix: (Units=GPa)
#
#
# Indices 1 2 3 4 5 6 
#
# 1 79.0159 22.5049 9.9967 -5.2664 -20.1076 -26.4159
# 2 22.5049 132.1872 21.9248 -26.6940 -14.6293 -2.9008
# 3 9.9967 21.9248 39.7305 -17.3770 -22.1957 4.0864
# 4 -5.2664 -26.6940 -17.3770 34.0927 0.9864 -7.8399
# 5 -20.1076 -14.6293 -22.1957 0.9864 31.3802 8.4644
# 6 -26.4159 -2.9008 4.0864 -7.8399 8.4644 44.0431
#
#
#
# Elastic Compliance Matrix: (Units=1/GPa)
#
#
# Indices 1 2 3 4 5 6 
#
# 1 0.019164 -0.001207 0.003953 0.005962 0.011664 0.009867
# 2 -0.001207 0.009648 0.000054 0.007432 0.003372 0.000581
# 3 0.003953 0.000054 0.067812 0.031836 0.051732 -0.008192
# 4 0.005962 0.007432 0.031836 0.052761 0.026695 0.005373
# 5 0.011664 0.003372 0.051732 0.026695 0.078817 -0.007977
# 6 0.009867 0.000581 -0.008192 0.005373 -0.007977 0.031911
#
#
# Mechanical properties :
#
#
# Convention : Reuss Voigt Hill
#
# Bulk Modulus (GPa) = 9.78248 39.97626 24.87937
# Shear Modulus (GPa) = 17.32579 35.00370 26.16474
#
# Velocity S-wave (km/s) = 2.77546 3.94499 3.41073
# Velocity P-wave (km/s) = 3.82365 6.20680 5.15483
#
# Compressibility (1/GPa) = 0.10222355
#
# Stress axis : x y z
#
# Youngs Moduli (GPa) = 52.18249 103.64527 14.74666
#
# Poissons Ratio (x) = 0.12510 -0.05829
# Poissons Ratio (y) = 0.06298 -0.00080
# Poissons Ratio (z) = -0.20627 -0.00560
#
# Static dielectric constant tensor:
#      x y z
#    x 4.228980 0.136590 -0.301830 
#    y 0.136590 4.699180 -0.340980 
#    z -0.301830 -0.340980 4.171250 
# 
# 
# High freq. dielectric constant tensor:
#      x y z
#    x 1.889930 -0.008410 -0.009910 
#    y -0.008410 1.896190 0.000580 
#    z -0.009910 0.000580 1.886190 
# 
# From -- ./inp_files/281553.got.cif
#   From: 2010.06.25/outbox.cif.g09.slc.cpg/sg2_141_cif.got.tgz:281553.got - 2010.06.27 13:26:56.
