data_PCOD8023802
_publ_section_title
;
Structure prediction by ZEFSAII (Michael W. Deem and Ramdas Pophale) SiO2 
 PCOD8023802
Probable space group: P -1
;
_chemical_formula_sum "Si O2"
_cell_formula_units_Z 14
_cell_length_a 6.239213
_cell_length_b 12.286029
_cell_length_c 10.315371
_cell_angle_alpha 85.109983
_cell_angle_beta 132.428709
_cell_angle_gamma 100.656836
_cell_volume 572.730351
_symmetry_space_group_name_H-M "P -1"
_symmetry_group_IT_number 2
_symmetry_cell_setting 'triclinic'
loop_
_space_group_symop_operation_xyz
x,y,z
-x,-y,-z
loop_
_atom_site_type_symbol
_atom_site_label
_atom_site_fract_x
_atom_site_fract_y
_atom_site_fract_z
Si Si1 0.011311 0.638543 0.340692
Si Si2 0.192607 0.750476 0.871562
Si Si3 0.759160 0.858246 0.181924
Si Si4 0.648345 0.968897 0.365988
Si Si5 0.326833 0.599816 0.727008
Si Si6 0.002370 0.381633 0.957088
Si Si7 0.228714 0.076367 0.309839
O O1 0.901166 0.754913 0.300337
O O2 0.752776 0.533259 0.273562
O O3 0.270890 0.633603 0.551872
O O4 0.124551 0.631201 0.239706
O O5 0.128853 0.660131 0.739098
O O6 0.210959 0.698254 0.026601
O O7 0.932543 0.820049 0.768856
O O8 0.516993 0.824351 0.973230
O O9 0.555616 0.894456 0.211364
O O10 0.000600 0.959845 0.221605
O O11 0.576734 0.906630 0.480276
O O12 0.464316 0.072224 0.288201
O O13 0.000000 0.000000 0.500000
O O14 0.664341 0.642060 0.898790
O O15 0.000000 0.500000 0.000000
#
# Coordination Sequence:
#
# PCOD8023802 Si02
#       7
#     2   2   2   2   2   2   2
#     4  11  24  47  72 100 141 183 234 291 355 419
#     4  12  25  43  70 104 140 184 237 292 347 422
#     4  11  23  41  68  98 141 187 225 293 350 413
#     4   9  21  42  65  94 137 179 230 294 340 407
#     4  11  25  48  72 101 139 187 236 292 353 423
#     4  12  25  45  69 103 142 182 235 298 353 412
#     4  10  23  42  66 100 135 183 237 280 349 424
#
# _framework density 24.444312
#
# number of rings (size 3 to 8) (size 9 to 14) (size 15 to 20)
#    0.000    1.143    2.857    2.571    2.000    6.857 
#    2.571    0.000    0.000    0.000    0.000    0.000 
#    0.000    0.000    0.000    0.000    0.000    0.000 
#
# Total GULP energy -173481.502558 kJ/mol
# GULP energy per Si atom -12391.535897 kJ/mol
# Density = 2.438868 g / cm^3
# Si number density = 24.444312 Si / 1000 Ang^3
#
#
#
# Elastic Constant Matrix: (Units=GPa)
#
#
# Indices 1 2 3 4 5 6 
#
# 1 130.0235 47.8211 41.3416 -3.5829 -17.1009 -32.7090
# 2 47.8211 95.0471 10.4099 -6.2636 -3.3318 -33.4322
# 3 41.3416 10.4099 87.8216 -2.6868 -20.4836 -4.6333
# 4 -3.5829 -6.2636 -2.6868 32.0942 0.3142 3.2617
# 5 -17.1009 -3.3318 -20.4836 0.3142 47.7626 -3.8139
# 6 -32.7090 -33.4322 -4.6333 3.2617 -3.8139 45.5860
#
#
#
# Elastic Compliance Matrix: (Units=1/GPa)
#
#
# Indices 1 2 3 4 5 6 
#
# 1 0.012239 -0.003478 -0.004403 -0.000321 0.002735 0.006035
# 2 -0.003478 0.015466 0.000497 0.001767 0.000740 0.008833
# 3 -0.004403 0.000497 0.014438 0.000872 0.004564 -0.001008
# 4 -0.000321 0.001767 0.000872 0.031652 0.000086 -0.001104
# 5 0.002735 0.000740 0.004564 0.000086 0.024324 0.004998
# 6 0.006035 0.008833 -0.001008 -0.001104 0.004998 0.033140
#
#
# Mechanical properties :
#
#
# Convention : Reuss Voigt Hill
#
# Bulk Modulus (GPa) = 36.52879 56.89307 46.71093
# Shear Modulus (GPa) = 32.22645 39.30985 35.76815
#
# Velocity S-wave (km/s) = 3.63486 4.01451 3.82940
# Velocity P-wave (km/s) = 5.70898 6.69429 6.22117
#
# Compressibility (1/GPa) = 0.02737567
#
# Stress axis : x y z
#
# Youngs Moduli (GPa) = 81.70496 64.65829 69.25957
#
# Poissons Ratio (x) = 0.22488 0.30493
# Poissons Ratio (y) = 0.28417 -0.03440
# Poissons Ratio (z) = 0.35972 -0.03212
#
# Static dielectric constant tensor:
#      x y z
#    x 4.693260 -0.555670 -0.145410 
#    y -0.555670 4.266850 0.206830 
#    z -0.145410 0.206830 4.476180 
# 
# 
# High freq. dielectric constant tensor:
#      x y z
#    x 1.975640 -0.018910 -0.007260 
#    y -0.018910 1.975830 0.002350 
#    z -0.007260 0.002350 1.969570 
# 
# From -- ./inp_files/56555.got.cif
#   From: 2010.06.25/outbox.cif.g09.slc.cpg/sg2_29_cif.got.tgz:56555.got - 2010.06.27 13:26:56.
