data_PCOD8023364
_publ_section_title
;
Structure prediction by ZEFSAII (Michael W. Deem and Ramdas Pophale) SiO2 
 PCOD8023364
Probable space group: P -1
;
_chemical_formula_sum "Si O2"
_cell_formula_units_Z 16
_cell_length_a 11.777887
_cell_length_b 19.404523
_cell_length_c 9.404620
_cell_angle_alpha 27.152740
_cell_angle_beta 124.637864
_cell_angle_gamma 133.910026
_cell_volume 698.868712
_symmetry_space_group_name_H-M "P -1"
_symmetry_group_IT_number 2
_symmetry_cell_setting 'triclinic'
loop_
_space_group_symop_operation_xyz
x,y,z
-x,-y,-z
loop_
_atom_site_type_symbol
_atom_site_label
_atom_site_fract_x
_atom_site_fract_y
_atom_site_fract_z
Si Si1 0.316536 0.966325 0.311273
Si Si2 0.069848 0.134853 0.432342
Si Si3 0.856995 0.457941 0.586778
Si Si4 0.980019 0.638227 0.638363
Si Si5 0.483864 0.888103 0.331504
Si Si6 0.844189 0.856958 0.226694
Si Si7 0.253533 0.905647 0.689877
Si Si8 0.338358 0.504515 0.847304
O O1 0.446220 0.972708 0.284710
O O2 0.352087 0.942991 0.543321
O O3 0.148817 0.808933 0.430565
O O4 0.307405 0.144317 0.953351
O O5 0.155214 0.090055 0.702631
O O6 0.918269 0.126590 0.417619
O O7 0.187310 0.334395 0.111447
O O8 0.000000 0.000000 0.500000
O O9 0.929852 0.580363 0.548274
O O10 0.716286 0.488364 0.365704
O O11 0.000000 0.500000 0.500000
O O12 0.765124 0.259918 0.935519
O O13 0.844331 0.674081 0.546186
O O14 0.000000 0.500000 0.000000
O O15 0.363687 0.682828 0.610059
O O16 0.660608 0.932728 0.430815
O O17 0.500000 0.000000 0.000000
O O18 0.000000 0.000000 0.000000
O O19 0.500000 0.500000 0.000000
#
# Coordination Sequence:
#
# PCOD8023364 Si02
#       8
#     2   2   2   2   2   2   2   2
#     4  11  25  44  72 101 147 193 241 307 379 445
#     4  12  26  43  76 106 146 192 248 311 366 440
#     4  12  24  42  74 112 144 192 253 312 363 444
#     4  11  22  41  72 108 148 186 246 313 371 442
#     4  12  28  47  73 101 149 197 239 308 376 440
#     4  10  23  41  66 108 143 179 241 303 372 433
#     4  12  24  46  71 106 139 191 256 296 372 447
#     4  12  29  48  70 112 153 191 249 308 381 437
#
# _framework density 22.894141999999999
#
# number of rings (size 3 to 8) (size 9 to 14) (size 15 to 20)
#    0.000    0.500    6.250    1.875    8.750    1.000 
#    0.000    0.000    0.000    3.000    0.000    0.000 
#    0.000    0.000    0.000    0.000    0.000    0.000 
#
# Total GULP energy -198213.564285 kJ/mol
# GULP energy per Si atom -12388.347768 kJ/mol
# Density = 2.284203 g / cm^3
# Si number density = 22.894142 Si / 1000 Ang^3
#
#
#
# Elastic Constant Matrix: (Units=GPa)
#
#
# Indices 1 2 3 4 5 6 
#
# 1 75.4485 32.9929 42.0151 12.4157 -3.3127 -16.3371
# 2 32.9929 172.1473 60.0024 14.8483 -11.9589 -16.5374
# 3 42.0151 60.0024 146.8836 16.8704 -3.7488 -12.2386
# 4 12.4157 14.8483 16.8704 52.6830 2.1347 -3.5022
# 5 -3.3127 -11.9589 -3.7488 2.1347 37.9879 6.2328
# 6 -16.3371 -16.5374 -12.2386 -3.5022 6.2328 37.3834
#
#
#
# Elastic Compliance Matrix: (Units=1/GPa)
#
#
# Indices 1 2 3 4 5 6 
#
# 1 0.017495 -0.001322 -0.003746 -0.002173 -0.000064 0.005641
# 2 -0.001322 0.007205 -0.002287 -0.000959 0.001738 0.001481
# 3 -0.003746 -0.002287 0.008979 -0.001331 -0.000116 0.000185
# 4 -0.002173 -0.000959 -0.001331 0.020290 -0.001828 0.000396
# 5 -0.000064 0.001738 -0.000116 -0.001828 0.027625 -0.004074
# 6 0.005641 0.001481 0.000185 0.000396 -0.004074 0.030647
#
#
# Mechanical properties :
#
#
# Convention : Reuss Voigt Hill
#
# Bulk Modulus (GPa) = 52.72025 73.83335 63.27680
# Shear Modulus (GPa) = 37.51591 42.90880 40.21235
#
# Velocity S-wave (km/s) = 4.05244 4.33393 4.19555
# Velocity P-wave (km/s) = 6.70628 7.57389 7.15325
#
# Compressibility (1/GPa) = 0.01896804
#
# Stress axis : x y z
#
# Youngs Moduli (GPa) = 57.16022 138.78528 111.36643
#
# Poissons Ratio (x) = 0.18352 0.41719
# Poissons Ratio (y) = 0.07558 0.25473
# Poissons Ratio (z) = 0.21413 0.31744
#
# Static dielectric constant tensor:
#      x y z
#    x 4.474030 0.134720 0.360720 
#    y 0.134720 4.547910 0.281170 
#    z 0.360720 0.281170 4.554670 
# 
# 
# High freq. dielectric constant tensor:
#      x y z
#    x 1.893910 0.003210 -0.002590 
#    y 0.003210 1.924380 0.019260 
#    z -0.002590 0.019260 1.912770 
# 
# From -- ./inp_files/278692.got.cif
#   From: 2010.06.25/outbox.cif.g09.slc.cpg/sg2_140_cif.got.tgz:278692.got - 2010.06.27 13:26:56.
