data_PCOD8023308
_publ_section_title
;
Structure prediction by ZEFSAII (Michael W. Deem and Ramdas Pophale) SiO2 
 PCOD8023308
Probable space group: P -1
;
_chemical_formula_sum "Si O2"
_cell_formula_units_Z 16
_cell_length_a 14.943909
_cell_length_b 10.758427
_cell_length_c 14.264895
_cell_angle_alpha 117.792217
_cell_angle_beta 28.501493
_cell_angle_gamma 133.769411
_cell_volume 720.417187
_symmetry_space_group_name_H-M "P -1"
_symmetry_group_IT_number 2
_symmetry_cell_setting 'triclinic'
loop_
_space_group_symop_operation_xyz
x,y,z
-x,-y,-z
loop_
_atom_site_type_symbol
_atom_site_label
_atom_site_fract_x
_atom_site_fract_y
_atom_site_fract_z
Si Si1 0.564707 0.586963 0.741699
Si Si2 0.817203 0.440985 0.270326
Si Si3 0.528426 0.648106 0.088992
Si Si4 0.439685 0.782733 0.057250
Si Si5 0.948273 0.997300 0.909435
Si Si6 0.903902 0.203500 0.739174
Si Si7 0.383589 0.093207 0.653563
Si Si8 0.809281 0.595361 0.149919
O O1 0.557232 0.438712 0.757811
O O2 0.402827 0.484168 0.760301
O O3 0.852555 0.759397 0.507899
O O4 0.458095 0.665754 0.924166
O O5 0.585990 0.309662 0.508539
O O6 0.706057 0.446032 0.276511
O O7 0.024001 0.650226 0.194761
O O8 0.946644 0.354958 0.104106
O O9 0.373969 0.692887 0.191198
O O10 0.500000 0.500000 0.000000
O O11 0.822368 0.848556 0.887420
O O12 0.216530 0.774727 0.230535
O O13 0.705194 0.996530 0.892695
O O14 0.122644 0.972750 0.793834
O O15 0.107124 0.214848 0.813892
O O16 0.695008 0.916407 0.171125
O O17 0.500000 0.000000 0.500000
#
# Coordination Sequence:
#
# PCOD8023308 Si02
#       8
#     2   2   2   2   2   2   2   2
#     4  11  22  42  64  91 124 163 206 260 313 375
#     4  11  23  40  64  94 126 168 206 263 317 379
#     4  10  23  41  65  90 125 167 208 258 308 362
#     4  10  23  42  61  92 124 163 213 259 303 367
#     4  11  22  41  65  92 129 165 209 261 312 383
#     4  11  22  40  68  87 124 168 205 256 315 364
#     4  11  23  40  65  97 127 166 207 256 326 377
#     4  11  23  40  65  94 128 162 213 259 319 382
#
# _framework density 22.209351999999999
#
# number of rings (size 3 to 8) (size 9 to 14) (size 15 to 20)
#    0.000    1.250    2.500    4.125    0.000    3.500 
#    0.000    2.500    0.000    0.000    0.000    0.000 
#    0.000    0.000    0.000    0.000    0.000    0.000 
#
# Total GULP energy -198337.282395 kJ/mol
# GULP energy per Si atom -12396.080150 kJ/mol
# Density = 2.215880 g / cm^3
# Si number density = 22.209352 Si / 1000 Ang^3
#
#
#
# Elastic Constant Matrix: (Units=GPa)
#
#
# Indices 1 2 3 4 5 6 
#
# 1 141.6974 27.1953 37.4521 -12.6007 -7.1523 -11.4518
# 2 27.1953 112.7609 22.0173 -17.2948 -13.4548 4.8383
# 3 37.4521 22.0173 92.6501 -8.0239 -7.7185 -8.8132
# 4 -12.6007 -17.2948 -8.0239 29.2944 -2.8056 -9.7402
# 5 -7.1523 -13.4548 -7.7185 -2.8056 23.4515 -4.2410
# 6 -11.4518 4.8383 -8.8132 -9.7402 -4.2410 32.5574
#
#
#
# Elastic Compliance Matrix: (Units=1/GPa)
#
#
# Indices 1 2 3 4 5 6 
#
# 1 0.008682 -0.000853 -0.002323 0.004233 0.002653 0.004164
# 2 -0.000853 0.011087 -0.001091 0.006730 0.006662 0.000638
# 3 -0.002323 -0.001091 0.013127 0.003900 0.004288 0.004624
# 4 0.004233 0.006730 0.003900 0.048492 0.015505 0.018071
# 5 0.002653 0.006662 0.004288 0.015505 0.052822 0.012623
# 6 0.004164 0.000638 0.004624 0.018071 0.012623 0.040387
#
#
# Mechanical properties :
#
#
# Convention : Reuss Voigt Hill
#
# Bulk Modulus (GPa) = 41.05043 57.82644 49.43843
# Shear Modulus (GPa) = 26.14367 34.42358 30.28363
#
# Velocity S-wave (km/s) = 3.43468 3.94122 3.69664
# Velocity P-wave (km/s) = 5.85260 6.84138 6.36621
#
# Compressibility (1/GPa) = 0.02436028
#
# Stress axis : x y z
#
# Youngs Moduli (GPa) = 115.18226 90.19667 76.18168
#
# Poissons Ratio (x) = 0.07695 0.17698
# Poissons Ratio (y) = 0.09826 0.08314
# Poissons Ratio (z) = 0.26758 0.09843
#
# Static dielectric constant tensor:
#      x y z
#    x 4.389460 -0.069280 -0.037500 
#    y -0.069280 4.136430 -0.127380 
#    z -0.037500 -0.127380 3.834550 
# 
# 
# High freq. dielectric constant tensor:
#      x y z
#    x 1.885080 -0.007860 -0.009670 
#    y -0.007860 1.886830 -0.009470 
#    z -0.009670 -0.009470 1.853380 
# 
# From -- ./inp_files/532577.got.cif
#   From: 2010.06.25/outbox.cif.g09.slc.cpg/sg2_267_cif.got.tgz:532577.got - 2010.06.27 13:26:56.
