data_PCOD8023312
_publ_section_title
;
Structure prediction by ZEFSAII (Michael W. Deem and Ramdas Pophale) SiO2 
 PCOD8023312
Probable space group: P -1
;
_chemical_formula_sum "Si O2"
_cell_formula_units_Z 12
_cell_length_a 18.043697
_cell_length_b 11.873518
_cell_length_c 11.873579
_cell_angle_alpha 149.001036
_cell_angle_beta 29.480277
_cell_angle_gamma 150.519698
_cell_volume 561.840058
_symmetry_space_group_name_H-M "P -1"
_symmetry_group_IT_number 2
_symmetry_cell_setting 'triclinic'
loop_
_space_group_symop_operation_xyz
x,y,z
-x,-y,-z
loop_
_atom_site_type_symbol
_atom_site_label
_atom_site_fract_x
_atom_site_fract_y
_atom_site_fract_z
Si Si1 0.904202 0.200768 0.571563
Si Si2 0.460433 0.207231 0.678763
Si Si3 0.039563 0.178758 0.707230
Si Si4 0.274556 0.457970 0.226438
Si Si5 0.774557 0.273567 0.042033
Si Si6 0.404204 0.928445 0.299238
O O1 0.749996 0.132999 0.633007
O O2 0.080884 0.408856 0.457775
O O3 0.932878 0.960765 0.343179
O O4 0.868791 0.299520 0.819979
O O5 0.627854 0.468581 0.718080
O O6 0.500000 0.000000 0.500000
O O7 0.432869 0.156824 0.539249
O O8 0.290042 0.216729 0.956811
O O9 0.209954 0.456807 0.716730
O O10 0.000000 0.000000 0.500000
O O11 0.872144 0.218077 0.968579
O O12 0.368792 0.680027 0.200486
O O13 0.580887 0.042237 0.091156
#
# Coordination Sequence:
#
# PCOD8023312 Si02
#       6
#     2   2   2   2   2   2
#     4  11  24  40  65  98 132 167 211 264 325 377
#     4   9  22  39  62  91 123 171 217 258 310 378
#     4   9  22  39  62  91 123 171 217 258 310 378
#     4  10  23  41  65  92 130 170 215 264 315 384
#     4  10  23  41  65  92 130 170 215 264 315 384
#     4  11  24  40  65  98 132 167 211 264 325 377
#
# _framework density 21.358391000000001
#
# number of rings (size 3 to 8) (size 9 to 14) (size 15 to 20)
#    0.000    2.000    0.000    1.000   14.000    5.333 
#    0.000    0.000    0.000    0.000    0.000    0.000 
#    0.000    0.000    0.000    0.000    0.000    0.000 
#
# Total GULP energy -148657.301079 kJ/mol
# GULP energy per Si atom -12388.108423 kJ/mol
# Density = 2.130978 g / cm^3
# Si number density = 21.358391 Si / 1000 Ang^3
#
#
#
# Elastic Constant Matrix: (Units=GPa)
#
#
# Indices 1 2 3 4 5 6 
#
# 1 115.2499 37.2774 38.9878 1.6369 -9.1131 15.0615
# 2 37.2774 122.3153 50.1888 -13.4251 -8.5542 7.0244
# 3 38.9878 50.1888 108.9498 0.6606 2.3515 3.2412
# 4 1.6369 -13.4251 0.6606 42.4743 2.7323 -8.2464
# 5 -9.1131 -8.5542 2.3515 2.7323 25.2513 -2.8316
# 6 15.0615 7.0244 3.2412 -8.2464 -2.8316 28.2150
#
#
#
# Elastic Compliance Matrix: (Units=1/GPa)
#
#
# Indices 1 2 3 4 5 6 
#
# 1 0.011359 -0.001891 -0.003087 -0.002285 0.003369 -0.005568
# 2 -0.001891 0.011239 -0.004593 0.003508 0.003183 0.000083
# 3 -0.003087 -0.004593 0.012465 -0.001166 -0.003632 0.000654
# 4 -0.002285 0.003508 -0.001166 0.026418 -0.001483 0.008053
# 5 0.003369 0.003183 -0.003632 -0.001483 0.042582 0.001666
# 6 -0.005568 0.000083 0.000654 0.008053 0.001666 0.040839
#
#
# Mechanical properties :
#
#
# Convention : Reuss Voigt Hill
#
# Bulk Modulus (GPa) = 62.80819 66.60256 64.70537
# Shear Modulus (GPa) = 29.52429 33.85884 31.69156
#
# Velocity S-wave (km/s) = 3.72200 3.98587 3.85619
# Velocity P-wave (km/s) = 6.92399 7.24112 7.08433
#
# Compressibility (1/GPa) = 0.01592149
#
# Stress axis : x y z
#
# Youngs Moduli (GPa) = 88.03416 88.97253 80.22252
#
# Poissons Ratio (x) = 0.16820 0.24767
# Poissons Ratio (y) = 0.16643 0.36850
# Poissons Ratio (z) = 0.27178 0.40869
#
# Static dielectric constant tensor:
#      x y z
#    x 4.041820 0.066380 -0.040170 
#    y 0.066380 3.868140 0.278990 
#    z -0.040170 0.278990 4.160470 
# 
# 
# High freq. dielectric constant tensor:
#      x y z
#    x 1.831680 0.009640 -0.005830 
#    y 0.009640 1.828860 0.010990 
#    z -0.005830 0.010990 1.840380 
# 
# From -- ./inp_files/22766.got.cif
#   From: 2010.06.25/outbox.cif.g09.slc.cpg/sg2_12_cif.got.tgz:22766.got - 2010.06.27 13:26:56.
