data_PCOD8023069
_publ_section_title
;
Structure prediction by ZEFSAII (Michael W. Deem and Ramdas Pophale) SiO2 
 PCOD8023069
Probable space group: P -1
;
_chemical_formula_sum "Si O2"
_cell_formula_units_Z 16
_cell_length_a 10.785567
_cell_length_b 17.338450
_cell_length_c 8.030323
_cell_angle_alpha 45.865867
_cell_angle_beta 45.549909
_cell_angle_gamma 46.858500
_cell_volume 710.768264
_symmetry_space_group_name_H-M "P -1"
_symmetry_group_IT_number 2
_symmetry_cell_setting 'triclinic'
loop_
_space_group_symop_operation_xyz
x,y,z
-x,-y,-z
loop_
_atom_site_type_symbol
_atom_site_label
_atom_site_fract_x
_atom_site_fract_y
_atom_site_fract_z
Si Si1 0.764421 0.504826 0.087179
Si Si2 0.640125 0.867431 0.545903
Si Si3 0.755550 0.259746 0.542944
Si Si4 0.804125 0.255048 0.142574
Si Si5 0.915740 0.632024 0.229725
Si Si6 0.971176 0.130184 0.857512
Si Si7 0.595974 0.658425 0.724964
Si Si8 0.655578 0.725398 0.057556
O O1 0.721879 0.395755 0.358253
O O2 0.759108 0.589897 0.114336
O O3 0.600696 0.580204 0.998864
O O4 0.965731 0.468739 0.859752
O O5 0.564746 0.790037 0.614381
O O6 0.832305 0.862385 0.290989
O O7 0.500000 0.000000 0.500000
O O8 0.689775 0.811706 0.765292
O O9 0.850992 0.199216 0.368563
O O10 0.883540 0.205347 0.663176
O O11 0.565296 0.238751 0.769679
O O12 0.580984 0.336539 0.228273
O O13 0.838385 0.167173 0.089192
O O14 0.934044 0.327926 0.878280
O O15 0.794688 0.594110 0.536268
O O16 0.756946 0.736429 0.117397
O O17 0.000000 0.000000 0.000000
#
# Coordination Sequence:
#
# PCOD8023069 Si02
#       8
#     2   2   2   2   2   2   2   2
#     4  10  23  40  66  99 133 186 223 276 341 398
#     4  11  23  43  70  98 130 176 227 280 342 404
#     4  11  24  44  68 101 140 178 227 282 338 406
#     4  11  24  44  70 100 138 179 227 281 341 399
#     4  11  22  41  64  98 135 179 225 278 337 401
#     4  12  25  46  72 100 135 177 229 285 341 406
#     4  11  22  44  65  97 140 174 225 281 334 404
#     4  11  22  43  67  97 138 177 230 278 337 405
#
# _framework density 22.510853999999998
#
# number of rings (size 3 to 8) (size 9 to 14) (size 15 to 20)
#    0.000    1.000    2.500    5.625    0.000    3.500 
#    6.750    1.875    0.000    0.000    0.000    0.000 
#    0.000    0.000    0.000    0.000    0.000    0.000 
#
# Total GULP energy -198331.756953 kJ/mol
# GULP energy per Si atom -12395.734810 kJ/mol
# Density = 2.245962 g / cm^3
# Si number density = 22.510854 Si / 1000 Ang^3
#
#
#
# Elastic Constant Matrix: (Units=GPa)
#
#
# Indices 1 2 3 4 5 6 
#
# 1 105.1974 18.5148 21.5703 3.3952 -5.1258 -8.3072
# 2 18.5148 59.6352 26.5957 6.9433 -5.1087 -0.5120
# 3 21.5703 26.5957 84.2356 4.9635 -6.4805 8.8013
# 4 3.3952 6.9433 4.9635 41.9038 -4.7248 -3.1205
# 5 -5.1258 -5.1087 -6.4805 -4.7248 43.5971 14.3382
# 6 -8.3072 -0.5120 8.8013 -3.1205 14.3382 24.0077
#
#
#
# Elastic Compliance Matrix: (Units=1/GPa)
#
#
# Indices 1 2 3 4 5 6 
#
# 1 0.010822 -0.002203 -0.002734 0.000084 -0.001160 0.005404
# 2 -0.002203 0.020377 -0.005796 -0.002356 0.000649 0.001103
# 3 -0.002734 -0.005796 0.015799 -0.000908 0.004411 -0.009614
# 4 0.000084 -0.002356 -0.000908 0.024713 0.001391 0.002693
# 5 -0.001160 0.000649 0.004411 0.001391 0.030219 -0.019872
# 6 0.005404 0.001103 -0.009614 0.002693 -0.019872 0.059290
#
#
# Mechanical properties :
#
#
# Convention : Reuss Voigt Hill
#
# Bulk Modulus (GPa) = 39.16835 42.49220 40.83028
# Shear Modulus (GPa) = 26.15112 34.06086 30.10599
#
# Velocity S-wave (km/s) = 3.41209 3.89406 3.66101
# Velocity P-wave (km/s) = 5.74114 6.25584 6.00401
#
# Compressibility (1/GPa) = 0.02553082
#
# Stress axis : x y z
#
# Youngs Moduli (GPa) = 92.40545 49.07534 63.29479
#
# Poissons Ratio (x) = 0.10812 0.17308
# Poissons Ratio (y) = 0.20358 0.36685
# Poissons Ratio (z) = 0.25268 0.28444
#
# Static dielectric constant tensor:
#      x y z
#    x 3.991630 -0.064290 0.111370 
#    y -0.064290 3.945620 0.262200 
#    z 0.111370 0.262200 4.232690 
# 
# 
# High freq. dielectric constant tensor:
#      x y z
#    x 1.901380 -0.009350 0.003010 
#    y -0.009350 1.868210 0.020060 
#    z 0.003010 0.020060 1.893180 
# 
# From -- ./inp_files/281485.got.cif
#   From: 2010.06.25/outbox.cif.g09.slc.cpg/sg2_141_cif.got.tgz:281485.got - 2010.06.27 13:26:56.
