data_PCOD8023964
_publ_section_title
;
Structure prediction by ZEFSAII (Michael W. Deem and Ramdas Pophale) SiO2 
 PCOD8023964
Probable space group: P -1
;
_chemical_formula_sum "Si O2"
_cell_formula_units_Z 14
_cell_length_a 19.417372
_cell_length_b 8.985985
_cell_length_c 9.903149
_cell_angle_alpha 133.949825
_cell_angle_beta 40.108659
_cell_angle_gamma 140.251097
_cell_volume 687.848318
_symmetry_space_group_name_H-M "P -1"
_symmetry_group_IT_number 2
_symmetry_cell_setting 'triclinic'
loop_
_space_group_symop_operation_xyz
x,y,z
-x,-y,-z
loop_
_atom_site_type_symbol
_atom_site_label
_atom_site_fract_x
_atom_site_fract_y
_atom_site_fract_z
Si Si1 0.396526 0.995062 0.058653
Si Si2 0.251067 0.385822 0.199455
Si Si3 0.247328 0.200397 0.545425
Si Si4 0.981823 0.726897 0.664354
Si Si5 0.657692 0.363409 0.512191
Si Si6 0.608804 0.890017 0.157058
Si Si7 0.750863 0.540479 0.044182
O O1 0.340900 0.117053 0.311357
O O2 0.444158 0.124841 0.924394
O O3 0.290270 0.724092 0.007468
O O4 0.500000 0.000000 0.000000
O O5 0.296578 0.592486 0.373860
O O6 0.102195 0.278472 0.340584
O O7 0.315321 0.493486 0.024737
O O8 0.288121 0.187813 0.057360
O O9 0.255162 0.393965 0.548562
O O10 0.291593 0.325131 0.703838
O O11 0.108602 0.976749 0.623135
O O12 0.000000 0.500000 0.500000
O O13 0.901726 0.700467 0.903116
O O14 0.674700 0.153738 0.291021
O O15 0.511815 0.288215 0.683187
#
# Coordination Sequence:
#
# PCOD8023964 Si02
#       7
#     2   2   2   2   2   2   2
#     4  12  25  41  70 100 133 171 221 274 326 400
#     4  10  23  42  68  93 132 171 214 274 329 379
#     4  12  23  43  69  95 133 176 221 271 328 390
#     4  10  23  44  69  95 135 172 221 275 330 385
#     4  11  24  41  69  93 135 174 215 270 334 385
#     4  11  24  44  63  99 135 170 219 272 327 394
#     4  10  24  43  66 101 128 171 223 266 332 386
#
# _framework density 20.353323
#
# number of rings (size 3 to 8) (size 9 to 14) (size 15 to 20)
#    0.857    0.286    4.286    1.714    2.000    5.714 
#    0.000    0.714    0.000    0.000    0.000    0.000 
#    0.000    0.000    0.000    0.000    0.000    0.000 
#
# Total GULP energy -173499.314754 kJ/mol
# GULP energy per Si atom -12392.808197 kJ/mol
# Density = 2.030700 g / cm^3
# Si number density = 20.353323 Si / 1000 Ang^3
#
#
#
# Elastic Constant Matrix: (Units=GPa)
#
#
# Indices 1 2 3 4 5 6 
#
# 1 100.6393 12.9549 51.7556 9.2827 11.3249 -10.6261
# 2 12.9549 108.2721 30.9401 1.3181 6.1147 -10.6816
# 3 51.7556 30.9401 139.6169 18.0532 21.7215 0.3492
# 4 9.2827 1.3181 18.0532 29.4591 -0.2962 3.8749
# 5 11.3249 6.1147 21.7215 -0.2962 36.3798 7.2482
# 6 -10.6261 -10.6816 0.3492 3.8749 7.2482 17.1726
#
#
#
# Elastic Compliance Matrix: (Units=1/GPa)
#
#
# Indices 1 2 3 4 5 6 
#
# 1 0.014149 0.001046 -0.004371 -0.003468 -0.004417 0.012141
# 2 0.001046 0.010769 -0.002349 -0.000520 -0.002439 0.008540
# 3 -0.004371 -0.002349 0.010611 -0.004872 -0.004330 -0.001455
# 4 -0.003468 -0.000520 -0.004872 0.040024 0.007286 -0.014476
# 5 -0.004417 -0.002439 -0.004330 0.007286 0.036111 -0.021048
# 6 0.012141 0.008540 -0.001455 -0.014476 -0.021048 0.083237
#
#
# Mechanical properties :
#
#
# Convention : Reuss Voigt Hill
#
# Bulk Modulus (GPa) = 41.35783 59.98102 50.66943
# Shear Modulus (GPa) = 23.33083 33.46081 28.39582
#
# Velocity S-wave (km/s) = 3.38936 4.05902 3.73922
# Velocity P-wave (km/s) = 5.97337 7.17645 6.60237
#
# Compressibility (1/GPa) = 0.02417922
#
# Stress axis : x y z
#
# Youngs Moduli (GPa) = 70.67723 92.86251 94.24491
#
# Poissons Ratio (x) = -0.09711 0.41198
# Poissons Ratio (y) = -0.07391 0.22136
# Poissons Ratio (z) = 0.30896 0.21811
#
# Static dielectric constant tensor:
#      x y z
#    x 3.492770 -0.063960 0.179470 
#    y -0.063960 3.796070 0.030980 
#    z 0.179470 0.030980 3.824390 
# 
# 
# High freq. dielectric constant tensor:
#      x y z
#    x 1.779740 -0.003650 0.013270 
#    y -0.003650 1.800660 0.004640 
#    z 0.013270 0.004640 1.804850 
# 
# From -- ./inp_files/469643.got.cif
#   From: 2010.06.25/outbox.cif.g09.slc.cpg/sg2_235_cif.got.tgz:469643.got - 2010.06.27 13:26:56.
