data_PCOD8023407
_publ_section_title
;
Structure prediction by ZEFSAII (Michael W. Deem and Ramdas Pophale) SiO2 
 PCOD8023407
Probable space group: P -1
;
_chemical_formula_sum "Si O2"
_cell_formula_units_Z 16
_cell_length_a 19.271429
_cell_length_b 11.516205
_cell_length_c 22.236255
_cell_angle_alpha 29.900555
_cell_angle_beta 161.407521
_cell_angle_gamma 152.497929
_cell_volume 714.997615
_symmetry_space_group_name_H-M "P -1"
_symmetry_group_IT_number 2
_symmetry_cell_setting 'triclinic'
loop_
_space_group_symop_operation_xyz
x,y,z
-x,-y,-z
loop_
_atom_site_type_symbol
_atom_site_label
_atom_site_fract_x
_atom_site_fract_y
_atom_site_fract_z
Si Si1 0.895042 0.729602 0.235055
Si Si2 0.349252 0.321731 0.136740
Si Si3 0.441680 0.144764 0.793092
Si Si4 0.558734 0.167303 0.181966
Si Si5 0.884120 0.093725 0.784220
Si Si6 0.196472 0.735952 0.865918
Si Si7 0.312927 0.590436 0.445201
Si Si8 0.626892 0.080280 0.407824
O O1 0.782688 0.439981 0.248863
O O2 0.074861 0.906051 0.252749
O O3 0.083428 0.797704 0.414106
O O4 0.684289 0.807630 0.045854
O O5 0.576698 0.311775 0.293879
O O6 0.311240 0.187745 0.231429
O O7 0.352261 0.600759 0.020784
O O8 0.132950 0.140820 0.998588
O O9 0.427397 0.411009 0.647913
O O10 0.391741 0.991277 0.758907
O O11 0.242860 0.985274 0.751312
O O12 0.700751 0.197690 0.011582
O O13 0.524983 0.021191 0.283136
O O14 0.784399 0.302030 0.627352
O O15 0.914929 0.564451 0.715473
O O16 0.506241 0.815777 0.463829
#
# Coordination Sequence:
#
# PCOD8023407 Si02
#       8
#     2   2   2   2   2   2   2   2
#     4  11  24  40  67  93 126 170 216 263 324 368
#     4   9  18  36  65  94 129 150 206 272 319 362
#     4  11  25  43  65  93 130 176 213 250 316 389
#     4  11  25  45  60  91 136 171 214 259 309 386
#     4   9  18  36  64  96 124 159 199 272 323 358
#     4  10  23  42  66  97 126 170 210 263 319 375
#     4  10  23  41  66  98 131 162 211 267 320 376
#     4  11  24  40  67 100 124 167 213 268 322 373
#
# _framework density 22.377697999999999
#
# number of rings (size 3 to 8) (size 9 to 14) (size 15 to 20)
#    0.000    1.750    1.250    3.000    5.250    2.500 
#    2.250    1.250    0.000    0.000    0.000    0.000 
#    0.000    0.000    0.000    0.000    0.000    0.000 
#
# Total GULP energy -198351.288361 kJ/mol
# GULP energy per Si atom -12396.955523 kJ/mol
# Density = 2.232677 g / cm^3
# Si number density = 22.377698 Si / 1000 Ang^3
#
#
#
# Elastic Constant Matrix: (Units=GPa)
#
#
# Indices 1 2 3 4 5 6 
#
# 1 63.7737 18.9911 21.1125 -5.1935 -6.9775 6.6451
# 2 18.9911 82.8377 55.8610 6.9764 -4.1635 3.0586
# 3 21.1125 55.8610 98.9723 0.8723 1.1969 8.3955
# 4 -5.1935 6.9764 0.8723 45.0663 4.6402 -4.1099
# 5 -6.9775 -4.1635 1.1969 4.6402 18.3346 -0.5607
# 6 6.6451 3.0586 8.3955 -4.1099 -0.5607 24.9332
#
#
#
# Elastic Compliance Matrix: (Units=1/GPa)
#
#
# Indices 1 2 3 4 5 6 
#
# 1 0.018307 -0.002257 -0.002432 0.001568 0.006113 -0.003388
# 2 -0.002257 0.020845 -0.011438 -0.003714 0.005604 0.001410
# 3 -0.002432 -0.011438 0.017444 0.001340 -0.005115 -0.003716
# 4 0.001568 -0.003714 0.001340 0.023873 -0.006273 0.003381
# 5 0.006113 0.005604 -0.005115 -0.006273 0.060053 -0.000278
# 6 -0.003388 0.001410 -0.003716 0.003381 -0.000278 0.042640
#
#
# Mechanical properties :
#
#
# Convention : Reuss Voigt Hill
#
# Bulk Modulus (GPa) = 41.08156 48.61255 44.84705
# Shear Modulus (GPa) = 22.36836 27.64142 25.00489
#
# Velocity S-wave (km/s) = 3.16505 3.51839 3.34638
# Velocity P-wave (km/s) = 5.63514 6.18678 5.91739
#
# Compressibility (1/GPa) = 0.02434182
#
# Stress axis : x y z
#
# Youngs Moduli (GPa) = 54.62386 47.97319 57.32706
#
# Poissons Ratio (x) = 0.10827 0.13941
# Poissons Ratio (y) = 0.12328 0.65573
# Poissons Ratio (z) = 0.13283 0.54873
#
# Static dielectric constant tensor:
#      x y z
#    x 3.823240 0.073350 -0.309210 
#    y 0.073350 4.009700 0.023160 
#    z -0.309210 0.023160 4.295980 
# 
# 
# High freq. dielectric constant tensor:
#      x y z
#    x 1.858560 0.006490 -0.020190 
#    y 0.006490 1.879900 0.005320 
#    z -0.020190 0.005320 1.892130 
# 
# From -- ./inp_files/600045.got.cif
#   From: 2010.06.25/outbox.cif.g09.slc.cpg/sg2_301_cif.got.tgz:600045.got - 2010.06.27 13:26:56.
