data_PCOD8023627
_publ_section_title
;
Structure prediction by ZEFSAII (Michael W. Deem and Ramdas Pophale) SiO2 
 PCOD8023627
Probable space group: P -1
;
_chemical_formula_sum "Si O2"
_cell_formula_units_Z 14
_cell_length_a 30.390311
_cell_length_b 5.453673
_cell_length_c 9.427830
_cell_angle_alpha 124.464754
_cell_angle_beta 26.924399
_cell_angle_gamma 128.668958
_cell_volume 552.260574
_symmetry_space_group_name_H-M "P -1"
_symmetry_group_IT_number 2
_symmetry_cell_setting 'triclinic'
loop_
_space_group_symop_operation_xyz
x,y,z
-x,-y,-z
loop_
_atom_site_type_symbol
_atom_site_label
_atom_site_fract_x
_atom_site_fract_y
_atom_site_fract_z
Si Si1 0.875407 0.341007 0.916861
Si Si2 0.222633 0.450913 0.264412
Si Si3 0.422210 0.516012 0.848212
Si Si4 0.013339 0.001555 0.672939
Si Si5 0.196845 0.919787 0.696312
Si Si6 0.726025 0.435039 0.172377
Si Si7 0.505352 0.770063 0.182323
O O1 0.940069 0.094900 0.638801
O O2 0.957367 0.682827 0.815489
O O3 0.789740 0.275590 0.266825
O O4 0.808045 0.276032 0.942270
O O5 0.231095 0.800431 0.412774
O O6 0.109046 0.229773 0.560112
O O7 0.306630 0.336028 0.068466
O O8 0.243692 0.451820 0.037075
O O9 0.500000 0.500000 0.500000
O O10 0.439730 0.322614 0.869539
O O11 0.434752 0.890896 0.950831
O O12 0.927070 0.166558 0.958750
O O13 0.260869 0.281395 0.658429
O O14 0.607602 0.219513 0.446247
O O15 0.500000 0.500000 0.000000
#
# Coordination Sequence:
#
# PCOD8023627 Si02
#       7
#     2   2   2   2   2   2   2
#     4  10  23  41  72  99 141 182 248 295 361 453
#     4  12  26  45  74  99 149 191 240 305 376 435
#     4  12  28  51  74 117 151 194 257 313 374 464
#     4  10  23  44  66 103 141 190 233 303 369 431
#     4  11  24  47  67 107 139 187 250 297 360 459
#     4  11  26  45  72 103 142 192 239 303 382 432
#     4  12  28  51  82 109 154 198 253 317 383 448
#
# _framework density 25.350351
#
# number of rings (size 3 to 8) (size 9 to 14) (size 15 to 20)
#    0.000    0.857    2.857    2.571   10.000    0.571 
#    5.143    0.000    0.000    0.000    0.000    0.000 
#    0.000    0.000    0.000    0.000    0.000    0.000 
#
# Total GULP energy -173467.389360 kJ/mol
# GULP energy per Si atom -12390.527811 kJ/mol
# Density = 2.529265 g / cm^3
# Si number density = 25.350351 Si / 1000 Ang^3
#
#
#
# Elastic Constant Matrix: (Units=GPa)
#
#
# Indices 1 2 3 4 5 6 
#
# 1 113.0978 21.3240 30.9820 -8.5421 -27.1050 3.2266
# 2 21.3240 56.5454 2.6866 -4.7669 -5.9144 4.9259
# 3 30.9820 2.6866 68.4657 -8.8634 -19.8249 7.5647
# 4 -8.5421 -4.7669 -8.8634 51.6707 13.1351 -0.7533
# 5 -27.1050 -5.9144 -19.8249 13.1351 40.0736 -0.3991
# 6 3.2266 4.9259 7.5647 -0.7533 -0.3991 37.2383
#
#
#
# Elastic Compliance Matrix: (Units=1/GPa)
#
#
# Indices 1 2 3 4 5 6 
#
# 1 0.011909 -0.003769 -0.003635 -0.000489 0.005863 0.000258
# 2 -0.003769 0.019426 0.001576 0.001233 0.000668 -0.002531
# 3 -0.003635 0.001576 0.018634 0.001004 0.006628 -0.003588
# 4 -0.000489 0.001233 0.001004 0.021240 -0.006614 0.000034
# 5 0.005863 0.000668 0.006628 -0.006614 0.034448 -0.001707
# 6 0.000258 -0.002531 -0.003588 0.000034 -0.001707 0.027878
#
#
# Mechanical properties :
#
#
# Convention : Reuss Voigt Hill
#
# Bulk Modulus (GPa) = 26.10086 38.67712 32.38899
# Shear Modulus (GPa) = 31.65298 38.00428 34.82863
#
# Velocity S-wave (km/s) = 3.53742 3.87610 3.71063
# Velocity P-wave (km/s) = 5.19642 5.94326 5.58235
#
# Compressibility (1/GPa) = 0.03831292
#
# Stress axis : x y z
#
# Youngs Moduli (GPa) = 83.96811 51.47842 53.66394
#
# Poissons Ratio (x) = 0.19402 0.19508
# Poissons Ratio (y) = 0.31646 -0.08457
# Poissons Ratio (z) = 0.30525 -0.08113
#
# Static dielectric constant tensor:
#      x y z
#    x 3.726130 0.352940 -0.394530 
#    y 0.352940 4.606570 -0.018760 
#    z -0.394530 -0.018760 4.710910 
# 
# 
# High freq. dielectric constant tensor:
#      x y z
#    x 2.007060 0.005560 -0.017470 
#    y 0.005560 2.014240 0.001090 
#    z -0.017470 0.001090 2.020230 
# 
# From -- ./inp_files/358272.got.cif
#   From: 2010.06.25/outbox.cif.g09.slc.cpg/sg2_180_cif.got.tgz:358272.got - 2010.06.27 13:26:56.
