data_PCOD8023760
_publ_section_title
;
Structure prediction by ZEFSAII (Michael W. Deem and Ramdas Pophale) SiO2 
 PCOD8023760
Probable space group: P -1
;
_chemical_formula_sum "Si O2"
_cell_formula_units_Z 16
_cell_length_a 11.840994
_cell_length_b 21.565873
_cell_length_c 11.007199
_cell_angle_alpha 44.992810
_cell_angle_beta 36.026759
_cell_angle_gamma 26.444681
_cell_volume 734.694368
_symmetry_space_group_name_H-M "P -1"
_symmetry_group_IT_number 2
_symmetry_cell_setting 'triclinic'
loop_
_space_group_symop_operation_xyz
x,y,z
-x,-y,-z
loop_
_atom_site_type_symbol
_atom_site_label
_atom_site_fract_x
_atom_site_fract_y
_atom_site_fract_z
Si Si1 0.279061 0.464094 0.272274
Si Si2 0.266225 0.595341 0.890305
Si Si3 0.855380 0.147446 0.133679
Si Si4 0.775289 0.880945 0.331815
Si Si5 0.111957 0.715481 0.486336
Si Si6 0.269672 0.992358 0.482190
Si Si7 0.160769 0.093568 0.185970
Si Si8 0.789626 0.489632 0.183510
O O1 0.418449 0.464006 0.270097
O O2 0.543664 0.314461 0.180981
O O3 0.000000 0.500000 0.500000
O O4 0.154843 0.583903 0.124113
O O5 0.286916 0.514277 0.881012
O O6 0.027048 0.751939 0.833152
O O7 0.038054 0.091980 0.175870
O O8 0.803673 0.062351 0.290696
O O9 0.051138 0.099037 0.910191
O O10 0.035298 0.735519 0.381127
O O11 0.500000 0.000000 0.500000
O O12 0.635889 0.875970 0.345944
O O13 0.455822 0.625357 0.342890
O O14 0.040463 0.646257 0.700991
O O15 0.891326 0.863708 0.530869
O O16 0.169847 0.019017 0.391642
O O17 0.500000 0.000000 0.000000
O O18 0.000000 0.500000 0.000000
#
# Coordination Sequence:
#
# PCOD8023760 Si02
#       8
#     2   2   2   2   2   2   2   2
#     4  10  24  42  68 101 136 180 223 280 346 403
#     4  10  23  44  66  95 139 172 231 281 333 405
#     4  11  24  40  67 102 132 175 227 272 338 413
#     4  10  23  42  65  92 131 176 217 278 335 393
#     4  10  24  42  64  95 128 170 226 273 335 396
#     4  11  23  42  68  96 136 172 217 281 340 404
#     4  11  22  41  67  95 136 176 216 276 343 399
#     4  11  24  43  66  94 129 182 224 280 333 397
#
# _framework density 21.777763
#
# number of rings (size 3 to 8) (size 9 to 14) (size 15 to 20)
#    0.000    1.500    2.500    1.125    1.750   11.000 
#    0.000    0.000    0.000    0.000    0.000    0.000 
#    0.000    0.000    0.000    0.000    0.000    0.000 
#
# Total GULP energy -198246.177406 kJ/mol
# GULP energy per Si atom -12390.386088 kJ/mol
# Density = 2.172820 g / cm^3
# Si number density = 21.777763 Si / 1000 Ang^3
#
#
#
# Elastic Constant Matrix: (Units=GPa)
#
#
# Indices 1 2 3 4 5 6 
#
# 1 112.7838 37.4272 54.5256 -10.9187 -1.6272 -16.3078
# 2 37.4272 56.6947 46.6828 -10.8112 -4.4201 -12.9257
# 3 54.5256 46.6828 178.8488 -14.5225 -10.3345 -8.9496
# 4 -10.9187 -10.8112 -14.5225 37.1113 -4.3726 5.4736
# 5 -1.6272 -4.4201 -10.3345 -4.3726 41.6760 -2.6854
# 6 -16.3078 -12.9257 -8.9496 5.4736 -2.6854 24.8370
#
#
#
# Elastic Compliance Matrix: (Units=1/GPa)
#
#
# Indices 1 2 3 4 5 6 
#
# 1 0.012346 -0.005300 -0.002128 0.000572 -0.000262 0.004427
# 2 -0.005300 0.028012 -0.004806 0.003717 0.002530 0.008820
# 3 -0.002128 -0.004806 0.007613 0.001303 0.001348 -0.001296
# 4 0.000572 0.003717 0.001303 0.029630 0.003632 -0.003358
# 5 -0.000262 0.002530 0.001348 0.003632 0.025197 0.003554
# 6 0.004427 0.008820 -0.001296 -0.003358 0.003554 0.048417
#
#
# Mechanical properties :
#
#
# Convention : Reuss Voigt Hill
#
# Bulk Modulus (GPa) = 42.54851 69.51094 56.02972
# Shear Modulus (GPa) = 27.24533 34.70431 30.97482
#
# Velocity S-wave (km/s) = 3.54087 3.99628 3.77545
# Velocity P-wave (km/s) = 6.02470 7.29940 6.69247
#
# Compressibility (1/GPa) = 0.02350259
#
# Stress axis : x y z
#
# Youngs Moduli (GPa) = 81.00027 35.69892 131.34858
#
# Poissons Ratio (x) = 0.18922 0.27945
# Poissons Ratio (y) = 0.42933 0.63130
# Poissons Ratio (z) = 0.17233 0.17158
#
# Static dielectric constant tensor:
#      x y z
#    x 1.761690 0.661100 0.043720 
#    y 0.661100 3.486320 -0.084900 
#    z 0.043720 -0.084900 3.891750 
# 
# 
# High freq. dielectric constant tensor:
#      x y z
#    x 1.865100 -0.023070 0.007090 
#    y -0.023070 1.854990 -0.006830 
#    z 0.007090 -0.006830 1.855920 
# 
# From -- ./inp_files/438621.got.cif
#   From: 2010.06.25/outbox.cif.g09.slc.cpg/sg2_220_cif.got.tgz:438621.got - 2010.06.27 13:26:56.
