data_PCOD8023984
_publ_section_title
;
Structure prediction by ZEFSAII (Michael W. Deem and Ramdas Pophale) SiO2 
 PCOD8023984
Probable space group: P -1
;
_chemical_formula_sum "Si O2"
_cell_formula_units_Z 14
_cell_length_a 10.473235
_cell_length_b 9.685340
_cell_length_c 16.245271
_cell_angle_alpha 145.391809
_cell_angle_beta 146.694443
_cell_angle_gamma 43.416876
_cell_volume 509.989474
_symmetry_space_group_name_H-M "P -1"
_symmetry_group_IT_number 2
_symmetry_cell_setting 'triclinic'
loop_
_space_group_symop_operation_xyz
x,y,z
-x,-y,-z
loop_
_atom_site_type_symbol
_atom_site_label
_atom_site_fract_x
_atom_site_fract_y
_atom_site_fract_z
Si Si1 0.748712 0.392363 0.118213
Si Si2 0.567479 0.294055 0.250449
Si Si3 0.870727 0.266996 0.555095
Si Si4 0.894542 0.468018 0.833589
Si Si5 0.193763 0.840224 0.120512
Si Si6 0.331188 0.340741 0.639267
Si Si7 0.952748 0.015184 0.226349
O O1 0.949758 0.560899 0.296826
O O2 0.717821 0.403825 0.206905
O O3 0.500000 0.500000 0.000000
O O4 0.813770 0.138465 0.974358
O O5 0.284848 0.303397 0.112247
O O6 0.610978 0.563744 0.372950
O O7 0.657529 0.259878 0.374695
O O8 0.686702 0.081403 0.148508
O O9 0.769915 0.348721 0.631198
O O10 0.000000 0.000000 0.500000
O O11 0.954565 0.267949 0.839579
O O12 0.126431 0.568407 0.972208
O O13 0.455297 0.848126 0.301574
O O14 0.008631 0.038906 0.168311
O O15 0.102047 0.200747 0.446194
#
# Coordination Sequence:
#
# PCOD8023984 Si02
#       7
#     2   2   2   2   2   2   2
#     4   9  20  40  67  93 132 174 211 267 334 385
#     4  12  25  39  72  99 133 169 228 276 319 395
#     4  11  21  43  69  95 129 176 223 269 328 393
#     4  11  24  44  66  98 138 173 217 275 333 387
#     4  10  23  42  68  97 138 177 212 273 336 383
#     4  11  22  43  69  99 132 178 222 269 325 394
#     4  12  23  42  69 100 131 173 223 269 327 393
#
# _framework density 27.451546
#
# number of rings (size 3 to 8) (size 9 to 14) (size 15 to 20)
#    0.000    1.143    4.286    1.714    0.000    0.571 
#    0.000    0.714    0.000    0.000    0.000    0.000 
#    0.000    0.000    0.000    0.000    0.000    0.000 
#
# Total GULP energy -173467.878840 kJ/mol
# GULP energy per Si atom -12390.562774 kJ/mol
# Density = 2.738906 g / cm^3
# Si number density = 27.451546 Si / 1000 Ang^3
#
#
#
# Elastic Constant Matrix: (Units=GPa)
#
#
# Indices 1 2 3 4 5 6 
#
# 1 127.1873 27.3705 49.6698 -20.1573 -32.8339 -35.8747
# 2 27.3705 67.3033 21.4676 1.0633 -3.2234 -41.4177
# 3 49.6698 21.4676 77.3464 -22.4658 -35.3513 -16.0494
# 4 -20.1573 1.0633 -22.4658 26.5379 -4.8628 -4.0300
# 5 -32.8339 -3.2234 -35.3513 -4.8628 59.2352 6.2763
# 6 -35.8747 -41.4177 -16.0494 -4.0300 6.2763 60.0755
#
#
#
# Elastic Compliance Matrix: (Units=1/GPa)
#
#
# Indices 1 2 3 4 5 6 
#
# 1 0.014828 -0.000905 0.001154 0.015267 0.009200 0.008602
# 2 -0.000905 0.028297 -0.009741 -0.008887 -0.007256 0.016528
# 3 0.001154 -0.009741 0.039845 0.040588 0.026739 0.004548
# 4 0.015267 -0.008887 0.040588 0.093435 0.038165 0.016114
# 5 0.009200 -0.007256 0.026739 0.038165 0.040040 0.006012
# 6 0.008602 0.016528 0.004548 0.016114 0.006012 0.034845
#
#
# Mechanical properties :
#
#
# Convention : Reuss Voigt Hill
#
# Bulk Modulus (GPa) = 15.62849 52.09476 33.86162
# Shear Modulus (GPa) = 17.14658 40.72499 28.93579
#
# Velocity S-wave (km/s) = 2.50194 3.85583 3.25016
# Velocity P-wave (km/s) = 3.74856 6.23229 5.14262
#
# Compressibility (1/GPa) = 0.06398572
#
# Stress axis : x y z
#
# Youngs Moduli (GPa) = 67.44188 35.33922 25.09701
#
# Poissons Ratio (x) = 0.03199 -0.02895
# Poissons Ratio (y) = 0.06105 0.24446
# Poissons Ratio (z) = -0.07781 0.34423
#
# Static dielectric constant tensor:
#      x y z
#    x 5.452510 -0.370150 -0.586980 
#    y -0.370150 4.752810 0.006560 
#    z -0.586980 0.006560 5.333090 
# 
# 
# High freq. dielectric constant tensor:
#      x y z
#    x 2.125500 -0.024260 -0.024400 
#    y -0.024260 2.092000 -0.007590 
#    z -0.024400 -0.007590 2.126660 
# 
# From -- ./inp_files/568270.got.cif
#   From: 2010.06.25/outbox.cif.g09.slc.cpg/sg2_285_cif.got.tgz:568270.got - 2010.06.27 13:26:56.
