data_PCOD8023098
_publ_section_title
;
Structure prediction by ZEFSAII (Michael W. Deem and Ramdas Pophale) SiO2 
 PCOD8023098
Probable space group: P -1
;
_chemical_formula_sum "Si O2"
_cell_formula_units_Z 16
_cell_length_a 10.981282
_cell_length_b 19.291717
_cell_length_c 6.719455
_cell_angle_alpha 139.044646
_cell_angle_beta 115.730759
_cell_angle_gamma 51.126608
_cell_volume 724.205856
_symmetry_space_group_name_H-M "P -1"
_symmetry_group_IT_number 2
_symmetry_cell_setting 'triclinic'
loop_
_space_group_symop_operation_xyz
x,y,z
-x,-y,-z
loop_
_atom_site_type_symbol
_atom_site_label
_atom_site_fract_x
_atom_site_fract_y
_atom_site_fract_z
Si Si1 0.669662 0.947797 0.916163
Si Si2 0.090859 0.474551 0.304190
Si Si3 0.308531 0.880911 0.017206
Si Si4 0.904800 0.705565 0.398010
Si Si5 0.598700 0.476988 0.823038
Si Si6 0.885366 0.236114 0.542776
Si Si7 0.899051 0.947959 0.406893
Si Si8 0.435596 0.370773 0.223074
O O1 0.731866 0.810299 0.575668
O O2 0.651589 0.041326 0.935040
O O3 0.791843 0.934147 0.140578
O O4 0.500000 0.000000 0.000000
O O5 0.271682 0.440441 0.378672
O O6 0.000000 0.500000 0.500000
O O7 0.993656 0.601221 0.395456
O O8 0.104109 0.356881 0.947591
O O9 0.204760 0.963598 0.300629
O O10 0.212586 0.829483 0.719279
O O11 0.474014 0.775520 0.998658
O O12 0.995377 0.780953 0.587843
O O13 0.776654 0.383124 0.810944
O O14 0.551314 0.411852 0.482203
O O15 0.588745 0.595294 0.959763
O O16 0.500000 0.500000 0.000000
O O17 0.979255 0.185040 0.704159
O O18 0.000000 0.000000 0.500000
#
# Coordination Sequence:
#
# PCOD8023098 Si02
#       8
#     2   2   2   2   2   2   2   2
#     4  12  29  47  71 108 147 190 234 289 360 427
#     4  11  27  46  70  98 134 193 232 286 351 416
#     4  11  25  45  69 106 147 177 234 299 345 428
#     4  11  26  47  68  99 144 177 241 297 332 422
#     4  10  23  40  68 100 135 180 221 294 352 409
#     4  11  22  46  70 101 139 179 237 301 337 411
#     4  12  25  43  75 104 135 195 235 284 363 417
#     4  10  24  42  65 100 138 176 233 282 353 420
#
# _framework density 22.093164000000002
#
# number of rings (size 3 to 8) (size 9 to 14) (size 15 to 20)
#    0.000    1.000    3.750    1.125    8.750    0.500 
#    0.000    0.000    0.000    0.000    0.000    0.000 
#    0.000    0.000    0.000    0.000    0.000    0.000 
#
# Total GULP energy -198373.237044 kJ/mol
# GULP energy per Si atom -12398.327315 kJ/mol
# Density = 2.204288 g / cm^3
# Si number density = 22.093164 Si / 1000 Ang^3
#
#
#
# Elastic Constant Matrix: (Units=GPa)
#
#
# Indices 1 2 3 4 5 6 
#
# 1 144.7317 74.3757 47.9251 3.8325 -29.7348 3.1371
# 2 74.3757 212.8632 69.8359 10.0394 -21.8510 0.4589
# 3 47.9251 69.8359 79.6809 -1.8131 -15.5963 -0.0393
# 4 3.8325 10.0394 -1.8131 31.1349 3.9845 -6.9750
# 5 -29.7348 -21.8510 -15.5963 3.9845 36.7879 -0.2737
# 6 3.1371 0.4589 -0.0393 -6.9750 -0.2737 40.2216
#
#
#
# Elastic Compliance Matrix: (Units=1/GPa)
#
#
# Indices 1 2 3 4 5 6 
#
# 1 0.010268 -0.001718 -0.003544 -0.001922 0.005976 -0.001077
# 2 -0.001718 0.007218 -0.005158 -0.002634 0.000994 -0.000403
# 3 -0.003544 -0.005158 0.019682 0.003186 0.002078 0.000921
# 4 -0.001922 -0.002634 0.003186 0.035514 -0.005567 0.006304
# 5 0.005976 0.000994 0.002078 -0.005567 0.034078 -0.001209
# 6 -0.001077 -0.000403 0.000921 0.006304 -0.001209 0.026037
#
#
# Mechanical properties :
#
#
# Convention : Reuss Voigt Hill
#
# Bulk Modulus (GPa) = 61.24990 91.28324 76.26657
# Shear Modulus (GPa) = 31.43062 37.97149 34.70106
#
# Velocity S-wave (km/s) = 3.77588 4.15022 3.96747
# Velocity P-wave (km/s) = 6.84057 8.02327 7.45541
#
# Compressibility (1/GPa) = 0.01632656
#
# Stress axis : x y z
#
# Youngs Moduli (GPa) = 97.38864 138.55123 50.80789
#
# Poissons Ratio (x) = 0.23810 0.18008
# Poissons Ratio (y) = 0.16736 0.26206
# Poissons Ratio (z) = 0.34517 0.71462
#
# Static dielectric constant tensor:
#      x y z
#    x 4.221910 0.078230 -0.122210 
#    y 0.078230 4.838430 0.173100 
#    z -0.122210 0.173100 4.101260 
# 
# 
# High freq. dielectric constant tensor:
#      x y z
#    x 1.880600 -0.000230 -0.008870 
#    y -0.000230 1.896180 0.005010 
#    z -0.008870 0.005010 1.852420 
# 
# From -- ./inp_files/81720.got.cif
#   From: 2010.06.25/outbox.cif.g09.slc.cpg/sg2_41_cif.got.tgz:81720.got - 2010.06.27 13:26:56.
