data_PCOD8023593
_publ_section_title
;
Structure prediction by ZEFSAII (Michael W. Deem and Ramdas Pophale) SiO2 
 PCOD8023593
Probable space group: P -1
;
_chemical_formula_sum "Si O2"
_cell_formula_units_Z 14
_cell_length_a 8.871165
_cell_length_b 9.629438
_cell_length_c 21.565276
_cell_angle_alpha 154.842966
_cell_angle_beta 47.728384
_cell_angle_gamma 122.507021
_cell_volume 564.338497
_symmetry_space_group_name_H-M "P -1"
_symmetry_group_IT_number 2
_symmetry_cell_setting 'triclinic'
loop_
_space_group_symop_operation_xyz
x,y,z
-x,-y,-z
loop_
_atom_site_type_symbol
_atom_site_label
_atom_site_fract_x
_atom_site_fract_y
_atom_site_fract_z
Si Si1 0.961028 0.744933 0.206767
Si Si2 0.680933 0.811930 0.417879
Si Si3 0.728144 0.483856 0.068915
Si Si4 0.581221 0.308380 0.337654
Si Si5 0.015255 0.197283 0.219414
Si Si6 0.751414 0.300611 0.699339
Si Si7 0.160681 0.175581 0.403586
O O1 0.868962 0.606795 0.238482
O O2 0.786500 0.786351 0.216281
O O3 0.023515 0.090153 0.349507
O O4 0.170602 0.504655 0.022754
O O5 0.585844 0.561174 0.383108
O O6 0.500000 0.000000 0.500000
O O7 0.760203 0.087741 0.548003
O O8 0.484135 0.531414 0.147927
O O9 0.823966 0.134325 0.936247
O O10 0.500000 0.500000 0.500000
O O11 0.407696 0.097558 0.283845
O O12 0.818360 0.096333 0.198135
O O13 0.128415 0.401424 0.222343
O O14 0.930069 0.435255 0.397738
O O15 0.861182 0.052517 0.622573
#
# Coordination Sequence:
#
# PCOD8023593 Si02
#       7
#     2   2   2   2   2   2   2
#     4  11  26  46  71 104 146 194 242 288 371 428
#     4  12  23  42  77 108 140 191 251 293 350 438
#     4  11  28  45  71 105 158 186 230 313 374 412
#     4  10  23  41  71 111 143 179 239 306 352 414
#     4  11  23  44  74 102 144 187 239 301 361 418
#     4  12  23  47  76 105 140 192 246 300 357 431
#     4  11  24  44  80 101 139 195 253 284 355 447
#
# _framework density 24.807807
#
# number of rings (size 3 to 8) (size 9 to 14) (size 15 to 20)
#    0.000    0.857    5.714    1.714    8.000    2.286 
#    2.571    1.429    0.000    0.000    0.000    0.000 
#    0.000    0.000    0.000    0.000    0.000    0.000 
#
# Total GULP energy -173477.261247 kJ/mol
# GULP energy per Si atom -12391.232946 kJ/mol
# Density = 2.475134 g / cm^3
# Si number density = 24.807807 Si / 1000 Ang^3
#
#
#
# Elastic Constant Matrix: (Units=GPa)
#
#
# Indices 1 2 3 4 5 6 
#
# 1 94.3498 37.8841 37.1317 1.1549 -0.4496 15.2693
# 2 37.8841 145.6240 43.9173 -26.1209 1.0143 -1.7216
# 3 37.1317 43.9173 84.0374 -9.2747 -6.5429 -9.0084
# 4 1.1549 -26.1209 -9.2747 52.6861 -0.0201 -4.0684
# 5 -0.4496 1.0143 -6.5429 -0.0201 43.3815 0.5390
# 6 15.2693 -1.7216 -9.0084 -4.0684 0.5390 50.2057
#
#
#
# Elastic Compliance Matrix: (Units=1/GPa)
#
#
# Indices 1 2 3 4 5 6 
#
# 1 0.015220 -0.002685 -0.006390 -0.003263 -0.000669 -0.006125
# 2 -0.002685 0.009285 -0.003164 0.004175 -0.000731 0.000914
# 3 -0.006390 -0.003164 0.017343 0.002018 0.002561 0.005083
# 4 -0.003263 0.004175 0.002018 0.021729 0.000143 0.003257
# 5 -0.000669 -0.000731 0.002561 0.000143 0.023443 0.000398
# 6 -0.006125 0.000914 0.005083 0.003257 0.000398 0.022984
#
#
# Mechanical properties :
#
#
# Convention : Reuss Voigt Hill
#
# Bulk Modulus (GPa) = 57.57347 62.43081 60.00214
# Shear Modulus (GPa) = 35.64504 42.92654 39.28579
#
# Velocity S-wave (km/s) = 3.79469 4.16428 3.98377
# Velocity P-wave (km/s) = 6.51596 6.95284 6.73794
#
# Compressibility (1/GPa) = 0.01736911
#
# Stress axis : x y z
#
# Youngs Moduli (GPa) = 65.70289 107.70590 57.65892
#
# Poissons Ratio (x) = 0.28923 0.36846
# Poissons Ratio (y) = 0.17644 0.18242
# Poissons Ratio (z) = 0.41986 0.34075
#
# Static dielectric constant tensor:
#      x y z
#    x 4.573090 0.177620 0.148110 
#    y 0.177620 4.760460 -0.297840 
#    z 0.148110 -0.297840 4.350820 
# 
# 
# High freq. dielectric constant tensor:
#      x y z
#    x 1.996050 0.019190 -0.008550 
#    y 0.019190 2.006040 -0.020010 
#    z -0.008550 -0.020010 1.961400 
# 
# From -- ./inp_files/588256.got.cif
#   From: 2010.06.25/outbox.cif.g09.slc.cpg/sg2_295_cif.got.tgz:588256.got - 2010.06.27 13:26:56.
