data_PCOD8023443
_publ_section_title
;
Structure prediction by ZEFSAII (Michael W. Deem and Ramdas Pophale) SiO2 
 PCOD8023443
Probable space group: P -1
;
_chemical_formula_sum "Si O2"
_cell_formula_units_Z 16
_cell_length_a 5.104269
_cell_length_b 9.056967
_cell_length_c 24.430083
_cell_angle_alpha 50.034390
_cell_angle_beta 81.276463
_cell_angle_gamma 60.453187
_cell_volume 729.578685
_symmetry_space_group_name_H-M "P -1"
_symmetry_group_IT_number 2
_symmetry_cell_setting 'triclinic'
loop_
_space_group_symop_operation_xyz
x,y,z
-x,-y,-z
loop_
_atom_site_type_symbol
_atom_site_label
_atom_site_fract_x
_atom_site_fract_y
_atom_site_fract_z
Si Si1 0.751370 0.540734 0.953645
Si Si2 0.298112 0.401955 0.551480
Si Si3 0.571190 0.005754 0.210473
Si Si4 0.426154 0.657290 0.335137
Si Si5 0.225519 0.034055 0.670122
Si Si6 0.153154 0.144754 0.954809
Si Si7 0.010462 0.649483 0.203871
Si Si8 0.342050 0.603724 0.714761
O O1 0.935330 0.375888 0.937736
O O2 0.597098 0.790780 0.875063
O O3 0.500000 0.500000 0.000000
O O4 0.000000 0.500000 0.000000
O O5 0.500000 0.500000 0.500000
O O6 0.277676 0.450661 0.606400
O O7 0.427510 0.129585 0.612022
O O8 0.000000 0.500000 0.500000
O O9 0.376305 0.882216 0.252701
O O10 0.619167 0.090628 0.247489
O O11 0.902252 0.814781 0.220393
O O12 0.502408 0.461259 0.335191
O O13 0.112246 0.741000 0.360018
O O14 0.191138 0.868820 0.668896
O O15 0.165790 0.199050 0.878586
O O16 0.500000 0.000000 0.000000
O O17 0.000000 0.000000 0.000000
O O18 0.922658 0.457110 0.257261
O O19 0.382424 0.529948 0.217384
#
# Coordination Sequence:
#
# PCOD8023443 Si02
#       8
#     2   2   2   2   2   2   2   2
#     4  12  27  43  65  93 130 179 226 281 341 409
#     4  11  23  43  71 100 137 179 216 263 329 392
#     4  10  23  41  67  95 129 171 225 274 340 392
#     4  10  23  44  69  99 135 174 216 278 326 391
#     4  11  23  42  73  97 133 176 220 272 327 396
#     4  12  25  43  62  89 128 174 223 279 345 408
#     4  11  23  42  63  93 129 167 213 289 332 390
#     4  11  25  40  66 102 130 166 225 271 331 387
#
# _framework density 21.930465999999999
#
# number of rings (size 3 to 8) (size 9 to 14) (size 15 to 20)
#    0.000    1.000    2.500    3.750    7.000    1.000 
#    0.000    1.250    0.000    0.000    0.000    0.000 
#    0.000    0.000    0.000    0.000    0.000    0.000 
#
# Total GULP energy -198257.362712 kJ/mol
# GULP energy per Si atom -12391.085169 kJ/mol
# Density = 2.188055 g / cm^3
# Si number density = 21.930466 Si / 1000 Ang^3
#
#
#
# Elastic Constant Matrix: (Units=GPa)
#
#
# Indices 1 2 3 4 5 6 
#
# 1 114.8169 31.2531 44.1503 4.1839 -1.2352 12.5448
# 2 31.2531 135.1881 33.6194 -0.5520 -13.7050 23.3088
# 3 44.1503 33.6194 136.2009 11.3837 -7.3132 16.2932
# 4 4.1839 -0.5520 11.3837 17.0792 6.7374 0.9192
# 5 -1.2352 -13.7050 -7.3132 6.7374 44.6998 0.7539
# 6 12.5448 23.3088 16.2932 0.9192 0.7539 36.1585
#
#
#
# Elastic Compliance Matrix: (Units=1/GPa)
#
#
# Indices 1 2 3 4 5 6 
#
# 1 0.010362 -0.001525 -0.002820 -0.000417 -0.000557 -0.001319
# 2 -0.001525 0.009134 -0.001085 0.000646 0.002567 -0.004940
# 3 -0.002820 -0.001085 0.009466 -0.006365 0.002139 -0.002470
# 4 -0.000417 0.000646 -0.006365 0.067196 -0.011002 0.001118
# 5 -0.000557 0.002567 0.002139 -0.011002 0.025196 -0.002671
# 6 -0.001319 -0.004940 -0.002470 0.001118 -0.002671 0.032438
#
#
# Mechanical properties :
#
#
# Convention : Reuss Voigt Hill
#
# Bulk Modulus (GPa) = 55.24213 67.13906 61.19060
# Shear Modulus (GPa) = 29.29314 38.06638 33.67976
#
# Velocity S-wave (km/s) = 3.65873 4.17078 3.92312
# Velocity P-wave (km/s) = 6.56451 7.33995 6.96303
#
# Compressibility (1/GPa) = 0.01810212
#
# Stress axis : x y z
#
# Youngs Moduli (GPa) = 96.50386 109.47880 105.63643
#
# Poissons Ratio (x) = 0.16697 0.29787
# Poissons Ratio (y) = 0.14718 0.11467
# Poissons Ratio (z) = 0.27212 0.11884
#
# Static dielectric constant tensor:
#      x y z
#    x 5.389310 -0.191210 -0.079130 
#    y -0.191210 4.120430 0.192790 
#    z -0.079130 0.192790 4.089370 
# 
# 
# High freq. dielectric constant tensor:
#      x y z
#    x 1.875210 0.017510 0.001280 
#    y 0.017510 1.855140 0.011890 
#    z 0.001280 0.011890 1.864920 
# 
# From -- ./inp_files/547233.got.cif
#   From: 2010.06.25/outbox.cif.g09.slc.cpg/sg2_274_cif.got.tgz:547233.got - 2010.06.27 13:26:56.
