data_PCOD8023629
_publ_section_title
;
Structure prediction by ZEFSAII (Michael W. Deem and Ramdas Pophale) SiO2 
 PCOD8023629
Probable space group: P -1
;
_chemical_formula_sum "Si O2"
_cell_formula_units_Z 16
_cell_length_a 8.630538
_cell_length_b 16.941916
_cell_length_c 8.925083
_cell_angle_alpha 133.141010
_cell_angle_beta 79.626053
_cell_angle_gamma 69.472398
_cell_volume 703.591524
_symmetry_space_group_name_H-M "P -1"
_symmetry_group_IT_number 2
_symmetry_cell_setting 'triclinic'
loop_
_space_group_symop_operation_xyz
x,y,z
-x,-y,-z
loop_
_atom_site_type_symbol
_atom_site_label
_atom_site_fract_x
_atom_site_fract_y
_atom_site_fract_z
Si Si1 0.688230 0.534002 0.467215
Si Si2 0.060458 0.209548 0.383983
Si Si3 0.432263 0.840428 0.463659
Si Si4 0.751057 0.313074 0.356324
Si Si5 0.453411 0.788490 0.055643
Si Si6 0.592420 0.938112 0.069609
Si Si7 0.817305 0.619659 0.295660
Si Si8 0.059929 0.975758 0.197409
O O1 0.815535 0.370169 0.287364
O O2 0.498285 0.583781 0.458278
O O3 0.831197 0.549771 0.361941
O O4 0.591195 0.627653 0.758729
O O5 0.141431 0.271330 0.550188
O O6 0.815835 0.324065 0.527161
O O7 0.124605 0.069635 0.272134
O O8 0.159686 0.170269 0.146966
O O9 0.516423 0.782563 0.207005
O O10 0.586696 0.704638 0.372718
O O11 0.190357 0.914383 0.602819
O O12 0.460711 0.952194 0.649381
O O13 0.860659 0.145256 0.098509
O O14 0.519319 0.855916 0.026514
O O15 0.200509 0.883073 0.201326
O O16 0.500000 0.000000 0.000000
O O17 0.000000 0.500000 0.000000
#
# Coordination Sequence:
#
# PCOD8023629 Si02
#       8
#     2   2   2   2   2   2   2   2
#     4  10  23  48  69  93 141 179 228 272 337 408
#     4  12  23  41  72 100 132 180 225 278 341 397
#     4  12  25  42  67 103 137 177 228 280 337 398
#     4  10  23  41  73 103 129 182 229 273 333 406
#     4  11  23  42  69  99 141 177 222 281 333 405
#     4  12  21  41  67  99 136 176 220 280 337 395
#     4  12  28  48  68  98 138 180 230 280 336 405
#     4  11  23  43  70 102 140 171 227 279 340 398
#
# _framework density 22.740469000000001
#
# number of rings (size 3 to 8) (size 9 to 14) (size 15 to 20)
#    0.000    0.750    5.000    1.875    3.500    1.500 
#   11.250    1.250    0.000    0.000    0.000    0.000 
#    0.000    0.000    0.000    0.000    0.000    0.000 
#
# Total GULP energy -198234.364917 kJ/mol
# GULP energy per Si atom -12389.647807 kJ/mol
# Density = 2.268871 g / cm^3
# Si number density = 22.740469 Si / 1000 Ang^3
#
#
#
# Elastic Constant Matrix: (Units=GPa)
#
#
# Indices 1 2 3 4 5 6 
#
# 1 81.5839 33.2579 35.2509 5.5829 24.2388 -2.3152
# 2 33.2579 90.3092 39.2254 7.1064 16.4278 4.8950
# 3 35.2509 39.2254 102.9540 -0.7176 6.5541 -0.6378
# 4 5.5829 7.1064 -0.7176 33.1453 -5.0936 11.5466
# 5 24.2388 16.4278 6.5541 -5.0936 28.1988 0.2002
# 6 -2.3152 4.8950 -0.6378 11.5466 0.2002 40.7021
#
#
#
# Elastic Compliance Matrix: (Units=1/GPa)
#
#
# Indices 1 2 3 4 5 6 
#
# 1 0.020997 -0.001933 -0.005401 -0.007038 -0.016963 0.003422
# 2 -0.001933 0.015498 -0.004834 -0.003845 -0.006932 -0.000925
# 3 -0.005401 -0.004834 0.013106 0.003149 0.004984 -0.000438
# 4 -0.007038 -0.003845 0.003149 0.038249 0.014544 -0.010811
# 5 -0.016963 -0.006932 0.004984 0.014544 0.055582 -0.004452
# 6 0.003422 -0.000925 -0.000438 -0.010811 -0.004452 0.027957
#
#
# Mechanical properties :
#
#
# Convention : Reuss Voigt Hill
#
# Bulk Modulus (GPa) = 39.57938 54.47948 47.02943
# Shear Modulus (GPa) = 24.49211 31.55010 28.02111
#
# Velocity S-wave (km/s) = 3.28537 3.72882 3.51410
# Velocity P-wave (km/s) = 5.64218 6.52287 6.09844
#
# Compressibility (1/GPa) = 0.02526568
#
# Stress axis : x y z
#
# Youngs Moduli (GPa) = 47.62501 64.52359 76.30023
#
# Poissons Ratio (x) = 0.12471 0.41210
# Poissons Ratio (y) = 0.09205 0.36886
# Poissons Ratio (z) = 0.25722 0.31193
#
# Static dielectric constant tensor:
#      x y z
#    x 4.552570 -0.157480 -0.125820 
#    y -0.157480 4.082060 0.191640 
#    z -0.125820 0.191640 4.149890 
# 
# 
# High freq. dielectric constant tensor:
#      x y z
#    x 1.919650 -0.012920 0.007290 
#    y -0.012920 1.891980 0.017410 
#    z 0.007290 0.017410 1.875320 
# 
# From -- ./inp_files/208953.got.cif
#   From: 2010.06.25/outbox.cif.g09.slc.cpg/sg2_105_cif.got.tgz:208953.got - 2010.06.27 13:26:56.
