data_PCOD8023299
_publ_section_title
;
Structure prediction by ZEFSAII (Michael W. Deem and Ramdas Pophale) SiO2 
 PCOD8023299
Probable space group: P -1
;
_chemical_formula_sum "Si O2"
_cell_formula_units_Z 14
_cell_length_a 9.518179
_cell_length_b 23.105416
_cell_length_c 11.129038
_cell_angle_alpha 27.656627
_cell_angle_beta 36.684518
_cell_angle_gamma 33.118249
_cell_volume 603.038811
_symmetry_space_group_name_H-M "P -1"
_symmetry_group_IT_number 2
_symmetry_cell_setting 'triclinic'
loop_
_space_group_symop_operation_xyz
x,y,z
-x,-y,-z
loop_
_atom_site_type_symbol
_atom_site_label
_atom_site_fract_x
_atom_site_fract_y
_atom_site_fract_z
Si Si1 0.463705 0.961573 0.963124
Si Si2 0.703143 0.070253 0.420628
Si Si3 0.872914 0.815434 0.386428
Si Si4 0.750304 0.459158 0.488112
Si Si5 0.120220 0.585697 0.028316
Si Si6 0.125063 0.832134 0.417809
Si Si7 0.665493 0.355571 0.993586
O O1 0.707150 0.957429 0.725765
O O2 0.187910 0.078156 0.879087
O O3 0.419916 0.821899 0.249071
O O4 0.500000 0.000000 0.000000
O O5 0.406442 0.152610 0.415235
O O6 0.763183 0.188709 0.222928
O O7 0.914226 0.981422 0.340728
O O8 0.001350 0.663002 0.522151
O O9 0.070569 0.830390 0.317483
O O10 0.500000 0.500000 0.500000
O O11 0.687853 0.417797 0.736472
O O12 0.840809 0.581145 0.214998
O O13 0.139568 0.626180 0.078337
O O14 0.120401 0.700820 0.725571
O O15 0.366711 0.436053 0.101003
#
# Coordination Sequence:
#
# PCOD8023299 Si02
#       7
#     2   2   2   2   2   2   2
#     4  10  23  41  64  98 134 170 220 274 329 399
#     4  10  24  42  71  94 132 179 218 273 338 391
#     4  10  24  45  65  96 139 169 226 277 325 402
#     4  12  26  44  71 100 134 181 227 277 340 400
#     4  11  26  45  68 103 134 174 232 276 335 406
#     4  12  24  42  69 100 135 176 220 276 336 398
#     4  11  24  47  72  94 137 182 219 284 338 396
#
# _framework density 23.215752999999999
#
# number of rings (size 3 to 8) (size 9 to 14) (size 15 to 20)
#    0.857    0.286    1.429    3.857    2.000    6.857 
#    0.000    0.000    0.000    0.000    0.000    0.000 
#    0.000    0.000    0.000    0.000    0.000    0.000 
#
# Total GULP energy -173513.516391 kJ/mol
# GULP energy per Si atom -12393.822599 kJ/mol
# Density = 2.316291 g / cm^3
# Si number density = 23.215753 Si / 1000 Ang^3
#
#
#
# Elastic Constant Matrix: (Units=GPa)
#
#
# Indices 1 2 3 4 5 6 
#
# 1 174.2356 8.3254 60.5014 12.2558 -10.4889 26.2647
# 2 8.3254 66.4128 15.6799 -5.9332 -2.8461 15.2688
# 3 60.5014 15.6799 159.1363 19.1798 -20.5853 12.9349
# 4 12.2558 -5.9332 19.1798 21.9601 3.7724 -0.2712
# 5 -10.4889 -2.8461 -20.5853 3.7724 41.5711 -0.6953
# 6 26.2647 15.2688 12.9349 -0.2712 -0.6953 33.2575
#
#
#
# Elastic Compliance Matrix: (Units=1/GPa)
#
#
# Indices 1 2 3 4 5 6 
#
# 1 0.007463 0.000603 -0.002023 -0.002483 0.001058 -0.005382
# 2 0.000603 0.017832 -0.002173 0.006354 -0.000410 -0.007775
# 3 -0.002023 -0.002173 0.008871 -0.007980 0.004444 -0.000827
# 4 -0.002483 0.006354 -0.007980 0.057236 -0.009296 0.002420
# 5 0.001058 -0.000410 0.004444 -0.009296 0.027307 -0.001880
# 6 -0.005382 -0.007775 -0.000827 0.002420 -0.001880 0.038190
#
#
# Mechanical properties :
#
#
# Convention : Reuss Voigt Hill
#
# Bulk Modulus (GPa) = 37.06530 63.19978 50.13254
# Shear Modulus (GPa) = 28.88871 40.37626 34.63249
#
# Velocity S-wave (km/s) = 3.53137 4.17487 3.86653
# Velocity P-wave (km/s) = 5.71207 7.10783 6.44783
#
# Compressibility (1/GPa) = 0.02697941
#
# Stress axis : x y z
#
# Youngs Moduli (GPa) = 134.00132 56.07783 112.72750
#
# Poissons Ratio (x) = -0.03381 0.22805
# Poissons Ratio (y) = -0.08079 0.24497
# Poissons Ratio (z) = 0.27109 0.12186
#
# Static dielectric constant tensor:
#      x y z
#    x 4.149300 -0.007380 -0.164480 
#    y -0.007380 4.275950 0.070030 
#    z -0.164480 0.070030 4.283880 
# 
# 
# High freq. dielectric constant tensor:
#      x y z
#    x 1.921240 0.008680 -0.011590 
#    y 0.008680 1.911980 0.001950 
#    z -0.011590 0.001950 1.927890 
# 
# From -- ./inp_files/404425.got.cif
#   From: 2010.06.25/outbox.cif.g09.slc.cpg/sg2_203_cif.got.tgz:404425.got - 2010.06.27 13:26:56.
