data_PCOD8023147
_publ_section_title
;
Structure prediction by ZEFSAII (Michael W. Deem and Ramdas Pophale) SiO2 
 PCOD8023147
Probable space group: P -1
;
_chemical_formula_sum "Si O2"
_cell_formula_units_Z 16
_cell_length_a 12.348597
_cell_length_b 25.479467
_cell_length_c 9.245343
_cell_angle_alpha 143.824634
_cell_angle_beta 42.712685
_cell_angle_gamma 154.723283
_cell_volume 733.012774
_symmetry_space_group_name_H-M "P -1"
_symmetry_group_IT_number 2
_symmetry_cell_setting 'triclinic'
loop_
_space_group_symop_operation_xyz
x,y,z
-x,-y,-z
loop_
_atom_site_type_symbol
_atom_site_label
_atom_site_fract_x
_atom_site_fract_y
_atom_site_fract_z
Si Si1 0.369563 0.328767 0.851822
Si Si2 0.826914 0.099212 0.169662
Si Si3 0.367430 0.354263 0.248947
Si Si4 0.642552 0.199298 0.945399
Si Si5 0.105078 0.378462 0.088904
Si Si6 0.737093 0.235514 0.382123
Si Si7 0.720665 0.344328 0.913616
Si Si8 0.340209 0.127150 0.325128
O O1 0.670582 0.456552 0.806904
O O2 0.250868 0.180323 0.602192
O O3 0.337682 0.343576 0.081600
O O4 0.223844 0.333030 0.899773
O O5 0.780773 0.160881 0.246779
O O6 0.075265 0.223701 0.303349
O O7 0.568672 0.971931 0.232491
O O8 0.886357 0.034793 0.872142
O O9 0.500000 0.500000 0.500000
O O10 0.520943 0.336629 0.117622
O O11 0.532591 0.228721 0.226084
O O12 0.911980 0.283277 0.931825
O O13 0.674191 0.246639 0.857181
O O14 0.973014 0.359390 0.320426
O O15 0.698483 0.298063 0.671769
O O16 0.480866 0.122940 0.290930
O O17 0.000000 0.500000 0.000000
#
# Coordination Sequence:
#
# PCOD8023147 Si02
#       8
#     2   2   2   2   2   2   2   2
#     4  11  22  42  69 107 130 180 228 283 347 395
#     4  10  23  45  67  96 137 179 228 285 340 397
#     4  12  26  46  70  98 143 176 225 284 342 411
#     4   9  24  44  66 101 136 180 221 283 337 398
#     4  10  23  40  70 100 139 171 227 289 335 397
#     4  11  21  41  68  97 135 181 221 280 332 408
#     4  12  26  42  70 101 134 186 228 268 344 411
#     4   9  22  41  68  99 135 172 229 276 339 398
#
# _framework density 21.827724
#
# number of rings (size 3 to 8) (size 9 to 14) (size 15 to 20)
#    0.750    0.750    2.500    1.875    1.750    3.500 
#    2.250    0.000    0.000    0.000    0.000    0.000 
#    0.000    0.000    0.000    0.000    0.000    0.000 
#
# Total GULP energy -198293.291892 kJ/mol
# GULP energy per Si atom -12393.330743 kJ/mol
# Density = 2.177804 g / cm^3
# Si number density = 21.827724 Si / 1000 Ang^3
#
#
#
# Elastic Constant Matrix: (Units=GPa)
#
#
# Indices 1 2 3 4 5 6 
#
# 1 97.4331 38.2654 11.3401 5.2268 -1.3466 12.0988
# 2 38.2654 83.8281 18.6857 10.3294 10.3790 9.1230
# 3 11.3401 18.6857 100.2776 16.6221 -0.8728 9.4975
# 4 5.2268 10.3294 16.6221 34.4268 0.0882 6.9297
# 5 -1.3466 10.3790 -0.8728 0.0882 28.8498 0.7563
# 6 12.0988 9.1230 9.4975 6.9297 0.7563 34.0499
#
#
#
# Elastic Compliance Matrix: (Units=1/GPa)
#
#
# Indices 1 2 3 4 5 6 
#
# 1 0.013036 -0.005995 -0.000117 0.000505 0.002843 -0.003159
# 2 -0.005995 0.016303 -0.001842 -0.002874 -0.006166 -0.001002
# 3 -0.000117 -0.001842 0.011249 -0.004520 0.001056 -0.001706
# 4 0.000505 -0.002874 -0.004520 0.032996 0.000948 -0.004885
# 5 0.002843 -0.006166 0.001056 0.000948 0.037060 -0.000669
# 6 -0.003159 -0.001002 -0.001706 -0.004885 -0.000669 0.032245
#
#
# Mechanical properties :
#
#
# Convention : Reuss Voigt Hill
#
# Bulk Modulus (GPa) = 40.51883 46.45788 43.48835
# Shear Modulus (GPa) = 29.93608 33.68182 31.80895
#
# Velocity S-wave (km/s) = 3.70735 3.93246 3.82157
# Velocity P-wave (km/s) = 6.07695 6.47681 6.28006
#
# Compressibility (1/GPa) = 0.02467989
#
# Stress axis : x y z
#
# Youngs Moduli (GPa) = 76.71089 61.33853 88.89810
#
# Poissons Ratio (x) = 0.36772 0.01038
# Poissons Ratio (y) = 0.45987 0.16377
# Poissons Ratio (z) = 0.00896 0.11300
#
# Static dielectric constant tensor:
#      x y z
#    x 3.927270 0.078170 0.089640 
#    y 0.078170 4.163760 -0.078490 
#    z 0.089640 -0.078490 3.770290 
# 
# 
# High freq. dielectric constant tensor:
#      x y z
#    x 1.858930 0.006560 0.000760 
#    y 0.006560 1.862580 0.002060 
#    z 0.000760 0.002060 1.848660 
# 
# From -- ./inp_files/285009.got.cif
#   From: 2010.06.25/outbox.cif.g09.slc.cpg/sg2_143_cif.got.tgz:285009.got - 2010.06.27 13:26:56.
