data_PCOD8023538
_publ_section_title
;
Structure prediction by ZEFSAII (Michael W. Deem and Ramdas Pophale) SiO2 
 PCOD8023538
Probable space group: P -1
;
_chemical_formula_sum "Si O2"
_cell_formula_units_Z 16
_cell_length_a 20.971595
_cell_length_b 13.377814
_cell_length_c 10.620687
_cell_angle_alpha 32.916502
_cell_angle_beta 42.211495
_cell_angle_gamma 26.375753
_cell_volume 718.538478
_symmetry_space_group_name_H-M "P -1"
_symmetry_group_IT_number 2
_symmetry_cell_setting 'triclinic'
loop_
_space_group_symop_operation_xyz
x,y,z
-x,-y,-z
loop_
_atom_site_type_symbol
_atom_site_label
_atom_site_fract_x
_atom_site_fract_y
_atom_site_fract_z
Si Si1 0.620181 0.442070 0.958287
Si Si2 0.427538 0.771694 0.561021
Si Si3 0.880393 0.998490 0.893129
Si Si4 0.063639 0.465200 0.577890
Si Si5 0.793334 0.851241 0.722223
Si Si6 0.329351 0.279753 0.277243
Si Si7 0.806695 0.421124 0.102190
Si Si8 0.738209 0.218622 0.613874
O O1 0.670754 0.234794 0.216418
O O2 0.500000 0.500000 0.000000
O O3 0.753523 0.295462 0.830164
O O4 0.575207 0.706968 0.801860
O O5 0.584585 0.453102 0.658562
O O6 0.356025 0.906220 0.389339
O O7 0.430562 0.957042 0.441528
O O8 0.862504 0.052554 0.711933
O O9 0.028675 0.876433 0.849431
O O10 0.869528 0.802046 0.159768
O O11 0.189916 0.427766 0.407894
O O12 0.000000 0.500000 0.500000
O O13 0.930108 0.739848 0.565324
O O14 0.768590 0.978488 0.758682
O O15 0.816390 0.600774 0.971937
O O16 0.278441 0.442216 0.047892
O O17 0.733687 0.382037 0.341923
#
# Coordination Sequence:
#
# PCOD8023538 Si02
#       8
#     2   2   2   2   2   2   2   2
#     4  12  25  44  65 103 134 176 229 285 345 397
#     4  11  23  45  66  98 139 178 230 284 325 411
#     4  11  23  44  66  97 147 166 222 288 332 404
#     4  11  19  44  73 102 136 169 231 291 331 393
#     4  10  23  41  69  97 135 184 225 276 331 395
#     4  11  24  42  75  99 127 183 227 288 343 384
#     4  10  24  43  66 102 130 176 227 277 333 408
#     4  12  25  42  63  99 142 187 218 268 341 412
#
# _framework density 22.267422
#
# number of rings (size 3 to 8) (size 9 to 14) (size 15 to 20)
#    0.000    1.000    6.250    1.500    1.750    6.000 
#    2.250    0.000    0.000    0.000    0.000    0.000 
#    0.000    0.000    0.000    0.000    0.000    0.000 
#
# Total GULP energy -198344.481620 kJ/mol
# GULP energy per Si atom -12396.530101 kJ/mol
# Density = 2.221674 g / cm^3
# Si number density = 22.267422 Si / 1000 Ang^3
#
#
#
# Elastic Constant Matrix: (Units=GPa)
#
#
# Indices 1 2 3 4 5 6 
#
# 1 84.2710 45.8565 11.5868 2.4978 -19.3889 22.1852
# 2 45.8565 118.6065 2.4727 -6.1417 -1.5776 14.8760
# 3 11.5868 2.4727 79.9290 9.2648 -4.5982 9.8501
# 4 2.4978 -6.1417 9.2648 24.4544 -0.2955 -3.0821
# 5 -19.3889 -1.5776 -4.5982 -0.2955 25.9860 -5.4937
# 6 22.1852 14.8760 9.8501 -3.0821 -5.4937 31.6536
#
#
#
# Elastic Compliance Matrix: (Units=1/GPa)
#
#
# Indices 1 2 3 4 5 6 
#
# 1 0.021704 -0.007228 -0.000354 -0.004974 0.013557 -0.009836
# 2 -0.007228 0.011442 0.000128 0.003397 -0.004818 -0.000857
# 3 -0.000354 0.000128 0.013841 -0.005725 0.001182 -0.004472
# 4 -0.004974 0.003397 -0.005725 0.045361 -0.002380 0.007675
# 5 0.013557 -0.004818 0.001182 -0.002380 0.048614 0.000600
# 6 -0.009836 -0.000857 -0.004472 0.007675 0.000600 0.041132
#
#
# Mechanical properties :
#
#
# Convention : Reuss Voigt Hill
#
# Bulk Modulus (GPa) = 31.17098 44.73761 37.95429
# Shear Modulus (GPa) = 24.07384 31.27816 27.67600
#
# Velocity S-wave (km/s) = 3.29161 3.75195 3.52929
# Velocity P-wave (km/s) = 5.33621 6.23732 5.80428
#
# Compressibility (1/GPa) = 0.03208112
#
# Stress axis : x y z
#
# Youngs Moduli (GPa) = 46.07419 87.39533 72.24864
#
# Poissons Ratio (x) = 0.63165 0.02558
# Poissons Ratio (y) = 0.33300 -0.00928
# Poissons Ratio (z) = 0.01632 -0.01123
#
# Static dielectric constant tensor:
#      x y z
#    x 3.823760 0.065960 0.000680 
#    y 0.065960 4.077640 0.103400 
#    z 0.000680 0.103400 4.141320 
# 
# 
# High freq. dielectric constant tensor:
#      x y z
#    x 1.863030 0.003310 0.006710 
#    y 0.003310 1.878800 0.000730 
#    z 0.006710 0.000730 1.882040 
# 
# From -- ./inp_files/345841.got.cif
#   From: 2010.06.25/outbox.cif.g09.slc.cpg/sg2_173_cif.got.tgz:345841.got - 2010.06.27 13:26:56.
