data_PCOD8023999
_publ_section_title
;
Structure prediction by ZEFSAII (Michael W. Deem and Ramdas Pophale) SiO2 
 PCOD8023999
Probable space group: P -1
;
_chemical_formula_sum "Si O2"
_cell_formula_units_Z 16
_cell_length_a 11.673613
_cell_length_b 8.035984
_cell_length_c 9.311554
_cell_angle_alpha 80.233624
_cell_angle_beta 123.626713
_cell_angle_gamma 112.090856
_cell_volume 673.097114
_symmetry_space_group_name_H-M "P -1"
_symmetry_group_IT_number 2
_symmetry_cell_setting 'triclinic'
loop_
_space_group_symop_operation_xyz
x,y,z
-x,-y,-z
loop_
_atom_site_type_symbol
_atom_site_label
_atom_site_fract_x
_atom_site_fract_y
_atom_site_fract_z
Si Si1 0.304799 0.910925 0.148796
Si Si2 0.155406 0.041059 0.527746
Si Si3 0.345584 0.567426 0.278203
Si Si4 0.714501 0.196077 0.164465
Si Si5 0.940051 0.095765 0.822369
Si Si6 0.476148 0.280467 0.126984
Si Si7 0.347693 0.441408 0.591245
Si Si8 0.216759 0.420110 0.922829
O O1 0.398965 0.783903 0.264963
O O2 0.172043 0.833636 0.179903
O O3 0.390328 0.122977 0.204252
O O4 0.256112 0.891610 0.950395
O O5 0.256286 0.242852 0.611415
O O6 0.231890 0.900726 0.654927
O O7 0.141417 0.032975 0.346312
O O8 0.000000 0.000000 0.500000
O O9 0.272528 0.498591 0.392723
O O10 0.488344 0.521710 0.352122
O O11 0.225176 0.463849 0.092078
O O12 0.541595 0.182503 0.062576
O O13 0.803515 0.410512 0.197066
O O14 0.072084 0.252318 0.816444
O O15 0.000000 0.000000 0.000000
O O16 0.626417 0.417834 0.280828
O O17 0.364408 0.379467 0.978837
#
# Coordination Sequence:
#
# PCOD8023999 Si02
#       8
#     2   2   2   2   2   2   2   2
#     4  11  24  42  71 103 136 181 228 282 343 406
#     4  12  29  47  69  99 144 184 226 286 346 408
#     4   9  21  41  68 103 136 176 227 291 336 398
#     4  11  26  45  69 106 139 178 231 288 344 407
#     4  12  25  45  74  99 138 184 232 273 342 420
#     4  11  23  42  75 103 139 178 231 288 344 406
#     4  10  23  42  68  99 140 178 228 283 346 397
#     4  10  23  44  71 103 137 184 232 278 343 407
#
# _framework density 23.770714999999999
#
# number of rings (size 3 to 8) (size 9 to 14) (size 15 to 20)
#    0.000    1.250    1.250    3.000    7.000    6.000 
#    0.000    0.000    0.000    0.000    0.000    0.000 
#    0.000    0.000    0.000    0.000    0.000    0.000 
#
# Total GULP energy -198325.473840 kJ/mol
# GULP energy per Si atom -12395.342115 kJ/mol
# Density = 2.371661 g / cm^3
# Si number density = 23.770715 Si / 1000 Ang^3
#
#
#
# Elastic Constant Matrix: (Units=GPa)
#
#
# Indices 1 2 3 4 5 6 
#
# 1 95.2767 17.1584 29.1404 11.4954 -15.3913 0.9218
# 2 17.1584 146.8673 39.1743 -2.1144 7.3183 -1.9497
# 3 29.1404 39.1743 95.7574 -10.7062 -11.9246 -9.3566
# 4 11.4954 -2.1144 -10.7062 41.5883 0.3999 5.9776
# 5 -15.3913 7.3183 -11.9246 0.3999 26.7003 -0.7547
# 6 0.9218 -1.9497 -9.3566 5.9776 -0.7547 37.6813
#
#
#
# Elastic Compliance Matrix: (Units=1/GPa)
#
#
# Indices 1 2 3 4 5 6 
#
# 1 0.013330 -0.001057 -0.003361 -0.004616 0.006532 -0.000352
# 2 -0.001057 0.008110 -0.003615 -0.000108 -0.004460 -0.000524
# 3 -0.003361 -0.003615 0.014359 0.003966 0.005490 0.002941
# 4 -0.004616 -0.000108 0.003966 0.026808 -0.001351 -0.003188
# 5 0.006532 -0.004460 0.005490 -0.001351 0.044972 0.002088
# 6 -0.000352 -0.000524 0.002941 -0.003188 0.002088 0.027798
#
#
# Mechanical properties :
#
#
# Convention : Reuss Voigt Hill
#
# Bulk Modulus (GPa) = 50.67700 56.53862 53.60781
# Shear Modulus (GPa) = 31.64160 38.02255 34.83208
#
# Velocity S-wave (km/s) = 3.65241 4.00378 3.83212
# Velocity P-wave (km/s) = 6.25717 6.72386 6.49471
#
# Compressibility (1/GPa) = 0.01973282
#
# Stress axis : x y z
#
# Youngs Moduli (GPa) = 75.02130 123.29948 69.64190
#
# Poissons Ratio (x) = 0.13038 0.23406
# Poissons Ratio (y) = 0.07933 0.25174
# Poissons Ratio (z) = 0.25214 0.44571
#
# Static dielectric constant tensor:
#      x y z
#    x 4.902790 -0.072430 -0.337360 
#    y -0.072430 4.363690 -0.057370 
#    z -0.337360 -0.057370 4.460520 
# 
# 
# High freq. dielectric constant tensor:
#      x y z
#    x 1.938010 -0.004150 -0.019240 
#    y -0.004150 1.956700 -0.009800 
#    z -0.019240 -0.009800 1.927090 
# 
# From -- ./inp_files/243651.got.cif
#   From: 2010.06.25/outbox.cif.g09.slc.cpg/sg2_122_cif.got.tgz:243651.got - 2010.06.27 13:26:56.
