data_PCOD8023739
_publ_section_title
;
Structure prediction by ZEFSAII (Michael W. Deem and Ramdas Pophale) SiO2 
 PCOD8023739
Probable space group: P -1
;
_chemical_formula_sum "Si O2"
_cell_formula_units_Z 14
_cell_length_a 12.193757
_cell_length_b 9.124447
_cell_length_c 14.072890
_cell_angle_alpha 52.965245
_cell_angle_beta 150.935255
_cell_angle_gamma 112.336417
_cell_volume 562.264890
_symmetry_space_group_name_H-M "P -1"
_symmetry_group_IT_number 2
_symmetry_cell_setting 'triclinic'
loop_
_space_group_symop_operation_xyz
x,y,z
-x,-y,-z
loop_
_atom_site_type_symbol
_atom_site_label
_atom_site_fract_x
_atom_site_fract_y
_atom_site_fract_z
Si Si1 0.057055 0.854774 0.513565
Si Si2 0.448993 0.183299 0.146900
Si Si3 0.314169 0.542070 0.532743
Si Si4 0.147668 0.631847 0.029144
Si Si5 0.748859 0.678406 0.256817
Si Si6 0.052779 0.022277 0.922500
Si Si7 0.104728 0.557668 0.819154
O O1 0.260359 0.891706 0.586693
O O2 0.148786 0.642272 0.718606
O O3 0.818060 0.868734 0.265911
O O4 0.000000 0.000000 0.500000
O O5 0.416523 0.268642 0.981688
O O6 0.324015 0.342263 0.073114
O O7 0.327749 0.019373 0.123199
O O8 0.566932 0.505212 0.684185
O O9 0.390538 0.397058 0.739379
O O10 0.154960 0.771225 0.352746
O O11 0.151836 0.471153 0.365919
O O12 0.104366 0.684143 0.863272
O O13 0.000000 0.500000 0.000000
O O14 0.048844 0.836854 0.931701
O O15 0.000000 0.500000 0.500000
O O16 0.000000 0.000000 0.000000
#
# Coordination Sequence:
#
# PCOD8023739 Si02
#       7
#     2   2   2   2   2   2   2
#     4  11  25  37  63 105 135 171 221 270 332 404
#     4  11  23  43  68  94 140 181 221 277 329 406
#     4  10  24  47  71  97 142 177 220 280 338 400
#     4  12  27  46  71  99 132 180 230 283 337 395
#     4  11  21  42  70  97 135 185 213 267 349 392
#     4  11  26  47  71 101 131 181 232 277 340 401
#     4  10  23  42  64  99 133 175 224 269 337 397
#
# _framework density 24.899297000000001
#
# number of rings (size 3 to 8) (size 9 to 14) (size 15 to 20)
#    0.000    1.143    4.286    3.000    8.000    3.429 
#    0.000    0.000    0.000    0.000    0.000    0.000 
#    0.000    0.000    0.000    0.000    0.000    0.000 
#
# Total GULP energy -173524.478741 kJ/mol
# GULP energy per Si atom -12394.605624 kJ/mol
# Density = 2.484263 g / cm^3
# Si number density = 24.899297 Si / 1000 Ang^3
#
#
#
# Elastic Constant Matrix: (Units=GPa)
#
#
# Indices 1 2 3 4 5 6 
#
# 1 118.2897 55.9425 36.1328 18.7049 14.7209 -3.6271
# 2 55.9425 168.7801 34.9473 8.0754 22.4666 -13.2711
# 3 36.1328 34.9473 63.6908 10.8986 24.7584 11.4795
# 4 18.7049 8.0754 10.8986 24.1276 7.8266 7.6825
# 5 14.7209 22.4666 24.7584 7.8266 43.2558 14.0415
# 6 -3.6271 -13.2711 11.4795 7.6825 14.0415 57.6993
#
#
#
# Elastic Compliance Matrix: (Units=1/GPa)
#
#
# Indices 1 2 3 4 5 6 
#
# 1 0.012341 -0.002663 -0.004906 -0.007300 0.000681 0.001946
# 2 -0.002663 0.007843 -0.002265 0.000522 -0.002845 0.002710
# 3 -0.004906 -0.002265 0.024465 -0.002368 -0.009752 -0.003008
# 4 -0.007300 0.000522 -0.002368 0.051064 -0.003807 -0.005740
# 5 0.000681 -0.002845 -0.009752 -0.003807 0.032616 -0.006102
# 6 0.001946 0.002710 -0.003008 -0.005740 -0.006102 0.020925
#
#
# Mechanical properties :
#
#
# Convention : Reuss Voigt Hill
#
# Bulk Modulus (GPa) = 40.02851 67.20064 53.61457
# Shear Modulus (GPa) = 28.20886 39.93240 34.07063
#
# Velocity S-wave (km/s) = 3.36954 4.00904 3.70312
# Velocity P-wave (km/s) = 5.59012 6.96257 6.31375
#
# Compressibility (1/GPa) = 0.02498220
#
# Stress axis : x y z
#
# Youngs Moduli (GPa) = 81.02916 127.49759 40.87415
#
# Poissons Ratio (x) = 0.33952 0.20054
# Poissons Ratio (y) = 0.21578 0.09256
# Poissons Ratio (z) = 0.39755 0.28873
#
# Static dielectric constant tensor:
#      x y z
#    x 4.423570 -0.861150 -0.190590 
#    y -0.861150 1.791230 -0.510780 
#    z -0.190590 -0.510780 4.332280 
# 
# 
# High freq. dielectric constant tensor:
#      x y z
#    x 1.991050 -0.004990 0.010560 
#    y -0.004990 2.007210 0.020080 
#    z 0.010560 0.020080 1.968400 
# 
# From -- ./inp_files/329652.got.cif
#   From: 2010.06.25/outbox.cif.g09.slc.cpg/sg2_165_cif.got.tgz:329652.got - 2010.06.27 13:26:56.
