data_PCOD8023274
_publ_section_title
;
Structure prediction by ZEFSAII (Michael W. Deem and Ramdas Pophale) SiO2 
 PCOD8023274
Probable space group: P -1
;
_chemical_formula_sum "Si O2"
_cell_formula_units_Z 16
_cell_length_a 17.751792
_cell_length_b 13.244447
_cell_length_c 8.214351
_cell_angle_alpha 85.736966
_cell_angle_beta 126.036593
_cell_angle_gamma 139.324024
_cell_volume 721.400641
_symmetry_space_group_name_H-M "P -1"
_symmetry_group_IT_number 2
_symmetry_cell_setting 'triclinic'
loop_
_space_group_symop_operation_xyz
x,y,z
-x,-y,-z
loop_
_atom_site_type_symbol
_atom_site_label
_atom_site_fract_x
_atom_site_fract_y
_atom_site_fract_z
Si Si1 0.182172 0.905507 0.364740
Si Si2 0.125562 0.362986 0.262450
Si Si3 0.564162 0.154855 0.855911
Si Si4 0.828554 0.894011 0.512135
Si Si5 0.008287 0.453811 0.687560
Si Si6 0.435626 0.501078 0.573614
Si Si7 0.677199 0.270800 0.358121
Si Si8 0.147423 0.038854 0.836579
O O1 0.112896 0.769607 0.446122
O O2 0.411504 0.091465 0.596266
O O3 0.165408 0.007877 0.365373
O O4 0.033272 0.735759 0.046772
O O5 0.247600 0.394533 0.313698
O O6 0.300017 0.603571 0.528186
O O7 0.993271 0.190876 0.264820
O O8 0.494400 0.971325 0.770559
O O9 0.768090 0.353479 0.985089
O O10 0.627669 0.246896 0.109472
O O11 0.635944 0.640588 0.350685
O O12 0.808947 0.918936 0.304359
O O13 0.038478 0.035050 0.766774
O O14 0.000000 0.500000 0.500000
O O15 0.887147 0.415820 0.649368
O O16 0.500000 0.500000 0.500000
O O17 0.631330 0.755928 0.832226
#
# Coordination Sequence:
#
# PCOD8023274 Si02
#       8
#     2   2   2   2   2   2   2   2
#     4  11  23  38  61  95 126 163 214 263 315 381
#     4  11  25  40  63 100 131 166 214 266 323 372
#     4   9  20  38  63  88 122 167 207 260 318 377
#     4  10  23  41  64  93 127 168 219 263 308 384
#     4   9  20  38  61  89 122 164 211 256 321 371
#     4  11  23  42  65  92 135 172 208 259 325 379
#     4   9  20  40  61  88 127 160 212 264 310 382
#     4  10  23  42  64  92 129 170 213 267 316 373
#
# _framework density 22.179075999999998
#
# number of rings (size 3 to 8) (size 9 to 14) (size 15 to 20)
#    0.000    2.000    0.000    2.625    5.250    8.000 
#    0.000    1.250    0.000    0.000    0.000    0.000 
#    0.000    0.000    0.000    0.000    0.000    0.000 
#
# Total GULP energy -198245.707551 kJ/mol
# GULP energy per Si atom -12390.356722 kJ/mol
# Density = 2.212860 g / cm^3
# Si number density = 22.179076 Si / 1000 Ang^3
#
#
#
# Elastic Constant Matrix: (Units=GPa)
#
#
# Indices 1 2 3 4 5 6 
#
# 1 78.8082 33.6968 40.4916 11.1941 5.6471 -3.2160
# 2 33.6968 61.6919 18.4210 9.2056 1.5970 -4.4422
# 3 40.4916 18.4210 124.8663 6.9795 15.8408 -2.3475
# 4 11.1941 9.2056 6.9795 33.2643 -1.4931 3.6328
# 5 5.6471 1.5970 15.8408 -1.4931 34.8463 10.2648
# 6 -3.2160 -4.4422 -2.3475 3.6328 10.2648 33.6563
#
#
#
# Elastic Compliance Matrix: (Units=1/GPa)
#
#
# Indices 1 2 3 4 5 6 
#
# 1 0.019345 -0.008571 -0.004665 -0.003326 -0.001082 0.001081
# 2 -0.008571 0.021623 -0.000119 -0.003369 -0.000435 0.002523
# 3 -0.004665 -0.000119 0.010181 -0.000915 -0.004404 0.001690
# 4 -0.003326 -0.003369 -0.000915 0.033115 0.004202 -0.005682
# 5 -0.001082 -0.000435 -0.004404 0.004202 0.034440 -0.011426
# 6 0.001081 0.002523 0.001690 -0.005682 -0.011426 0.034364
#
#
# Mechanical properties :
#
#
# Convention : Reuss Voigt Hill
#
# Bulk Modulus (GPa) = 40.92241 50.06500 45.49370
# Shear Modulus (GPa) = 26.60628 31.87050 29.23839
#
# Velocity S-wave (km/s) = 3.46730 3.79484 3.63476
# Velocity P-wave (km/s) = 5.87542 6.46708 6.17834
#
# Compressibility (1/GPa) = 0.02443649
#
# Stress axis : x y z
#
# Youngs Moduli (GPa) = 51.69301 46.24762 98.22594
#
# Poissons Ratio (x) = 0.39640 0.45824
# Poissons Ratio (y) = 0.44308 0.01173
# Poissons Ratio (z) = 0.24116 0.00552
#
# Static dielectric constant tensor:
#      x y z
#    x 3.919310 0.077700 0.402150 
#    y 0.077700 4.141910 0.203780 
#    z 0.402150 0.203780 4.189520 
# 
# 
# High freq. dielectric constant tensor:
#      x y z
#    x 1.856190 -0.001970 0.022580 
#    y -0.001970 1.878330 0.010430 
#    z 0.022580 0.010430 1.871880 
# 
# From -- ./inp_files/333296.got.cif
#   From: 2010.06.25/outbox.cif.g09.slc.cpg/sg2_167_cif.got.tgz:333296.got - 2010.06.27 13:26:56.
