data_PCOD8023059
_publ_section_title
;
Structure prediction by ZEFSAII (Michael W. Deem and Ramdas Pophale) SiO2 
 PCOD8023059
Probable space group: P -1
;
_chemical_formula_sum "Si O2"
_cell_formula_units_Z 14
_cell_length_a 8.649616
_cell_length_b 14.718242
_cell_length_c 8.699399
_cell_angle_alpha 76.719438
_cell_angle_beta 111.901551
_cell_angle_gamma 53.421527
_cell_volume 655.987589
_symmetry_space_group_name_H-M "P -1"
_symmetry_group_IT_number 2
_symmetry_cell_setting 'triclinic'
loop_
_space_group_symop_operation_xyz
x,y,z
-x,-y,-z
loop_
_atom_site_type_symbol
_atom_site_label
_atom_site_fract_x
_atom_site_fract_y
_atom_site_fract_z
Si Si1 0.942098 0.936024 0.107827
Si Si2 0.537818 0.476682 0.199855
Si Si3 0.829650 0.168536 0.444268
Si Si4 0.471247 0.084825 0.693910
Si Si5 0.014602 0.605157 0.473553
Si Si6 0.311997 0.966047 0.537671
Si Si7 0.218236 0.632839 0.278975
O O1 0.981237 0.939508 0.301710
O O2 0.139902 0.772660 0.201422
O O3 0.656288 0.021749 0.932097
O O4 0.000000 0.000000 0.000000
O O5 0.673826 0.325429 0.366548
O O6 0.256316 0.595083 0.126301
O O7 0.716907 0.487102 0.310314
O O8 0.500000 0.500000 0.000000
O O9 0.639262 0.162185 0.342098
O O10 0.006773 0.111913 0.382604
O O11 0.211364 0.250847 0.568207
O O12 0.596249 0.068826 0.589682
O O13 0.438744 0.987432 0.691763
O O14 0.000000 0.500000 0.500000
O O15 0.019917 0.648386 0.286738
O O16 0.500000 0.500000 0.500000
#
# Coordination Sequence:
#
# PCOD8023059 Si02
#       7
#     2   2   2   2   2   2   2
#     4  12  24  40  74 103 132 181 237 279 346 414
#     4  11  25  45  71  94 135 185 235 276 335 421
#     4  11  22  45  63 100 134 176 230 276 339 413
#     4  11  24  42  67 102 140 171 225 285 345 397
#     4  11  25  46  69  99 141 180 229 287 345 399
#     4  10  23  40  66  93 142 172 208 288 344 392
#     4  10  23  44  68  95 139 182 227 279 337 407
#
# _framework density 21.341867000000001
#
# number of rings (size 3 to 8) (size 9 to 14) (size 15 to 20)
#    0.000    1.143    5.714    0.000    8.000    2.286 
#    2.571    0.714    0.000    0.000    0.000    0.000 
#    0.000    0.000    0.000    0.000    0.000    0.000 
#
# Total GULP energy -173453.361876 kJ/mol
# GULP energy per Si atom -12389.525848 kJ/mol
# Density = 2.129329 g / cm^3
# Si number density = 21.341867 Si / 1000 Ang^3
#
#
#
# Elastic Constant Matrix: (Units=GPa)
#
#
# Indices 1 2 3 4 5 6 
#
# 1 162.1821 78.5836 40.0201 6.7967 -10.2421 7.4161
# 2 78.5836 141.9366 31.6909 4.3584 -12.8026 -6.7597
# 3 40.0201 31.6909 79.5689 9.3219 -8.6371 1.5552
# 4 6.7967 4.3584 9.3219 32.4586 0.6658 -5.2892
# 5 -10.2421 -12.8026 -8.6371 0.6658 30.7556 6.9983
# 6 7.4161 -6.7597 1.5552 -5.2892 6.9983 56.1827
#
#
#
# Elastic Compliance Matrix: (Units=1/GPa)
#
#
# Indices 1 2 3 4 5 6 
#
# 1 0.009149 -0.004468 -0.002581 -0.000898 0.000907 -0.001871
# 2 -0.004468 0.010127 -0.001646 0.000278 0.001885 0.001645
# 3 -0.002581 -0.001646 0.015330 -0.003872 0.003078 -0.001030
# 4 -0.000898 0.000278 -0.003872 0.032731 -0.002819 0.003692
# 5 0.000907 0.001885 0.003078 -0.002819 0.035591 -0.004677
# 6 -0.001871 0.001645 -0.001030 0.003692 -0.004677 0.019203
#
#
# Mechanical properties :
#
#
# Convention : Reuss Voigt Hill
#
# Bulk Modulus (GPa) = 58.09574 76.03075 67.06324
# Shear Modulus (GPa) = 34.42151 39.43890 36.93021
#
# Velocity S-wave (km/s) = 4.02040 4.30345 4.16433
# Velocity P-wave (km/s) = 6.98800 7.77145 7.39011
#
# Compressibility (1/GPa) = 0.01721297
#
# Stress axis : x y z
#
# Youngs Moduli (GPa) = 109.30735 98.74877 65.23365
#
# Poissons Ratio (x) = 0.44126 0.16840
# Poissons Ratio (y) = 0.48844 0.10737
# Poissons Ratio (z) = 0.28217 0.16254
#
# Static dielectric constant tensor:
#      x y z
#    x 4.385960 -0.187080 -0.092610 
#    y -0.187080 4.216260 0.344920 
#    z -0.092610 0.344920 3.683270 
# 
# 
# High freq. dielectric constant tensor:
#      x y z
#    x 1.851710 -0.004560 -0.011240 
#    y -0.004560 1.861870 0.011110 
#    z -0.011240 0.011110 1.803840 
# 
# From -- ./inp_files/199023.got.cif
#   From: 2010.06.25/outbox.cif.g09.slc.cpg/sg2_100_cif.got.tgz:199023.got - 2010.06.27 13:26:56.
