data_PCOD8023942
_publ_section_title
;
Structure prediction by ZEFSAII (Michael W. Deem and Ramdas Pophale) SiO2 
 PCOD8023942
Probable space group: P -1
;
_chemical_formula_sum "Si O2"
_cell_formula_units_Z 14
_cell_length_a 24.395837
_cell_length_b 13.643953
_cell_length_c 5.460139
_cell_angle_alpha 54.232574
_cell_angle_beta 53.476116
_cell_angle_gamma 23.432855
_cell_volume 576.593411
_symmetry_space_group_name_H-M "P -1"
_symmetry_group_IT_number 2
_symmetry_cell_setting 'triclinic'
loop_
_space_group_symop_operation_xyz
x,y,z
-x,-y,-z
loop_
_atom_site_type_symbol
_atom_site_label
_atom_site_fract_x
_atom_site_fract_y
_atom_site_fract_z
Si Si1 0.223096 0.904686 0.535816
Si Si2 0.941072 0.220813 0.763145
Si Si3 0.609837 0.973590 0.045610
Si Si4 0.595952 0.578760 0.378415
Si Si5 0.840279 0.773445 0.481437
Si Si6 0.230042 0.509580 0.686420
Si Si7 0.642756 0.110358 0.129874
O O1 0.309316 0.647299 0.732368
O O2 0.198160 0.025838 0.661866
O O3 0.323858 0.821420 0.205729
O O4 0.069755 0.112644 0.529283
O O5 0.858345 0.342592 0.546135
O O6 0.853633 0.401620 0.971636
O O7 0.000000 0.000000 0.000000
O O8 0.753859 0.818051 0.817711
O O9 0.477551 0.193772 0.894190
O O10 0.644806 0.779564 0.276912
O O11 0.567776 0.112079 0.197340
O O12 0.699642 0.469989 0.471125
O O13 0.471881 0.683461 0.655642
O O14 0.000000 0.500000 0.500000
O O15 0.791306 0.830041 0.250541
#
# Coordination Sequence:
#
# PCOD8023942 Si02
#       7
#     2   2   2   2   2   2   2
#     4  11  25  43  73 102 147 188 247 304 369 434
#     4  12  28  49  75 112 145 195 246 306 371 431
#     4  10  25  44  68 108 142 196 244 299 367 436
#     4  11  25  46  70 104 151 191 249 300 366 443
#     4  10  23  42  68 101 146 185 246 302 367 437
#     4  12  28  48  80 105 154 192 251 303 367 438
#     4  10  25  42  70 104 141 194 245 298 371 431
#
# _framework density 24.280543000000002
#
# number of rings (size 3 to 8) (size 9 to 14) (size 15 to 20)
#    0.000    1.143    1.429    2.143   12.000    8.000 
#    0.000    0.000    0.000    0.000    0.000    0.000 
#    0.000    0.000    0.000    0.000    0.000    0.000 
#
# Total GULP energy -173449.181396 kJ/mol
# GULP energy per Si atom -12389.227243 kJ/mol
# Density = 2.422528 g / cm^3
# Si number density = 24.280543 Si / 1000 Ang^3
#
#
#
# Elastic Constant Matrix: (Units=GPa)
#
#
# Indices 1 2 3 4 5 6 
#
# 1 96.6098 31.3022 38.0590 -7.0856 8.5256 -16.8169
# 2 31.3022 124.0956 32.6379 -5.9975 7.5891 -0.9731
# 3 38.0590 32.6379 65.8607 -13.2861 15.8047 1.4914
# 4 -7.0856 -5.9975 -13.2861 33.2728 -4.8029 -2.3467
# 5 8.5256 7.5891 15.8047 -4.8029 43.8876 -7.0250
# 6 -16.8169 -0.9731 1.4914 -2.3467 -7.0250 33.9205
#
#
#
# Elastic Compliance Matrix: (Units=1/GPa)
#
#
# Indices 1 2 3 4 5 6 
#
# 1 0.015714 -0.001674 -0.008800 0.000394 0.001815 0.008533
# 2 -0.001674 0.009453 -0.003731 -0.000180 -0.000052 -0.000418
# 3 -0.008800 -0.003731 0.025191 0.006016 -0.007121 -0.006636
# 4 0.000394 -0.000180 0.006016 0.032951 0.001807 0.002580
# 5 0.001815 -0.000052 -0.007121 0.001807 0.026289 0.006781
# 6 0.008533 -0.000418 -0.006636 0.002580 0.006781 0.035574
#
#
# Mechanical properties :
#
#
# Convention : Reuss Voigt Hill
#
# Bulk Modulus (GPa) = 45.56549 54.50715 50.03632
# Shear Modulus (GPa) = 27.63954 34.52065 31.08010
#
# Velocity S-wave (km/s) = 3.37759 3.77469 3.58165
# Velocity P-wave (km/s) = 5.83248 6.44169 6.14464
#
# Compressibility (1/GPa) = 0.02194643
#
# Stress axis : x y z
#
# Youngs Moduli (GPa) = 63.63617 105.78389 39.69694
#
# Poissons Ratio (x) = 0.17711 0.34935
# Poissons Ratio (y) = 0.10655 0.14812
# Poissons Ratio (z) = 0.56002 0.39471
#
# Static dielectric constant tensor:
#      x y z
#    x 4.638880 0.011290 0.141780 
#    y 0.011290 4.497530 0.183750 
#    z 0.141780 0.183750 4.251150 
# 
# 
# High freq. dielectric constant tensor:
#      x y z
#    x 1.976940 -0.007140 -0.004490 
#    y -0.007140 1.977780 0.009040 
#    z -0.004490 0.009040 1.943920 
# 
# From -- ./inp_files/70523.got.cif
#   From: 2010.06.25/outbox.cif.g09.slc.cpg/sg2_36_cif.got.tgz:70523.got - 2010.06.27 13:26:56.
