data_PCOD8023114
_publ_section_title
;
Structure prediction by ZEFSAII (Michael W. Deem and Ramdas Pophale) SiO2 
 PCOD8023114
Probable space group: P -1
;
_chemical_formula_sum "Si O2"
_cell_formula_units_Z 14
_cell_length_a 14.429356
_cell_length_b 6.379476
_cell_length_c 12.140606
_cell_angle_alpha 67.851162
_cell_angle_beta 54.523331
_cell_angle_gamma 45.065980
_cell_volume 643.221738
_symmetry_space_group_name_H-M "P -1"
_symmetry_group_IT_number 2
_symmetry_cell_setting 'triclinic'
loop_
_space_group_symop_operation_xyz
x,y,z
-x,-y,-z
loop_
_atom_site_type_symbol
_atom_site_label
_atom_site_fract_x
_atom_site_fract_y
_atom_site_fract_z
Si Si1 0.669896 0.724244 0.686942
Si Si2 0.562652 0.348991 0.605625
Si Si3 0.854378 0.255405 0.480525
Si Si4 0.012163 0.803030 0.831269
Si Si5 0.801725 0.673279 0.039387
Si Si6 0.424793 0.694633 0.844050
Si Si7 0.252897 0.523614 0.090629
O O1 0.783281 0.551996 0.541065
O O2 0.581344 0.602602 0.786982
O O3 0.747331 0.637605 0.770024
O O4 0.567515 0.070877 0.663707
O O5 0.500000 0.500000 0.500000
O O6 0.728544 0.225181 0.548560
O O7 0.437552 0.591418 0.730176
O O8 0.905202 0.276448 0.324387
O O9 0.000000 0.000000 0.500000
O O10 0.133388 0.624561 0.879845
O O11 0.907553 0.148346 0.865912
O O12 0.929024 0.671513 0.904250
O O13 0.697071 0.950064 0.138234
O O14 0.716689 0.682100 0.991383
O O15 0.382585 0.547745 0.987209
#
# Coordination Sequence:
#
# PCOD8023114 Si02
#       7
#     2   2   2   2   2   2   2
#     4  11  25  43  66  98 133 175 222 275 337 388
#     4  11  28  45  68 100 133 179 230 268 330 405
#     4  11  25  45  70  97 139 172 220 279 333 393
#     4  10  23  42  63  98 133 171 221 275 329 394
#     4  10  23  40  68  95 130 176 216 273 335 386
#     4  10  24  42  66  95 132 169 224 276 331 383
#     4  11  22  41  69  96 132 168 229 268 334 399
#
# _framework density 21.765433000000002
#
# number of rings (size 3 to 8) (size 9 to 14) (size 15 to 20)
#    0.000    1.429    1.429    1.714    8.000    6.286 
#    0.000    0.000    0.000    0.000    0.000    0.000 
#    0.000    0.000    0.000    0.000    0.000    0.000 
#
# Total GULP energy -173541.876655 kJ/mol
# GULP energy per Si atom -12395.848333 kJ/mol
# Density = 2.171589 g / cm^3
# Si number density = 21.765433 Si / 1000 Ang^3
#
#
#
# Elastic Constant Matrix: (Units=GPa)
#
#
# Indices 1 2 3 4 5 6 
#
# 1 80.9423 28.6533 27.4879 4.1779 12.5741 4.8098
# 2 28.6533 125.4020 53.9828 8.8169 19.8847 12.3340
# 3 27.4879 53.9828 143.0830 17.6555 17.7651 10.1664
# 4 4.1779 8.8169 17.6555 39.8077 -2.8989 7.2566
# 5 12.5741 19.8847 17.7651 -2.8989 33.5865 5.8180
# 6 4.8098 12.3340 10.1664 7.2566 5.8180 25.3077
#
#
#
# Elastic Compliance Matrix: (Units=1/GPa)
#
#
# Indices 1 2 3 4 5 6 
#
# 1 0.014121 -0.002011 -0.001451 -0.000605 -0.003350 -0.000177
# 2 -0.002011 0.010541 -0.002886 -0.000630 -0.003567 -0.002595
# 3 -0.001451 -0.002886 0.009153 -0.003406 -0.002820 -0.000370
# 4 -0.000605 -0.000630 -0.003406 0.028726 0.006246 -0.007882
# 5 -0.003350 -0.003567 -0.002820 0.006246 0.036319 -0.006633
# 6 -0.000177 -0.002595 -0.000370 -0.007882 -0.006633 0.044746
#
#
# Mechanical properties :
#
#
# Convention : Reuss Voigt Hill
#
# Bulk Modulus (GPa) = 47.34729 63.29724 55.32227
# Shear Modulus (GPa) = 30.61063 35.69393 33.15228
#
# Velocity S-wave (km/s) = 3.75425 4.05401 3.90700
# Velocity P-wave (km/s) = 6.37128 7.14549 6.76946
#
# Compressibility (1/GPa) = 0.02112053
#
# Stress axis : x y z
#
# Youngs Moduli (GPa) = 70.81522 94.86633 109.25286
#
# Poissons Ratio (x) = 0.19075 0.15853
# Poissons Ratio (y) = 0.14239 0.31527
# Poissons Ratio (z) = 0.10276 0.27376
#
# Static dielectric constant tensor:
#      x y z
#    x 3.985510 0.007710 -0.007250 
#    y 0.007710 3.868770 0.104770 
#    z -0.007250 0.104770 4.182940 
# 
# 
# High freq. dielectric constant tensor:
#      x y z
#    x 1.851050 0.002890 0.005130 
#    y 0.002890 1.853990 0.009490 
#    z 0.005130 0.009490 1.871980 
# 
# From -- ./inp_files/64835.got.cif
#   From: 2010.06.25/outbox.cif.g09.slc.cpg/sg2_33_cif.got.tgz:64835.got - 2010.06.27 13:26:56.
