data_PCOD8023903
_publ_section_title
;
Structure prediction by ZEFSAII (Michael W. Deem and Ramdas Pophale) SiO2 
 PCOD8023903
Probable space group: P -1
;
_chemical_formula_sum "Si O2"
_cell_formula_units_Z 16
_cell_length_a 13.840291
_cell_length_b 14.071921
_cell_length_c 14.882015
_cell_angle_alpha 31.744915
_cell_angle_beta 51.699150
_cell_angle_gamma 31.381733
_cell_volume 732.012377
_symmetry_space_group_name_H-M "P -1"
_symmetry_group_IT_number 2
_symmetry_cell_setting 'triclinic'
loop_
_space_group_symop_operation_xyz
x,y,z
-x,-y,-z
loop_
_atom_site_type_symbol
_atom_site_label
_atom_site_fract_x
_atom_site_fract_y
_atom_site_fract_z
Si Si1 0.945118 0.841308 0.400525
Si Si2 0.526440 0.623817 0.313705
Si Si3 0.056926 0.864678 0.978283
Si Si4 0.301188 0.218677 0.382621
Si Si5 0.318933 0.286107 0.714412
Si Si6 0.734481 0.805738 0.773450
Si Si7 0.865196 0.829412 0.994194
Si Si8 0.840607 0.075262 0.472447
O O1 0.849518 0.754016 0.509236
O O2 0.190838 0.536128 0.508552
O O3 0.886036 0.005965 0.396460
O O4 0.867365 0.053748 0.191233
O O5 0.500000 0.500000 0.500000
O O6 0.669906 0.608928 0.285912
O O7 0.629240 0.428023 0.321438
O O8 0.308145 0.957218 0.150555
O O9 0.873242 0.997232 0.918059
O O10 0.215160 0.520532 0.179043
O O11 0.000000 0.000000 0.000000
O O12 0.360031 0.076226 0.365941
O O13 0.500000 0.000000 0.500000
O O14 0.546834 0.965460 0.815630
O O15 0.175658 0.286067 0.821325
O O16 0.817031 0.907726 0.668755
O O17 0.921343 0.447987 0.957765
O O18 0.000000 0.000000 0.500000
#
# Coordination Sequence:
#
# PCOD8023903 Si02
#       8
#     2   2   2   2   2   2   2   2
#     4  11  24  45  74 101 151 184 232 301 356 422
#     4  12  24  39  67 102 139 190 233 286 351 414
#     4  11  26  44  72 105 136 184 238 298 359 421
#     4  10  24  47  68 100 140 181 239 294 359 427
#     4  12  22  43  71 102 139 195 230 286 366 411
#     4  10  23  42  67  95 138 185 230 292 353 416
#     4  11  25  47  62 103 146 175 246 293 344 440
#     4  11  21  41  66 101 144 184 234 286 344 419
#
# _framework density 21.857555000000001
#
# number of rings (size 3 to 8) (size 9 to 14) (size 15 to 20)
#    0.000    1.000    6.250    1.125    1.750    5.500 
#    0.000    0.000    0.000    0.000    0.000    0.000 
#    0.000    0.000    0.000    0.000    0.000    0.000 
#
# Total GULP energy -198291.707764 kJ/mol
# GULP energy per Si atom -12393.231735 kJ/mol
# Density = 2.180781 g / cm^3
# Si number density = 21.857555 Si / 1000 Ang^3
#
#
#
# Elastic Constant Matrix: (Units=GPa)
#
#
# Indices 1 2 3 4 5 6 
#
# 1 110.6274 28.7770 44.8414 -14.5539 4.7607 -6.0540
# 2 28.7770 124.8307 42.7617 -13.6066 -4.5049 3.5757
# 3 44.8414 42.7617 139.5787 -5.6120 6.8383 -6.5583
# 4 -14.5539 -13.6066 -5.6120 30.7112 -3.5490 3.8383
# 5 4.7607 -4.5049 6.8383 -3.5490 33.8893 -5.7777
# 6 -6.0540 3.5757 -6.5583 3.8383 -5.7777 30.4226
#
#
#
# Elastic Compliance Matrix: (Units=1/GPa)
#
#
# Indices 1 2 3 4 5 6 
#
# 1 0.011167 -0.001159 -0.002993 0.004034 -0.000507 0.001108
# 2 -0.001159 0.009729 -0.002652 0.003766 0.002039 -0.002034
# 3 -0.002993 -0.002652 0.009037 -0.001321 -0.001635 0.001520
# 4 0.004034 0.003766 -0.001321 0.036782 0.003384 -0.003923
# 5 -0.000507 0.002039 -0.001635 0.003384 0.031359 0.004836
# 6 0.001108 -0.002034 0.001520 -0.003923 0.004836 0.035071
#
#
# Mechanical properties :
#
#
# Convention : Reuss Voigt Hill
#
# Bulk Modulus (GPa) = 61.26054 67.53300 64.39677
# Shear Modulus (GPa) = 32.85239 36.24839 34.55039
#
# Velocity S-wave (km/s) = 3.88109 4.07675 3.98012
# Velocity P-wave (km/s) = 6.94059 7.28861 7.11673
#
# Compressibility (1/GPa) = 0.01632372
#
# Stress axis : x y z
#
# Youngs Moduli (GPa) = 89.54567 102.78562 110.65588
#
# Poissons Ratio (x) = 0.11916 0.33124
# Poissons Ratio (y) = 0.10381 0.29348
# Poissons Ratio (z) = 0.26805 0.27261
#
# Static dielectric constant tensor:
#      x y z
#    x 4.019150 -0.099780 -0.130990 
#    y -0.099780 3.947380 -0.272230 
#    z -0.130990 -0.272230 4.164830 
# 
# 
# High freq. dielectric constant tensor:
#      x y z
#    x 1.870370 -0.002580 -0.008380 
#    y -0.002580 1.849500 -0.008570 
#    z -0.008380 -0.008570 1.858610 
# 
# From -- ./inp_files/534127.got.cif
#   From: 2010.06.25/outbox.cif.g09.slc.cpg/sg2_268_cif.got.tgz:534127.got - 2010.06.27 13:26:56.
