data_PCOD8023375
_publ_section_title
;
Structure prediction by ZEFSAII (Michael W. Deem and Ramdas Pophale) SiO2 
 PCOD8023375
Probable space group: P -1
;
_chemical_formula_sum "Si O2"
_cell_formula_units_Z 14
_cell_length_a 8.962844
_cell_length_b 11.443532
_cell_length_c 11.557136
_cell_angle_alpha 133.048257
_cell_angle_beta 113.408465
_cell_angle_gamma 51.569345
_cell_volume 677.829323
_symmetry_space_group_name_H-M "P -1"
_symmetry_group_IT_number 2
_symmetry_cell_setting 'triclinic'
loop_
_space_group_symop_operation_xyz
x,y,z
-x,-y,-z
loop_
_atom_site_type_symbol
_atom_site_label
_atom_site_fract_x
_atom_site_fract_y
_atom_site_fract_z
Si Si1 0.576252 0.684222 0.474608
Si Si2 0.839098 0.366118 0.168020
Si Si3 0.637796 0.556411 0.655017
Si Si4 0.445928 0.746636 0.947215
Si Si5 0.154974 0.540644 0.026623
Si Si6 0.171514 0.796017 0.385846
Si Si7 0.259760 0.168632 0.209109
O O1 0.725124 0.549808 0.335279
O O2 0.560356 0.571835 0.508482
O O3 0.365090 0.801581 0.435006
O O4 0.649338 0.820135 0.632350
O O5 0.723567 0.260833 0.045745
O O6 0.041296 0.226827 0.197588
O O7 0.876654 0.422911 0.093756
O O8 0.474794 0.642618 0.762681
O O9 0.802338 0.345266 0.597113
O O10 0.732481 0.685162 0.777750
O O11 0.635931 0.639288 0.009490
O O12 0.385609 0.960681 0.056559
O O13 0.131081 0.724905 0.205800
O O14 0.000000 0.500000 0.000000
O O15 0.000000 0.000000 0.500000
#
# Coordination Sequence:
#
# PCOD8023375 Si02
#       7
#     2   2   2   2   2   2   2
#     4  10  23  41  66  92 135 170 212 270 326 371
#     4  12  22  44  65  94 134 169 216 267 326 380
#     4   9  21  42  66  92 133 169 213 266 322 374
#     4  11  22  41  66  97 129 169 218 267 320 382
#     4  11  26  45  67  92 132 175 212 268 327 387
#     4  11  23  42  67  99 124 173 220 264 319 384
#     4  10  24  40  65  99 126 173 215 264 322 383
#
# _framework density 20.654169
#
# number of rings (size 3 to 8) (size 9 to 14) (size 15 to 20)
#    0.857    0.571    2.857    3.857    2.000    1.143 
#    2.571    0.714    0.000    0.000    0.000    0.000 
#    0.000    0.000    0.000    0.000    0.000    0.000 
#
# Total GULP energy -173583.430294 kJ/mol
# GULP energy per Si atom -12398.816450 kJ/mol
# Density = 2.060716 g / cm^3
# Si number density = 20.654169 Si / 1000 Ang^3
#
#
#
# Elastic Constant Matrix: (Units=GPa)
#
#
# Indices 1 2 3 4 5 6 
#
# 1 118.0709 45.1961 45.1482 -1.9573 8.0922 -14.8092
# 2 45.1961 98.3479 74.8665 27.3194 2.2137 -16.9193
# 3 45.1482 74.8665 135.7143 1.6390 -6.2554 -10.2043
# 4 -1.9573 27.3194 1.6390 43.6529 -2.8288 -4.3534
# 5 8.0922 2.2137 -6.2554 -2.8288 33.4748 -5.9346
# 6 -14.8092 -16.9193 -10.2043 -4.3534 -5.9346 39.5775
#
#
#
# Elastic Compliance Matrix: (Units=1/GPa)
#
#
# Indices 1 2 3 4 5 6 
#
# 1 0.011220 -0.005224 -0.000841 0.003872 -0.001861 0.001895
# 2 -0.005224 0.028740 -0.013766 -0.017534 -0.003936 0.004264
# 3 -0.000841 -0.013766 0.015302 0.008231 0.004551 -0.000666
# 4 0.003872 -0.017534 0.008231 0.034107 0.004739 0.000538
# 5 -0.001861 -0.003936 0.004551 0.004739 0.032579 0.004201
# 6 0.001895 0.004264 -0.000666 0.000538 0.004201 0.028316
#
#
# Mechanical properties :
#
#
# Convention : Reuss Voigt Hill
#
# Bulk Modulus (GPa) = 64.09575 75.83943 69.96759
# Shear Modulus (GPa) = 25.62443 35.80252 30.71348
#
# Velocity S-wave (km/s) = 3.52610 4.16796 3.86039
# Velocity P-wave (km/s) = 6.90493 7.74345 7.33618
#
# Compressibility (1/GPa) = 0.01560166
#
# Stress axis : x y z
#
# Youngs Moduli (GPa) = 89.12576 34.79412 65.34951
#
# Poissons Ratio (x) = 0.18176 0.05495
# Poissons Ratio (y) = 0.46558 0.89959
# Poissons Ratio (z) = 0.07495 0.47897
#
# Static dielectric constant tensor:
#      x y z
#    x 3.808100 -0.086390 0.195980 
#    y -0.086390 3.510200 -0.056480 
#    z 0.195980 -0.056480 3.747930 
# 
# 
# High freq. dielectric constant tensor:
#      x y z
#    x 1.817310 -0.011820 0.016020 
#    y -0.011820 1.788500 -0.003980 
#    z 0.016020 -0.003980 1.819160 
# 
# From -- ./inp_files/391808.got.cif
#   From: 2010.06.25/outbox.cif.g09.slc.cpg/sg2_196_cif.got.tgz:391808.got - 2010.06.27 13:26:56.
