data_PCOD8023074
_publ_section_title
;
Structure prediction by ZEFSAII (Michael W. Deem and Ramdas Pophale) SiO2 
 PCOD8023074
Probable space group: P -1
;
_chemical_formula_sum "Si O2"
_cell_formula_units_Z 16
_cell_length_a 8.637467
_cell_length_b 9.115346
_cell_length_c 20.759946
_cell_angle_alpha 103.457803
_cell_angle_beta 116.689296
_cell_angle_gamma 128.806588
_cell_volume 767.237567
_symmetry_space_group_name_H-M "P -1"
_symmetry_group_IT_number 2
_symmetry_cell_setting 'triclinic'
loop_
_space_group_symop_operation_xyz
x,y,z
-x,-y,-z
loop_
_atom_site_type_symbol
_atom_site_label
_atom_site_fract_x
_atom_site_fract_y
_atom_site_fract_z
Si Si1 0.746231 0.353254 0.275230
Si Si2 0.185714 0.183627 0.387291
Si Si3 0.237608 0.937491 0.452867
Si Si4 0.603349 0.943352 0.281094
Si Si5 0.024229 0.898793 0.804087
Si Si6 0.059653 0.956370 0.072739
Si Si7 0.297554 0.643096 0.316981
Si Si8 0.706190 0.397095 0.931154
O O1 0.894258 0.603789 0.368802
O O2 0.006154 0.509902 0.284963
O O3 0.695575 0.172504 0.292475
O O4 0.419692 0.157511 0.158984
O O5 0.500000 0.500000 0.500000
O O6 0.111927 0.133747 0.291852
O O7 0.201049 0.018673 0.392260
O O8 0.919365 0.077736 0.367979
O O9 0.500000 0.000000 0.500000
O O10 0.376996 0.140322 0.557921
O O11 0.396135 0.820373 0.293584
O O12 0.393958 0.682579 0.169720
O O13 0.813784 0.600853 0.753471
O O14 0.397479 0.123123 0.888496
O O15 0.993798 0.990332 0.866715
O O16 0.805926 0.635908 0.995696
O O17 0.000000 0.000000 0.000000
O O18 0.000000 0.500000 0.000000
#
# Coordination Sequence:
#
# PCOD8023074 Si02
#       8
#     2   2   2   2   2   2   2   2
#     4  11  24  47  64  99 143 175 227 290 329 408
#     4  11  21  43  73  99 141 182 221 280 340 407
#     4  10  23  40  67 101 140 175 220 277 337 405
#     4  11  24  41  74  96 132 184 232 275 340 408
#     4  11  24  42  71 103 135 175 235 279 340 410
#     4  12  27  43  66 100 137 177 232 286 340 399
#     4  11  22  45  70 100 135 181 226 273 348 408
#     4  11  22  47  69  92 135 177 226 285 337 397
#
# _framework density 20.854037999999999
#
# number of rings (size 3 to 8) (size 9 to 14) (size 15 to 20)
#    0.000    1.000    5.000    1.875    5.250    5.000 
#    0.000    2.500    0.000    0.000    0.000    0.000 
#    0.000    0.000    0.000    0.000    0.000    0.000 
#
# Total GULP energy -198317.862644 kJ/mol
# GULP energy per Si atom -12394.866415 kJ/mol
# Density = 2.080657 g / cm^3
# Si number density = 20.854038 Si / 1000 Ang^3
#
#
#
# Elastic Constant Matrix: (Units=GPa)
#
#
# Indices 1 2 3 4 5 6 
#
# 1 93.9780 76.7265 55.8655 -6.7908 -2.2935 -0.5170
# 2 76.7265 150.3019 69.9745 2.9941 1.9586 2.5410
# 3 55.8655 69.9745 147.8973 19.3011 -2.1518 -3.5091
# 4 -6.7908 2.9941 19.3011 34.9434 -10.9347 -7.7826
# 5 -2.2935 1.9586 -2.1518 -10.9347 41.7879 -2.9121
# 6 -0.5170 2.5410 -3.5091 -7.7826 -2.9121 43.0163
#
#
#
# Elastic Compliance Matrix: (Units=1/GPa)
#
#
# Indices 1 2 3 4 5 6 
#
# 1 0.021922 -0.009091 -0.005127 0.009680 0.004066 0.002409
# 2 -0.009091 0.012406 -0.002161 -0.002621 -0.001991 -0.001627
# 3 -0.005127 -0.002161 0.010637 -0.007288 -0.001574 -0.000491
# 4 0.009680 -0.002621 -0.007288 0.039987 0.011277 0.007675
# 5 0.004066 -0.001991 -0.001574 0.011277 0.027391 0.003933
# 6 0.002409 -0.001627 -0.000491 0.007675 0.003933 0.024987
#
#
# Mechanical properties :
#
#
# Convention : Reuss Voigt Hill
#
# Bulk Modulus (GPa) = 81.91270 88.59002 85.25136
# Shear Modulus (GPa) = 28.70990 36.59023 32.65006
#
# Velocity S-wave (km/s) = 3.71443 4.19332 3.96112
# Velocity P-wave (km/s) = 7.60002 8.12518 7.86698
#
# Compressibility (1/GPa) = 0.01220812
#
# Stress axis : x y z
#
# Youngs Moduli (GPa) = 45.61600 80.60781 94.01138
#
# Poissons Ratio (x) = 0.73278 0.48195
# Poissons Ratio (y) = 0.41468 0.20317
# Poissons Ratio (z) = 0.23385 0.17421
#
# Static dielectric constant tensor:
#      x y z
#    x 3.767370 -0.112340 -0.124290 
#    y -0.112340 3.635040 0.183680 
#    z -0.124290 0.183680 4.303530 
# 
# 
# High freq. dielectric constant tensor:
#      x y z
#    x 1.810480 -0.008160 -0.000740 
#    y -0.008160 1.816030 0.017420 
#    z -0.000740 0.017420 1.841170 
# 
# From -- ./inp_files/294145.got.cif
#   From: 2010.06.25/outbox.cif.g09.slc.cpg/sg2_148_cif.got.tgz:294145.got - 2010.06.27 13:26:56.
