data_PCOD8023290
_publ_section_title
;
Structure prediction by ZEFSAII (Michael W. Deem and Ramdas Pophale) SiO2 
 PCOD8023290
Probable space group: P -1
;
_chemical_formula_sum "Si O2"
_cell_formula_units_Z 14
_cell_length_a 20.644007
_cell_length_b 11.376739
_cell_length_c 9.371181
_cell_angle_alpha 59.061729
_cell_angle_beta 33.436045
_cell_angle_gamma 35.376360
_cell_volume 599.134511
_symmetry_space_group_name_H-M "P -1"
_symmetry_group_IT_number 2
_symmetry_cell_setting 'triclinic'
loop_
_space_group_symop_operation_xyz
x,y,z
-x,-y,-z
loop_
_atom_site_type_symbol
_atom_site_label
_atom_site_fract_x
_atom_site_fract_y
_atom_site_fract_z
Si Si1 0.664609 0.437002 0.661119
Si Si2 0.988504 0.100877 0.626059
Si Si3 0.158459 0.261009 0.699566
Si Si4 0.098991 0.232755 0.128407
Si Si5 0.475967 0.499799 0.709805
Si Si6 0.507829 0.118830 0.213828
Si Si7 0.744782 0.996098 0.596778
O O1 0.607108 0.487345 0.566211
O O2 0.651544 0.601990 0.648182
O O3 0.500000 0.500000 0.000000
O O4 0.882932 0.161445 0.467752
O O5 0.019573 0.171744 0.389692
O O6 0.061446 0.106553 0.632616
O O7 0.757768 0.271646 0.954883
O O8 0.377628 0.105502 0.448409
O O9 0.176016 0.153914 0.594503
O O10 0.015658 0.523616 0.754193
O O11 0.064743 0.258346 0.002718
O O12 0.340750 0.025055 0.840193
O O13 0.500000 0.500000 0.500000
O O14 0.557433 0.271752 0.732650
O O15 0.652226 0.983698 0.893087
#
# Coordination Sequence:
#
# PCOD8023290 Si02
#       7
#     2   2   2   2   2   2   2
#     4  11  22  43  67 101 131 170 226 263 321 404
#     4  10  23  45  69  93 133 176 214 273 332 389
#     4  11  24  41  64 100 131 172 221 272 316 390
#     4  10  23  41  64  96 130 171 224 259 331 390
#     4  11  25  43  66 100 129 173 221 270 337 384
#     4  11  22  43  66  94 136 175 214 268 323 387
#     4  10  23  42  63  97 135 170 222 266 325 393
#
# _framework density 23.367039999999999
#
# number of rings (size 3 to 8) (size 9 to 14) (size 15 to 20)
#    0.000    1.429    4.286    1.714    2.000    7.429 
#    7.714    0.000    0.000    0.000    0.000    0.000 
#    0.000    0.000    0.000    0.000    0.000    0.000 
#
# Total GULP energy -173597.291445 kJ/mol
# GULP energy per Si atom -12399.806532 kJ/mol
# Density = 2.331386 g / cm^3
# Si number density = 23.367040 Si / 1000 Ang^3
#
#
#
# Elastic Constant Matrix: (Units=GPa)
#
#
# Indices 1 2 3 4 5 6 
#
# 1 123.2124 58.2671 39.1625 1.3175 35.4272 12.7794
# 2 58.2671 55.1150 49.6342 31.7647 -10.1844 -31.4184
# 3 39.1625 49.6342 87.5450 15.1645 12.0390 -0.9310
# 4 1.3175 31.7647 15.1645 37.4152 3.2362 9.7955
# 5 35.4272 -10.1844 12.0390 3.2362 39.3349 -0.6342
# 6 12.7794 -31.4184 -0.9310 9.7955 -0.6342 28.1498
#
#
#
# Elastic Compliance Matrix: (Units=1/GPa)
#
#
# Indices 1 2 3 4 5 6 
#
# 1 0.005499 0.007893 -0.005597 -0.006804 -0.000499 0.008484
# 2 0.007893 -0.007281 -0.000071 0.010930 -0.010125 -0.015743
# 3 -0.005597 -0.000071 0.015167 -0.007444 0.001083 0.005578
# 4 -0.006804 0.010930 -0.007444 0.017436 0.009950 0.009198
# 5 -0.000499 -0.010125 0.001083 0.009950 0.021875 -0.014008
# 6 0.008484 -0.015743 0.005578 0.009198 -0.014008 0.010770
#
#
# Mechanical properties :
#
#
# Convention : Reuss Voigt Hill
#
# Bulk Modulus (GPa) = 56.07382 62.22222 59.14802
# Shear Modulus (GPa) = 76.96896 28.90055 52.93475
#
# Velocity S-wave (km/s) = 5.74549 3.52064 4.76474
# Velocity P-wave (km/s) = 8.25004 6.57363 7.45908
#
# Compressibility (1/GPa) = 0.01783363
#
# Stress axis : x y z
#
# Youngs Moduli (GPa) = 181.85352 -137.34872 65.93370
#
# Poissons Ratio (x) = 1.08409 0.36906
# Poissons Ratio (y) = -1.43536 0.00470
# Poissons Ratio (z) = 1.01791 -0.00978
#
# Static dielectric constant tensor:
#      x y z
#    x 4.259700 -0.194840 -0.037330 
#    y -0.194840 4.417190 0.073840 
#    z -0.037330 0.073840 4.158480 
# 
# 
# High freq. dielectric constant tensor:
#      x y z
#    x 1.937420 -0.015390 -0.000260 
#    y -0.015390 1.928350 0.010410 
#    z -0.000260 0.010410 1.922330 
# 
# From -- ./inp_files/346020.got.cif
#   From: 2010.06.25/outbox.cif.g09.slc.cpg/sg2_174_cif.got.tgz:346020.got - 2010.06.27 13:26:56.
