data_PCOD8023084
_publ_section_title
;
Structure prediction by ZEFSAII (Michael W. Deem and Ramdas Pophale) SiO2 
 PCOD8023084
Probable space group: P -1
;
_chemical_formula_sum "Si O2"
_cell_formula_units_Z 14
_cell_length_a 9.020430
_cell_length_b 9.021551
_cell_length_c 10.523470
_cell_angle_alpha 130.384939
_cell_angle_beta 126.612663
_cell_angle_gamma 69.315148
_cell_volume 522.830442
_symmetry_space_group_name_H-M "P -1"
_symmetry_group_IT_number 2
_symmetry_cell_setting 'triclinic'
loop_
_space_group_symop_operation_xyz
x,y,z
-x,-y,-z
loop_
_atom_site_type_symbol
_atom_site_label
_atom_site_fract_x
_atom_site_fract_y
_atom_site_fract_z
Si Si1 0.478567 0.935710 0.699346
Si Si2 0.036964 0.506232 0.373033
Si Si3 0.031602 0.263876 0.971789
Si Si4 0.857129 0.823052 0.301467
Si Si5 0.699325 0.407738 0.749214
Si Si6 0.394075 0.684335 0.742226
Si Si7 0.165248 0.887072 0.954207
O O1 0.398755 0.776007 0.472601
O O2 0.506305 0.844188 0.802823
O O3 0.348637 0.116152 0.742078
O O4 0.684764 0.023351 0.817259
O O5 0.899309 0.654863 0.327069
O O6 0.974860 0.290694 0.158853
O O7 0.000000 0.500000 0.500000
O O8 0.254633 0.568720 0.507351
O O9 0.127945 0.241753 0.871955
O O10 0.819313 0.321547 0.876864
O O11 0.033715 0.054455 0.930233
O O12 0.158716 0.456553 0.195999
O O13 0.000000 0.000000 0.500000
O O14 0.537944 0.537901 0.794037
O O15 0.279421 0.791012 0.848286
#
# Coordination Sequence:
#
# PCOD8023084 Si02
#       7
#     2   2   2   2   2   2   2
#     4  12  22  37  69  98 127 164 219 264 311 376
#     4  10  23  40  67  95 130 163 213 266 319 374
#     4  11  22  41  66  98 127 167 215 264 311 376
#     4  12  20  39  70  97 120 166 222 259 306 376
#     4  11  24  36  64  98 132 161 216 267 313 366
#     4  11  20  40  64  95 125 168 211 263 309 377
#     4  11  23  42  68  95 128 168 215 262 319 372
#
# _framework density 26.777324
#
# number of rings (size 3 to 8) (size 9 to 14) (size 15 to 20)
#    0.000    0.857    5.714    2.571    0.000    0.571 
#    0.000    1.429    0.000    0.000    0.000    0.000 
#    0.000    0.000    0.000    0.000    0.000    0.000 
#
# Total GULP energy -173620.061407 kJ/mol
# GULP energy per Si atom -12401.432958 kJ/mol
# Density = 2.671638 g / cm^3
# Si number density = 26.777324 Si / 1000 Ang^3
#
#
#
# Elastic Constant Matrix: (Units=GPa)
#
#
# Indices 1 2 3 4 5 6 
#
# 1 86.5040 73.1996 45.4702 6.6195 16.8797 -20.6188
# 2 73.1996 245.2558 73.5348 -7.0786 13.6445 -25.7880
# 3 45.4702 73.5348 188.9593 19.1913 23.4344 -6.1344
# 4 6.6195 -7.0786 19.1913 42.4982 -1.8652 9.2285
# 5 16.8797 13.6445 23.4344 -1.8652 49.8015 2.4193
# 6 -20.6188 -25.7880 -6.1344 9.2285 2.4193 68.7220
#
#
#
# Elastic Compliance Matrix: (Units=1/GPa)
#
#
# Indices 1 2 3 4 5 6 
#
# 1 0.018395 -0.004409 -0.001578 -0.004053 -0.004651 0.004432
# 2 -0.004409 0.005934 -0.001551 0.002311 0.000664 0.000431
# 3 -0.001578 -0.001551 0.006909 -0.003257 -0.002417 0.000084
# 4 -0.004053 0.002311 -0.003257 0.027128 0.003503 -0.004406
# 5 -0.004651 0.000664 -0.002417 0.003503 0.022871 -0.002638
# 6 0.004432 0.000431 0.000084 -0.004406 -0.002638 0.016735
#
#
# Mechanical properties :
#
#
# Convention : Reuss Voigt Hill
#
# Bulk Modulus (GPa) = 61.88094 100.56980 81.22537
# Shear Modulus (GPa) = 42.21735 54.10531 48.16133
#
# Velocity S-wave (km/s) = 3.97496 4.49995 4.24558
# Velocity P-wave (km/s) = 6.65032 8.03982 7.37785
#
# Compressibility (1/GPa) = 0.01616006
#
# Stress axis : x y z
#
# Youngs Moduli (GPa) = 54.36286 168.53282 144.74312
#
# Poissons Ratio (x) = 0.74310 0.22843
# Poissons Ratio (y) = 0.23970 0.22452
# Poissons Ratio (z) = 0.08580 0.26142
#
# Static dielectric constant tensor:
#      x y z
#    x 5.575440 -0.151280 0.521930 
#    y -0.151280 5.538560 0.501470 
#    z 0.521930 0.501470 6.274940 
# 
# 
# High freq. dielectric constant tensor:
#      x y z
#    x 2.089130 -0.011820 -0.002280 
#    y -0.011820 2.089780 0.014430 
#    z -0.002280 0.014430 2.113700 
# 
# From -- ./inp_files/157395.got.cif
#   From: 2010.06.25/outbox.cif.g09.slc.cpg/sg2_79_cif.got.tgz:157395.got - 2010.06.27 13:26:56.
