data_PCOD8023066
_publ_section_title
;
Structure prediction by ZEFSAII (Michael W. Deem and Ramdas Pophale) SiO2 
 PCOD8023066
Probable space group: P -1
;
_chemical_formula_sum "Si O2"
_cell_formula_units_Z 16
_cell_length_a 22.336778
_cell_length_b 12.153886
_cell_length_c 12.019776
_cell_angle_alpha 141.991316
_cell_angle_beta 30.126312
_cell_angle_gamma 155.387765
_cell_volume 682.075872
_symmetry_space_group_name_H-M "P -1"
_symmetry_group_IT_number 2
_symmetry_cell_setting 'triclinic'
loop_
_space_group_symop_operation_xyz
x,y,z
-x,-y,-z
loop_
_atom_site_type_symbol
_atom_site_label
_atom_site_fract_x
_atom_site_fract_y
_atom_site_fract_z
Si Si1 0.702404 0.753548 0.739991
Si Si2 0.624933 0.419555 0.934393
Si Si3 0.344579 0.558570 0.848999
Si Si4 0.526018 0.839755 0.386964
Si Si5 0.978620 0.186124 0.212085
Si Si6 0.159355 0.040754 0.087872
Si Si7 0.370925 0.985626 0.401579
Si Si8 0.848537 0.867182 0.359961
O O1 0.616990 0.462936 0.664640
O O2 0.846415 0.950329 0.761072
O O3 0.781268 0.871399 0.586257
O O4 0.551144 0.737578 0.979764
O O5 0.774427 0.699689 0.860381
O O6 0.683987 0.280613 0.722804
O O7 0.596769 0.456578 0.137468
O O8 0.508860 0.853349 0.773153
O O9 0.303840 0.359020 0.663807
O O10 0.164270 0.476680 0.101599
O O11 0.506698 0.834473 0.546420
O O12 0.500000 0.000000 0.500000
O O13 0.725059 0.999639 0.166179
O O14 0.808302 0.096703 0.365145
O O15 0.956282 0.150672 0.354044
O O16 0.000000 0.000000 0.000000
O O17 0.964373 0.817559 0.168420
#
# Coordination Sequence:
#
# PCOD8023066 Si02
#       8
#     2   2   2   2   2   2   2   2
#     4  11  23  41  68  96 128 174 229 269 331 397
#     4  11  24  42  66  98 133 175 216 278 332 391
#     4  11  23  42  67 101 138 167 228 269 336 393
#     4  11  22  41  68  93 127 171 227 272 328 398
#     4  10  23  40  66  98 133 172 215 272 330 390
#     4  11  23  44  66  95 133 174 222 277 331 393
#     4  12  24  42  67 100 137 176 221 270 336 399
#     4  11  22  41  67  97 130 178 217 274 335 395
#
# _framework density 23.457801
#
# number of rings (size 3 to 8) (size 9 to 14) (size 15 to 20)
#    0.000    1.000    2.500    6.000    5.250    3.000 
#    2.250    0.625    0.000    0.000    0.000    0.000 
#    0.000    0.000    0.000    0.000    0.000    0.000 
#
# Total GULP energy -198234.475079 kJ/mol
# GULP energy per Si atom -12389.654692 kJ/mol
# Density = 2.340441 g / cm^3
# Si number density = 23.457801 Si / 1000 Ang^3
#
#
#
# Elastic Constant Matrix: (Units=GPa)
#
#
# Indices 1 2 3 4 5 6 
#
# 1 119.7496 13.9841 18.1650 9.0637 8.1805 -0.6410
# 2 13.9841 42.2237 35.3902 -8.3686 -11.2713 -10.3817
# 3 18.1650 35.3902 86.2212 4.8459 -11.0783 -23.4110
# 4 9.0637 -8.3686 4.8459 31.8026 0.8039 5.6464
# 5 8.1805 -11.2713 -11.0783 0.8039 46.7007 -3.1384
# 6 -0.6410 -10.3817 -23.4110 5.6464 -3.1384 35.1716
#
#
#
# Elastic Compliance Matrix: (Units=1/GPa)
#
#
# Indices 1 2 3 4 5 6 
#
# 1 0.009407 -0.004211 -0.000792 -0.003362 -0.002883 -0.001316
# 2 -0.004211 0.044593 -0.017494 0.015496 0.007056 -0.000416
# 3 -0.000792 -0.017494 0.023080 -0.010088 0.002373 0.012015
# 4 -0.003362 0.015496 -0.010088 0.039505 0.000686 -0.008483
# 5 -0.002883 0.007056 0.002373 0.000686 0.024554 0.005690
# 6 -0.001316 -0.000416 0.012015 -0.008483 0.005690 0.038152
#
#
# Mechanical properties :
#
#
# Convention : Reuss Voigt Hill
#
# Bulk Modulus (GPa) = 31.16666 42.58590 36.87628
# Shear Modulus (GPa) = 21.27831 34.77864 28.02848
#
# Velocity S-wave (km/s) = 3.01506 3.85464 3.46041
# Velocity P-wave (km/s) = 5.04340 6.16479 5.63207
#
# Compressibility (1/GPa) = 0.03208556
#
# Stress axis : x y z
#
# Youngs Moduli (GPa) = 106.30363 22.42514 43.32794
#
# Poissons Ratio (x) = 0.09443 0.03433
# Poissons Ratio (y) = 0.44763 0.75797
# Poissons Ratio (z) = 0.08423 0.39230
#
# Static dielectric constant tensor:
#      x y z
#    x 4.675830 0.110160 0.091570 
#    y 0.110160 4.215370 -0.486790 
#    z 0.091570 -0.486790 4.321480 
# 
# 
# High freq. dielectric constant tensor:
#      x y z
#    x 1.954270 0.006850 0.008560 
#    y 0.006850 1.892870 -0.023350 
#    z 0.008560 -0.023350 1.925300 
# 
# From -- ./inp_files/471235.got.cif
#   From: 2010.06.25/outbox.cif.g09.slc.cpg/sg2_236_cif.got.tgz:471235.got - 2010.06.27 13:26:56.
