data_PCOD8023921
_publ_section_title
;
Structure prediction by ZEFSAII (Michael W. Deem and Ramdas Pophale) SiO2 
 PCOD8023921
Probable space group: P -1
;
_chemical_formula_sum "Si O2"
_cell_formula_units_Z 16
_cell_length_a 13.569418
_cell_length_b 25.129835
_cell_length_c 16.982049
_cell_angle_alpha 159.612972
_cell_angle_beta 156.065797
_cell_angle_gamma 23.195637
_cell_volume 734.277781
_symmetry_space_group_name_H-M "P -1"
_symmetry_group_IT_number 2
_symmetry_cell_setting 'triclinic'
loop_
_space_group_symop_operation_xyz
x,y,z
-x,-y,-z
loop_
_atom_site_type_symbol
_atom_site_label
_atom_site_fract_x
_atom_site_fract_y
_atom_site_fract_z
Si Si1 0.071286 0.278199 0.618473
Si Si2 0.888999 0.009721 0.047821
Si Si3 0.840999 0.741988 0.734724
Si Si4 0.607076 0.231239 0.012411
Si Si5 0.610578 0.801946 0.817449
Si Si6 0.043779 0.597013 0.974423
Si Si7 0.412429 0.476593 0.816610
Si Si8 0.253036 0.617564 0.316102
O O1 0.000260 0.424662 0.702630
O O2 0.899883 0.371396 0.699180
O O3 0.022083 0.122486 0.337788
O O4 0.389006 0.199321 0.758510
O O5 0.106373 0.848280 0.934076
O O6 0.642682 0.130923 0.981213
O O7 0.765261 0.936403 0.924541
O O8 0.759750 0.714594 0.725055
O O9 0.687062 0.672291 0.464624
O O10 0.166655 0.643774 0.833808
O O11 0.505464 0.431352 0.232479
O O12 0.361998 0.759226 0.592986
O O13 0.816479 0.741479 0.957062
O O14 0.500000 0.000000 0.000000
O O15 0.338543 0.563295 0.113759
O O16 0.033964 0.657658 0.141733
O O17 0.500000 0.500000 0.000000
#
# Coordination Sequence:
#
# PCOD8023921 Si02
#       8
#     2   2   2   2   2   2   2   2
#     4  11  24  42  70  98 128 175 225 272 329 390
#     4  11  24  41  66 102 137 166 212 280 337 389
#     4  11  24  41  64  98 134 169 216 269 323 396
#     4  10  23  42  67  98 131 172 214 277 338 384
#     4  12  26  42  64  95 135 175 217 271 329 389
#     4  11  23  44  68  96 129 175 224 271 325 394
#     4  11  23  42  70  95 126 176 222 264 328 391
#     4  11  24  45  68  93 131 178 226 271 323 400
#
# _framework density 21.790118
#
# number of rings (size 3 to 8) (size 9 to 14) (size 15 to 20)
#    0.000    1.000    2.500    4.875    1.750    8.500 
#    2.250    0.000    0.000    0.000    0.000    0.000 
#    0.000    0.000    0.000    0.000    0.000    0.000 
#
# Total GULP energy -198432.412265 kJ/mol
# GULP energy per Si atom -12402.025767 kJ/mol
# Density = 2.174052 g / cm^3
# Si number density = 21.790118 Si / 1000 Ang^3
#
#
#
# Elastic Constant Matrix: (Units=GPa)
#
#
# Indices 1 2 3 4 5 6 
#
# 1 67.9012 40.4709 27.8333 -3.6481 7.0892 24.4653
# 2 40.4709 106.6683 57.2249 4.2859 -2.7003 32.1662
# 3 27.8333 57.2249 120.9377 4.6066 5.3340 23.1826
# 4 -3.6481 4.2859 4.6066 27.4551 1.5267 -0.0859
# 5 7.0892 -2.7003 5.3340 1.5267 32.8738 5.9715
# 6 24.4653 32.1662 23.1826 -0.0859 5.9715 37.2338
#
#
#
# Elastic Compliance Matrix: (Units=1/GPa)
#
#
# Indices 1 2 3 4 5 6 
#
# 1 0.022108 -0.005662 -0.000762 0.004131 -0.003748 -0.008551
# 2 -0.005662 0.017246 -0.005307 -0.002871 0.005216 -0.008718
# 3 -0.000762 -0.005307 0.011408 -0.001095 -0.001756 -0.001738
# 4 0.004131 -0.002871 -0.001095 0.037767 -0.002884 0.000997
# 5 -0.003748 0.005216 -0.001756 -0.002884 0.033216 -0.006284
# 6 -0.008551 -0.008718 -0.001738 0.000997 -0.006284 0.042099
#
#
# Mechanical properties :
#
#
# Convention : Reuss Voigt Hill
#
# Bulk Modulus (GPa) = 36.62953 60.72950 48.67951
# Shear Modulus (GPa) = 25.45738 30.84442 28.15090
#
# Velocity S-wave (km/s) = 3.42175 3.76643 3.59822
# Velocity P-wave (km/s) = 5.69717 6.84436 6.29695
#
# Compressibility (1/GPa) = 0.02730038
#
# Stress axis : x y z
#
# Youngs Moduli (GPa) = 45.23212 57.98347 87.66070
#
# Poissons Ratio (x) = 0.32828 0.06681
# Poissons Ratio (y) = 0.25608 0.46523
# Poissons Ratio (z) = 0.03448 0.30772
#
# Static dielectric constant tensor:
#      x y z
#    x 4.223990 0.161300 -0.030600 
#    y 0.161300 3.859840 -0.065260 
#    z -0.030600 -0.065260 3.919830 
# 
# 
# High freq. dielectric constant tensor:
#      x y z
#    x 1.868890 0.008380 0.003910 
#    y 0.008380 1.853010 -0.003150 
#    z 0.003910 -0.003150 1.862520 
# 
# From -- ./inp_files/574559.got.cif
#   From: 2010.06.25/outbox.cif.g09.slc.cpg/sg2_288_cif.got.tgz:574559.got - 2010.06.27 13:26:56.
