data_PCOD8023727
_publ_section_title
;
Structure prediction by ZEFSAII (Michael W. Deem and Ramdas Pophale) SiO2 
 PCOD8023727
Probable space group: P -1
;
_chemical_formula_sum "Si O2"
_cell_formula_units_Z 16
_cell_length_a 7.969517
_cell_length_b 6.617225
_cell_length_c 18.022511
_cell_angle_alpha 101.414595
_cell_angle_beta 116.259365
_cell_angle_gamma 63.380894
_cell_volume 762.006832
_symmetry_space_group_name_H-M "P -1"
_symmetry_group_IT_number 2
_symmetry_cell_setting 'triclinic'
loop_
_space_group_symop_operation_xyz
x,y,z
-x,-y,-z
loop_
_atom_site_type_symbol
_atom_site_label
_atom_site_fract_x
_atom_site_fract_y
_atom_site_fract_z
Si Si1 0.490465 0.229861 0.406034
Si Si2 0.822242 0.770050 0.406016
Si Si3 0.915141 0.999897 0.164988
Si Si4 0.866162 0.466158 0.906624
Si Si5 0.800681 0.715380 0.232655
Si Si6 0.446998 0.533783 0.906610
Si Si7 0.256897 0.499377 0.506481
Si Si8 0.165025 0.284250 0.232659
O O1 0.333557 0.285126 0.449014
O O2 0.555477 0.437938 0.431383
O O3 0.387651 0.213266 0.306742
O O4 0.691313 0.000283 0.440500
O O5 0.726234 0.786358 0.306705
O O6 0.806727 0.563027 0.431458
O O7 0.065378 0.713512 0.448854
O O8 0.837429 0.922845 0.218683
O O9 0.000673 0.789296 0.110999
O O10 0.721456 0.210753 0.111113
O O11 0.100511 0.076625 0.218615
O O12 0.643325 0.499907 0.893351
O O13 0.837013 0.649504 0.849514
O O14 0.000000 0.500000 0.000000
O O15 0.638141 0.649536 0.150436
O O16 0.014481 0.499658 0.264353
O O17 0.500000 0.500000 0.000000
#
# Coordination Sequence:
#
# PCOD8023727 Si02
#       8
#     2   2   2   2   2   2   2   2
#     4  11  23  41  65  95 124 171 211 260 327 378
#     4  11  23  41  65  95 124 171 211 260 327 378
#     4  10  24  44  64  92 134 172 204 270 316 370
#     4  11  25  43  67  97 130 168 216 260 317 382
#     4  10  23  42  64  96 130 168 214 264 316 380
#     4  11  25  43  67  97 130 168 216 260 317 382
#     4  10  24  44  62  90 134 160 212 272 312 386
#     4  10  23  42  64  96 130 168 214 264 316 380
#
# _framework density 20.997187
#
# number of rings (size 3 to 8) (size 9 to 14) (size 15 to 20)
#    0.000    1.500    1.250    3.000    5.250    6.000 
#    2.250    0.000    0.000    0.000    0.000    0.000 
#    0.000    0.000    0.000    0.000    0.000    0.000 
#
# Total GULP energy -198377.049390 kJ/mol
# GULP energy per Si atom -12398.565587 kJ/mol
# Density = 2.094940 g / cm^3
# Si number density = 20.997187 Si / 1000 Ang^3
#
#
#
# Elastic Constant Matrix: (Units=GPa)
#
#
# Indices 1 2 3 4 5 6 
#
# 1 124.7251 48.8324 64.4232 1.0095 -0.2752 1.4690
# 2 48.8324 108.1605 57.6466 -1.4751 0.1222 1.5725
# 3 64.4232 57.6466 150.2178 4.0490 -1.1176 12.1924
# 4 1.0095 -1.4751 4.0490 10.5377 2.9520 0.6751
# 5 -0.2752 0.1222 -1.1176 2.9520 29.7776 -0.9032
# 6 1.4690 1.5725 12.1924 0.6751 -0.9032 48.3265
#
#
#
# Elastic Compliance Matrix: (Units=1/GPa)
#
#
# Indices 1 2 3 4 5 6 
#
# 1 0.011091 -0.003089 -0.003622 -0.000151 0.000015 0.000680
# 2 -0.003089 0.012638 -0.003671 0.003597 -0.000558 0.000548
# 3 -0.003622 -0.003671 0.009912 -0.004026 0.000686 -0.002202
# 4 -0.000151 0.003597 -0.004026 0.099831 -0.010084 -0.000680
# 5 0.000015 -0.000558 0.000686 -0.010084 0.034629 0.000633
# 6 0.000680 0.000548 -0.002202 -0.000680 0.000633 0.021231
#
#
# Mechanical properties :
#
#
# Convention : Reuss Voigt Hill
#
# Bulk Modulus (GPa) = 77.65766 80.54533 79.10149
# Shear Modulus (GPa) = 23.32213 31.87510 27.59861
#
# Velocity S-wave (km/s) = 3.33637 3.90046 3.62939
# Velocity P-wave (km/s) = 7.20465 7.66343 7.43758
#
# Compressibility (1/GPa) = 0.01287703
#
# Stress axis : x y z
#
# Youngs Moduli (GPa) = 90.16150 79.12480 100.89262
#
# Poissons Ratio (x) = 0.24441 0.36546
# Poissons Ratio (y) = 0.27850 0.37036
# Poissons Ratio (z) = 0.32659 0.29046
#
# Static dielectric constant tensor:
#      x y z
#    x 4.092570 -0.061170 0.003060 
#    y -0.061170 4.042770 -0.018640 
#    z 0.003060 -0.018640 3.680220 
# 
# 
# High freq. dielectric constant tensor:
#      x y z
#    x 1.836760 -0.008320 0.000390 
#    y -0.008320 1.822800 0.000080 
#    z 0.000390 0.000080 1.822680 
# 
# From -- ./inp_files/348412.got.cif
#   From: 2010.06.25/outbox.cif.g09.slc.cpg/sg2_175_cif.got.tgz:348412.got - 2010.06.27 13:26:56.
