data_PCOD8023363
_publ_section_title
;
Structure prediction by ZEFSAII (Michael W. Deem and Ramdas Pophale) SiO2 
 PCOD8023363
Probable space group: P -1
;
_chemical_formula_sum "Si O2"
_cell_formula_units_Z 16
_cell_length_a 8.360761
_cell_length_b 15.086848
_cell_length_c 11.078664
_cell_angle_alpha 128.248973
_cell_angle_beta 139.807592
_cell_angle_gamma 50.123579
_cell_volume 668.087506
_symmetry_space_group_name_H-M "P -1"
_symmetry_group_IT_number 2
_symmetry_cell_setting 'triclinic'
loop_
_space_group_symop_operation_xyz
x,y,z
-x,-y,-z
loop_
_atom_site_type_symbol
_atom_site_label
_atom_site_fract_x
_atom_site_fract_y
_atom_site_fract_z
Si Si1 0.748929 0.609660 0.911816
Si Si2 0.772605 0.524768 0.290240
Si Si3 0.546130 0.414336 0.624947
Si Si4 0.631486 0.733571 0.199720
Si Si5 0.053513 0.902478 0.052660
Si Si6 0.223381 0.998396 0.792570
Si Si7 0.040408 0.819349 0.412026
Si Si8 0.113322 0.313093 0.185179
O O1 0.552721 0.542563 0.683773
O O2 0.833212 0.691400 0.931491
O O3 0.610100 0.689473 0.013185
O O4 0.000000 0.500000 0.000000
O O5 0.497017 0.560586 0.233923
O O6 0.767344 0.628886 0.283072
O O7 0.000000 0.500000 0.500000
O O8 0.825366 0.403932 0.138031
O O9 0.319828 0.368071 0.407564
O O10 0.824048 0.311422 0.677235
O O11 0.351554 0.817341 0.155185
O O12 0.823897 0.812178 0.377408
O O13 0.989046 0.975541 0.201131
O O14 0.865157 0.819101 0.866494
O O15 0.000000 0.000000 0.000000
O O16 0.250748 0.867953 0.642530
O O17 0.113898 0.095145 0.709250
O O18 0.500000 0.000000 0.000000
#
# Coordination Sequence:
#
# PCOD8023363 Si02
#       8
#     2   2   2   2   2   2   2   2
#     4  12  23  41  73 108 144 178 234 288 369 439
#     4  10  23  41  66 104 142 180 225 285 368 433
#     4  11  23  41  69 102 145 179 230 287 367 439
#     4  12  25  43  72 104 148 184 236 298 361 435
#     4  12  28  46  72 105 144 194 249 299 359 422
#     4  11  25  47  72  97 137 185 254 307 353 414
#     4  11  24  44  71 102 134 191 242 297 362 425
#     4  11  24  45  70 102 147 188 237 295 360 432
#
# _framework density 23.948957
#
# number of rings (size 3 to 8) (size 9 to 14) (size 15 to 20)
#    0.000    0.750    2.500    4.125    1.750    6.500 
#    0.000    0.000    0.000    0.000    0.000    0.000 
#    0.000    0.000    0.000    0.000    0.000    0.000 
#
# Total GULP energy -198338.112662 kJ/mol
# GULP energy per Si atom -12396.132041 kJ/mol
# Density = 2.389445 g / cm^3
# Si number density = 23.948957 Si / 1000 Ang^3
#
#
#
# Elastic Constant Matrix: (Units=GPa)
#
#
# Indices 1 2 3 4 5 6 
#
# 1 154.4011 61.6914 36.1451 10.6721 -9.6364 6.0157
# 2 61.6914 124.8788 43.5682 15.0524 -7.1389 23.0295
# 3 36.1451 43.5682 115.9590 12.6029 7.1617 7.4795
# 4 10.6721 15.0524 12.6029 32.3815 3.5846 3.9780
# 5 -9.6364 -7.1389 7.1617 3.5846 35.8786 6.4816
# 6 6.0157 23.0295 7.4795 3.9780 6.4816 56.4331
#
#
#
# Elastic Compliance Matrix: (Units=1/GPa)
#
#
# Indices 1 2 3 4 5 6 
#
# 1 0.008360 -0.003577 -0.001318 -0.000850 0.001773 0.000599
# 2 -0.003577 0.012194 -0.003043 -0.003123 0.003168 -0.004335
# 3 -0.001318 -0.003043 0.010546 -0.001986 -0.002950 0.000463
# 4 -0.000850 -0.003123 -0.001986 0.033844 -0.003776 -0.000324
# 5 0.001773 0.003168 -0.002950 -0.003776 0.030731 -0.004354
# 6 0.000599 -0.004335 0.000463 -0.000324 -0.004354 0.019887
#
#
# Mechanical properties :
#
#
# Convention : Reuss Voigt Hill
#
# Bulk Modulus (GPa) = 65.68547 75.33869 70.51208
# Shear Modulus (GPa) = 36.62662 41.86093 39.24377
#
# Velocity S-wave (km/s) = 3.91495 4.18535 4.05241
# Velocity P-wave (km/s) = 6.92261 7.40828 7.16956
#
# Compressibility (1/GPa) = 0.01522407
#
# Stress axis : x y z
#
# Youngs Moduli (GPa) = 119.61097 82.01069 94.82296
#
# Poissons Ratio (x) = 0.29336 0.12496
# Poissons Ratio (y) = 0.42786 0.28854
# Poissons Ratio (z) = 0.15763 0.24956
#
# Static dielectric constant tensor:
#      x y z
#    x 5.278560 -0.220150 -0.031970 
#    y -0.220150 4.443870 0.403340 
#    z -0.031970 0.403340 4.414800 
# 
# 
# High freq. dielectric constant tensor:
#      x y z
#    x 1.975140 -0.002870 0.002210 
#    y -0.002870 1.948860 0.015410 
#    z 0.002210 0.015410 1.950430 
# 
# From -- ./inp_files/399692.got.cif
#   From: 2010.06.25/outbox.cif.g09.slc.cpg/sg2_200_cif.got.tgz:399692.got - 2010.06.27 13:26:56.
