data_PCOD8023915
_publ_section_title
;
Structure prediction by ZEFSAII (Michael W. Deem and Ramdas Pophale) SiO2 
 PCOD8023915
Probable space group: P -1
;
_chemical_formula_sum "Si O2"
_cell_formula_units_Z 16
_cell_length_a 11.097468
_cell_length_b 8.214069
_cell_length_c 18.533408
_cell_angle_alpha 59.409066
_cell_angle_beta 142.027194
_cell_angle_gamma 137.505075
_cell_volume 691.476769
_symmetry_space_group_name_H-M "P -1"
_symmetry_group_IT_number 2
_symmetry_cell_setting 'triclinic'
loop_
_space_group_symop_operation_xyz
x,y,z
-x,-y,-z
loop_
_atom_site_type_symbol
_atom_site_label
_atom_site_fract_x
_atom_site_fract_y
_atom_site_fract_z
Si Si1 0.573553 0.524245 0.858772
Si Si2 0.820264 0.229639 0.248630
Si Si3 0.011477 0.487363 0.875049
Si Si4 0.685840 0.603299 0.495565
Si Si5 0.923564 0.700710 0.253828
Si Si6 0.716849 0.998114 0.762472
Si Si7 0.524210 0.291389 0.749082
Si Si8 0.226622 0.683777 0.510110
O O1 0.336185 0.352701 0.838407
O O2 0.681690 0.803142 0.844919
O O3 0.463044 0.411440 0.753122
O O4 0.789066 0.514249 0.987502
O O5 0.842391 0.281326 0.161800
O O6 0.842526 0.439578 0.252950
O O7 0.035069 0.214116 0.379769
O O8 0.555620 0.965833 0.201964
O O9 0.831083 0.494052 0.841884
O O10 0.796831 0.232378 0.790738
O O11 0.500000 0.500000 0.500000
O O12 0.623780 0.748252 0.385181
O O13 0.678849 0.416716 0.480502
O O14 0.125795 0.804451 0.390854
O O15 0.050790 0.901198 0.205354
O O16 0.463640 0.893211 0.622847
O O17 0.000000 0.500000 0.500000
#
# Coordination Sequence:
#
# PCOD8023915 Si02
#       8
#     2   2   2   2   2   2   2   2
#     4  12  25  44  66 100 135 177 228 276 334 403
#     4  10  24  43  66  99 130 177 221 277 339 406
#     4  11  26  44  67  96 136 181 226 273 332 408
#     4  11  22  42  69  99 139 173 224 282 345 409
#     4  10  23  42  67  97 133 173 220 280 335 401
#     4  11  23  43  69  97 131 177 225 277 339 398
#     4  12  24  43  67  96 134 180 221 279 339 402
#     4  11  21  42  70 102 138 170 226 288 343 405
#
# _framework density 23.138884000000001
#
# number of rings (size 3 to 8) (size 9 to 14) (size 15 to 20)
#    0.000    1.000    3.750    2.250    1.750    5.500 
#    2.250    0.000    0.000    0.000    0.000    0.000 
#    0.000    0.000    0.000    0.000    0.000    0.000 
#
# Total GULP energy -198337.367806 kJ/mol
# GULP energy per Si atom -12396.085488 kJ/mol
# Density = 2.308622 g / cm^3
# Si number density = 23.138884 Si / 1000 Ang^3
#
#
#
# Elastic Constant Matrix: (Units=GPa)
#
#
# Indices 1 2 3 4 5 6 
#
# 1 119.6135 21.9630 20.2690 9.0425 10.2713 26.4874
# 2 21.9630 64.6982 16.2282 -5.5208 -11.2929 20.5151
# 3 20.2690 16.2282 85.7496 -2.3129 9.2790 11.8833
# 4 9.0425 -5.5208 -2.3129 22.7557 2.2140 -4.6561
# 5 10.2713 -11.2929 9.2790 2.2140 32.4992 1.7174
# 6 26.4874 20.5151 11.8833 -4.6561 1.7174 33.6529
#
#
#
# Elastic Compliance Matrix: (Units=1/GPa)
#
#
# Indices 1 2 3 4 5 6 
#
# 1 0.011502 -0.002212 -0.001005 -0.006549 -0.003243 -0.008090
# 2 -0.002212 0.022413 -0.003190 0.002809 0.009783 -0.010906
# 3 -0.001005 -0.003190 0.013242 0.001097 -0.004564 -0.001556
# 4 -0.006549 0.002809 0.001097 0.049492 -0.001165 0.009962
# 5 -0.003243 0.009783 -0.004564 -0.001165 0.036780 -0.003838
# 6 -0.008090 -0.010906 -0.001556 0.009962 -0.003838 0.044855
#
#
# Mechanical properties :
#
#
# Convention : Reuss Voigt Hill
#
# Bulk Modulus (GPa) = 29.11812 42.99797 36.05804
# Shear Modulus (GPa) = 24.68582 31.88832 28.28707
#
# Velocity S-wave (km/s) = 3.26982 3.71634 3.50021
# Velocity P-wave (km/s) = 5.18334 6.08587 5.65265
#
# Compressibility (1/GPa) = 0.03434288
#
# Stress axis : x y z
#
# Youngs Moduli (GPa) = 86.94319 44.61676 75.51625
#
# Poissons Ratio (x) = 0.09870 0.07586
# Poissons Ratio (y) = 0.19234 0.24092
# Poissons Ratio (z) = 0.08734 0.14234
#
# Static dielectric constant tensor:
#      x y z
#    x 4.477570 0.252270 -0.073270 
#    y 0.252270 3.944020 0.068480 
#    z -0.073270 0.068480 4.083640 
# 
# 
# High freq. dielectric constant tensor:
#      x y z
#    x 1.931430 0.021710 0.000630 
#    y 0.021710 1.897010 0.001140 
#    z 0.000630 0.001140 1.913580 
# 
# From -- ./inp_files/402854.got.cif
#   From: 2010.06.25/outbox.cif.g09.slc.cpg/sg2_202_cif.got.tgz:402854.got - 2010.06.27 13:26:56.
