data_PCOD8023150
_publ_section_title
;
Structure prediction by ZEFSAII (Michael W. Deem and Ramdas Pophale) SiO2 
 PCOD8023150
Probable space group: P -1
;
_chemical_formula_sum "Si O2"
_cell_formula_units_Z 16
_cell_length_a 14.838102
_cell_length_b 11.316652
_cell_length_c 9.760401
_cell_angle_alpha 104.275553
_cell_angle_beta 66.474390
_cell_angle_gamma 150.735948
_cell_volume 715.447162
_symmetry_space_group_name_H-M "P -1"
_symmetry_group_IT_number 2
_symmetry_cell_setting 'triclinic'
loop_
_space_group_symop_operation_xyz
x,y,z
-x,-y,-z
loop_
_atom_site_type_symbol
_atom_site_label
_atom_site_fract_x
_atom_site_fract_y
_atom_site_fract_z
Si Si1 0.843316 0.146387 0.967969
Si Si2 0.502051 0.618937 0.129331
Si Si3 0.734627 0.412943 0.815016
Si Si4 0.256853 0.695606 0.947641
Si Si5 0.986256 0.166045 0.622510
Si Si6 0.659068 0.629323 0.555804
Si Si7 0.548063 0.009343 0.624604
Si Si8 0.072096 0.713029 0.534915
O O1 0.903397 0.122424 0.803335
O O2 0.031462 0.402890 0.007439
O O3 0.724022 0.138388 0.988575
O O4 0.707062 0.917646 0.085108
O O5 0.322840 0.509115 0.149780
O O6 0.470259 0.547560 0.284749
O O7 0.500000 0.500000 0.000000
O O8 0.646974 0.232722 0.698568
O O9 0.977551 0.666826 0.719787
O O10 0.646091 0.267914 0.970931
O O11 0.354718 0.762887 0.762311
O O12 0.021679 0.317369 0.545087
O O13 0.198401 0.328084 0.567076
O O14 0.813891 0.902229 0.577896
O O15 0.500000 0.500000 0.500000
O O16 0.685977 0.035738 0.538958
O O17 0.500000 0.000000 0.500000
O O18 0.000000 0.500000 0.500000
#
# Coordination Sequence:
#
# PCOD8023150 Si02
#       8
#     2   2   2   2   2   2   2   2
#     4  11  25  44  74 101 149 184 238 298 365 439
#     4  12  25  48  74 102 139 193 245 299 362 426
#     4  11  24  44  68 103 148 186 238 298 355 438
#     4  11  26  44  69 109 145 189 233 290 375 441
#     4  11  24  48  72 108 144 192 242 310 360 439
#     4  11  27  49  76 103 140 194 256 306 363 423
#     4  11  25  40  69 107 146 190 237 285 367 447
#     4  10  23  40  70 103 145 182 229 292 369 428
#
# _framework density 22.363636
#
# number of rings (size 3 to 8) (size 9 to 14) (size 15 to 20)
#    0.000    1.000    3.750    1.875    8.750    4.000 
#    0.000    1.250    0.000    0.000    0.000    0.000 
#    0.000    0.000    0.000    0.000    0.000    0.000 
#
# Total GULP energy -198315.776779 kJ/mol
# GULP energy per Si atom -12394.736049 kJ/mol
# Density = 2.231274 g / cm^3
# Si number density = 22.363636 Si / 1000 Ang^3
#
#
#
# Elastic Constant Matrix: (Units=GPa)
#
#
# Indices 1 2 3 4 5 6 
#
# 1 182.0293 51.6542 87.6845 -8.0722 4.3769 9.8178
# 2 51.6542 90.3755 38.1600 -15.3493 -2.4169 3.1881
# 3 87.6845 38.1600 174.9590 -20.6793 6.6102 12.0488
# 4 -8.0722 -15.3493 -20.6793 38.2302 3.6058 1.2648
# 5 4.3769 -2.4169 6.6102 3.6058 47.0547 -2.8915
# 6 9.8178 3.1881 12.0488 1.2648 -2.8915 35.3053
#
#
#
# Elastic Compliance Matrix: (Units=1/GPa)
#
#
# Indices 1 2 3 4 5 6 
#
# 1 0.008094 -0.003413 -0.003417 -0.001448 -0.000384 -0.000756
# 2 -0.003413 0.014163 -0.000879 0.004417 0.000823 -0.000121
# 3 -0.003417 -0.000879 0.008228 0.003563 -0.001280 -0.002011
# 4 -0.001448 0.004417 0.003563 0.029878 -0.002582 -0.002494
# 5 -0.000384 0.000823 -0.001280 -0.002582 0.021852 0.002351
# 6 -0.000756 -0.000121 -0.002011 -0.002494 0.002351 0.029514
#
#
# Mechanical properties :
#
#
# Convention : Reuss Voigt Hill
#
# Bulk Modulus (GPa) = 66.37059 89.15124 77.76092
# Shear Modulus (GPa) = 37.83052 42.10906 39.96979
#
# Velocity S-wave (km/s) = 4.11738 4.34398 4.23219
# Velocity P-wave (km/s) = 7.23506 8.06914 7.66346
#
# Compressibility (1/GPa) = 0.01506691
#
# Stress axis : x y z
#
# Youngs Moduli (GPa) = 123.55393 70.60513 121.54072
#
# Poissons Ratio (x) = 0.24097 0.41525
# Poissons Ratio (y) = 0.42167 0.10689
# Poissons Ratio (z) = 0.42212 0.06209
#
# Static dielectric constant tensor:
#      x y z
#    x 4.422890 0.241750 -0.387640 
#    y 0.241750 4.284490 -0.600950 
#    z -0.387640 -0.600950 4.412450 
# 
# 
# High freq. dielectric constant tensor:
#      x y z
#    x 1.888220 0.000080 -0.007910 
#    y 0.000080 1.876620 -0.023150 
#    z -0.007910 -0.023150 1.894350 
# 
# From -- ./inp_files/307689.got.cif
#   From: 2010.06.25/outbox.cif.g09.slc.cpg/sg2_154_cif.got.tgz:307689.got - 2010.06.27 13:26:56.
