data_PCOD8023948
_publ_section_title
;
Structure prediction by ZEFSAII (Michael W. Deem and Ramdas Pophale) SiO2 
 PCOD8023948
Probable space group: P -1
;
_chemical_formula_sum "Si O2"
_cell_formula_units_Z 16
_cell_length_a 12.183237
_cell_length_b 12.525592
_cell_length_c 8.431076
_cell_angle_alpha 136.035682
_cell_angle_beta 45.729016
_cell_angle_gamma 130.676248
_cell_volume 610.005375
_symmetry_space_group_name_H-M "P -1"
_symmetry_group_IT_number 2
_symmetry_cell_setting 'triclinic'
loop_
_space_group_symop_operation_xyz
x,y,z
-x,-y,-z
loop_
_atom_site_type_symbol
_atom_site_label
_atom_site_fract_x
_atom_site_fract_y
_atom_site_fract_z
Si Si1 0.881791 0.015055 0.410920
Si Si2 0.310013 0.560150 0.380256
Si Si3 0.673552 0.587056 0.483483
Si Si4 0.172654 0.915649 0.110298
Si Si5 0.946095 0.578580 0.990793
Si Si6 0.786795 0.278941 0.627268
Si Si7 0.334948 0.272024 0.860534
Si Si8 0.571331 0.847682 0.054223
O O1 0.806966 0.064441 0.699358
O O2 0.878938 0.145089 0.414936
O O3 0.783605 0.834657 0.264021
O O4 0.065713 0.024358 0.265989
O O5 0.255259 0.519920 0.575783
O O6 0.246117 0.694015 0.496908
O O7 0.502728 0.618596 0.267364
O O8 0.253428 0.395734 0.157062
O O9 0.500000 0.500000 0.500000
O O10 0.795242 0.636688 0.265699
O O11 0.658742 0.742726 0.753704
O O12 0.089704 0.730436 0.948035
O O13 0.349589 0.973515 0.909751
O O14 0.895755 0.451226 0.763959
O O15 0.000000 0.500000 0.000000
O O16 0.621459 0.216366 0.829943
O O17 0.378008 0.150204 0.811373
#
# Coordination Sequence:
#
# PCOD8023948 Si02
#       8
#     2   2   2   2   2   2   2   2
#     4  11  23  40  66  96 132 183 214 280 329 397
#     4   9  21  39  67 102 129 177 223 280 324 397
#     4  11  22  40  73 102 127 173 231 271 327 398
#     4  11  25  43  66  95 138 175 225 269 347 388
#     4  12  25  47  67 100 135 178 218 289 331 399
#     4  11  23  45  68  99 139 172 229 275 331 388
#     4   9  20  40  66  95 137 173 223 265 338 390
#     4  10  23  42  68 103 129 173 228 275 319 413
#
# _framework density 26.229275999999999
#
# number of rings (size 3 to 8) (size 9 to 14) (size 15 to 20)
#    0.000    1.500    2.500    3.000    3.500    3.000 
#    4.500    1.875    0.000    0.000    0.000    0.000 
#    0.000    0.000    0.000    0.000    0.000    0.000 
#
# Total GULP energy -198378.453903 kJ/mol
# GULP energy per Si atom -12398.653369 kJ/mol
# Density = 2.616958 g / cm^3
# Si number density = 26.229276 Si / 1000 Ang^3
#
#
#
# Elastic Constant Matrix: (Units=GPa)
#
#
# Indices 1 2 3 4 5 6 
#
# 1 111.0190 28.9929 7.5567 23.6873 12.6823 -15.8887
# 2 28.9929 154.8790 24.4698 14.8016 14.5137 6.3835
# 3 7.5567 24.4698 54.3050 11.2159 13.7248 8.5904
# 4 23.6873 14.8016 11.2159 21.7102 3.0277 5.4245
# 5 12.6823 14.5137 13.7248 3.0277 31.2936 18.0833
# 6 -15.8887 6.3835 8.5904 5.4245 18.0833 50.0800
#
#
#
# Elastic Compliance Matrix: (Units=1/GPa)
#
#
# Indices 1 2 3 4 5 6 
#
# 1 0.016365 -0.001026 0.003684 -0.020167 -0.012376 0.011344
# 2 -0.001026 0.007412 -0.002216 -0.002545 -0.001830 0.000047
# 3 0.003684 -0.002216 0.024253 -0.014181 -0.011439 0.002958
# 4 -0.020167 -0.002545 -0.014181 0.079250 0.018918 -0.019057
# 5 -0.012376 -0.001830 -0.011439 0.018918 0.054580 -0.023488
# 6 0.011344 0.000047 0.002958 -0.019057 -0.023488 0.033599
#
#
# Mechanical properties :
#
#
# Convention : Reuss Voigt Hill
#
# Bulk Modulus (GPa) = 20.44451 49.13796 34.79123
# Shear Modulus (GPa) = 21.65636 37.89567 29.77602
#
# Velocity S-wave (km/s) = 2.87654 3.80516 3.37296
# Velocity P-wave (km/s) = 4.34098 6.17092 5.33500
#
# Compressibility (1/GPa) = 0.04891289
#
# Stress axis : x y z
#
# Youngs Moduli (GPa) = 61.10602 134.92222 41.23281
#
# Poissons Ratio (x) = 0.13842 -0.15189
# Poissons Ratio (y) = 0.06269 0.09137
# Poissons Ratio (z) = -0.22510 0.29898
#
# Static dielectric constant tensor:
#      x y z
#    x 4.618610 -0.082110 -0.194050 
#    y -0.082110 4.927640 -0.107270 
#    z -0.194050 -0.107270 4.152160 
# 
# 
# High freq. dielectric constant tensor:
#      x y z
#    x 2.057560 -0.002180 0.007820 
#    y -0.002180 2.061100 0.003660 
#    z 0.007820 0.003660 2.030410 
# 
# From -- ./inp_files/263376.got.cif
#   From: 2010.06.25/outbox.cif.g09.slc.cpg/sg2_132_cif.got.tgz:263376.got - 2010.06.27 13:26:56.
