data_PCOD8023371
_publ_section_title
;
Structure prediction by ZEFSAII (Michael W. Deem and Ramdas Pophale) SiO2 
 PCOD8023371
Probable space group: P -1
;
_chemical_formula_sum "Si O2"
_cell_formula_units_Z 16
_cell_length_a 19.915667
_cell_length_b 16.594843
_cell_length_c 8.697264
_cell_angle_alpha 136.995292
_cell_angle_beta 138.084140
_cell_angle_gamma 22.023250
_cell_volume 710.116807
_symmetry_space_group_name_H-M "P -1"
_symmetry_group_IT_number 2
_symmetry_cell_setting 'triclinic'
loop_
_space_group_symop_operation_xyz
x,y,z
-x,-y,-z
loop_
_atom_site_type_symbol
_atom_site_label
_atom_site_fract_x
_atom_site_fract_y
_atom_site_fract_z
Si Si1 0.852928 0.059816 0.908989
Si Si2 0.293974 0.233526 0.922400
Si Si3 0.800004 0.537181 0.193710
Si Si4 0.094877 0.100383 0.918127
Si Si5 0.019803 0.298417 0.517056
Si Si6 0.171853 0.598274 0.370169
Si Si7 0.510816 0.407832 0.617533
Si Si8 0.550050 0.279623 0.180710
O O1 0.657717 0.296392 0.842810
O O2 0.869056 0.906802 0.678317
O O3 0.868789 0.043835 0.100479
O O4 0.000000 0.000000 0.000000
O O5 0.289306 0.263803 0.772205
O O6 0.158015 0.259809 0.765849
O O7 0.220937 0.419760 0.145307
O O8 0.500000 0.000000 0.000000
O O9 0.857309 0.516185 0.436031
O O10 0.651319 0.577005 0.997327
O O11 0.991917 0.310542 0.120620
O O12 0.954784 0.200972 0.683663
O O13 0.287200 0.952012 0.955720
O O14 0.929567 0.313189 0.518989
O O15 0.354201 0.493709 0.563967
O O16 0.583732 0.250345 0.382411
O O17 0.434823 0.602303 0.687467
#
# Coordination Sequence:
#
# PCOD8023371 Si02
#       8
#     2   2   2   2   2   2   2   2
#     4  11  25  42  65  99 137 170 222 270 328 391
#     4  11  23  44  69  93 130 173 222 279 326 390
#     4  10  23  47  64  98 135 167 222 276 325 394
#     4  10  23  41  66  91 135 172 215 266 330 382
#     4  11  24  42  69  94 132 177 218 272 335 385
#     4  11  24  43  66  98 133 171 227 267 329 396
#     4  11  23  40  64  97 135 172 223 270 322 395
#     4  11  23  41  69  94 133 178 220 267 330 389
#
# _framework density 22.531504999999999
#
# number of rings (size 3 to 8) (size 9 to 14) (size 15 to 20)
#    0.000    1.250    2.500    3.750    7.000    1.000 
#    0.000    0.625    0.000    0.000    0.000    0.000 
#    0.000    0.000    0.000    0.000    0.000    0.000 
#
# Total GULP energy -198338.825047 kJ/mol
# GULP energy per Si atom -12396.176565 kJ/mol
# Density = 2.248022 g / cm^3
# Si number density = 22.531505 Si / 1000 Ang^3
#
#
#
# Elastic Constant Matrix: (Units=GPa)
#
#
# Indices 1 2 3 4 5 6 
#
# 1 142.1174 50.3599 34.0419 -23.7734 -7.4338 -10.3668
# 2 50.3599 109.4514 41.6611 -27.6978 -11.0787 -8.9436
# 3 34.0419 41.6611 68.0992 -25.4770 5.5194 -8.9194
# 4 -23.7734 -27.6978 -25.4770 38.1248 5.3718 -4.4388
# 5 -7.4338 -11.0787 5.5194 5.3718 45.6107 -14.4336
# 6 -10.3668 -8.9436 -8.9194 -4.4388 -14.4336 42.2458
#
#
#
# Elastic Compliance Matrix: (Units=1/GPa)
#
#
# Indices 1 2 3 4 5 6 
#
# 1 0.009021 -0.002460 -0.001868 0.002627 0.001444 0.002068
# 2 -0.002460 0.014337 -0.005630 0.004900 0.004195 0.003191
# 3 -0.001868 -0.005630 0.024411 0.012129 -0.005093 0.003038
# 4 0.002627 0.004900 0.012129 0.040746 -0.002187 0.007777
# 5 0.001444 0.004195 -0.005093 -0.002187 0.026947 0.009144
# 6 0.002068 0.003191 0.003038 0.007777 0.009144 0.029437
#
#
# Mechanical properties :
#
#
# Convention : Reuss Voigt Hill
#
# Bulk Modulus (GPa) = 35.90279 63.53265 49.71772
# Shear Modulus (GPa) = 28.71931 38.10326 33.41128
#
# Velocity S-wave (km/s) = 3.57407 4.11677 3.85498
# Velocity P-wave (km/s) = 5.74465 7.13131 6.47521
#
# Compressibility (1/GPa) = 0.02785299
#
# Stress axis : x y z
#
# Youngs Moduli (GPa) = 110.84711 69.75138 40.96532
#
# Poissons Ratio (x) = 0.17157 0.07653
# Poissons Ratio (y) = 0.27266 0.23064
# Poissons Ratio (z) = 0.20707 0.39271
#
# Static dielectric constant tensor:
#      x y z
#    x 4.386040 0.164910 -0.407880 
#    y 0.164910 4.175100 -0.197760 
#    z -0.407880 -0.197760 4.053170 
# 
# 
# High freq. dielectric constant tensor:
#      x y z
#    x 1.900440 0.005290 -0.010120 
#    y 0.005290 1.887520 -0.018830 
#    z -0.010120 -0.018830 1.872140 
# 
# From -- ./inp_files/348966.got.cif
#   From: 2010.06.25/outbox.cif.g09.slc.cpg/sg2_175_cif.got.tgz:348966.got - 2010.06.27 13:26:56.
