data_PCOD8023298
_publ_section_title
;
Structure prediction by ZEFSAII (Michael W. Deem and Ramdas Pophale) SiO2 
 PCOD8023298
Probable space group: P -1
;
_chemical_formula_sum "Si O2"
_cell_formula_units_Z 14
_cell_length_a 15.383393
_cell_length_b 10.206167
_cell_length_c 12.227711
_cell_angle_alpha 125.845485
_cell_angle_beta 155.486349
_cell_angle_gamma 51.039866
_cell_volume 618.843128
_symmetry_space_group_name_H-M "P -1"
_symmetry_group_IT_number 2
_symmetry_cell_setting 'triclinic'
loop_
_space_group_symop_operation_xyz
x,y,z
-x,-y,-z
loop_
_atom_site_type_symbol
_atom_site_label
_atom_site_fract_x
_atom_site_fract_y
_atom_site_fract_z
Si Si1 0.860142 0.226497 0.787840
Si Si2 0.140944 0.403374 0.329387
Si Si3 0.359878 0.936334 0.896584
Si Si4 0.236819 0.937099 0.080700
Si Si5 0.484036 0.200245 0.469075
Si Si6 0.973930 0.229102 0.678282
Si Si7 0.526208 0.680888 0.144641
O O1 0.599752 0.257635 0.523965
O O2 0.910070 0.294181 0.760688
O O3 0.957685 0.313671 0.041315
O O4 0.976711 0.023308 0.822443
O O5 0.332791 0.363678 0.438002
O O6 0.028139 0.602801 0.308959
O O7 0.253102 0.332283 0.539366
O O8 0.207529 0.848027 0.614099
O O9 0.525168 0.796040 0.093252
O O10 0.211805 0.093482 0.874531
O O11 0.500000 0.000000 0.000000
O O12 0.312993 0.902561 0.275016
O O13 0.307506 0.769317 0.007220
O O14 0.344084 0.074756 0.215768
O O15 0.500000 0.500000 0.000000
#
# Coordination Sequence:
#
# PCOD8023298 Si02
#       7
#     2   2   2   2   2   2   2
#     4  11  21  37  66  95 130 167 216 258 328 386
#     4  10  23  41  64  98 134 163 211 274 318 380
#     4  11  26  46  69  93 128 177 221 261 324 387
#     4   9  19  37  59  90 130 165 208 267 315 381
#     4   9  20  36  61  94 128 168 206 262 325 377
#     4  11  24  44  65  94 134 170 213 269 322 382
#     4  11  21  44  70  88 130 175 213 270 320 373
#
# _framework density 22.622859999999999
#
# number of rings (size 3 to 8) (size 9 to 14) (size 15 to 20)
#    0.000    1.714    2.857    1.714    2.000    1.714 
#    0.000    0.714    0.000    0.000    0.000    0.000 
#    0.000    0.000    0.000    0.000    0.000    0.000 
#
# Total GULP energy -173541.173970 kJ/mol
# GULP energy per Si atom -12395.798141 kJ/mol
# Density = 2.257137 g / cm^3
# Si number density = 22.622860 Si / 1000 Ang^3
#
#
#
# Elastic Constant Matrix: (Units=GPa)
#
#
# Indices 1 2 3 4 5 6 
#
# 1 103.4998 37.2425 40.5282 8.4892 0.9223 9.1569
# 2 37.2425 144.8803 36.4744 -1.0774 -7.3972 -3.0497
# 3 40.5282 36.4744 67.5856 0.6524 -8.1772 -4.3160
# 4 8.4892 -1.0774 0.6524 29.0435 4.7683 -10.9895
# 5 0.9223 -7.3972 -8.1772 4.7683 33.4928 -0.8448
# 6 9.1569 -3.0497 -4.3160 -10.9895 -0.8448 28.9196
#
#
#
# Elastic Compliance Matrix: (Units=1/GPa)
#
#
# Indices 1 2 3 4 5 6 
#
# 1 0.015346 -0.002076 -0.008872 -0.007530 -0.002211 -0.009328
# 2 -0.002076 0.008292 -0.003018 0.001449 0.000987 0.001661
# 3 -0.008872 -0.003018 0.022764 0.004054 0.004749 0.007567
# 4 -0.007530 0.001449 0.004054 0.044910 -0.004370 0.020080
# 5 -0.002211 0.000987 0.004749 -0.004370 0.031938 0.000785
# 6 -0.009328 0.001661 0.007567 0.020080 0.000785 0.046490
#
#
# Mechanical properties :
#
#
# Convention : Reuss Voigt Hill
#
# Bulk Modulus (GPa) = 54.14757 60.49511 57.32134
# Shear Modulus (GPa) = 24.53038 31.73922 28.13480
#
# Velocity S-wave (km/s) = 3.29647 3.74969 3.53036
# Velocity P-wave (km/s) = 6.20289 6.74875 6.48157
#
# Compressibility (1/GPa) = 0.01846805
#
# Stress axis : x y z
#
# Youngs Moduli (GPa) = 65.16512 120.59785 43.92917
#
# Poissons Ratio (x) = 0.25040 0.38974
# Poissons Ratio (y) = 0.13530 0.13260
# Poissons Ratio (z) = 0.57815 0.36401
#
# Static dielectric constant tensor:
#      x y z
#    x 3.995960 -0.182780 -0.187710 
#    y -0.182780 4.263620 -0.180860 
#    z -0.187710 -0.180860 3.992170 
# 
# 
# High freq. dielectric constant tensor:
#      x y z
#    x 1.878210 -0.008240 -0.016520 
#    y -0.008240 1.894260 -0.011740 
#    z -0.016520 -0.011740 1.884540 
# 
# From -- ./inp_files/446372.got.cif
#   From: 2010.06.25/outbox.cif.g09.slc.cpg/sg2_224_cif.got.tgz:446372.got - 2010.06.27 13:26:56.
