data_PCOD8023496
_publ_section_title
;
Structure prediction by ZEFSAII (Michael W. Deem and Ramdas Pophale) SiO2 
 PCOD8023496
Probable space group: P -1
;
_chemical_formula_sum "Si O2"
_cell_formula_units_Z 14
_cell_length_a 9.264401
_cell_length_b 9.410278
_cell_length_c 8.335503
_cell_angle_alpha 67.678970
_cell_angle_beta 120.357232
_cell_angle_gamma 98.090333
_cell_volume 578.877690
_symmetry_space_group_name_H-M "P -1"
_symmetry_group_IT_number 2
_symmetry_cell_setting 'triclinic'
loop_
_space_group_symop_operation_xyz
x,y,z
-x,-y,-z
loop_
_atom_site_type_symbol
_atom_site_label
_atom_site_fract_x
_atom_site_fract_y
_atom_site_fract_z
Si Si1 0.687901 0.037390 0.128382
Si Si2 0.376925 0.817017 0.642446
Si Si3 0.293347 0.140560 0.338868
Si Si4 0.334516 0.491596 0.806639
Si Si5 0.945248 0.154934 0.992781
Si Si6 0.003101 0.473356 0.821693
Si Si7 0.247371 0.278389 0.579522
O O1 0.803902 0.880006 0.296204
O O2 0.683489 0.151068 0.225889
O O3 0.772466 0.130578 0.995959
O O4 0.500000 0.000000 0.000000
O O5 0.581364 0.804783 0.751474
O O6 0.301942 0.655170 0.626115
O O7 0.307082 0.953636 0.427769
O O8 0.351415 0.218203 0.505592
O O9 0.100289 0.194736 0.178663
O O10 0.189493 0.454859 0.864675
O O11 0.359585 0.364543 0.734194
O O12 0.500000 0.500000 0.000000
O O13 0.917401 0.311386 0.805501
O O14 0.000000 0.000000 0.000000
O O15 0.910388 0.610430 0.608905
O O16 0.000000 0.500000 0.000000
#
# Coordination Sequence:
#
# PCOD8023496 Si02
#       7
#     2   2   2   2   2   2   2
#     4  11  24  47  70 102 140 189 243 294 358 431
#     4  10  23  41  68  96 138 180 236 291 346 420
#     4  10  23  45  65 103 137 186 236 289 350 428
#     4  12  26  45  72 104 145 188 239 297 364 422
#     4  12  25  42  74  99 145 187 240 291 359 422
#     4  12  26  48  69 110 149 184 240 300 359 429
#     4  11  26  46  75 101 147 187 242 294 363 428
#
# _framework density 24.184729999999998
#
# number of rings (size 3 to 8) (size 9 to 14) (size 15 to 20)
#    0.000    0.857    1.429    4.714    4.000    1.714 
#    0.000    0.000    0.000    0.000    0.000    0.000 
#    0.000    0.000    0.000    0.000    0.000    0.000 
#
# Total GULP energy -173532.530402 kJ/mol
# GULP energy per Si atom -12395.180743 kJ/mol
# Density = 2.412968 g / cm^3
# Si number density = 24.184730 Si / 1000 Ang^3
#
#
#
# Elastic Constant Matrix: (Units=GPa)
#
#
# Indices 1 2 3 4 5 6 
#
# 1 159.7363 44.9397 32.6022 -14.4091 -15.4245 16.3792
# 2 44.9397 159.5467 27.5791 -10.4817 -18.9426 -1.8035
# 3 32.6022 27.5791 81.8766 -10.4097 6.3668 3.0140
# 4 -14.4091 -10.4817 -10.4097 46.8520 0.4230 -6.7413
# 5 -15.4245 -18.9426 6.3668 0.4230 34.5221 -4.7630
# 6 16.3792 -1.8035 3.0140 -6.7413 -4.7630 33.3729
#
#
#
# Elastic Compliance Matrix: (Units=1/GPa)
#
#
# Indices 1 2 3 4 5 6 
#
# 1 0.007873 -0.001395 -0.002635 0.001054 0.002799 -0.003089
# 2 -0.001395 0.007660 -0.002304 0.001040 0.004286 0.002129
# 3 -0.002635 -0.002304 0.014710 0.001915 -0.005250 -0.000522
# 4 0.001054 0.001040 0.001915 0.022912 0.000978 0.004134
# 5 0.002799 0.004286 -0.005250 0.000978 0.034132 0.004401
# 6 -0.003089 0.002129 -0.000522 0.004134 0.004401 0.033106
#
#
# Mechanical properties :
#
#
# Convention : Reuss Voigt Hill
#
# Bulk Modulus (GPa) = 56.90128 67.93351 62.41740
# Shear Modulus (GPa) = 35.99212 42.68532 39.33872
#
# Velocity S-wave (km/s) = 3.86193 4.20571 4.03748
# Velocity P-wave (km/s) = 6.59279 7.19266 6.89925
#
# Compressibility (1/GPa) = 0.01757430
#
# Stress axis : x y z
#
# Youngs Moduli (GPa) = 127.02099 130.54281 67.98305
#
# Poissons Ratio (x) = 0.18217 0.17911
# Poissons Ratio (y) = 0.17726 0.15663
# Poissons Ratio (z) = 0.33466 0.30077
#
# Static dielectric constant tensor:
#      x y z
#    x 4.162980 -0.025720 -0.130000 
#    y -0.025720 4.890900 -0.353940 
#    z -0.130000 -0.353940 4.430500 
# 
# 
# High freq. dielectric constant tensor:
#      x y z
#    x 1.948660 -0.008580 -0.010040 
#    y -0.008580 1.985970 -0.019010 
#    z -0.010040 -0.019010 1.955860 
# 
# From -- ./inp_files/157591.got.cif
#   From: 2010.06.25/outbox.cif.g09.slc.cpg/sg2_79_cif.got.tgz:157591.got - 2010.06.27 13:26:56.
