data_PCOD8023818
_publ_section_title
;
Structure prediction by ZEFSAII (Michael W. Deem and Ramdas Pophale) SiO2 
 PCOD8023818
Probable space group: P -1
;
_chemical_formula_sum "Si O2"
_cell_formula_units_Z 16
_cell_length_a 27.757578
_cell_length_b 19.244891
_cell_length_c 15.619708
_cell_angle_alpha 161.005314
_cell_angle_beta 159.762976
_cell_angle_gamma 18.638623
_cell_volume 792.912297
_symmetry_space_group_name_H-M "P -1"
_symmetry_group_IT_number 2
_symmetry_cell_setting 'triclinic'
loop_
_space_group_symop_operation_xyz
x,y,z
-x,-y,-z
loop_
_atom_site_type_symbol
_atom_site_label
_atom_site_fract_x
_atom_site_fract_y
_atom_site_fract_z
Si Si1 0.227628 0.217355 0.335505
Si Si2 0.117028 0.694454 0.117974
Si Si3 0.795718 0.685375 0.781184
Si Si4 0.465160 0.730888 0.268521
Si Si5 0.843963 0.132974 0.787549
Si Si6 0.214778 0.711449 0.943181
Si Si7 0.692347 0.853883 0.135530
Si Si8 0.121883 0.152339 0.723015
O O1 0.230660 0.169684 0.183319
O O2 0.243097 0.456737 0.654237
O O3 0.381984 0.979018 0.359854
O O4 0.058685 0.267280 0.151207
O O5 0.203678 0.683657 0.159899
O O6 0.094864 0.921426 0.404131
O O7 0.233785 0.439477 0.066744
O O8 0.635196 0.679851 0.531265
O O9 0.951435 0.401368 0.700762
O O10 0.826889 0.834974 0.080362
O O11 0.500000 0.500000 0.000000
O O12 0.351858 0.761032 0.194717
O O13 0.767895 0.959431 0.451838
O O14 0.772333 0.309499 0.956973
O O15 0.040355 0.950421 0.903308
O O16 0.734286 0.889677 0.150428
O O17 0.500000 0.000000 0.000000
#
# Coordination Sequence:
#
# PCOD8023818 Si02
#       8
#     2   2   2   2   2   2   2   2
#     4  12  22  42  66  96 128 172 211 255 320 382
#     4  11  21  43  69  90 126 170 211 259 320 377
#     4  11  23  44  65  96 133 165 213 263 311 382
#     4  12  25  41  65  95 133 169 209 266 315 370
#     4  10  23  42  66  92 128 161 212 265 314 382
#     4  11  23  41  64  98 125 166 209 256 323 376
#     4  11  24  44  65  90 125 169 216 265 315 369
#     4  10  24  45  65  94 129 169 214 260 317 376
#
# _framework density 20.178775999999999
#
# number of rings (size 3 to 8) (size 9 to 14) (size 15 to 20)
#    0.000    1.000    5.000    1.875    1.750    4.000 
#    4.500    0.000    0.000    0.000    0.000    0.000 
#    0.000    0.000    0.000    0.000    0.000    0.000 
#
# Total GULP energy -198494.805174 kJ/mol
# GULP energy per Si atom -12405.925323 kJ/mol
# Density = 2.013285 g / cm^3
# Si number density = 20.178776 Si / 1000 Ang^3
#
#
#
# Elastic Constant Matrix: (Units=GPa)
#
#
# Indices 1 2 3 4 5 6 
#
# 1 109.0765 30.2283 44.8075 -6.8280 -0.2114 0.2366
# 2 30.2283 64.3075 30.1315 -6.0844 6.7614 -11.0685
# 3 44.8075 30.1315 93.9721 -9.1308 6.4698 2.2587
# 4 -6.8280 -6.0844 -9.1308 32.6107 -3.5661 13.3227
# 5 -0.2114 6.7614 6.4698 -3.5661 37.9461 -7.2219
# 6 0.2366 -11.0685 2.2587 13.3227 -7.2219 27.6562
#
#
#
# Elastic Compliance Matrix: (Units=1/GPa)
#
#
# Indices 1 2 3 4 5 6 
#
# 1 0.012184 -0.003922 -0.004472 0.001376 0.001350 -0.001619
# 2 -0.003922 0.021558 -0.005443 -0.002548 -0.001271 0.010002
# 3 -0.004472 -0.005443 0.015284 0.004613 -0.002415 -0.006241
# 4 0.001376 -0.002548 0.004613 0.040268 -0.000527 -0.020944
# 5 0.001350 -0.001271 -0.002415 -0.000527 0.028345 0.007332
# 6 -0.001619 0.010002 -0.006241 -0.020944 0.007332 0.052689
#
#
# Mechanical properties :
#
#
# Convention : Reuss Voigt Hill
#
# Bulk Modulus (GPa) = 46.83522 53.07672 49.95597
# Shear Modulus (GPa) = 24.37599 30.45518 27.41559
#
# Velocity S-wave (km/s) = 3.47940 3.88914 3.68996
# Velocity P-wave (km/s) = 6.27712 6.82111 6.55476
#
# Compressibility (1/GPa) = 0.02135145
#
# Stress axis : x y z
#
# Youngs Moduli (GPa) = 82.07257 46.38603 65.42926
#
# Poissons Ratio (x) = 0.18194 0.29263
# Poissons Ratio (y) = 0.32191 0.35611
# Poissons Ratio (z) = 0.36706 0.25247
#
# Static dielectric constant tensor:
#      x y z
#    x 3.954190 -0.754600 -0.102130 
#    y -0.754600 6.535040 0.597400 
#    z -0.102130 0.597400 3.946120 
# 
# 
# High freq. dielectric constant tensor:
#      x y z
#    x 1.797090 -0.003990 0.006910 
#    y -0.003990 1.783270 -0.001620 
#    z 0.006910 -0.001620 1.794810 
# 
# From -- ./inp_files/69335.got.cif
#   From: 2010.06.25/outbox.cif.g09.slc.cpg/sg2_35_cif.got.tgz:69335.got - 2010.06.27 13:26:56.
