data_PCOD8023018
_publ_section_title
;
Structure prediction by ZEFSAII (Michael W. Deem and Ramdas Pophale) SiO2 
 PCOD8023018
Probable space group: P -1
;
_chemical_formula_sum "Si O2"
_cell_formula_units_Z 16
_cell_length_a 20.024885
_cell_length_b 10.854940
_cell_length_c 8.496562
_cell_angle_alpha 40.788238
_cell_angle_beta 41.353916
_cell_angle_gamma 43.679915
_cell_volume 744.063183
_symmetry_space_group_name_H-M "P -1"
_symmetry_group_IT_number 2
_symmetry_cell_setting 'triclinic'
loop_
_space_group_symop_operation_xyz
x,y,z
-x,-y,-z
loop_
_atom_site_type_symbol
_atom_site_label
_atom_site_fract_x
_atom_site_fract_y
_atom_site_fract_z
Si Si1 0.419273 0.081923 0.922492
Si Si2 0.877151 0.891056 0.235840
Si Si3 0.603691 0.232614 0.956593
Si Si4 0.598604 0.666372 0.571110
Si Si5 0.795424 0.653059 0.818954
Si Si6 0.774121 0.858640 0.135595
Si Si7 0.911219 0.287437 0.774447
Si Si8 0.948439 0.646988 0.806230
O O1 0.465865 0.175437 0.604923
O O2 0.385014 0.898091 0.097110
O O3 0.322095 0.280877 0.961995
O O4 0.500000 0.000000 0.000000
O O5 0.802743 0.861818 0.536447
O O6 0.849010 0.797769 0.216423
O O7 0.000540 0.768561 0.187233
O O8 0.853170 0.125610 0.024851
O O9 0.481284 0.292057 0.179059
O O10 0.690434 0.089998 0.065703
O O11 0.629998 0.434237 0.683283
O O12 0.708128 0.705679 0.384401
O O13 0.816859 0.497027 0.786197
O O14 0.888038 0.549220 0.885153
O O15 0.853675 0.839685 0.863723
O O16 0.961989 0.294042 0.505795
O O17 0.000000 0.500000 0.000000
#
# Coordination Sequence:
#
# PCOD8023018 Si02
#       8
#     2   2   2   2   2   2   2   2
#     4  11  24  42  68  95 130 165 204 265 318 375
#     4  10  23  40  65  91 127 171 213 259 310 374
#     4  10  23  44  66  93 130 161 213 258 320 382
#     4  10  23  45  67  93 127 164 209 268 312 382
#     4  11  22  42  62  91 130 166 211 256 311 380
#     4  11  21  40  65  98 123 167 211 262 320 369
#     4  10  23  44  60  93 131 170 213 257 313 377
#     4  11  21  39  65  92 127 166 212 262 315 369
#
# _framework density 21.503551999999999
#
# number of rings (size 3 to 8) (size 9 to 14) (size 15 to 20)
#    0.000    1.500    2.500    4.500    3.500    4.000 
#    4.500    0.000    0.000    0.000    0.000    0.000 
#    0.000    0.000    0.000    0.000    0.000    0.000 
#
# Total GULP energy -198308.594209 kJ/mol
# GULP energy per Si atom -12394.287138 kJ/mol
# Density = 2.145461 g / cm^3
# Si number density = 21.503552 Si / 1000 Ang^3
#
#
#
# Elastic Constant Matrix: (Units=GPa)
#
#
# Indices 1 2 3 4 5 6 
#
# 1 117.9029 30.5010 59.1735 -12.6476 12.3409 8.4722
# 2 30.5010 112.8971 51.8466 -4.7508 -7.2559 17.2681
# 3 59.1735 51.8466 106.5013 -16.8179 3.2570 8.7478
# 4 -12.6476 -4.7508 -16.8179 39.8157 4.1023 3.1304
# 5 12.3409 -7.2559 3.2570 4.1023 24.8542 -0.7527
# 6 8.4722 17.2681 8.7478 3.1304 -0.7527 19.1547
#
#
#
# Elastic Compliance Matrix: (Units=1/GPa)
#
#
# Indices 1 2 3 4 5 6 
#
# 1 0.012754 -0.000507 -0.006035 0.002317 -0.006165 -0.003049
# 2 -0.000507 0.013229 -0.005706 -0.000789 0.004726 -0.008781
# 3 -0.006035 -0.005706 0.016312 0.004487 -0.001561 -0.000431
# 4 0.002317 -0.000789 0.004487 0.028950 -0.006970 -0.007367
# 5 -0.006165 0.004726 -0.001561 -0.006970 0.046095 0.002130
# 6 -0.003049 -0.008781 -0.000431 -0.007367 0.002130 0.062956
#
#
# Mechanical properties :
#
#
# Convention : Reuss Voigt Hill
#
# Bulk Modulus (GPa) = 56.18189 68.92705 62.55447
# Shear Modulus (GPa) = 23.72761 29.81694 26.77227
#
# Velocity S-wave (km/s) = 3.32539 3.72775 3.53231
# Velocity P-wave (km/s) = 6.39749 7.11699 6.76681
#
# Compressibility (1/GPa) = 0.01779933
#
# Stress axis : x y z
#
# Youngs Moduli (GPa) = 78.40426 75.59349 61.30352
#
# Poissons Ratio (x) = 0.03830 0.36997
# Poissons Ratio (y) = 0.03972 0.34982
# Poissons Ratio (z) = 0.47317 0.43136
#
# Static dielectric constant tensor:
#      x y z
#    x 3.821540 0.085870 0.069120 
#    y 0.085870 3.993420 0.061560 
#    z 0.069120 0.061560 3.933930 
# 
# 
# High freq. dielectric constant tensor:
#      x y z
#    x 1.836150 0.001980 0.013020 
#    y 0.001980 1.845600 0.004240 
#    z 0.013020 0.004240 1.837720 
# 
# From -- ./inp_files/345820.got.cif
#   From: 2010.06.25/outbox.cif.g09.slc.cpg/sg2_173_cif.got.tgz:345820.got - 2010.06.27 13:26:56.
