data_PCOD8023908
_publ_section_title
;
Structure prediction by ZEFSAII (Michael W. Deem and Ramdas Pophale) SiO2 
 PCOD8023908
Probable space group: P -1
;
_chemical_formula_sum "Si O2"
_cell_formula_units_Z 16
_cell_length_a 14.513923
_cell_length_b 13.714306
_cell_length_c 11.964057
_cell_angle_alpha 106.364081
_cell_angle_beta 153.241919
_cell_angle_gamma 56.387558
_cell_volume 735.573853
_symmetry_space_group_name_H-M "P -1"
_symmetry_group_IT_number 2
_symmetry_cell_setting 'triclinic'
loop_
_space_group_symop_operation_xyz
x,y,z
-x,-y,-z
loop_
_atom_site_type_symbol
_atom_site_label
_atom_site_fract_x
_atom_site_fract_y
_atom_site_fract_z
Si Si1 0.988267 0.304590 0.769338
Si Si2 0.383181 0.925841 0.573756
Si Si3 0.357758 0.390641 0.577336
Si Si4 0.900200 0.111781 0.584838
Si Si5 0.202026 0.265431 0.218673
Si Si6 0.148629 0.359260 0.549298
Si Si7 0.012882 0.759424 0.807890
Si Si8 0.432063 0.914844 0.953981
O O1 0.835098 0.441034 0.570093
O O2 0.816078 0.259909 0.545376
O O3 0.329693 0.174043 0.067919
O O4 0.964518 0.344575 0.887803
O O5 0.162522 0.914057 0.369258
O O6 0.485052 0.870754 0.538661
O O7 0.213824 0.090786 0.455298
O O8 0.209516 0.373358 0.316815
O O9 0.370482 0.333393 0.694272
O O10 0.681806 0.295937 0.861970
O O11 0.715373 0.110939 0.299052
O O12 0.233281 0.992993 0.873971
O O13 0.119746 0.211558 0.204484
O O14 0.937400 0.362082 0.247124
O O15 0.000000 0.500000 0.500000
O O16 0.281366 0.238877 0.745857
O O17 0.500000 0.000000 0.000000
#
# Coordination Sequence:
#
# PCOD8023908 Si02
#       8
#     2   2   2   2   2   2   2   2
#     4  10  24  41  66  97 132 171 219 269 326 394
#     4  10  23  42  67  96 135 170 220 268 330 385
#     4  11  25  44  65  97 134 174 220 266 334 396
#     4  11  23  40  71  97 125 174 226 267 323 399
#     4   9  24  41  69  94 135 173 214 271 334 382
#     4  11  27  43  67  94 136 173 216 274 338 385
#     4  11  23  44  66  97 131 174 219 275 323 400
#     4  11  25  45  68  97 134 171 222 280 329 382
#
# _framework density 21.751722999999998
#
# number of rings (size 3 to 8) (size 9 to 14) (size 15 to 20)
#    0.750    0.750    0.000    3.750    7.000    4.500 
#    0.000    0.000    0.000    0.000    0.000    0.000 
#    0.000    0.000    0.000    0.000    0.000    0.000 
#
# Total GULP energy -198303.305139 kJ/mol
# GULP energy per Si atom -12393.956571 kJ/mol
# Density = 2.170222 g / cm^3
# Si number density = 21.751723 Si / 1000 Ang^3
#
#
#
# Elastic Constant Matrix: (Units=GPa)
#
#
# Indices 1 2 3 4 5 6 
#
# 1 133.0654 57.1132 43.1588 -6.1254 22.0078 16.6343
# 2 57.1132 142.4650 38.9553 3.6243 3.4289 16.3725
# 3 43.1588 38.9553 82.5413 -9.9495 5.4157 15.8097
# 4 -6.1254 3.6243 -9.9495 31.5781 9.1256 -2.5592
# 5 22.0078 3.4289 5.4157 9.1256 32.1250 -2.5864
# 6 16.6343 16.3725 15.8097 -2.5592 -2.5864 40.2042
#
#
#
# Elastic Compliance Matrix: (Units=1/GPa)
#
#
# Indices 1 2 3 4 5 6 
#
# 1 0.011977 -0.003572 -0.003014 0.004082 -0.008686 -0.002615
# 2 -0.003572 0.009430 -0.002973 -0.003644 0.002877 -0.001240
# 3 -0.003014 -0.002973 0.016629 0.005331 -0.002248 -0.003886
# 4 0.004082 -0.003644 0.005331 0.038640 -0.014344 -0.000764
# 5 -0.008686 0.002877 -0.002248 -0.014344 0.041633 0.005072
# 6 -0.002615 -0.001240 -0.003886 -0.000764 0.005072 0.028266
#
#
# Mechanical properties :
#
#
# Convention : Reuss Voigt Hill
#
# Bulk Modulus (GPa) = 52.86099 70.72513 61.79306
# Shear Modulus (GPa) = 29.06981 35.37109 32.22045
#
# Velocity S-wave (km/s) = 3.65970 4.03690 3.85292
# Velocity P-wave (km/s) = 6.49712 7.36981 6.94718
#
# Compressibility (1/GPa) = 0.01891754
#
# Stress axis : x y z
#
# Youngs Moduli (GPa) = 83.49371 106.04303 60.13599
#
# Poissons Ratio (x) = 0.37874 0.18126
# Poissons Ratio (y) = 0.29820 0.17881
# Poissons Ratio (z) = 0.25167 0.31532
#
# Static dielectric constant tensor:
#      x y z
#    x 4.142570 0.005450 0.099280 
#    y 0.005450 3.937990 0.092180 
#    z 0.099280 0.092180 3.578110 
# 
# 
# High freq. dielectric constant tensor:
#      x y z
#    x 1.865740 0.003720 0.004170 
#    y 0.003720 1.866340 0.010130 
#    z 0.004170 0.010130 1.828600 
# 
# From -- ./inp_files/454892.got.cif
#   From: 2010.06.25/outbox.cif.g09.slc.cpg/sg2_228_cif.got.tgz:454892.got - 2010.06.27 13:26:56.
