data_PCOD8023039
_publ_section_title
;
Structure prediction by ZEFSAII (Michael W. Deem and Ramdas Pophale) SiO2 
 PCOD8023039
Probable space group: P -1
;
_chemical_formula_sum "Si O2"
_cell_formula_units_Z 16
_cell_length_a 9.069353
_cell_length_b 16.912369
_cell_length_c 12.139640
_cell_angle_alpha 123.941082
_cell_angle_beta 46.735557
_cell_angle_gamma 86.643219
_cell_volume 768.383429
_symmetry_space_group_name_H-M "P -1"
_symmetry_group_IT_number 2
_symmetry_cell_setting 'triclinic'
loop_
_space_group_symop_operation_xyz
x,y,z
-x,-y,-z
loop_
_atom_site_type_symbol
_atom_site_label
_atom_site_fract_x
_atom_site_fract_y
_atom_site_fract_z
Si Si1 0.903334 0.274338 0.066113
Si Si2 0.762903 0.802286 0.383801
Si Si3 0.867788 0.266309 0.466804
Si Si4 0.338073 0.372251 0.706846
Si Si5 0.268681 0.463653 0.578865
Si Si6 0.285279 0.649625 0.162910
Si Si7 0.876994 0.481779 0.646235
Si Si8 0.864341 0.939841 0.027897
O O1 0.557640 0.379537 0.287304
O O2 0.925227 0.373051 0.183831
O O3 0.993192 0.164288 0.023229
O O4 0.113698 0.192661 0.787594
O O5 0.593708 0.761799 0.413203
O O6 0.033943 0.693850 0.245747
O O7 0.490311 0.953573 0.694705
O O8 0.521982 0.373842 0.697219
O O9 0.886397 0.231698 0.560790
O O10 0.956047 0.346062 0.471463
O O11 0.064102 0.133097 0.183512
O O12 0.419795 0.379969 0.550120
O O13 0.000000 0.500000 0.000000
O O14 0.054409 0.452549 0.641639
O O15 0.500000 0.500000 0.000000
O O16 0.525602 0.626638 0.951848
O O17 0.000000 0.500000 0.500000
O O18 0.000000 0.000000 0.000000
#
# Coordination Sequence:
#
# PCOD8023039 Si02
#       8
#     2   2   2   2   2   2   2   2
#     4  11  24  41  68 102 134 166 228 283 329 388
#     4  12  24  42  67  97 135 178 222 272 329 401
#     4  11  23  42  62  94 135 167 223 265 323 402
#     4  12  20  37  67  98 124 169 216 275 333 381
#     4  11  22  38  69 100 133 167 217 278 344 389
#     4  10  23  40  65  98 132 168 215 270 337 395
#     4  11  22  37  63  97 134 165 206 272 346 385
#     4  12  25  45  67  94 131 185 229 270 324 396
#
# _framework density 20.822938000000001
#
# number of rings (size 3 to 8) (size 9 to 14) (size 15 to 20)
#    0.000    0.750    3.750    5.625    1.750    0.500 
#    0.000    0.000    0.000    4.500    0.000    0.000 
#    0.000    0.000    0.000    0.000    0.000    0.000 
#
# Total GULP energy -198248.863085 kJ/mol
# GULP energy per Si atom -12390.553943 kJ/mol
# Density = 2.077554 g / cm^3
# Si number density = 20.822938 Si / 1000 Ang^3
#
#
#
# Elastic Constant Matrix: (Units=GPa)
#
#
# Indices 1 2 3 4 5 6 
#
# 1 128.8302 36.6288 36.9853 -3.8340 -2.6693 15.2965
# 2 36.6288 109.5691 37.2614 -17.3657 8.6575 3.6413
# 3 36.9853 37.2614 165.3360 -20.2338 3.4201 4.9895
# 4 -3.8340 -17.3657 -20.2338 32.5998 -3.7793 0.1213
# 5 -2.6693 8.6575 3.4201 -3.7793 39.8795 -1.3663
# 6 15.2965 3.6413 4.9895 0.1213 -1.3663 32.0139
#
#
#
# Elastic Compliance Matrix: (Units=1/GPa)
#
#
# Indices 1 2 3 4 5 6 
#
# 1 0.009446 -0.002781 -0.001536 -0.001179 0.001122 -0.003905
# 2 -0.002781 0.011415 -0.001338 0.004679 -0.002102 0.000132
# 3 -0.001536 -0.001338 0.007134 0.003524 -0.000098 -0.000243
# 4 -0.001179 0.004679 0.003524 0.035443 0.001943 -0.000569
# 5 0.001122 -0.002102 -0.000098 0.001943 0.025827 0.000813
# 6 -0.003905 0.000132 -0.000243 -0.000569 0.000813 0.033162
#
#
# Mechanical properties :
#
#
# Convention : Reuss Voigt Hill
#
# Bulk Modulus (GPa) = 59.93827 69.49848 64.71837
# Shear Modulus (GPa) = 35.89406 40.42264 38.15835
#
# Velocity S-wave (km/s) = 4.15634 4.41075 4.28543
# Velocity P-wave (km/s) = 7.20283 7.70636 7.45885
#
# Compressibility (1/GPa) = 0.01668383
#
# Stress axis : x y z
#
# Youngs Moduli (GPa) = 105.86901 87.60628 140.17167
#
# Poissons Ratio (x) = 0.24365 0.21529
# Poissons Ratio (y) = 0.29444 0.18759
# Poissons Ratio (z) = 0.16260 0.11724
#
# Static dielectric constant tensor:
#      x y z
#    x 4.083190 -0.020220 0.390740 
#    y -0.020220 3.637460 -0.422590 
#    z 0.390740 -0.422590 4.425470 
# 
# 
# High freq. dielectric constant tensor:
#      x y z
#    x 1.816900 0.000860 -0.002800 
#    y 0.000860 1.802410 -0.031090 
#    z -0.002800 -0.031090 1.828800 
# 
# From -- ./inp_files/187630.got.cif
#   From: 2010.06.25/outbox.cif.g09.slc.cpg/sg2_94_cif.got.tgz:187630.got - 2010.06.27 13:26:56.
