data_PCOD8023679
_publ_section_title
;
Structure prediction by ZEFSAII (Michael W. Deem and Ramdas Pophale) SiO2 
 PCOD8023679
Probable space group: P -1
;
_chemical_formula_sum "Si O2"
_cell_formula_units_Z 14
_cell_length_a 7.530849
_cell_length_b 11.192716
_cell_length_c 17.087863
_cell_angle_alpha 34.901393
_cell_angle_beta 48.147158
_cell_angle_gamma 68.891225
_cell_volume 551.554516
_symmetry_space_group_name_H-M "P -1"
_symmetry_group_IT_number 2
_symmetry_cell_setting 'triclinic'
loop_
_space_group_symop_operation_xyz
x,y,z
-x,-y,-z
loop_
_atom_site_type_symbol
_atom_site_label
_atom_site_fract_x
_atom_site_fract_y
_atom_site_fract_z
Si Si1 0.512728 0.556321 0.236452
Si Si2 0.927517 0.296949 0.714615
Si Si3 0.480420 0.660145 0.352084
Si Si4 0.912540 0.934845 0.342888
Si Si5 0.076184 0.683375 0.956709
Si Si6 0.752556 0.200170 0.981481
Si Si7 0.343847 0.364741 0.042668
O O1 0.367109 0.723978 0.186905
O O2 0.626446 0.604789 0.265805
O O3 0.757067 0.615632 0.073045
O O4 0.304175 0.287192 0.430234
O O5 0.958736 0.231113 0.832859
O O6 0.158868 0.554408 0.486713
O O7 0.937123 0.111824 0.750511
O O8 0.500000 0.500000 0.500000
O O9 0.577776 0.928687 0.197922
O O10 0.120599 0.095985 0.261887
O O11 0.768757 0.077437 0.265531
O O12 0.110237 0.692998 0.034519
O O13 0.174583 0.501627 0.988585
O O14 0.573795 0.340074 0.934949
O O15 0.500000 0.500000 0.000000
#
# Coordination Sequence:
#
# PCOD8023679 Si02
#       7
#     2   2   2   2   2   2   2
#     4  11  23  38  61  94 124 158 204 249 306 369
#     4  11  23  38  64  96 124 159 200 249 311 370
#     4  11  22  38  62  94 127 157 199 251 306 368
#     4  11  22  41  64  89 125 160 199 255 308 357
#     4  11  24  40  62  91 123 165 209 247 295 361
#     4  11  22  41  64  90 127 163 198 251 308 355
#     4  10  23  42  63  87 120 164 211 251 296 360
#
# _framework density 25.382802999999999
#
# number of rings (size 3 to 8) (size 9 to 14) (size 15 to 20)
#    0.000    1.143    0.000    8.143    0.000    4.000 
#    0.000    1.429    0.000   15.429    0.000    0.000 
#    0.000    0.000    0.000    0.000    0.000    0.000 
#
# Total GULP energy -173443.858058 kJ/mol
# GULP energy per Si atom -12388.847004 kJ/mol
# Density = 2.532503 g / cm^3
# Si number density = 25.382803 Si / 1000 Ang^3
#
#
#
# Elastic Constant Matrix: (Units=GPa)
#
#
# Indices 1 2 3 4 5 6 
#
# 1 48.2319 45.6641 3.8945 -4.2180 -7.3323 -10.0666
# 2 45.6641 151.7504 65.8308 -21.1685 -6.9297 -0.1577
# 3 3.8945 65.8308 91.7554 -22.1575 1.5013 -7.5419
# 4 -4.2180 -21.1685 -22.1575 36.6304 -0.1006 -0.1158
# 5 -7.3323 -6.9297 1.5013 -0.1006 27.1185 -5.9497
# 6 -10.0666 -0.1577 -7.5419 -0.1158 -5.9497 49.1585
#
#
#
# Elastic Compliance Matrix: (Units=1/GPa)
#
#
# Indices 1 2 3 4 5 6 
#
# 1 0.037996 -0.015390 0.010621 0.001960 0.008028 0.010337
# 2 -0.015390 0.016128 -0.011114 0.000808 -0.000488 -0.004862
# 3 0.010621 -0.011114 0.020619 0.007289 0.000087 0.005330
# 4 0.001960 0.000808 0.007289 0.032410 0.000826 0.001699
# 5 0.008028 -0.000488 0.000087 0.000826 0.040354 0.006542
# 6 0.010337 -0.004862 0.005330 0.001699 0.006542 0.024057
#
#
# Mechanical properties :
#
#
# Convention : Reuss Voigt Hill
#
# Bulk Modulus (GPa) = 23.26928 58.05739 40.66333
# Shear Modulus (GPa) = 22.97209 34.33804 28.65506
#
# Velocity S-wave (km/s) = 3.01163 3.68204 3.36358
# Velocity P-wave (km/s) = 4.61307 6.40304 5.58030
#
# Compressibility (1/GPa) = 0.04297512
#
# Stress axis : x y z
#
# Youngs Moduli (GPa) = 26.31877 62.00487 48.49955
#
# Poissons Ratio (x) = 0.95426 -0.51510
# Poissons Ratio (y) = 0.40505 0.53904
# Poissons Ratio (z) = -0.27953 0.68914
#
# Static dielectric constant tensor:
#      x y z
#    x 5.219550 -0.070190 -0.199990 
#    y -0.070190 4.973520 0.050590 
#    z -0.199990 0.050590 4.402880 
# 
# 
# High freq. dielectric constant tensor:
#      x y z
#    x 2.049010 0.009590 -0.002030 
#    y 0.009590 2.036180 -0.006830 
#    z -0.002030 -0.006830 1.991610 
# 
# From -- ./inp_files/259766.got.cif
#   From: 2010.06.25/outbox.cif.g09.slc.cpg/sg2_130_cif.got.tgz:259766.got - 2010.06.27 13:26:56.
