data_PCOD8023164
_publ_section_title
;
Structure prediction by ZEFSAII (Michael W. Deem and Ramdas Pophale) SiO2 
 PCOD8023164
Probable space group: P -1
;
_chemical_formula_sum "Si O2"
_cell_formula_units_Z 14
_cell_length_a 13.276713
_cell_length_b 5.072867
_cell_length_c 11.483683
_cell_angle_alpha 86.309728
_cell_angle_beta 50.767124
_cell_angle_gamma 96.178785
_cell_volume 586.736296
_symmetry_space_group_name_H-M "P -1"
_symmetry_group_IT_number 2
_symmetry_cell_setting 'triclinic'
loop_
_space_group_symop_operation_xyz
x,y,z
-x,-y,-z
loop_
_atom_site_type_symbol
_atom_site_label
_atom_site_fract_x
_atom_site_fract_y
_atom_site_fract_z
Si Si1 0.253603 0.238979 0.562583
Si Si2 0.712058 0.326999 0.057081
Si Si3 0.050666 0.282538 0.395905
Si Si4 0.260137 0.705877 0.699205
Si Si5 0.419355 0.208746 0.953212
Si Si6 0.011659 0.453031 0.783775
Si Si7 0.341683 0.346643 0.242465
O O1 0.322570 0.520017 0.566695
O O2 0.094465 0.240899 0.670004
O O3 0.311985 0.201343 0.392798
O O4 0.289477 0.009204 0.624582
O O5 0.677242 0.307951 0.219643
O O6 0.683033 0.606531 0.022065
O O7 0.615524 0.081722 0.072120
O O8 0.865066 0.300293 0.928920
O O9 0.207963 0.376507 0.274876
O O10 0.000000 0.500000 0.500000
O O11 0.994596 0.298952 0.306467
O O12 0.000000 0.000000 0.500000
O O13 0.099511 0.591551 0.825020
O O14 0.568299 0.359483 0.809316
O O15 0.411477 0.176115 0.102060
#
# Coordination Sequence:
#
# PCOD8023164 Si02
#       7
#     2   2   2   2   2   2   2
#     4  10  23  40  71  98 132 174 216 275 350 378
#     4  12  25  46  67 101 135 177 233 262 333 406
#     4  12  24  39  69 102 133 168 213 278 337 397
#     4  10  23  43  68 103 135 171 218 283 340 387
#     4  11  29  43  70  96 134 189 219 273 326 396
#     4  10  24  39  69 103 133 172 217 279 345 384
#     4  11  25  49  67  98 142 171 229 274 331 401
#
# _framework density 23.860803000000001
#
# number of rings (size 3 to 8) (size 9 to 14) (size 15 to 20)
#    0.857    0.286    2.857    2.143    4.000    6.286 
#    0.000    4.286    0.000    0.000    0.000    0.000 
#    0.000    0.000    0.000    0.000    0.000    0.000 
#
# Total GULP energy -173500.674804 kJ/mol
# GULP energy per Si atom -12392.905343 kJ/mol
# Density = 2.380649 g / cm^3
# Si number density = 23.860803 Si / 1000 Ang^3
#
#
#
# Elastic Constant Matrix: (Units=GPa)
#
#
# Indices 1 2 3 4 5 6 
#
# 1 91.6962 25.5738 32.0271 -0.9611 19.5876 13.7718
# 2 25.5738 95.7639 7.4030 -5.6095 20.3848 4.0343
# 3 32.0271 7.4030 87.1562 4.6068 19.4044 -1.6099
# 4 -0.9611 -5.6095 4.6068 25.2539 4.9265 9.8719
# 5 19.5876 20.3848 19.4044 4.9265 48.5884 -6.3871
# 6 13.7718 4.0343 -1.6099 9.8719 -6.3871 29.6438
#
#
#
# Elastic Compliance Matrix: (Units=1/GPa)
#
#
# Indices 1 2 3 4 5 6 
#
# 1 0.016130 -0.001834 -0.005021 0.006541 -0.005830 -0.010951
# 2 -0.001834 0.012594 0.000547 0.005258 -0.005800 -0.003833
# 3 -0.005021 0.000547 0.014202 -0.003435 -0.003067 0.003513
# 4 0.006541 0.005258 -0.003435 0.053530 -0.012102 -0.024375
# 5 -0.005830 -0.005800 -0.003067 -0.012102 0.029623 0.013744
# 6 -0.010951 -0.003833 0.003513 -0.024375 0.013744 0.050612
#
#
# Mechanical properties :
#
#
# Convention : Reuss Voigt Hill
#
# Bulk Modulus (GPa) = 32.99429 44.95824 38.97626
# Shear Modulus (GPa) = 25.07395 34.67139 29.87267
#
# Velocity S-wave (km/s) = 3.24519 3.81605 3.54214
# Velocity P-wave (km/s) = 5.28200 6.18863 5.75320
#
# Compressibility (1/GPa) = 0.03030828
#
# Stress axis : x y z
#
# Youngs Moduli (GPa) = 61.99813 79.40458 70.41471
#
# Poissons Ratio (x) = 0.14560 0.35357
# Poissons Ratio (y) = 0.11368 -0.03849
# Poissons Ratio (z) = 0.31131 -0.04340
#
# Static dielectric constant tensor:
#      x y z
#    x 4.294860 0.121880 0.015350 
#    y 0.121880 3.883410 0.085530 
#    z 0.015350 0.085530 4.173540 
# 
# 
# High freq. dielectric constant tensor:
#      x y z
#    x 1.958320 0.000610 0.008260 
#    y 0.000610 1.936490 0.000310 
#    z 0.008260 0.000310 1.938240 
# 
# From -- ./inp_files/441806.got.cif
#   From: 2010.06.25/outbox.cif.g09.slc.cpg/sg2_221_cif.got.tgz:441806.got - 2010.06.27 13:26:56.
