data_PCOD8023495
_publ_section_title
;
Structure prediction by ZEFSAII (Michael W. Deem and Ramdas Pophale) SiO2 
 PCOD8023495
Probable space group: P -1
;
_chemical_formula_sum "Si O2"
_cell_formula_units_Z 16
_cell_length_a 17.386626
_cell_length_b 9.571275
_cell_length_c 11.714178
_cell_angle_alpha 127.813664
_cell_angle_beta 149.775578
_cell_angle_gamma 49.272067
_cell_volume 737.399918
_symmetry_space_group_name_H-M "P -1"
_symmetry_group_IT_number 2
_symmetry_cell_setting 'triclinic'
loop_
_space_group_symop_operation_xyz
x,y,z
-x,-y,-z
loop_
_atom_site_type_symbol
_atom_site_label
_atom_site_fract_x
_atom_site_fract_y
_atom_site_fract_z
Si Si1 0.850881 0.317871 0.700062
Si Si2 0.144445 0.966564 0.256297
Si Si3 0.282269 0.166418 0.700782
Si Si4 0.831422 0.167593 0.372298
Si Si5 0.654141 0.889571 0.573401
Si Si6 0.795991 0.712374 0.880147
Si Si7 0.367526 0.079517 0.015707
Si Si8 0.337489 0.448758 0.748489
O O1 0.843956 0.228556 0.769462
O O2 0.777937 0.215787 0.459650
O O3 0.750661 0.530389 0.694279
O O4 0.021994 0.316238 0.863010
O O5 0.133389 0.117414 0.421327
O O6 0.300213 0.970677 0.385600
O O7 0.000000 0.000000 0.000000
O O8 0.266197 0.180975 0.824939
O O9 0.292295 0.363176 0.764818
O O10 0.442516 0.992792 0.795030
O O11 0.811644 0.363294 0.378786
O O12 0.692914 0.091746 0.107339
O O13 0.000000 0.000000 0.500000
O O14 0.785604 0.834483 0.814303
O O15 0.637428 0.707840 0.396128
O O16 0.500000 0.000000 0.500000
O O17 0.671162 0.785068 0.858446
O O18 0.500000 0.500000 0.000000
#
# Coordination Sequence:
#
# PCOD8023495 Si02
#       8
#     2   2   2   2   2   2   2   2
#     4  11  23  41  64  95 130 174 222 274 334 407
#     4  11  22  42  67  95 136 179 219 282 347 400
#     4  10  23  41  68  96 136 174 228 280 344 408
#     4  12  23  41  69  96 129 179 232 276 340 409
#     4  11  24  42  67 100 134 173 224 278 340 411
#     4  11  22  40  64  94 132 171 218 273 334 401
#     4  11  22  42  66  97 134 178 220 281 344 405
#     4  11  23  44  67  97 134 178 225 286 342 406
#
# _framework density 21.697859999999999
#
# number of rings (size 3 to 8) (size 9 to 14) (size 15 to 20)
#    0.000    1.000    6.250    1.500    0.000    0.000 
#    2.250    1.875    0.000    0.000    0.000    0.000 
#    0.000    0.000    0.000    0.000    0.000    0.000 
#
# Total GULP energy -198215.137303 kJ/mol
# GULP energy per Si atom -12388.446081 kJ/mol
# Density = 2.164847 g / cm^3
# Si number density = 21.697860 Si / 1000 Ang^3
#
#
#
# Elastic Constant Matrix: (Units=GPa)
#
#
# Indices 1 2 3 4 5 6 
#
# 1 112.9009 52.6754 18.8258 6.0774 -21.5820 10.5240
# 2 52.6754 123.6486 21.2522 1.6056 -7.7811 7.7630
# 3 18.8258 21.2522 89.0529 3.2183 -14.1157 -2.8680
# 4 6.0774 1.6056 3.2183 26.3757 6.1222 -10.3217
# 5 -21.5820 -7.7811 -14.1157 6.1222 36.5418 -2.3229
# 6 10.5240 7.7630 -2.8680 -10.3217 -2.3229 43.0043
#
#
#
# Elastic Compliance Matrix: (Units=1/GPa)
#
#
# Indices 1 2 3 4 5 6 
#
# 1 0.013193 -0.004807 -0.000375 -0.005728 0.007369 -0.003363
# 2 -0.004807 0.010377 -0.001744 0.000752 -0.001474 -0.000712
# 3 -0.000375 -0.001744 0.012570 -0.002029 0.004667 0.001010
# 4 -0.005728 0.000752 -0.002029 0.046589 -0.011067 0.011715
# 5 0.007369 -0.001474 0.004667 -0.011067 0.034935 -0.001995
# 6 -0.003363 -0.000712 0.001010 0.011715 -0.001995 0.026976
#
#
# Mechanical properties :
#
#
# Convention : Reuss Voigt Hill
#
# Bulk Modulus (GPa) = 44.86554 56.78992 50.82773
# Shear Modulus (GPa) = 30.13475 36.70763 33.42119
#
# Velocity S-wave (km/s) = 3.73075 4.11757 3.92892
# Velocity P-wave (km/s) = 6.26740 6.98825 6.63762
#
# Compressibility (1/GPa) = 0.02228882
#
# Stress axis : x y z
#
# Youngs Moduli (GPa) = 75.79794 96.36649 79.55167
#
# Poissons Ratio (x) = 0.46320 0.02984
# Poissons Ratio (y) = 0.36433 0.13875
# Poissons Ratio (z) = 0.02843 0.16808
#
# Static dielectric constant tensor:
#      x y z
#    x 3.773770 0.221290 -0.147680 
#    y 0.221290 4.016860 0.001660 
#    z -0.147680 0.001660 4.088140 
# 
# 
# High freq. dielectric constant tensor:
#      x y z
#    x 1.846630 0.022840 -0.019130 
#    y 0.022840 1.842440 0.004110 
#    z -0.019130 0.004110 1.863000 
# 
# From -- ./inp_files/462510.got.cif
#   From: 2010.06.25/outbox.cif.g09.slc.cpg/sg2_232_cif.got.tgz:462510.got - 2010.06.27 13:26:56.
