data_PCOD8023996
_publ_section_title
;
Structure prediction by ZEFSAII (Michael W. Deem and Ramdas Pophale) SiO2 
 PCOD8023996
Probable space group: P -1
;
_chemical_formula_sum "Si O2"
_cell_formula_units_Z 10
_cell_length_a 8.242168
_cell_length_b 13.955435
_cell_length_c 6.901576
_cell_angle_alpha 133.372908
_cell_angle_beta 66.210181
_cell_angle_gamma 134.509487
_cell_volume 406.818097
_symmetry_space_group_name_H-M "P -1"
_symmetry_group_IT_number 2
_symmetry_cell_setting 'triclinic'
loop_
_space_group_symop_operation_xyz
x,y,z
-x,-y,-z
loop_
_atom_site_type_symbol
_atom_site_label
_atom_site_fract_x
_atom_site_fract_y
_atom_site_fract_z
Si Si1 0.050304 0.370704 0.270566
Si Si2 0.428672 0.116508 0.585919
Si Si3 0.537153 0.686270 0.495926
Si Si4 0.349279 0.816882 0.054634
Si Si5 0.999672 0.139892 0.298589
O O1 0.326707 0.483499 0.284795
O O2 0.950641 0.234714 0.303433
O O3 0.000000 0.500000 0.500000
O O4 0.914419 0.271507 0.999495
O O5 0.392046 0.228814 0.633009
O O6 0.629423 0.239822 0.819863
O O7 0.494702 0.022896 0.286341
O O8 0.192711 0.958309 0.581279
O O9 0.752179 0.712439 0.519990
O O10 0.467862 0.778008 0.788609
O O11 0.000000 0.000000 0.000000
#
# Coordination Sequence:
#
# PCOD8023996 Si02
#       5
#     2   2   2   2   2
#     4  10  25  44  69  98 142 178 216 282 340 395
#     4  11  24  40  74 100 130 183 231 270 333 406
#     4  11  23  45  67  99 139 173 224 282 339 390
#     4  10  23  42  68  99 137 174 231 269 332 401
#     4  12  24  45  71 100 137 178 226 279 335 398
#
# _framework density 24.581011
#
# number of rings (size 3 to 8) (size 9 to 14) (size 15 to 20)
#    0.000    1.200    2.000    3.000   11.200    0.800 
#    3.600    2.000    0.000    0.000    0.000    0.000 
#    0.000    0.000    0.000    0.000    0.000    0.000 
#
# Total GULP energy -123920.703834 kJ/mol
# GULP energy per Si atom -12392.070383 kJ/mol
# Density = 2.452506 g / cm^3
# Si number density = 24.581011 Si / 1000 Ang^3
#
#
#
# Elastic Constant Matrix: (Units=GPa)
#
#
# Indices 1 2 3 4 5 6 
#
# 1 121.9294 42.9122 53.3905 0.0720 56.3764 -0.0960
# 2 42.9122 128.4603 45.7511 1.4459 14.9821 -4.5064
# 3 53.3905 45.7511 96.0465 -5.5670 46.2228 -2.6309
# 4 0.0720 1.4459 -5.5670 16.1826 0.8856 4.4628
# 5 56.3764 14.9821 46.2228 0.8856 59.9323 11.1815
# 6 -0.0960 -4.5064 -2.6309 4.4628 11.1815 51.9338
#
#
#
# Elastic Compliance Matrix: (Units=1/GPa)
#
#
# Indices 1 2 3 4 5 6 
#
# 1 0.016496 -0.003619 -0.000085 0.000235 -0.015100 0.002943
# 2 -0.003619 0.010426 -0.005677 -0.003085 0.005270 -0.000259
# 3 -0.000085 -0.005677 0.021196 0.007750 -0.015573 0.003268
# 4 0.000235 -0.003085 0.007750 0.066245 -0.005593 -0.004363
# 5 -0.015100 0.005270 -0.015573 -0.005593 0.043385 -0.009220
# 6 0.002943 -0.000259 0.003268 -0.004363 -0.009220 0.021764
#
#
# Mechanical properties :
#
#
# Convention : Reuss Voigt Hill
#
# Bulk Modulus (GPa) = 34.06341 70.06043 52.06192
# Shear Modulus (GPa) = 24.03163 39.23524 31.63344
#
# Velocity S-wave (km/s) = 3.13013 3.99953 3.59124
# Velocity P-wave (km/s) = 5.19147 7.06343 6.19852
#
# Compressibility (1/GPa) = 0.02935701
#
# Stress axis : x y z
#
# Youngs Moduli (GPa) = 60.62060 95.91244 47.17815
#
# Poissons Ratio (x) = 0.34706 0.00402
# Poissons Ratio (y) = 0.21936 0.26783
# Poissons Ratio (z) = 0.00516 0.54449
#
# Static dielectric constant tensor:
#      x y z
#    x 5.107180 0.141580 0.744890 
#    y 0.141580 4.192980 0.269570 
#    z 0.744890 0.269570 4.745360 
# 
# 
# High freq. dielectric constant tensor:
#      x y z
#    x 1.993140 -0.003170 0.028620 
#    y -0.003170 1.961300 0.000630 
#    z 0.028620 0.000630 1.977300 
# 
# From -- ./inp_files/15571.got.cif
#   From: 2010.06.25/outbox.cif.g09.slc.cpg/sg2_8_cif.got.tgz:15571.got - 2010.06.27 13:26:56.
