data_PCOD8023342
_publ_section_title
;
Structure prediction by ZEFSAII (Michael W. Deem and Ramdas Pophale) SiO2 
 PCOD8023342
Probable space group: P -1
;
_chemical_formula_sum "Si O2"
_cell_formula_units_Z 12
_cell_length_a 4.912057
_cell_length_b 12.338153
_cell_length_c 9.957414
_cell_angle_alpha 117.833530
_cell_angle_beta 62.003470
_cell_angle_gamma 105.309328
_cell_volume 470.429655
_symmetry_space_group_name_H-M "P -1"
_symmetry_group_IT_number 2
_symmetry_cell_setting 'triclinic'
loop_
_space_group_symop_operation_xyz
x,y,z
-x,-y,-z
loop_
_atom_site_type_symbol
_atom_site_label
_atom_site_fract_x
_atom_site_fract_y
_atom_site_fract_z
Si Si1 0.410506 0.673289 0.651997
Si Si2 0.925878 0.381469 0.565168
Si Si3 0.674136 0.955218 0.305886
Si Si4 0.346573 0.051044 0.194327
Si Si5 0.443748 0.314764 0.836683
Si Si6 0.545513 0.443296 0.158939
O O1 0.159246 0.677105 0.595013
O O2 0.274154 0.613961 0.789832
O O3 0.705764 0.600575 0.488019
O O4 0.545248 0.809127 0.728903
O O5 0.770976 0.299182 0.674225
O O6 0.790476 0.517835 0.684166
O O7 0.436254 0.965887 0.246420
O O8 0.758938 0.811907 0.211384
O O9 0.978266 0.041412 0.258856
O O10 0.500000 0.000000 0.500000
O O11 0.500000 0.000000 0.000000
O O12 0.279924 0.431920 0.873183
O O13 0.497698 0.339960 0.996275
#
# Coordination Sequence:
#
# PCOD8023342 Si02
#       6
#     2   2   2   2   2   2
#     4  12  22  43  67  96 131 171 222 275 327 397
#     4  10  23  41  65  98 127 168 219 269 339 388
#     4  12  25  47  70 102 135 181 228 277 332 402
#     4  12  27  44  69 100 137 182 226 276 336 399
#     4   9  21  43  67  96 134 171 218 273 336 395
#     4   9  21  42  67  97 131 171 215 276 338 389
#
# _framework density 25.508597999999999
#
# number of rings (size 3 to 8) (size 9 to 14) (size 15 to 20)
#    1.000    0.333    0.000    6.000    0.000    2.667 
#    0.000    6.667    0.000    0.000    0.000    0.000 
#    0.000    0.000    0.000    0.000    0.000    0.000 
#
# Total GULP energy -148769.508794 kJ/mol
# GULP energy per Si atom -12397.459066 kJ/mol
# Density = 2.545054 g / cm^3
# Si number density = 25.508598 Si / 1000 Ang^3
#
#
#
# Elastic Constant Matrix: (Units=GPa)
#
#
# Indices 1 2 3 4 5 6 
#
# 1 62.1623 0.5135 22.7183 -1.0670 11.4514 -2.4129
# 2 0.5135 117.6637 46.9938 8.8124 19.1382 1.8982
# 3 22.7183 46.9938 170.9197 -0.0252 22.8414 3.3787
# 4 -1.0670 8.8124 -0.0252 32.6134 5.8587 0.5866
# 5 11.4514 19.1382 22.8414 5.8587 20.1686 8.7471
# 6 -2.4129 1.8982 3.3787 0.5866 8.7471 21.4858
#
#
#
# Elastic Compliance Matrix: (Units=1/GPa)
#
#
# Indices 1 2 3 4 5 6 
#
# 1 0.020208 0.002945 -0.001321 0.002867 -0.017648 0.009323
# 2 0.002945 0.011178 -0.001991 -0.000906 -0.011686 0.004438
# 3 -0.001321 -0.001991 0.007486 0.001741 -0.007075 0.001683
# 4 0.002867 -0.000906 0.001741 0.033558 -0.014751 0.005217
# 5 -0.017648 -0.011686 -0.007075 -0.014751 0.100485 -0.040343
# 6 0.009323 0.004438 0.001683 0.005217 -0.040343 0.063214
#
#
# Mechanical properties :
#
#
# Convention : Reuss Voigt Hill
#
# Bulk Modulus (GPa) = 26.22089 54.57742 40.39915
# Shear Modulus (GPa) = 20.03396 33.55491 26.79443
#
# Velocity S-wave (km/s) = 2.80550 3.63083 3.24452
# Velocity P-wave (km/s) = 4.56027 6.24655 5.46879
#
# Compressibility (1/GPa) = 0.03813753
#
# Stress axis : x y z
#
# Youngs Moduli (GPa) = 49.48624 89.46026 133.58040
#
# Poissons Ratio (x) = -0.26344 0.17646
# Poissons Ratio (y) = -0.14573 0.26596
# Poissons Ratio (z) = 0.06537 0.17811
#
# Static dielectric constant tensor:
#      x y z
#    x 4.325730 -0.123600 -0.036410 
#    y -0.123600 4.604080 -0.116550 
#    z -0.036410 -0.116550 4.757750 
# 
# 
# High freq. dielectric constant tensor:
#      x y z
#    x 1.990620 0.006040 0.011200 
#    y 0.006040 2.028030 -0.005930 
#    z 0.011200 -0.005930 2.040400 
# 
# From -- ./inp_files/132564.got.cif
#   From: 2010.06.25/outbox.cif.g09.slc.cpg/sg2_67_cif.got.tgz:132564.got - 2010.06.27 13:26:56.
