data_PCOD8023966
_publ_section_title
;
Structure prediction by ZEFSAII (Michael W. Deem and Ramdas Pophale) SiO2 
 PCOD8023966
Probable space group: P -1
;
_chemical_formula_sum "Si O2"
_cell_formula_units_Z 16
_cell_length_a 11.912275
_cell_length_b 12.410634
_cell_length_c 12.487792
_cell_angle_alpha 141.090723
_cell_angle_beta 55.593422
_cell_angle_gamma 133.790495
_cell_volume 835.623444
_symmetry_space_group_name_H-M "P -1"
_symmetry_group_IT_number 2
_symmetry_cell_setting 'triclinic'
loop_
_space_group_symop_operation_xyz
x,y,z
-x,-y,-z
loop_
_atom_site_type_symbol
_atom_site_label
_atom_site_fract_x
_atom_site_fract_y
_atom_site_fract_z
Si Si1 0.830868 0.822222 0.076839
Si Si2 0.680260 0.803283 0.353827
Si Si3 0.453259 0.094444 0.002765
Si Si4 0.282550 0.662097 0.525507
Si Si5 0.506977 0.500302 0.623082
Si Si6 0.858944 0.139783 0.137954
Si Si7 0.368493 0.588101 0.217744
Si Si8 0.575139 0.073111 0.704453
O O1 0.821391 0.853124 0.234179
O O2 0.840318 0.000052 0.140465
O O3 0.676351 0.625737 0.969236
O O4 0.981179 0.795617 0.960174
O O5 0.657292 0.664049 0.361651
O O6 0.523794 0.677829 0.273113
O O7 0.700937 0.007480 0.548934
O O8 0.458068 0.293244 0.189052
O O9 0.579700 0.123101 0.865892
O O10 0.500000 0.000000 0.000000
O O11 0.278516 0.958010 0.950002
O O12 0.353310 0.546945 0.464560
O O13 0.137513 0.662131 0.664712
O O14 0.235348 0.569657 0.360127
O O15 0.405774 0.895713 0.627546
O O16 0.500000 0.500000 0.500000
O O17 0.387354 0.727176 0.217982
#
# Coordination Sequence:
#
# PCOD8023966 Si02
#       8
#     2   2   2   2   2   2   2   2
#     4  11  21  32  52  78 112 144 171 215 257 314
#     4  10  18  31  51  77 107 136 174 215 260 306
#     4  11  20  35  58  78 101 134 176 219 259 310
#     4   9  18  32  50  74 107 138 172 216 258 311
#     4  10  19  33  56  82 101 128 173 223 264 303
#     4  10  21  36  50  76 111 144 176 207 262 310
#     4  10  17  29  50  77 102 134 176 217 262 303
#     4   9  17  30  51  77 102 130 171 221 263 302
#
# _framework density 19.147382
#
# number of rings (size 3 to 8) (size 9 to 14) (size 15 to 20)
#    0.000    2.250    0.000    8.625    0.000    0.500 
#    0.000    1.250    0.000    9.750    0.000    0.000 
#    0.000    0.000    0.000    0.000    0.000    0.000 
#
# Total GULP energy -198246.388715 kJ/mol
# GULP energy per Si atom -12390.399295 kJ/mol
# Density = 1.910380 g / cm^3
# Si number density = 19.147382 Si / 1000 Ang^3
#
#
#
# Elastic Constant Matrix: (Units=GPa)
#
#
# Indices 1 2 3 4 5 6 
#
# 1 62.6810 33.3958 28.0412 -17.9476 -10.7203 -16.3977
# 2 33.3958 86.3633 38.3249 -26.1668 -4.8007 -24.6302
# 3 28.0412 38.3249 141.6897 -28.6706 -15.5025 -8.8416
# 4 -17.9476 -26.1668 -28.6706 41.6036 -3.8197 3.2745
# 5 -10.7203 -4.8007 -15.5025 -3.8197 33.4590 -6.1161
# 6 -16.3977 -24.6302 -8.8416 3.2745 -6.1161 25.3598
#
#
#
# Elastic Compliance Matrix: (Units=1/GPa)
#
#
# Indices 1 2 3 4 5 6 
#
# 1 0.026359 -0.001376 -0.000388 0.010016 0.012367 0.017262
# 2 -0.001376 0.022629 -0.001374 0.011723 0.007321 0.020861
# 3 -0.000388 -0.001374 0.009348 0.005705 0.005056 0.002157
# 4 0.010016 0.011723 0.005705 0.039626 0.015432 0.018456
# 5 0.012367 0.007321 0.005056 0.015432 0.043648 0.025404
# 6 0.017262 0.020861 0.002157 0.018456 0.025404 0.075351
#
#
# Mechanical properties :
#
#
# Convention : Reuss Voigt Hill
#
# Bulk Modulus (GPa) = 19.20789 54.47308 36.84048
# Shear Modulus (GPa) = 20.78235 32.81596 26.79916
#
# Velocity S-wave (km/s) = 3.29810 4.14437 3.74521
# Velocity P-wave (km/s) = 4.95547 7.17023 6.16315
#
# Compressibility (1/GPa) = 0.05206195
#
# Stress axis : x y z
#
# Youngs Moduli (GPa) = 37.93781 44.19153 106.97312
#
# Poissons Ratio (x) = 0.06080 0.04146
# Poissons Ratio (y) = 0.05219 0.14694
# Poissons Ratio (z) = 0.01470 0.06070
#
# Static dielectric constant tensor:
#      x y z
#    x 3.193760 -0.154070 -0.254250 
#    y -0.154070 3.647280 -0.438040 
#    z -0.254250 -0.438040 4.276510 
# 
# 
# High freq. dielectric constant tensor:
#      x y z
#    x 1.695460 -0.024140 -0.017770 
#    y -0.024140 1.734700 -0.015130 
#    z -0.017770 -0.015130 1.779140 
# 
# From -- ./inp_files/262119.got.cif
#   From: 2010.06.25/outbox.cif.g09.slc.cpg/sg2_132_cif.got.tgz:262119.got - 2010.06.27 13:26:56.
