data_PCOD8023920
_publ_section_title
;
Structure prediction by ZEFSAII (Michael W. Deem and Ramdas Pophale) SiO2 
 PCOD8023920
Probable space group: P -1
;
_chemical_formula_sum "Si O2"
_cell_formula_units_Z 14
_cell_length_a 8.781141
_cell_length_b 18.138024
_cell_length_c 6.640803
_cell_angle_alpha 83.990661
_cell_angle_beta 99.087189
_cell_angle_gamma 141.169712
_cell_volume 654.581888
_symmetry_space_group_name_H-M "P -1"
_symmetry_group_IT_number 2
_symmetry_cell_setting 'triclinic'
loop_
_space_group_symop_operation_xyz
x,y,z
-x,-y,-z
loop_
_atom_site_type_symbol
_atom_site_label
_atom_site_fract_x
_atom_site_fract_y
_atom_site_fract_z
Si Si1 0.696250 0.251965 0.368308
Si Si2 0.418387 0.369157 0.706477
Si Si3 0.431171 0.048711 0.085781
Si Si4 0.688516 0.913463 0.331484
Si Si5 0.979967 0.100900 0.643169
Si Si6 0.247113 0.579458 0.911576
Si Si7 0.779980 0.547269 0.395309
O O1 0.626103 0.151002 0.261038
O O2 0.517969 0.199050 0.535822
O O3 0.665761 0.312760 0.205949
O O4 0.969556 0.339102 0.473581
O O5 0.610139 0.439983 0.545816
O O6 0.349516 0.427957 0.728874
O O7 0.174365 0.238220 0.614899
O O8 0.530363 0.367563 0.920396
O O9 0.170325 0.940179 0.171604
O O10 0.429444 0.110304 0.897430
O O11 0.500000 0.000000 0.000000
O O12 0.896478 0.933056 0.310150
O O13 0.801998 0.029207 0.431063
O O14 0.167817 0.487884 0.764209
O O15 0.000000 0.500000 0.000000
#
# Coordination Sequence:
#
# PCOD8023920 Si02
#       7
#     2   2   2   2   2   2   2
#     4  11  25  42  73  97 135 178 225 271 333 393
#     4  11  25  44  68  97 141 173 223 273 338 388
#     4  11  26  42  68 102 133 172 222 272 337 394
#     4  10  23  43  69  95 134 172 226 272 329 392
#     4  10  23  42  67  98 128 180 217 277 326 398
#     4  12  25  43  69 101 132 177 227 271 325 399
#     4  11  26  44  66 101 138 179 219 273 336 395
#
# _framework density 21.387701
#
# number of rings (size 3 to 8) (size 9 to 14) (size 15 to 20)
#    0.000    1.143    1.429    3.000    8.000    4.571 
#    2.571    0.000    0.000    0.000    0.000    0.000 
#    0.000    0.000    0.000    0.000    0.000    0.000 
#
# Total GULP energy -173627.325233 kJ/mol
# GULP energy per Si atom -12401.951802 kJ/mol
# Density = 2.133902 g / cm^3
# Si number density = 21.387701 Si / 1000 Ang^3
#
#
#
# Elastic Constant Matrix: (Units=GPa)
#
#
# Indices 1 2 3 4 5 6 
#
# 1 109.8757 34.1325 44.3094 3.0836 -27.7528 9.9714
# 2 34.1325 131.2439 36.0346 10.7419 -19.1361 25.5428
# 3 44.3094 36.0346 79.6210 19.0490 -14.8342 22.8302
# 4 3.0836 10.7419 19.0490 -4.5355 0.1261 -19.6317
# 5 -27.7528 -19.1361 -14.8342 0.1261 45.5656 2.2603
# 6 9.9714 25.5428 22.8302 -19.6317 2.2603 28.9553
#
#
#
# Elastic Compliance Matrix: (Units=1/GPa)
#
#
# Indices 1 2 3 4 5 6 
#
# 1 0.013007 -0.000577 -0.004649 -0.002143 0.006284 -0.002248
# 2 -0.000577 0.008983 -0.004452 0.005378 0.001993 -0.000725
# 3 -0.004649 -0.004452 0.012118 0.013782 -0.001062 0.005401
# 4 -0.002143 0.005378 0.013782 -0.021447 0.006986 -0.029959
# 5 0.006284 0.001993 -0.001062 0.006986 0.026265 -0.000398
# 6 -0.002248 -0.000725 0.005401 -0.029959 -0.000398 0.011410
#
#
# Mechanical properties :
#
#
# Convention : Reuss Voigt Hill
#
# Bulk Modulus (GPa) = 67.78968 61.07707 64.43338
# Shear Modulus (GPa) = 67.01670 27.74801 47.38236
#
# Velocity S-wave (km/s) = 5.60377 3.60583 4.71191
# Velocity P-wave (km/s) = 8.58103 6.77902 7.73270
#
# Compressibility (1/GPa) = 0.01475151
#
# Stress axis : x y z
#
# Youngs Moduli (GPa) = 76.88449 111.31760 82.52355
#
# Poissons Ratio (x) = 0.06423 0.38365
# Poissons Ratio (y) = 0.04436 0.36740
# Poissons Ratio (z) = 0.35743 0.49559
#
# Static dielectric constant tensor:
#      x y z
#    x 3.937470 0.086410 0.005350 
#    y 0.086410 3.947350 0.063560 
#    z 0.005350 0.063560 4.112140 
# 
# 
# High freq. dielectric constant tensor:
#      x y z
#    x 1.847210 0.001480 -0.007120 
#    y 0.001480 1.849330 0.001890 
#    z -0.007120 0.001890 1.846320 
# 
# From -- ./inp_files/24022.got.cif
#   From: 2010.06.25/outbox.cif.g09.slc.cpg/sg2_13_cif.got.tgz:24022.got - 2010.06.27 13:26:56.
