data_PCOD8023137
_publ_section_title
;
Structure prediction by ZEFSAII (Michael W. Deem and Ramdas Pophale) SiO2 
 PCOD8023137
Probable space group: P -1
;
_chemical_formula_sum "Si O2"
_cell_formula_units_Z 14
_cell_length_a 5.041662
_cell_length_b 19.415116
_cell_length_c 19.357539
_cell_angle_alpha 158.895965
_cell_angle_beta 114.988872
_cell_angle_gamma 73.709145
_cell_volume 579.713852
_symmetry_space_group_name_H-M "P -1"
_symmetry_group_IT_number 2
_symmetry_cell_setting 'triclinic'
loop_
_space_group_symop_operation_xyz
x,y,z
-x,-y,-z
loop_
_atom_site_type_symbol
_atom_site_label
_atom_site_fract_x
_atom_site_fract_y
_atom_site_fract_z
Si Si1 0.636901 0.399042 0.060574
Si Si2 0.606624 0.336582 0.449245
Si Si3 0.347200 0.084186 0.968964
Si Si4 0.340784 0.662385 0.198486
Si Si5 0.063040 0.263795 0.218739
Si Si6 0.664654 0.953837 0.387995
Si Si7 0.683437 0.575983 0.815167
O O1 0.581963 0.547120 0.133848
O O2 0.573139 0.469134 0.194987
O O3 0.989338 0.409469 0.101741
O O4 0.396115 0.165305 0.803376
O O5 0.271671 0.297765 0.341559
O O6 0.868514 0.527433 0.620566
O O7 0.570825 0.388881 0.573921
O O8 0.723621 0.146035 0.278479
O O9 0.128359 0.093260 0.017969
O O10 0.280484 0.208576 0.014289
O O11 0.704208 0.186619 0.130320
O O12 0.411343 0.794325 0.260166
O O13 0.377219 0.826850 0.418453
O O14 0.000000 0.500000 0.000000
O O15 0.000000 0.000000 0.500000
#
# Coordination Sequence:
#
# PCOD8023137 Si02
#       7
#     2   2   2   2   2   2   2
#     4  12  26  46  68  96 142 176 226 268 344 403
#     4  10  23  43  69  95 138 177 228 277 351 383
#     4  11  23  43  67  96 138 172 232 280 340 386
#     4  11  24  45  73 104 135 171 222 291 346 401
#     4  10  23  40  69 104 125 173 234 294 324 403
#     4  11  25  43  75 105 130 171 231 287 343 402
#     4  11  27  42  63  99 136 186 222 271 323 434
#
# _framework density 24.149843000000001
#
# number of rings (size 3 to 8) (size 9 to 14) (size 15 to 20)
#    0.000    1.143    1.429    3.857    4.000   12.000 
#    0.000    0.000    0.000    0.000    0.000    0.000 
#    0.000    0.000    0.000    0.000    0.000    0.000 
#
# Total GULP energy -173646.774163 kJ/mol
# GULP energy per Si atom -12403.341012 kJ/mol
# Density = 2.409488 g / cm^3
# Si number density = 24.149843 Si / 1000 Ang^3
#
#
#
# Elastic Constant Matrix: (Units=GPa)
#
#
# Indices 1 2 3 4 5 6 
#
# 1 73.5423 3.7460 25.2534 -0.8246 -4.3718 -17.1497
# 2 3.7460 68.9884 39.5146 -5.4159 -6.5223 -20.1438
# 3 25.2534 39.5146 162.2855 17.5961 -32.4827 -7.2433
# 4 -0.8246 -5.4159 17.5961 31.3278 -2.4626 -14.0627
# 5 -4.3718 -6.5223 -32.4827 -2.4626 41.8775 3.3955
# 6 -17.1497 -20.1438 -7.2433 -14.0627 3.3955 35.0705
#
#
#
# Elastic Compliance Matrix: (Units=1/GPa)
#
#
# Indices 1 2 3 4 5 6 
#
# 1 0.020055 0.009434 -0.006572 0.014628 -0.002293 0.019956
# 2 0.009434 0.030909 -0.011136 0.025268 -0.003832 0.030569
# 3 -0.006572 -0.011136 0.012350 -0.014565 0.007407 -0.013617
# 4 0.014628 0.025268 -0.014565 0.064670 -0.005692 0.045141
# 5 -0.002293 -0.003832 0.007407 -0.005692 0.029011 -0.006884
# 6 0.019956 0.030569 -0.013617 0.045141 -0.006884 0.071786
#
#
# Mechanical properties :
#
#
# Convention : Reuss Voigt Hill
#
# Bulk Modulus (GPa) = 21.38347 49.09379 35.23863
# Shear Modulus (GPa) = 19.16305 37.40866 28.28585
#
# Velocity S-wave (km/s) = 2.81998 3.94003 3.42609
# Velocity P-wave (km/s) = 4.41325 6.40870 5.50219
#
# Compressibility (1/GPa) = 0.04676509
#
# Stress axis : x y z
#
# Youngs Moduli (GPa) = 49.86247 32.35345 80.97065
#
# Poissons Ratio (x) = -0.30521 0.53214
# Poissons Ratio (y) = -0.47039 0.90170
# Poissons Ratio (z) = 0.32770 0.36029
#
# Static dielectric constant tensor:
#      x y z
#    x 3.515740 -0.979450 -0.965300 
#    y -0.979450 3.408440 -0.499100 
#    z -0.965300 -0.499100 4.545280 
# 
# 
# High freq. dielectric constant tensor:
#      x y z
#    x 1.961950 -0.008770 -0.015380 
#    y -0.008770 1.948630 0.004050 
#    z -0.015380 0.004050 1.975130 
# 
# From -- ./inp_files/584240.got.cif
#   From: 2010.06.25/outbox.cif.g09.slc.cpg/sg2_293_cif.got.tgz:584240.got - 2010.06.27 13:26:56.
