data_PCOD8023176
_publ_section_title
;
Structure prediction by ZEFSAII (Michael W. Deem and Ramdas Pophale) SiO2 
 PCOD8023176
Probable space group: P -1
;
_chemical_formula_sum "Si O2"
_cell_formula_units_Z 16
_cell_length_a 8.346085
_cell_length_b 11.693023
_cell_length_c 14.805880
_cell_angle_alpha 147.085364
_cell_angle_beta 80.715122
_cell_angle_gamma 84.483901
_cell_volume 698.899905
_symmetry_space_group_name_H-M "P -1"
_symmetry_group_IT_number 2
_symmetry_cell_setting 'triclinic'
loop_
_space_group_symop_operation_xyz
x,y,z
-x,-y,-z
loop_
_atom_site_type_symbol
_atom_site_label
_atom_site_fract_x
_atom_site_fract_y
_atom_site_fract_z
Si Si1 0.717088 0.366309 0.075623
Si Si2 0.896077 0.463667 0.399775
Si Si3 0.435296 0.830886 0.342789
Si Si4 0.657849 0.188653 0.279710
Si Si5 0.540290 0.514269 0.656208
Si Si6 0.930897 0.674769 0.896923
Si Si7 0.226014 0.040137 0.326304
Si Si8 0.847395 0.282205 0.603018
O O1 0.600404 0.573888 0.155231
O O2 0.622006 0.415616 0.213343
O O3 0.913478 0.349036 0.063508
O O4 0.734471 0.123915 0.873179
O O5 0.790956 0.313406 0.337495
O O6 0.765923 0.721251 0.545444
O O7 0.000000 0.500000 0.500000
O O8 0.024718 0.324472 0.212753
O O9 0.260493 0.838047 0.415309
O O10 0.500000 0.000000 0.500000
O O11 0.382426 0.914967 0.301741
O O12 0.557201 0.283792 0.447016
O O13 0.509648 0.270640 0.266930
O O14 0.756921 0.912171 0.091141
O O15 0.729094 0.453607 0.647247
O O16 0.889438 0.454936 0.779706
O O17 0.031072 0.085205 0.414971
#
# Coordination Sequence:
#
# PCOD8023176 Si02
#       8
#     2   2   2   2   2   2   2   2
#     4  11  23  44  66  98 133 173 225 277 338 389
#     4  11  22  37  65  98 132 176 227 270 320 395
#     4  11  24  46  73  97 132 172 218 283 338 393
#     4  11  22  40  64  94 136 183 229 263 337 387
#     4  10  23  41  58  93 137 172 227 275 323 390
#     4  11  22  41  68  96 133 181 221 271 331 402
#     4  11  24  43  70 100 134 177 227 271 329 402
#     4  10  23  44  65  98 133 171 224 271 338 394
#
# _framework density 22.89312
#
# number of rings (size 3 to 8) (size 9 to 14) (size 15 to 20)
#    0.000    1.250    1.250    5.625    3.500    0.500 
#    9.000    7.500    0.000    0.000    0.000    0.000 
#    0.000    0.000    0.000    0.000    0.000    0.000 
#
# Total GULP energy -198387.605442 kJ/mol
# GULP energy per Si atom -12399.225340 kJ/mol
# Density = 2.284101 g / cm^3
# Si number density = 22.893120 Si / 1000 Ang^3
#
#
#
# Elastic Constant Matrix: (Units=GPa)
#
#
# Indices 1 2 3 4 5 6 
#
# 1 62.6018 23.9856 28.7971 -9.1659 7.7018 -9.6961
# 2 23.9856 80.6353 36.8897 -8.8120 0.9403 -12.0468
# 3 28.7971 36.8897 159.3994 -4.0886 -14.3484 7.4259
# 4 -9.1659 -8.8120 -4.0886 27.7493 -9.2911 4.4165
# 5 7.7018 0.9403 -14.3484 -9.2911 38.9366 10.5639
# 6 -9.6961 -12.0468 7.4259 4.4165 10.5639 44.3413
#
#
#
# Elastic Compliance Matrix: (Units=1/GPa)
#
#
# Indices 1 2 3 4 5 6 
#
# 1 0.021006 -0.003341 -0.003809 0.002252 -0.006471 0.005641
# 2 -0.003341 0.015827 -0.003345 0.002215 -0.001589 0.004287
# 3 -0.003809 -0.003345 0.008496 0.001545 0.005596 -0.004652
# 4 0.002252 0.002215 0.001545 0.042716 0.011964 -0.006270
# 5 -0.006471 -0.001589 0.005596 0.011964 0.035277 -0.012380
# 6 0.005641 0.004287 -0.004652 -0.006270 -0.012380 0.029303
#
#
# Mechanical properties :
#
#
# Convention : Reuss Voigt Hill
#
# Bulk Modulus (GPa) = 41.08900 53.55349 47.32124
# Shear Modulus (GPa) = 27.51354 36.40305 31.95830
#
# Velocity S-wave (km/s) = 3.47050 3.99197 3.74033
# Velocity P-wave (km/s) = 5.83492 6.68516 6.27446
#
# Compressibility (1/GPa) = 0.02433741
#
# Stress axis : x y z
#
# Youngs Moduli (GPa) = 47.60544 63.18360 117.70366
#
# Poissons Ratio (x) = 0.21113 0.44835
# Poissons Ratio (y) = 0.15907 0.39372
# Poissons Ratio (z) = 0.18134 0.21135
#
# Static dielectric constant tensor:
#      x y z
#    x 4.320110 -0.313530 -0.078330 
#    y -0.313530 4.147960 -0.024780 
#    z -0.078330 -0.024780 4.178290 
# 
# 
# High freq. dielectric constant tensor:
#      x y z
#    x 1.914620 -0.018750 -0.002780 
#    y -0.018750 1.895620 -0.003490 
#    z -0.002780 -0.003490 1.908420 
# 
# From -- ./inp_files/501187.got.cif
#   From: 2010.06.25/outbox.cif.g09.slc.cpg/sg2_251_cif.got.tgz:501187.got - 2010.06.27 13:26:56.
