data_PCOD8023424
_publ_section_title
;
Structure prediction by ZEFSAII (Michael W. Deem and Ramdas Pophale) SiO2 
 PCOD8023424
Probable space group: P -1
;
_chemical_formula_sum "Si O2"
_cell_formula_units_Z 16
_cell_length_a 15.092396
_cell_length_b 8.939572
_cell_length_c 9.322817
_cell_angle_alpha 67.902145
_cell_angle_beta 142.352323
_cell_angle_gamma 104.589221
_cell_volume 709.499186
_symmetry_space_group_name_H-M "P -1"
_symmetry_group_IT_number 2
_symmetry_cell_setting 'triclinic'
loop_
_space_group_symop_operation_xyz
x,y,z
-x,-y,-z
loop_
_atom_site_type_symbol
_atom_site_label
_atom_site_fract_x
_atom_site_fract_y
_atom_site_fract_z
Si Si1 0.155560 0.906274 0.913182
Si Si2 0.684847 0.754591 0.507535
Si Si3 0.062252 0.447427 0.448710
Si Si4 0.552328 0.413944 0.867370
Si Si5 0.675257 0.355385 0.347787
Si Si6 0.147704 0.115721 0.576357
Si Si7 0.210082 0.536762 0.072828
Si Si8 0.176498 0.979471 0.223409
O O1 0.979401 0.946096 0.665186
O O2 0.221763 0.975556 0.825824
O O3 0.203089 0.717999 0.057369
O O4 0.214261 0.990459 0.099279
O O5 0.516520 0.720529 0.275553
O O6 0.734045 0.808488 0.395765
O O7 0.753362 0.578183 0.704418
O O8 0.729336 0.884503 0.634494
O O9 0.216129 0.507325 0.586807
O O10 0.073487 0.252831 0.536582
O O11 0.000000 0.500000 0.500000
O O12 0.947335 0.512542 0.158330
O O13 0.443746 0.570679 0.716760
O O14 0.679042 0.486977 0.910646
O O15 0.606953 0.321932 0.116104
O O16 0.762086 0.191450 0.571341
O O17 0.000000 0.000000 0.000000
#
# Coordination Sequence:
#
# PCOD8023424 Si02
#       8
#     2   2   2   2   2   2   2   2
#     4  10  24  43  67 101 146 181 229 305 358 412
#     4  12  25  44  71 102 140 189 238 290 354 432
#     4  11  22  39  74 105 136 182 245 299 354 415
#     4  11  25  48  69 102 148 197 235 288 357 446
#     4  11  25  45  73 104 145 190 239 293 360 427
#     4  10  23  41  67 104 141 183 233 291 361 420
#     4  11  25  44  73 101 141 187 242 295 357 419
#     4  12  26  43  72 107 145 179 243 308 356 413
#
# _framework density 22.551119
#
# number of rings (size 3 to 8) (size 9 to 14) (size 15 to 20)
#    0.000    1.000    3.750    1.875    5.250    1.500 
#    0.000    1.250    0.000    0.000    0.000    0.000 
#    0.000    0.000    0.000    0.000    0.000    0.000 
#
# Total GULP energy -198308.474903 kJ/mol
# GULP energy per Si atom -12394.279681 kJ/mol
# Density = 2.249979 g / cm^3
# Si number density = 22.551119 Si / 1000 Ang^3
#
#
#
# Elastic Constant Matrix: (Units=GPa)
#
#
# Indices 1 2 3 4 5 6 
#
# 1 48.9360 20.9978 14.3178 -3.9155 -6.6568 -1.4994
# 2 20.9978 108.5052 62.8216 13.1750 -13.5677 0.6507
# 3 14.3178 62.8216 126.7037 2.1938 -13.8078 -1.5975
# 4 -3.9155 13.1750 2.1938 47.8308 3.5280 -11.5347
# 5 -6.6568 -13.5677 -13.8078 3.5280 38.7334 -1.2051
# 6 -1.4994 0.6507 -1.5975 -11.5347 -1.2051 31.6292
#
#
#
# Elastic Compliance Matrix: (Units=1/GPa)
#
#
# Indices 1 2 3 4 5 6 
#
# 1 0.023094 -0.004586 -0.000142 0.003632 0.002062 0.002585
# 2 -0.004586 0.014785 -0.006492 -0.004948 0.002447 -0.002561
# 3 -0.000142 -0.006492 0.011297 0.001448 0.001637 0.001288
# 4 0.003632 -0.004948 0.001448 0.024945 -0.002574 0.009346
# 5 0.002062 0.002447 0.001637 -0.002574 0.027855 0.000253
# 6 0.002585 -0.002561 0.001288 0.009346 0.000253 0.035275
#
#
# Mechanical properties :
#
#
# Convention : Reuss Voigt Hill
#
# Bulk Modulus (GPa) = 37.40186 53.37993 45.39090
# Shear Modulus (GPa) = 29.65582 36.03919 32.84751
#
# Velocity S-wave (km/s) = 3.63029 4.00198 3.82066
# Velocity P-wave (km/s) = 5.84751 6.71390 6.29563
#
# Compressibility (1/GPa) = 0.02673664
#
# Stress axis : x y z
#
# Youngs Moduli (GPa) = 43.30082 67.63822 88.52029
#
# Poissons Ratio (x) = 0.31018 0.01253
# Poissons Ratio (y) = 0.19857 0.57468
# Poissons Ratio (z) = 0.00613 0.43911
#
# Static dielectric constant tensor:
#      x y z
#    x 3.802820 -0.349320 -0.337720 
#    y -0.349320 3.922220 0.160370 
#    z -0.337720 0.160370 4.472330 
# 
# 
# High freq. dielectric constant tensor:
#      x y z
#    x 1.881180 -0.002090 -0.013540 
#    y -0.002090 1.889750 0.007690 
#    z -0.013540 0.007690 1.901750 
# 
# From -- ./inp_files/298038.got.cif
#   From: 2010.06.25/outbox.cif.g09.slc.cpg/sg2_150_cif.got.tgz:298038.got - 2010.06.27 13:26:56.
