data_PCOD8023230
_publ_section_title
;
Structure prediction by ZEFSAII (Michael W. Deem and Ramdas Pophale) SiO2 
 PCOD8023230
Probable space group: P -1
;
_chemical_formula_sum "Si O2"
_cell_formula_units_Z 12
_cell_length_a 9.152907
_cell_length_b 5.027537
_cell_length_c 15.030968
_cell_angle_alpha 94.488707
_cell_angle_beta 72.670790
_cell_angle_gamma 120.864110
_cell_volume 564.423716
_symmetry_space_group_name_H-M "P -1"
_symmetry_group_IT_number 2
_symmetry_cell_setting 'triclinic'
loop_
_space_group_symop_operation_xyz
x,y,z
-x,-y,-z
loop_
_atom_site_type_symbol
_atom_site_label
_atom_site_fract_x
_atom_site_fract_y
_atom_site_fract_z
Si Si1 0.188331 0.670225 0.719051
Si Si2 0.605211 0.634268 0.254061
Si Si3 0.213885 0.774417 0.202188
Si Si4 0.580167 0.571431 0.890164
Si Si5 0.909679 0.211609 0.444039
Si Si6 0.236191 0.149129 0.372130
O O1 0.271431 0.455488 0.715145
O O2 0.195405 0.735246 0.613939
O O3 0.988184 0.492108 0.788675
O O4 0.303980 0.995625 0.756951
O O5 0.577247 0.506537 0.154486
O O6 0.412325 0.482314 0.332673
O O7 0.342347 0.645417 0.154840
O O8 0.237289 0.882815 0.304159
O O9 0.266549 0.067014 0.135764
O O10 0.500000 0.500000 0.000000
O O11 0.000000 0.500000 0.500000
O O12 0.060772 0.155448 0.373020
O O13 0.771611 0.922334 0.523085
#
# Coordination Sequence:
#
# PCOD8023230 Si02
#       6
#     2   2   2   2   2   2
#     4  12  24  41  62  98 133 171 202 269 318 368
#     4  11  25  41  64  94 134 160 212 269 332 360
#     4  11  22  43  70  92 130 173 211 250 327 388
#     4  11  24  46  73  96 120 166 218 262 314 402
#     4  11  23  39  66  89 131 174 235 246 301 382
#     4  10  23  41  63  93 126 182 218 261 301 383
#
# _framework density 21.260621
#
# number of rings (size 3 to 8) (size 9 to 14) (size 15 to 20)
#    0.000    1.000    1.667    6.500    4.667    1.333 
#    0.000    5.000    0.000    0.000    0.000    0.000 
#    0.000    0.000    0.000    0.000    0.000    0.000 
#
# Total GULP energy -148843.114877 kJ/mol
# GULP energy per Si atom -12403.592906 kJ/mol
# Density = 2.121223 g / cm^3
# Si number density = 21.260621 Si / 1000 Ang^3
#
#
#
# Elastic Constant Matrix: (Units=GPa)
#
#
# Indices 1 2 3 4 5 6 
#
# 1 79.9052 22.0817 59.1977 -3.5788 -8.1835 -6.0110
# 2 22.0817 130.8108 37.8389 -6.3875 -7.8053 13.7242
# 3 59.1977 37.8389 131.0554 -20.3425 -1.6878 4.3750
# 4 -3.5788 -6.3875 -20.3425 29.2502 -8.1554 -4.0693
# 5 -8.1835 -7.8053 -1.6878 -8.1554 34.0050 5.0333
# 6 -6.0110 13.7242 4.3750 -4.0693 5.0333 42.9952
#
#
#
# Elastic Compliance Matrix: (Units=1/GPa)
#
#
# Indices 1 2 3 4 5 6 
#
# 1 0.020149 -0.001034 -0.009340 -0.002957 0.002924 0.003475
# 2 -0.001034 0.008838 -0.001838 0.000755 0.002310 -0.002978
# 3 -0.009340 -0.001838 0.013632 0.007765 0.000073 -0.001380
# 4 -0.002957 0.000755 0.007765 0.042317 0.009786 0.001415
# 5 0.002924 0.002310 0.000073 0.009786 0.033485 -0.003330
# 6 0.003475 -0.002978 -0.001380 0.001415 -0.003330 0.025359
#
#
# Mechanical properties :
#
#
# Convention : Reuss Voigt Hill
#
# Bulk Modulus (GPa) = 54.96240 64.44533 59.70386
# Shear Modulus (GPa) = 28.69131 36.09363 32.39247
#
# Velocity S-wave (km/s) = 3.67755 4.12476 3.90755
# Velocity P-wave (km/s) = 6.62875 7.28441 6.96430
#
# Compressibility (1/GPa) = 0.01819426
#
# Stress axis : x y z
#
# Youngs Moduli (GPa) = 49.63142 113.14687 73.35515
#
# Poissons Ratio (x) = 0.11699 0.68513
# Poissons Ratio (y) = 0.05132 0.13485
# Poissons Ratio (z) = 0.46355 0.20801
#
# Static dielectric constant tensor:
#      x y z
#    x 4.020940 -0.100900 0.106420 
#    y -0.100900 4.110390 -0.209710 
#    z 0.106420 -0.209710 4.035810 
# 
# 
# High freq. dielectric constant tensor:
#      x y z
#    x 1.829760 -0.010870 -0.002870 
#    y -0.010870 1.854170 -0.008410 
#    z -0.002870 -0.008410 1.816550 
# 
# From -- ./inp_files/33804.got.cif
#   From: 2010.06.25/outbox.cif.g09.slc.cpg/sg2_17_cif.got.tgz:33804.got - 2010.06.27 13:26:56.
