data_PCOD8023027
_publ_section_title
;
Structure prediction by ZEFSAII (Michael W. Deem and Ramdas Pophale) SiO2 
 PCOD8023027
Probable space group: P -1
;
_chemical_formula_sum "Si O2"
_cell_formula_units_Z 16
_cell_length_a 13.138127
_cell_length_b 29.969202
_cell_length_c 19.290548
_cell_angle_alpha 161.298791
_cell_angle_beta 161.396549
_cell_angle_gamma 27.945692
_cell_volume 769.266218
_symmetry_space_group_name_H-M "P -1"
_symmetry_group_IT_number 2
_symmetry_cell_setting 'triclinic'
loop_
_space_group_symop_operation_xyz
x,y,z
-x,-y,-z
loop_
_atom_site_type_symbol
_atom_site_label
_atom_site_fract_x
_atom_site_fract_y
_atom_site_fract_z
Si Si1 0.279785 0.121801 0.305527
Si Si2 0.862037 0.644254 0.624466
Si Si3 0.596111 0.406420 0.627697
Si Si4 0.320412 0.532493 0.500778
Si Si5 0.105345 0.305845 0.724836
Si Si6 0.317328 0.852088 0.141106
Si Si7 0.382131 0.610660 0.139593
Si Si8 0.137113 0.815354 0.755285
O O1 0.581613 0.235249 0.645706
O O2 0.194360 0.153233 0.376274
O O3 0.952630 0.134709 0.070697
O O4 0.375690 0.964760 0.127822
O O5 0.709731 0.671119 0.641282
O O6 0.588407 0.629685 0.369397
O O7 0.000000 0.500000 0.500000
O O8 0.144107 0.771624 0.977829
O O9 0.506199 0.492578 0.629384
O O10 0.831218 0.294278 0.591485
O O11 0.785461 0.528837 0.978675
O O12 0.500000 0.500000 0.500000
O O13 0.289500 0.698024 0.724620
O O14 0.978827 0.435659 0.138755
O O15 0.412410 0.235219 0.843851
O O16 0.941677 0.232991 0.444308
O O17 0.500000 0.000000 0.500000
O O18 0.500000 0.500000 0.000000
#
# Coordination Sequence:
#
# PCOD8023027 Si02
#       8
#     2   2   2   2   2   2   2   2
#     4  10  23  40  65  95 129 163 213 263 325 378
#     4  11  23  39  64  95 127 163 213 268 314 375
#     4  11  24  40  62  99 128 168 213 266 323 377
#     4  12  24  40  66  94 128 171 214 261 318 380
#     4  11  22  38  67  92 131 161 213 263 323 376
#     4  11  22  41  67  96 125 166 209 264 320 383
#     4  11  23  40  63  93 127 163 213 268 315 372
#     4  11  21  40  64  95 125 168 210 262 320 378
#
# _framework density 20.799040999999999
#
# number of rings (size 3 to 8) (size 9 to 14) (size 15 to 20)
#    0.000    1.000    5.000    2.250    1.750    1.000 
#    0.000    1.250    0.000    0.000    0.000    0.000 
#    0.000    0.000    0.000    0.000    0.000    0.000 
#
# Total GULP energy -198349.118318 kJ/mol
# GULP energy per Si atom -12396.819895 kJ/mol
# Density = 2.075170 g / cm^3
# Si number density = 20.799041 Si / 1000 Ang^3
#
#
#
# Elastic Constant Matrix: (Units=GPa)
#
#
# Indices 1 2 3 4 5 6 
#
# 1 133.6892 44.6137 55.1981 16.7126 23.5109 -21.7149
# 2 44.6137 98.0925 49.1051 16.9291 22.0338 -13.3289
# 3 55.1981 49.1051 115.5316 27.2928 28.4804 -13.2551
# 4 16.7126 16.9291 27.2928 34.4761 0.2501 4.9620
# 5 23.5109 22.0338 28.4804 0.2501 40.4254 2.7830
# 6 -21.7149 -13.3289 -13.2551 4.9620 2.7830 34.4266
#
#
#
# Elastic Compliance Matrix: (Units=1/GPa)
#
#
# Indices 1 2 3 4 5 6 
#
# 1 0.011195 -0.001443 -0.001698 -0.004327 -0.004975 0.006875
# 2 -0.001443 0.015052 -0.002259 -0.005630 -0.006107 0.005353
# 3 -0.001698 -0.002259 0.016481 -0.012041 -0.009795 0.006927
# 4 -0.004327 -0.005630 -0.012041 0.045789 0.014980 -0.017356
# 5 -0.004975 -0.006107 -0.009795 0.014980 0.038770 -0.014567
# 6 0.006875 0.005353 0.006927 -0.017356 -0.014567 0.041802
#
#
# Mechanical properties :
#
#
# Convention : Reuss Voigt Hill
#
# Bulk Modulus (GPa) = 31.31990 71.68300 51.50145
# Shear Modulus (GPa) = 26.24235 35.09205 30.66720
#
# Velocity S-wave (km/s) = 3.55591 4.11200 3.84403
# Velocity P-wave (km/s) = 5.65246 7.55541 6.67213
#
# Compressibility (1/GPa) = 0.03192858
#
# Stress axis : x y z
#
# Youngs Moduli (GPa) = 89.32373 66.43485 60.67731
#
# Poissons Ratio (x) = 0.09589 0.10303
# Poissons Ratio (y) = 0.12892 0.13704
# Poissons Ratio (z) = 0.15167 0.15004
#
# Static dielectric constant tensor:
#      x y z
#    x 4.153870 -0.080560 0.049230 
#    y -0.080560 4.041330 0.201430 
#    z 0.049230 0.201430 3.834880 
# 
# 
# High freq. dielectric constant tensor:
#      x y z
#    x 1.822130 0.003380 -0.004820 
#    y 0.003380 1.805220 0.003990 
#    z -0.004820 0.003990 1.811630 
# 
# From -- ./inp_files/321058.got.cif
#   From: 2010.06.25/outbox.cif.g09.slc.cpg/sg2_161_cif.got.tgz:321058.got - 2010.06.27 13:26:56.
