data_PCOD8023588
_publ_section_title
;
Structure prediction by ZEFSAII (Michael W. Deem and Ramdas Pophale) SiO2 
 PCOD8023588
Probable space group: P -1
;
_chemical_formula_sum "Si O2"
_cell_formula_units_Z 14
_cell_length_a 10.218793
_cell_length_b 5.266894
_cell_length_c 20.165194
_cell_angle_alpha 117.576307
_cell_angle_beta 140.471577
_cell_angle_gamma 62.543133
_cell_volume 601.790237
_symmetry_space_group_name_H-M "P -1"
_symmetry_group_IT_number 2
_symmetry_cell_setting 'triclinic'
loop_
_space_group_symop_operation_xyz
x,y,z
-x,-y,-z
loop_
_atom_site_type_symbol
_atom_site_label
_atom_site_fract_x
_atom_site_fract_y
_atom_site_fract_z
Si Si1 0.770519 0.888739 0.531117
Si Si2 0.445940 0.592002 0.416622
Si Si3 0.542700 0.718387 0.174743
Si Si4 0.444068 0.001081 0.311072
Si Si5 0.811810 0.109715 0.249167
Si Si6 0.960738 0.157227 0.824170
Si Si7 0.904374 0.235069 0.044802
O O1 0.712424 0.101233 0.598440
O O2 0.671039 0.000337 0.434214
O O3 0.665983 0.607768 0.468991
O O4 0.022412 0.812910 0.621551
O O5 0.500000 0.500000 0.500000
O O6 0.337219 0.346145 0.307976
O O7 0.676549 0.406159 0.205839
O O8 0.462375 0.879398 0.230311
O O9 0.672665 0.910929 0.206741
O O10 0.345312 0.675984 0.048803
O O11 0.294749 0.827565 0.275996
O O12 0.926209 0.932301 0.211264
O O13 0.001835 0.475026 0.897561
O O14 0.044727 0.909292 0.881039
O O15 0.000000 0.000000 0.000000
#
# Coordination Sequence:
#
# PCOD8023588 Si02
#       7
#     2   2   2   2   2   2   2
#     4  10  23  41  71 102 152 187 245 292 352 434
#     4   9  19  39  67 103 137 185 249 294 336 417
#     4  12  30  48  72 107 152 187 243 303 365 435
#     4  11  26  43  77 106 143 195 250 291 358 429
#     4  12  29  48  71 111 152 194 233 294 372 434
#     4  12  27  47  84 106 141 196 244 297 368 427
#     4  12  27  50  80 110 140 183 251 313 357 422
#
# _framework density 23.263922999999998
#
# number of rings (size 3 to 8) (size 9 to 14) (size 15 to 20)
#    0.000    0.857    1.429    4.714   14.000    4.571 
#    0.000    0.000    0.000    0.000    0.000    0.000 
#    0.000    0.000    0.000    0.000    0.000    0.000 
#
# Total GULP energy -173519.308777 kJ/mol
# GULP energy per Si atom -12394.236341 kJ/mol
# Density = 2.321097 g / cm^3
# Si number density = 23.263923 Si / 1000 Ang^3
#
#
#
# Elastic Constant Matrix: (Units=GPa)
#
#
# Indices 1 2 3 4 5 6 
#
# 1 119.4340 32.8452 33.7153 15.1224 9.3115 12.8476
# 2 32.8452 127.3934 62.3148 18.1451 22.3670 18.3813
# 3 33.7153 62.3148 148.9767 -10.1594 32.1374 3.4797
# 4 15.1224 18.1451 -10.1594 54.5025 0.6437 1.9550
# 5 9.3115 22.3670 32.1374 0.6437 44.6521 8.3809
# 6 12.8476 18.3813 3.4797 1.9550 8.3809 38.3747
#
#
#
# Elastic Compliance Matrix: (Units=1/GPa)
#
#
# Indices 1 2 3 4 5 6 
#
# 1 0.009785 -0.000794 -0.002095 -0.002751 0.000403 -0.002653
# 2 -0.000794 0.011869 -0.004652 -0.004421 -0.001535 -0.004437
# 3 -0.002095 -0.004652 0.010506 0.004046 -0.005407 0.002951
# 4 -0.002751 -0.004421 0.004046 0.021283 -0.000760 0.001753
# 5 0.000403 -0.001535 -0.005407 -0.000760 0.027915 -0.004967
# 6 -0.002653 -0.004437 0.002951 0.001753 -0.004967 0.029800
#
#
# Mechanical properties :
#
#
# Convention : Reuss Voigt Hill
#
# Bulk Modulus (GPa) = 58.55291 72.61720 65.58505
# Shear Modulus (GPa) = 37.89833 45.30113 41.59973
#
# Velocity S-wave (km/s) = 4.04054 4.41758 4.23326
# Velocity P-wave (km/s) = 6.85504 7.56982 7.22128
#
# Compressibility (1/GPa) = 0.01707857
#
# Stress axis : x y z
#
# Youngs Moduli (GPa) = 102.19882 84.25071 95.18823
#
# Poissons Ratio (x) = 0.06692 0.19939
# Poissons Ratio (y) = 0.08117 0.44278
# Poissons Ratio (z) = 0.21407 0.39190
#
# Static dielectric constant tensor:
#      x y z
#    x 4.250350 -0.234020 -0.011210 
#    y -0.234020 4.608250 0.529590 
#    z -0.011210 0.529590 4.748510 
# 
# 
# High freq. dielectric constant tensor:
#      x y z
#    x 1.912540 0.019890 -0.005000 
#    y 0.019890 1.933800 -0.000950 
#    z -0.005000 -0.000950 1.943220 
# 
# From -- ./inp_files/293778.got.cif
#   From: 2010.06.25/outbox.cif.g09.slc.cpg/sg2_147_cif.got.tgz:293778.got - 2010.06.27 13:26:56.
