data_PCOD8023167
_publ_section_title
;
Structure prediction by ZEFSAII (Michael W. Deem and Ramdas Pophale) SiO2 
 PCOD8023167
Probable space group: P -1
;
_chemical_formula_sum "Si O2"
_cell_formula_units_Z 12
_cell_length_a 15.758993
_cell_length_b 9.665577
_cell_length_c 8.934615
_cell_angle_alpha 45.462682
_cell_angle_beta 63.835195
_cell_angle_gamma 36.526073
_cell_volume 552.706967
_symmetry_space_group_name_H-M "P -1"
_symmetry_group_IT_number 2
_symmetry_cell_setting 'triclinic'
loop_
_space_group_symop_operation_xyz
x,y,z
-x,-y,-z
loop_
_atom_site_type_symbol
_atom_site_label
_atom_site_fract_x
_atom_site_fract_y
_atom_site_fract_z
Si Si1 0.562315 0.780060 0.481238
Si Si2 0.157034 0.843593 0.166187
Si Si3 0.105181 0.065994 0.351353
Si Si4 0.727912 0.826133 0.767798
Si Si5 0.217268 0.466760 0.750888
Si Si6 0.966578 0.340793 0.712025
O O1 0.664619 0.449029 0.725851
O O2 0.665107 0.743858 0.315775
O O3 0.500000 0.000000 0.500000
O O4 0.430611 0.896104 0.399540
O O5 0.089056 0.730513 0.311463
O O6 0.089132 0.077719 0.175507
O O7 0.119409 0.013780 0.912417
O O8 0.219550 0.043274 0.334134
O O9 0.937737 0.391889 0.285692
O O10 0.170130 0.763596 0.596470
O O11 0.840259 0.541882 0.784145
O O12 0.709659 0.733148 0.004245
O O13 0.000000 0.500000 0.500000
#
# Coordination Sequence:
#
# PCOD8023167 Si02
#       6
#     2   2   2   2   2   2
#     4  11  24  45  66  98 140 178 213 274 342 394
#     4  10  23  45  65  95 140 171 222 271 335 385
#     4  10  23  40  72 100 127 170 230 275 320 393
#     4  12  24  42  69 102 131 173 228 268 331 400
#     4  10  23  42  70  95 136 174 217 275 333 383
#     4  11  25  40  69 100 132 177 224 272 325 398
#
# _framework density 21.711324000000001
#
# number of rings (size 3 to 8) (size 9 to 14) (size 15 to 20)
#    0.000    1.333    3.333    1.000    7.000    2.667 
#    0.000    2.500    0.000    0.000    0.000    0.000 
#    0.000    0.000    0.000    0.000    0.000    0.000 
#
# Total GULP energy -148756.844938 kJ/mol
# GULP energy per Si atom -12396.403745 kJ/mol
# Density = 2.166191 g / cm^3
# Si number density = 21.711324 Si / 1000 Ang^3
#
#
#
# Elastic Constant Matrix: (Units=GPa)
#
#
# Indices 1 2 3 4 5 6 
#
# 1 162.7478 50.6494 61.1911 -4.8898 20.3346 -8.1320
# 2 50.6494 137.6417 31.3129 13.3789 13.5990 -14.1354
# 3 61.1911 31.3129 133.4984 -10.7587 21.6184 -21.9200
# 4 -4.8898 13.3789 -10.7587 27.9370 -4.3570 4.1632
# 5 20.3346 13.5990 21.6184 -4.3570 34.6852 -8.0850
# 6 -8.1320 -14.1354 -21.9200 4.1632 -8.0850 23.2385
#
#
#
# Elastic Compliance Matrix: (Units=1/GPa)
#
#
# Indices 1 2 3 4 5 6 
#
# 1 0.008327 -0.002533 -0.003164 0.001486 -0.002359 -0.002698
# 2 -0.002533 0.009591 -0.000510 -0.006227 -0.001566 0.005037
# 3 -0.003164 -0.000510 0.010924 0.002354 -0.002704 0.007524
# 4 0.001486 -0.006227 0.002354 0.041589 0.003642 -0.007231
# 5 -0.002359 -0.001566 -0.002704 0.003642 0.034617 0.007063
# 6 -0.002698 0.005037 0.007524 -0.007231 0.007063 0.056002
#
#
# Mechanical properties :
#
#
# Convention : Reuss Voigt Hill
#
# Bulk Modulus (GPa) = 60.87184 80.02163 70.44674
# Shear Modulus (GPa) = 27.94266 36.55445 32.24856
#
# Velocity S-wave (km/s) = 3.59138 4.10769 3.85818
# Velocity P-wave (km/s) = 6.73017 7.70939 7.23636
#
# Compressibility (1/GPa) = 0.01642796
#
# Stress axis : x y z
#
# Youngs Moduli (GPa) = 120.09269 104.26924 91.54522
#
# Poissons Ratio (x) = 0.26410 0.28964
# Poissons Ratio (y) = 0.30418 0.04667
# Poissons Ratio (z) = 0.37996 0.05315
#
# Static dielectric constant tensor:
#      x y z
#    x 3.958880 -0.071330 0.285450 
#    y -0.071330 4.043500 0.006490 
#    z 0.285450 0.006490 4.008580 
# 
# 
# High freq. dielectric constant tensor:
#      x y z
#    x 1.848390 0.005230 0.022300 
#    y 0.005230 1.852140 -0.001160 
#    z 0.022300 -0.001160 1.858620 
# 
# From -- ./inp_files/293945.got.cif
#   From: 2010.06.25/outbox.cif.g09.slc.cpg/sg2_147_cif.got.tgz:293945.got - 2010.06.27 13:26:56.
