data_PCOD8023088
_publ_section_title
;
Structure prediction by ZEFSAII (Michael W. Deem and Ramdas Pophale) SiO2 
 PCOD8023088
Probable space group: P -1
;
_chemical_formula_sum "Si O2"
_cell_formula_units_Z 16
_cell_length_a 16.289857
_cell_length_b 8.993355
_cell_length_c 8.435741
_cell_angle_alpha 113.848349
_cell_angle_beta 141.604990
_cell_angle_gamma 86.303455
_cell_volume 628.908870
_symmetry_space_group_name_H-M "P -1"
_symmetry_group_IT_number 2
_symmetry_cell_setting 'triclinic'
loop_
_space_group_symop_operation_xyz
x,y,z
-x,-y,-z
loop_
_atom_site_type_symbol
_atom_site_label
_atom_site_fract_x
_atom_site_fract_y
_atom_site_fract_z
Si Si1 0.276530 0.660480 0.555743
Si Si2 0.576098 0.033093 0.304303
Si Si3 0.834764 0.270798 0.024626
Si Si4 0.087821 0.846191 0.351835
Si Si5 0.237323 0.298813 0.220553
Si Si6 0.245451 0.166523 0.521986
Si Si7 0.295075 0.021003 0.028126
Si Si8 0.176168 0.463009 0.635278
O O1 0.413389 0.863911 0.810779
O O2 0.125758 0.677937 0.299245
O O3 0.304335 0.516567 0.428131
O O4 0.270886 0.615225 0.713747
O O5 0.444311 0.005833 0.210069
O O6 0.599907 0.850443 0.248410
O O7 0.726060 0.192047 0.677438
O O8 0.814453 0.438940 0.141979
O O9 0.006898 0.346570 0.268759
O O10 0.795792 0.112588 0.026707
O O11 0.115011 0.972554 0.292596
O O12 0.922584 0.769722 0.131457
O O13 0.196184 0.976115 0.704545
O O14 0.210752 0.213314 0.316816
O O15 0.334332 0.227657 0.231713
O O16 0.252547 0.328325 0.717061
#
# Coordination Sequence:
#
# PCOD8023088 Si02
#       8
#     2   2   2   2   2   2   2   2
#     4  10  24  41  67  98 128 170 211 278 320 383
#     4  11  26  43  69  90 135 182 215 255 325 397
#     4  11  23  41  69  96 129 172 209 276 325 380
#     4  11  23  41  68  94 133 165 220 275 322 379
#     4  11  23  39  70  98 127 165 224 272 326 373
#     4  10  23  40  67  98 125 173 214 269 317 390
#     4  12  25  45  62  98 135 177 217 258 326 394
#     4  10  23  43  69 100 130 158 224 276 330 368
#
# _framework density 25.440885999999999
#
# number of rings (size 3 to 8) (size 9 to 14) (size 15 to 20)
#    0.000    1.250    2.500    2.250    8.750    3.500 
#    0.000    1.875    0.000    0.000    0.000    0.000 
#    0.000    0.000    0.000    0.000    0.000    0.000 
#
# Total GULP energy -198351.022441 kJ/mol
# GULP energy per Si atom -12396.938903 kJ/mol
# Density = 2.538298 g / cm^3
# Si number density = 25.440886 Si / 1000 Ang^3
#
#
#
# Elastic Constant Matrix: (Units=GPa)
#
#
# Indices 1 2 3 4 5 6 
#
# 1 112.2402 66.5102 18.9635 6.2501 19.1184 -31.5515
# 2 66.5102 180.1306 32.0905 5.9468 7.2354 -41.9970
# 3 18.9635 32.0905 59.2334 1.7506 8.7859 -10.8301
# 4 6.2501 5.9468 1.7506 28.5557 -1.3921 3.0140
# 5 19.1184 7.2354 8.7859 -1.3921 32.4070 4.0906
# 6 -31.5515 -41.9970 -10.8301 3.0140 4.0906 64.2785
#
#
#
# Elastic Compliance Matrix: (Units=1/GPa)
#
#
# Indices 1 2 3 4 5 6 
#
# 1 0.014099 -0.003474 -0.000345 -0.003300 -0.008255 0.005272
# 2 -0.003474 0.008060 -0.002736 -0.001052 0.000554 0.003114
# 3 -0.000345 -0.002736 0.019511 -0.000958 -0.004728 0.001676
# 4 -0.003300 -0.001052 -0.000958 0.036716 0.004584 -0.004482
# 5 -0.008255 0.000554 -0.004728 0.004584 0.037981 -0.007119
# 6 0.005272 0.003114 0.001676 -0.004482 -0.007119 0.021125
#
#
# Mechanical properties :
#
#
# Convention : Reuss Voigt Hill
#
# Bulk Modulus (GPa) = 35.01593 65.19252 50.10422
# Shear Modulus (GPa) = 31.22572 40.65091 35.93831
#
# Velocity S-wave (km/s) = 3.50720 4.00166 3.76256
# Velocity P-wave (km/s) = 5.49492 6.85797 6.21393
#
# Compressibility (1/GPa) = 0.02855843
#
# Stress axis : x y z
#
# Youngs Moduli (GPa) = 70.92879 124.06413 51.25237
#
# Poissons Ratio (x) = 0.43105 0.01770
# Poissons Ratio (y) = 0.24643 0.14023
# Poissons Ratio (z) = 0.02450 0.33946
#
# Static dielectric constant tensor:
#      x y z
#    x 4.895270 -0.303750 -0.170990 
#    y -0.303750 5.041480 0.038900 
#    z -0.170990 0.038900 4.578450 
# 
# 
# High freq. dielectric constant tensor:
#      x y z
#    x 2.024920 -0.011690 -0.007270 
#    y -0.011690 2.034600 0.001400 
#    z -0.007270 0.001400 2.004740 
# 
# From -- ./inp_files/299416.got.cif
#   From: 2010.06.25/outbox.cif.g09.slc.cpg/sg2_150_cif.got.tgz:299416.got - 2010.06.27 13:26:56.
