data_PCOD8023607
_publ_section_title
;
Structure prediction by ZEFSAII (Michael W. Deem and Ramdas Pophale) SiO2 
 PCOD8023607
Probable space group: P -1
;
_chemical_formula_sum "Si O2"
_cell_formula_units_Z 10
_cell_length_a 12.043573
_cell_length_b 8.858271
_cell_length_c 14.996084
_cell_angle_alpha 54.941949
_cell_angle_beta 19.417715
_cell_angle_gamma 52.220275
_cell_volume 420.346792
_symmetry_space_group_name_H-M "P -1"
_symmetry_group_IT_number 2
_symmetry_cell_setting 'triclinic'
loop_
_space_group_symop_operation_xyz
x,y,z
-x,-y,-z
loop_
_atom_site_type_symbol
_atom_site_label
_atom_site_fract_x
_atom_site_fract_y
_atom_site_fract_z
Si Si1 0.104750 0.007573 0.287211
Si Si2 0.185597 0.342706 0.642511
Si Si3 0.859868 0.041096 0.910981
Si Si4 0.968066 0.339093 0.009963
Si Si5 0.114676 0.266107 0.342439
O O1 0.931233 0.174828 0.431735
O O2 0.940839 0.059030 0.295377
O O3 0.058675 0.796935 0.417099
O O4 0.500000 0.000000 0.000000
O O5 0.583006 0.313851 0.324323
O O6 0.086942 0.147834 0.760338
O O7 0.968555 0.508948 0.686041
O O8 0.070184 0.395705 0.814679
O O9 0.523658 0.186763 0.074624
O O10 0.776439 0.870211 0.090340
O O11 0.000000 0.500000 0.000000
#
# Coordination Sequence:
#
# PCOD8023607 Si02
#       5
#     2   2   2   2   2
#     4   9  21  39  68 100 138 176 229 276 342 399
#     4  12  28  46  71 105 139 179 229 288 345 402
#     4  11  25  44  71 100 140 180 226 286 343 404
#     4  12  29  48  71  99 141 185 231 278 346 414
#     4  10  23  41  72 100 138 179 233 278 339 410
#
# _framework density 23.789881000000001
#
# number of rings (size 3 to 8) (size 9 to 14) (size 15 to 20)
#    0.000    1.200    0.000    3.600   19.600    0.800 
#    0.000    0.000    0.000    0.000    0.000    0.000 
#    0.000    0.000    0.000    0.000    0.000    0.000 
#
# Total GULP energy -123902.615176 kJ/mol
# GULP energy per Si atom -12390.261518 kJ/mol
# Density = 2.373573 g / cm^3
# Si number density = 23.789881 Si / 1000 Ang^3
#
#
#
# Elastic Constant Matrix: (Units=GPa)
#
#
# Indices 1 2 3 4 5 6 
#
# 1 85.5771 8.1448 22.6271 -4.4144 0.0908 9.1949
# 2 8.1448 101.0058 -0.3630 -20.8449 -10.2935 -11.8392
# 3 22.6271 -0.3630 83.6082 -13.6164 16.6630 5.4371
# 4 -4.4144 -20.8449 -13.6164 35.8815 -0.3735 -0.2953
# 5 0.0908 -10.2935 16.6630 -0.3735 33.2790 -11.8725
# 6 9.1949 -11.8392 5.4371 -0.2953 -11.8725 41.1901
#
#
#
# Elastic Compliance Matrix: (Units=1/GPa)
#
#
# Indices 1 2 3 4 5 6 
#
# 1 0.013022 -0.001493 -0.003497 -0.000613 0.000244 -0.002809
# 2 -0.001493 0.012860 0.000072 0.007426 0.006111 0.005835
# 3 -0.003497 0.000072 0.015911 0.005521 -0.009276 -0.003933
# 4 -0.000613 0.007426 0.005521 0.034226 0.000620 0.001967
# 5 0.000244 0.006111 -0.009276 0.000620 0.041949 0.015022
# 6 -0.002809 0.005835 -0.003933 0.001967 0.015022 0.031445
#
#
# Mechanical properties :
#
#
# Convention : Reuss Voigt Hill
#
# Bulk Modulus (GPa) = 31.29172 36.77876 34.03524
# Shear Modulus (GPa) = 29.42890 38.05560 33.74225
#
# Velocity S-wave (km/s) = 3.52097 4.00391 3.77018
# Velocity P-wave (km/s) = 5.45083 6.07194 5.76975
#
# Compressibility (1/GPa) = 0.03195734
#
# Stress axis : x y z
#
# Youngs Moduli (GPa) = 76.79368 77.75827 62.85089
#
# Poissons Ratio (x) = 0.11612 0.21976
# Poissons Ratio (y) = 0.11468 -0.00453
# Poissons Ratio (z) = 0.26851 -0.00561
#
# Static dielectric constant tensor:
#      x y z
#    x 4.927320 0.217470 0.388070 
#    y 0.217470 4.352660 -0.035440 
#    z 0.388070 -0.035440 4.389560 
# 
# 
# High freq. dielectric constant tensor:
#      x y z
#    x 1.951240 -0.004870 0.007360 
#    y -0.004870 1.937320 -0.016290 
#    z 0.007360 -0.016290 1.947430 
# 
# From -- ./inp_files/15290.got.cif
#   From: 2010.06.25/outbox.cif.g09.slc.cpg/sg2_8_cif.got.tgz:15290.got - 2010.06.27 13:26:56.
