data_PCOD8023291
_publ_section_title
;
Structure prediction by ZEFSAII (Michael W. Deem and Ramdas Pophale) SiO2 
 PCOD8023291
Probable space group: P -1
;
_chemical_formula_sum "Si O2"
_cell_formula_units_Z 14
_cell_length_a 25.132525
_cell_length_b 15.807508
_cell_length_c 6.694469
_cell_angle_alpha 124.222724
_cell_angle_beta 53.499753
_cell_angle_gamma 164.299863
_cell_volume 577.889899
_symmetry_space_group_name_H-M "P -1"
_symmetry_group_IT_number 2
_symmetry_cell_setting 'triclinic'
loop_
_space_group_symop_operation_xyz
x,y,z
-x,-y,-z
loop_
_atom_site_type_symbol
_atom_site_label
_atom_site_fract_x
_atom_site_fract_y
_atom_site_fract_z
Si Si1 0.038100 0.438683 0.658100
Si Si2 0.631373 0.725897 0.699929
Si Si3 0.862208 0.384270 0.893619
Si Si4 0.635572 0.550213 0.736443
Si Si5 0.438888 0.703409 0.771824
Si Si6 0.179525 0.204145 0.972543
Si Si7 0.095519 0.370414 0.130447
O O1 0.007742 0.499331 0.678552
O O2 0.171187 0.552935 0.385662
O O3 0.813663 0.067277 0.696538
O O4 0.163618 0.645604 0.850389
O O5 0.500000 0.500000 0.500000
O O6 0.715504 0.748126 0.657316
O O7 0.495338 0.589121 0.980697
O O8 0.959807 0.633675 0.933289
O O9 0.643728 0.056709 0.846185
O O10 0.528082 0.301493 0.524516
O O11 0.814168 0.761815 0.756997
O O12 0.382727 0.534359 0.838426
O O13 0.265049 0.535392 0.916748
O O14 0.119038 0.995269 0.811121
O O15 0.000000 0.000000 0.000000
#
# Coordination Sequence:
#
# PCOD8023291 Si02
#       7
#     2   2   2   2   2   2   2
#     4  11  24  42  66  93 130 174 218 273 327 382
#     4  11  23  41  67 101 133 171 220 272 327 390
#     4  11  25  43  63  94 132 174 223 264 322 395
#     4  11  22  39  68  97 133 172 214 270 333 387
#     4  11  25  43  66  98 132 172 219 269 328 395
#     4  10  23  41  64  96 131 168 214 269 324 390
#     4  11  24  42  66  95 130 169 215 272 329 389
#
# _framework density 24.226068999999999
#
# number of rings (size 3 to 8) (size 9 to 14) (size 15 to 20)
#    0.000    1.143    0.000    6.000    0.000   12.000 
#    0.000    0.000    0.000    0.000    0.000    0.000 
#    0.000    0.000    0.000    0.000    0.000    0.000 
#
# Total GULP energy -173493.040791 kJ/mol
# GULP energy per Si atom -12392.360056 kJ/mol
# Density = 2.417093 g / cm^3
# Si number density = 24.226069 Si / 1000 Ang^3
#
#
#
# Elastic Constant Matrix: (Units=GPa)
#
#
# Indices 1 2 3 4 5 6 
#
# 1 167.0908 45.5341 54.0057 14.0617 18.4638 -20.1430
# 2 45.5341 69.2548 28.3924 18.6029 4.9537 -2.3803
# 3 54.0057 28.3924 149.2806 28.2808 1.5992 2.2937
# 4 14.0617 18.6029 28.2808 31.1892 6.7567 8.4495
# 5 18.4638 4.9537 1.5992 6.7567 46.9643 7.6468
# 6 -20.1430 -2.3803 2.2937 8.4495 7.6468 35.5477
#
#
#
# Elastic Compliance Matrix: (Units=1/GPa)
#
#
# Indices 1 2 3 4 5 6 
#
# 1 0.009187 -0.004550 -0.002533 0.000143 -0.004026 0.005897
# 2 -0.004550 0.020274 -0.000291 -0.010266 0.000969 0.001030
# 3 -0.002533 -0.000291 0.008995 -0.007037 0.001857 -0.000762
# 4 0.000143 -0.010266 -0.007037 0.048272 -0.003923 -0.010783
# 5 -0.004026 0.000969 0.001857 -0.003923 0.024356 -0.006643
# 6 0.005897 0.001030 -0.000762 -0.010783 -0.006643 0.035583
#
#
# Mechanical properties :
#
#
# Convention : Reuss Voigt Hill
#
# Bulk Modulus (GPa) = 42.17903 71.27675 56.72789
# Shear Modulus (GPa) = 29.53013 39.91986 34.72499
#
# Velocity S-wave (km/s) = 3.49512 4.06372 3.79010
# Velocity P-wave (km/s) = 5.80829 7.17662 6.52840
#
# Compressibility (1/GPa) = 0.02370846
#
# Stress axis : x y z
#
# Youngs Moduli (GPa) = 108.84960 49.32443 111.16764
#
# Poissons Ratio (x) = 0.22441 0.28157
# Poissons Ratio (y) = 0.49523 0.03239
# Poissons Ratio (z) = 0.27570 0.01437
#
# Static dielectric constant tensor:
#      x y z
#    x 5.114160 -0.390940 0.278210 
#    y -0.390940 4.453370 0.074290 
#    z 0.278210 0.074290 4.691130 
# 
# 
# High freq. dielectric constant tensor:
#      x y z
#    x 1.984370 -0.012850 0.006300 
#    y -0.012850 1.945930 0.014010 
#    z 0.006300 0.014010 1.973660 
# 
# From -- ./inp_files/124378.got.cif
#   From: 2010.06.25/outbox.cif.g09.slc.cpg/sg2_63_cif.got.tgz:124378.got - 2010.06.27 13:26:56.
