data_PCOD8023120
_publ_section_title
;
Structure prediction by ZEFSAII (Michael W. Deem and Ramdas Pophale) SiO2 
 PCOD8023120
Probable space group: P -1
;
_chemical_formula_sum "Si O2"
_cell_formula_units_Z 14
_cell_length_a 11.250501
_cell_length_b 22.998303
_cell_length_c 20.068562
_cell_angle_alpha 17.164935
_cell_angle_beta 25.104365
_cell_angle_gamma 30.639964
_cell_volume 649.690725
_symmetry_space_group_name_H-M "P -1"
_symmetry_group_IT_number 2
_symmetry_cell_setting 'triclinic'
loop_
_space_group_symop_operation_xyz
x,y,z
-x,-y,-z
loop_
_atom_site_type_symbol
_atom_site_label
_atom_site_fract_x
_atom_site_fract_y
_atom_site_fract_z
Si Si1 0.442098 0.875615 0.350291
Si Si2 0.896637 0.605336 0.372405
Si Si3 0.463435 0.736859 0.875054
Si Si4 0.556172 0.691266 0.132992
Si Si5 0.300822 0.064301 0.089669
Si Si6 0.688320 0.157184 0.302407
Si Si7 0.822624 0.393236 0.107258
O O1 0.746260 0.800011 0.259704
O O2 0.268978 0.891228 0.351394
O O3 0.282895 0.725891 0.644209
O O4 0.475204 0.098335 0.120479
O O5 0.695743 0.459856 0.590286
O O6 0.000000 0.500000 0.500000
O O7 0.154401 0.662747 0.132306
O O8 0.480775 0.730472 0.792351
O O9 0.516157 0.960327 0.627531
O O10 0.695396 0.608115 0.934463
O O11 0.842391 0.590692 0.075777
O O12 0.564259 0.740446 0.154751
O O13 0.992054 0.105072 0.174688
O O14 0.500000 0.000000 0.000000
O O15 0.713072 0.287495 0.212279
#
# Coordination Sequence:
#
# PCOD8023120 Si02
#       7
#     2   2   2   2   2   2   2
#     4  10  23  40  68  96 133 173 223 271 331 389
#     4  12  25  43  64 104 136 172 221 273 338 399
#     4  11  25  43  65  97 135 178 221 274 334 397
#     4   9  25  40  69  99 129 179 220 270 336 390
#     4   9  20  44  67  95 128 175 223 269 328 392
#     4  10  24  44  66  92 133 181 221 272 336 391
#     4  11  22  43  68  98 130 174 230 275 320 403
#
# _framework density 21.548715000000001
#
# number of rings (size 3 to 8) (size 9 to 14) (size 15 to 20)
#    0.857    0.857    1.429    1.714    4.000    2.286 
#    5.143    2.143    0.000    0.000    0.000    0.000 
#    0.000    0.000    0.000    0.000    0.000    0.000 
#
# Total GULP energy -173532.608394 kJ/mol
# GULP energy per Si atom -12395.186314 kJ/mol
# Density = 2.149967 g / cm^3
# Si number density = 21.548715 Si / 1000 Ang^3
#
#
#
# Elastic Constant Matrix: (Units=GPa)
#
#
# Indices 1 2 3 4 5 6 
#
# 1 -52.8465 -26.8224 13.2197 46.6357 -28.1920 -2.8059
# 2 -26.8224 89.4723 37.0293 28.7857 -7.8365 -16.7101
# 3 13.2197 37.0293 124.6762 7.9726 -12.9624 -0.0619
# 4 46.6357 28.7857 7.9726 2.7758 10.5887 6.5362
# 5 -28.1920 -7.8365 -12.9624 10.5887 31.4246 2.1276
# 6 -2.8059 -16.7101 -0.0619 6.5362 2.1276 34.6966
#
#
#
# Elastic Compliance Matrix: (Units=1/GPa)
#
#
# Indices 1 2 3 4 5 6 
#
# 1 0.004667 -0.006546 -0.000261 0.020268 -0.003953 -0.006352
# 2 -0.006546 0.011806 -0.003108 -0.001813 -0.003988 0.005737
# 3 -0.000261 -0.003108 0.009534 -0.002528 0.003861 -0.001262
# 4 0.020268 -0.001813 -0.002528 0.027114 0.007879 -0.004829
# 5 -0.003953 -0.003988 0.003861 0.007879 0.026581 -0.005348
# 6 -0.006352 0.005737 -0.001262 -0.004829 -0.005348 0.032306
#
#
# Mechanical properties :
#
#
# Convention : Reuss Voigt Hill
#
# Bulk Modulus (GPa) = 161.91630 23.12836 92.52233
# Shear Modulus (GPa) = 37.34242 22.97110 30.15676
#
# Velocity S-wave (km/s) = 4.16736 3.26852 3.74501
# Velocity P-wave (km/s) = 9.92263 5.00006 7.85682
#
# Compressibility (1/GPa) = 0.00617603
#
# Stress axis : x y z
#
# Youngs Moduli (GPa) = 214.28856 84.70370 104.88810
#
# Poissons Ratio (x) = 0.55450 0.02735
# Poissons Ratio (y) = 1.40280 0.32601
# Poissons Ratio (z) = 0.05587 0.26327
#
# Static dielectric constant tensor:
#      x y z
#    x 3.935860 -0.211100 0.067930 
#    y -0.211100 4.032110 -0.089530 
#    z 0.067930 -0.089530 3.591450 
# 
# 
# High freq. dielectric constant tensor:
#      x y z
#    x 1.852620 -0.010760 0.002860 
#    y -0.010760 1.851480 -0.002750 
#    z 0.002860 -0.002750 1.835610 
# 
# From -- ./inp_files/596352.got.cif
#   From: 2010.06.25/outbox.cif.g09.slc.cpg/sg2_299_cif.got.tgz:596352.got - 2010.06.27 13:26:56.
