data_PCOD8023898
_publ_section_title
;
Structure prediction by ZEFSAII (Michael W. Deem and Ramdas Pophale) SiO2 
 PCOD8023898
Probable space group: P -1
;
_chemical_formula_sum "Si O2"
_cell_formula_units_Z 14
_cell_length_a 12.269704
_cell_length_b 12.245810
_cell_length_c 12.461037
_cell_angle_alpha 40.103401
_cell_angle_beta 36.072789
_cell_angle_gamma 37.292263
_cell_volume 627.768320
_symmetry_space_group_name_H-M "P -1"
_symmetry_group_IT_number 2
_symmetry_cell_setting 'triclinic'
loop_
_space_group_symop_operation_xyz
x,y,z
-x,-y,-z
loop_
_atom_site_type_symbol
_atom_site_label
_atom_site_fract_x
_atom_site_fract_y
_atom_site_fract_z
Si Si1 0.404050 0.530125 0.169457
Si Si2 0.982788 0.810557 0.853657
Si Si3 0.306466 0.191051 0.547678
Si Si4 0.642185 0.761495 0.290943
Si Si5 0.440220 0.511584 0.699872
Si Si6 0.975364 0.081224 0.839283
Si Si7 0.363105 0.915140 0.220889
O O1 0.303249 0.388129 0.368905
O O2 0.573365 0.486619 0.160995
O O3 0.253912 0.756252 0.129952
O O4 0.500000 0.500000 0.000000
O O5 0.198599 0.645057 0.756456
O O6 0.043167 0.914970 0.822038
O O7 0.873588 0.957897 0.729305
O O8 0.830857 0.726479 0.083797
O O9 0.301650 0.165718 0.699230
O O10 0.110992 0.193570 0.640995
O O11 0.500000 0.000000 0.500000
O O12 0.614256 0.574067 0.477130
O O13 0.410472 0.913254 0.312994
O O14 0.530734 0.305398 0.731629
O O15 0.000000 0.000000 0.000000
O O16 0.500000 0.000000 0.000000
#
# Coordination Sequence:
#
# PCOD8023898 Si02
#       7
#     2   2   2   2   2   2   2
#     4  11  24  39  63  97 130 173 218 271 332 391
#     4  11  23  43  69  98 130 178 216 264 336 384
#     4  11  23  40  65  97 130 172 221 267 330 401
#     4  10  23  42  67  95 132 174 216 271 326 386
#     4  11  23  45  66  97 133 169 224 270 326 397
#     4  12  21  40  65  91 134 170 212 272 327 390
#     4  10  23  43  69  96 132 171 220 275 323 390
#
# _framework density 22.301221000000002
#
# number of rings (size 3 to 8) (size 9 to 14) (size 15 to 20)
#    0.000    1.143    2.857    4.286    0.000    2.857 
#    0.000    2.857    3.143    0.000    0.000    0.000 
#    0.000    0.000    0.000    0.000    0.000    0.000 
#
# Total GULP energy -173449.230008 kJ/mol
# GULP energy per Si atom -12389.230715 kJ/mol
# Density = 2.225046 g / cm^3
# Si number density = 22.301221 Si / 1000 Ang^3
#
#
#
# Elastic Constant Matrix: (Units=GPa)
#
#
# Indices 1 2 3 4 5 6 
#
# 1 124.9546 21.0308 32.7091 -7.2402 -0.6844 -17.4937
# 2 21.0308 113.8272 23.0188 -10.2314 -7.3067 -24.3374
# 3 32.7091 23.0188 71.4250 -4.7121 2.0295 1.5229
# 4 -7.2402 -10.2314 -4.7121 30.0355 -2.2911 -1.1529
# 5 -0.6844 -7.3067 2.0295 -2.2911 33.8875 -3.5432
# 6 -17.4937 -24.3374 1.5229 -1.1529 -3.5432 30.4044
#
#
#
# Elastic Compliance Matrix: (Units=1/GPa)
#
#
# Indices 1 2 3 4 5 6 
#
# 1 0.010341 0.001008 -0.005102 0.002442 0.001660 0.007298
# 2 0.001008 0.012763 -0.004648 0.004663 0.004594 0.011741
# 3 -0.005102 -0.004648 0.018057 -0.000518 -0.003051 -0.007936
# 4 0.002442 0.004663 -0.000518 0.035984 0.004253 0.007023
# 5 0.001660 0.004594 -0.003051 0.004253 0.031910 0.008665
# 6 0.007298 0.011741 -0.007936 0.007023 0.008665 0.048161
#
#
# Mechanical properties :
#
#
# Convention : Reuss Voigt Hill
#
# Bulk Modulus (GPa) = 42.23617 51.52490 46.88054
# Shear Modulus (GPa) = 27.38327 34.42870 30.90599
#
# Velocity S-wave (km/s) = 3.50792 3.93339 3.72673
# Velocity P-wave (km/s) = 5.94873 6.61687 6.29167
#
# Compressibility (1/GPa) = 0.02367639
#
# Stress axis : x y z
#
# Youngs Moduli (GPa) = 96.70003 78.34905 55.38021
#
# Poissons Ratio (x) = -0.07895 0.28256
# Poissons Ratio (y) = -0.09744 0.25741
# Poissons Ratio (z) = 0.49338 0.36417
#
# Static dielectric constant tensor:
#      x y z
#    x 13.424600 -2.680690 -9.019590 
#    y -2.680690 4.655970 2.235450 
#    z -9.019590 2.235450 14.609960 
# 
# 
# High freq. dielectric constant tensor:
#      x y z
#    x 1.903590 -0.002860 0.002130 
#    y -0.002860 1.860780 -0.019650 
#    z 0.002130 -0.019650 1.883460 
# 
# From -- ./inp_files/203528.got.cif
#   From: 2010.06.25/outbox.cif.g09.slc.cpg/sg2_102_cif.got.tgz:203528.got - 2010.06.27 13:26:56.
