data_PCOD8023664
_publ_section_title
;
Structure prediction by ZEFSAII (Michael W. Deem and Ramdas Pophale) SiO2 
 PCOD8023664
Probable space group: P -1
;
_chemical_formula_sum "Si O2"
_cell_formula_units_Z 16
_cell_length_a 18.547285
_cell_length_b 27.058083
_cell_length_c 15.390583
_cell_angle_alpha 160.116944
_cell_angle_beta 20.529538
_cell_angle_gamma 160.526363
_cell_volume 786.367154
_symmetry_space_group_name_H-M "P -1"
_symmetry_group_IT_number 2
_symmetry_cell_setting 'triclinic'
loop_
_space_group_symop_operation_xyz
x,y,z
-x,-y,-z
loop_
_atom_site_type_symbol
_atom_site_label
_atom_site_fract_x
_atom_site_fract_y
_atom_site_fract_z
Si Si1 0.571801 0.254211 0.351333
Si Si2 0.145526 0.845746 0.716449
Si Si3 0.677235 0.138427 0.641491
Si Si4 0.987562 0.092123 0.346784
Si Si5 0.289234 0.373055 0.766068
Si Si6 0.136305 0.898250 0.301890
Si Si7 0.012187 0.508581 0.603387
Si Si8 0.495293 0.613834 0.768801
O O1 0.515992 0.374606 0.555131
O O2 0.724368 0.349887 0.423283
O O3 0.315059 0.096763 0.410417
O O4 0.718459 0.199057 0.032502
O O5 0.141736 0.825395 0.582980
O O6 0.052490 0.669589 0.578119
O O7 0.417754 0.973425 0.648193
O O8 0.969653 0.912624 0.053571
O O9 0.772274 0.097161 0.552319
O O10 0.660977 0.305108 0.951109
O O11 0.976940 0.126608 0.516776
O O12 0.236508 0.238018 0.265366
O O13 0.375889 0.503462 0.805323
O O14 0.087530 0.183478 0.647625
O O15 0.180828 0.440658 0.071021
O O16 0.000000 0.500000 0.500000
O O17 0.500000 0.500000 0.500000
#
# Coordination Sequence:
#
# PCOD8023664 Si02
#       8
#     2   2   2   2   2   2   2   2
#     4  10  25  43  67  90 125 173 209 259 325 365
#     4  10  23  43  59  90 127 165 213 253 315 370
#     4  10  23  42  62  87 129 171 201 259 313 377
#     4  11  24  37  68  92 124 167 209 255 314 383
#     4  11  23  44  69  89 134 165 204 273 312 375
#     4  10  23  44  61  99 124 161 220 258 312 381
#     4  11  26  44  65  96 127 164 218 266 307 375
#     4  11  23  40  61 100 125 159 206 254 322 371
#
# _framework density 20.346729
#
# number of rings (size 3 to 8) (size 9 to 14) (size 15 to 20)
#    0.000    1.500    2.500    0.750    7.000    2.000 
#    0.000    0.000    0.000    0.000    0.000    0.000 
#    0.000    0.000    0.000    0.000    0.000    0.000 
#
# Total GULP energy -198455.459606 kJ/mol
# GULP energy per Si atom -12403.466225 kJ/mol
# Density = 2.030042 g / cm^3
# Si number density = 20.346729 Si / 1000 Ang^3
#
#
#
# Elastic Constant Matrix: (Units=GPa)
#
#
# Indices 1 2 3 4 5 6 
#
# 1 98.6852 18.9038 67.6460 2.2401 7.1539 2.6765
# 2 18.9038 81.2901 29.9177 9.6037 4.8170 -7.6394
# 3 67.6460 29.9177 128.0497 7.6468 5.6410 6.8670
# 4 2.2401 9.6037 7.6468 32.4287 -0.9645 0.5592
# 5 7.1539 4.8170 5.6410 -0.9645 43.1786 -4.3532
# 6 2.6765 -7.6394 6.8670 0.5592 -4.3532 23.5893
#
#
#
# Elastic Compliance Matrix: (Units=1/GPa)
#
#
# Indices 1 2 3 4 5 6 
#
# 1 0.016047 -0.000697 -0.008315 0.001014 -0.001464 0.000080
# 2 -0.000697 0.014610 -0.003104 -0.003663 -0.000617 0.005687
# 3 -0.008315 -0.003104 0.013254 -0.001576 -0.000442 -0.003964
# 4 0.001014 -0.003663 -0.001576 0.032278 0.001025 -0.001418
# 5 -0.001464 -0.000617 -0.000442 0.001025 0.024005 0.004501
# 6 0.000080 0.005687 -0.003964 -0.001418 0.004501 0.046243
#
#
# Mechanical properties :
#
#
# Convention : Reuss Voigt Hill
#
# Bulk Modulus (GPa) = 50.81730 60.10665 55.46198
# Shear Modulus (GPa) = 28.21192 32.60982 30.41087
#
# Velocity S-wave (km/s) = 3.72769 4.00772 3.87024
# Velocity P-wave (km/s) = 6.59981 7.14291 6.87672
#
# Compressibility (1/GPa) = 0.01967834
#
# Stress axis : x y z
#
# Youngs Moduli (GPa) = 62.31534 68.44617 75.45108
#
# Poissons Ratio (x) = 0.04771 0.62737
# Poissons Ratio (y) = 0.04344 0.23422
# Poissons Ratio (z) = 0.51815 0.21248
#
# Static dielectric constant tensor:
#      x y z
#    x 3.673930 0.021690 0.130250 
#    y 0.021690 3.812930 0.077280 
#    z 0.130250 0.077280 3.903440 
# 
# 
# High freq. dielectric constant tensor:
#      x y z
#    x 1.791400 0.000180 0.001670 
#    y 0.000180 1.800800 0.004260 
#    z 0.001670 0.004260 1.809600 
# 
# From -- ./inp_files/77768.got.cif
#   From: 2010.06.25/outbox.cif.g09.slc.cpg/sg2_39_cif.got.tgz:77768.got - 2010.06.27 13:26:56.
