data_PCOD8023367
_publ_section_title
;
Structure prediction by ZEFSAII (Michael W. Deem and Ramdas Pophale) SiO2 
 PCOD8023367
Probable space group: P -1
;
_chemical_formula_sum "Si O2"
_cell_formula_units_Z 16
_cell_length_a 13.866473
_cell_length_b 14.253035
_cell_length_c 13.862250
_cell_angle_alpha 50.979946
_cell_angle_beta 21.237315
_cell_angle_gamma 51.080385
_cell_volume 762.647084
_symmetry_space_group_name_H-M "P -1"
_symmetry_group_IT_number 2
_symmetry_cell_setting 'triclinic'
loop_
_space_group_symop_operation_xyz
x,y,z
-x,-y,-z
loop_
_atom_site_type_symbol
_atom_site_label
_atom_site_fract_x
_atom_site_fract_y
_atom_site_fract_z
Si Si1 0.433286 0.143513 0.483072
Si Si2 0.256231 0.666470 0.250245
Si Si3 0.322670 0.922465 0.343202
Si Si4 0.162258 0.468619 0.160877
Si Si5 0.010453 0.566813 0.047561
Si Si6 0.857415 0.274889 0.898771
Si Si7 0.464080 0.730416 0.497088
Si Si8 0.782974 0.081552 0.771749
O O1 0.495836 0.179860 0.510244
O O2 0.120425 0.176004 0.728793
O O3 0.500000 0.000000 0.500000
O O4 0.599339 0.212847 0.207566
O O5 0.170089 0.671474 0.217054
O O6 0.253839 0.801586 0.202823
O O7 0.055815 0.597965 0.541076
O O8 0.548525 0.590405 0.035162
O O9 0.434299 0.805691 0.377261
O O10 0.233620 0.877224 0.351233
O O11 0.068401 0.001230 0.581197
O O12 0.551734 0.005385 0.064509
O O13 0.129669 0.460647 0.080797
O O14 0.112882 0.612774 0.132540
O O15 0.713179 0.623434 0.322856
O O16 0.193935 0.673153 0.802827
O O17 0.000000 0.500000 0.000000
#
# Coordination Sequence:
#
# PCOD8023367 Si02
#       8
#     2   2   2   2   2   2   2   2
#     4  12  26  44  71  99 136 176 221 274 333 394
#     4  12  26  40  73  92 128 172 225 267 326 382
#     4  10  23  41  66  88 136 162 214 260 339 378
#     4  12  24  46  64  97 131 170 217 275 326 388
#     4  12  27  44  71 100 136 174 223 272 333 397
#     4  12  25  47  66  97 134 170 224 274 329 390
#     4  12  24  46  70 100 132 180 216 277 332 397
#     4  10  23  42  61  99 123 170 210 277 310 396
#
# _framework density 20.979558000000001
#
# number of rings (size 3 to 8) (size 9 to 14) (size 15 to 20)
#    0.000    0.500    2.500    5.250    7.000    0.000 
#    0.000    0.000    0.000    0.000    0.000    0.000 
#    0.000    0.000    0.000    0.000    0.000    0.000 
#
# Total GULP energy -198527.835903 kJ/mol
# GULP energy per Si atom -12407.989744 kJ/mol
# Density = 2.093181 g / cm^3
# Si number density = 20.979558 Si / 1000 Ang^3
#
#
#
# Elastic Constant Matrix: (Units=GPa)
#
#
# Indices 1 2 3 4 5 6 
#
# 1 127.1751 29.4838 22.1141 0.0778 7.9879 -10.1256
# 2 29.4838 62.3519 7.4417 16.1078 -5.6566 -2.1018
# 3 22.1141 7.4417 89.5732 1.4788 -3.8169 0.4067
# 4 0.0778 16.1078 1.4788 40.8483 -11.3725 2.4973
# 5 7.9879 -5.6566 -3.8169 -11.3725 33.9138 -2.0450
# 6 -10.1256 -2.1018 0.4067 2.4973 -2.0450 42.5371
#
#
#
# Elastic Compliance Matrix: (Units=1/GPa)
#
#
# Indices 1 2 3 4 5 6 
#
# 1 0.009672 -0.004781 -0.002138 0.001034 -0.002856 0.001889
# 2 -0.004781 0.020475 -0.000313 -0.007519 0.002009 0.000415
# 3 -0.002138 -0.000313 0.011794 0.000243 0.001826 -0.000564
# 4 0.001034 -0.007519 0.000243 0.029881 0.008461 -0.001475
# 5 -0.002856 0.002009 0.001826 0.008461 0.033568 0.000519
# 6 0.001889 0.000415 -0.000564 -0.001475 0.000519 0.024096
#
#
# Mechanical properties :
#
#
# Convention : Reuss Voigt Hill
#
# Bulk Modulus (GPa) = 36.39298 44.13102 40.26200
# Shear Modulus (GPa) = 32.65623 38.13054 35.39339
#
# Velocity S-wave (km/s) = 3.94962 4.26785 4.11182
# Velocity P-wave (km/s) = 6.17931 6.73550 6.46339
#
# Compressibility (1/GPa) = 0.02747782
#
# Stress axis : x y z
#
# Youngs Moduli (GPa) = 103.38599 48.84025 84.78687
#
# Poissons Ratio (x) = 0.23351 0.18128
# Poissons Ratio (y) = 0.49429 0.02652
# Poissons Ratio (z) = 0.22105 0.01528
#
# Static dielectric constant tensor:
#      x y z
#    x 3.916670 -0.089000 0.151080 
#    y -0.089000 3.732660 0.134490 
#    z 0.151080 0.134490 3.861290 
# 
# 
# High freq. dielectric constant tensor:
#      x y z
#    x 1.837630 -0.005930 -0.000100 
#    y -0.005930 1.826460 0.003190 
#    z -0.000100 0.003190 1.843220 
# 
# From -- ./inp_files/534223.got.cif
#   From: 2010.06.25/outbox.cif.g09.slc.cpg/sg2_268_cif.got.tgz:534223.got - 2010.06.27 13:26:56.
