data_PCOD8023771
_publ_section_title
;
Structure prediction by ZEFSAII (Michael W. Deem and Ramdas Pophale) SiO2 
 PCOD8023771
Probable space group: P -1
;
_chemical_formula_sum "Si O2"
_cell_formula_units_Z 10
_cell_length_a 5.181583
_cell_length_b 13.878429
_cell_length_c 9.628840
_cell_angle_alpha 141.845794
_cell_angle_beta 73.289250
_cell_angle_gamma 105.995484
_cell_volume 408.271403
_symmetry_space_group_name_H-M "P -1"
_symmetry_group_IT_number 2
_symmetry_cell_setting 'triclinic'
loop_
_space_group_symop_operation_xyz
x,y,z
-x,-y,-z
loop_
_atom_site_type_symbol
_atom_site_label
_atom_site_fract_x
_atom_site_fract_y
_atom_site_fract_z
Si Si1 0.551485 0.179128 0.768782
Si Si2 0.354865 0.920880 0.066562
Si Si3 0.781551 0.428706 0.349398
Si Si4 0.749727 0.506855 0.142164
Si Si5 0.168049 0.157447 0.558105
O O1 0.463947 0.116788 0.867067
O O2 0.357917 0.094384 0.583029
O O3 0.873871 0.169479 0.681975
O O4 0.513664 0.368207 0.986711
O O5 0.146955 0.038940 0.295897
O O6 0.216850 0.758158 0.846972
O O7 0.500000 0.000000 0.000000
O O8 0.500000 0.500000 0.500000
O O9 0.876133 0.480861 0.242633
O O10 0.000000 0.500000 0.500000
O O11 0.661951 0.683248 0.340364
O O12 0.000000 0.500000 0.000000
#
# Coordination Sequence:
#
# PCOD8023771 Si02
#       5
#     2   2   2   2   2
#     4  10  23  42  65  94 132 172 212 262 324 389
#     4  11  25  43  68 100 133 172 219 272 327 383
#     4  11  26  47  67  94 134 176 217 267 328 393
#     4   9  21  40  67  96 127 170 218 263 319 388
#     4  11  22  42  66  96 129 168 215 270 322 381
#
# _framework density 24.493511000000002
#
# number of rings (size 3 to 8) (size 9 to 14) (size 15 to 20)
#    0.000    1.600    0.000    3.000    0.000   17.600 
#    0.000    8.000    0.000    0.000    0.000    0.000 
#    0.000    0.000    0.000    0.000    0.000    0.000 
#
# Total GULP energy -123887.065806 kJ/mol
# GULP energy per Si atom -12388.706581 kJ/mol
# Density = 2.443776 g / cm^3
# Si number density = 24.493511 Si / 1000 Ang^3
#
#
#
# Elastic Constant Matrix: (Units=GPa)
#
#
# Indices 1 2 3 4 5 6 
#
# 1 106.6532 38.0426 56.3839 -2.7898 16.8146 -6.8001
# 2 38.0426 208.3007 84.3613 -8.7651 7.0401 11.2969
# 3 56.3839 84.3613 191.3187 0.3468 19.9812 5.7051
# 4 -2.7898 -8.7651 0.3468 48.9469 -4.4782 -7.6015
# 5 16.8146 7.0401 19.9812 -4.4782 45.0010 2.7533
# 6 -6.8001 11.2969 5.7051 -7.6015 2.7533 13.9616
#
#
#
# Elastic Compliance Matrix: (Units=1/GPa)
#
#
# Indices 1 2 3 4 5 6 
#
# 1 0.012795 -0.001462 -0.003056 0.001761 -0.003653 0.010343
# 2 -0.001462 0.006233 -0.002270 0.000387 0.000911 -0.004797
# 3 -0.003056 -0.002270 0.007402 -0.001261 -0.001730 -0.003021
# 4 0.001761 0.000387 -0.001261 0.022779 0.001300 0.013205
# 5 -0.003653 0.000911 -0.001730 0.001300 0.024707 -0.005974
# 6 0.010343 -0.004797 -0.003021 0.013205 -0.005974 0.090147
#
#
# Mechanical properties :
#
#
# Convention : Reuss Voigt Hill
#
# Bulk Modulus (GPa) = 77.80937 95.98313 86.89625
# Shear Modulus (GPa) = 27.48406 43.41421 35.44914
#
# Velocity S-wave (km/s) = 3.35340 4.21465 3.80845
# Velocity P-wave (km/s) = 6.84325 7.93452 7.40900
#
# Compressibility (1/GPa) = 0.01285192
#
# Stress axis : x y z
#
# Youngs Moduli (GPa) = 78.15618 160.43828 135.10487
#
# Poissons Ratio (x) = 0.23463 0.41289
# Poissons Ratio (y) = 0.11430 0.30672
# Poissons Ratio (z) = 0.23885 0.36423
#
# Static dielectric constant tensor:
#      x y z
#    x 3.667610 -0.091720 -0.030630 
#    y -0.091720 7.442720 1.857060 
#    z -0.030630 1.857060 5.987170 
# 
# 
# High freq. dielectric constant tensor:
#      x y z
#    x 1.928430 -0.006150 0.004420 
#    y -0.006150 2.008120 0.020260 
#    z 0.004420 0.020260 2.009790 
# 
# From -- ./inp_files/17350.got.cif
#   From: 2010.06.25/outbox.cif.g09.slc.cpg/sg2_9_cif.got.tgz:17350.got - 2010.06.27 13:26:56.
