data_PCOD8023813
_publ_section_title
;
Structure prediction by ZEFSAII (Michael W. Deem and Ramdas Pophale) SiO2 
 PCOD8023813
Probable space group: P -1
;
_chemical_formula_sum "Si O2"
_cell_formula_units_Z 14
_cell_length_a 9.195341
_cell_length_b 17.142355
_cell_length_c 8.521642
_cell_angle_alpha 31.221756
_cell_angle_beta 119.969127
_cell_angle_gamma 115.192367
_cell_volume 603.183342
_symmetry_space_group_name_H-M "P -1"
_symmetry_group_IT_number 2
_symmetry_cell_setting 'triclinic'
loop_
_space_group_symop_operation_xyz
x,y,z
-x,-y,-z
loop_
_atom_site_type_symbol
_atom_site_label
_atom_site_fract_x
_atom_site_fract_y
_atom_site_fract_z
Si Si1 0.698758 0.018943 0.579231
Si Si2 0.739140 0.760931 0.518873
Si Si3 0.628228 0.483275 0.736852
Si Si4 0.501824 0.664839 0.785965
Si Si5 0.099206 0.715476 0.890788
Si Si6 0.975715 0.865040 0.844499
Si Si7 0.744580 0.078668 0.856449
O O1 0.755587 0.160233 0.262208
O O2 0.773032 0.045032 0.746824
O O3 0.500000 0.000000 0.500000
O O4 0.784888 0.870847 0.799823
O O5 0.647251 0.640582 0.565449
O O6 0.685910 0.730713 0.725523
O O7 0.940530 0.747359 0.636219
O O8 0.670322 0.925325 0.153415
O O9 0.500000 0.500000 0.500000
O O10 0.551981 0.349129 0.037005
O O11 0.812525 0.440949 0.840500
O O12 0.375490 0.777429 0.433882
O O13 0.500000 0.500000 0.000000
O O14 0.030593 0.714854 0.035954
O O15 0.000000 0.000000 0.500000
O O16 0.084795 0.882869 0.028927
#
# Coordination Sequence:
#
# PCOD8023813 Si02
#       7
#     2   2   2   2   2   2   2
#     4  11  25  41  70 106 148 184 241 299 363 422
#     4  11  25  44  74 103 144 192 243 295 367 428
#     4  11  26  49  72 103 144 194 246 301 362 428
#     4  10  25  45  70 103 146 185 241 290 365 432
#     4  11  24  47  68 101 153 191 236 303 359 443
#     4  10  23  42  66 107 147 181 237 295 363 426
#     4  12  23  43  78 106 142 190 244 296 367 425
#
# _framework density 23.210190000000001
#
# number of rings (size 3 to 8) (size 9 to 14) (size 15 to 20)
#    0.000    1.143    4.286    1.286    8.000    1.143 
#    0.000    0.714    0.000    0.000    0.000    0.000 
#    0.000    0.000    0.000    0.000    0.000    0.000 
#
# Total GULP energy -173446.854734 kJ/mol
# GULP energy per Si atom -12389.061052 kJ/mol
# Density = 2.315736 g / cm^3
# Si number density = 23.210190 Si / 1000 Ang^3
#
#
#
# Elastic Constant Matrix: (Units=GPa)
#
#
# Indices 1 2 3 4 5 6 
#
# 1 177.7162 52.5067 62.7697 2.1373 18.7500 -9.0465
# 2 52.5067 111.5216 43.5891 19.4545 5.6163 -10.0748
# 3 62.7697 43.5891 129.4867 -0.0290 21.9884 0.0959
# 4 2.1373 19.4545 -0.0290 40.7065 -0.3901 4.4095
# 5 18.7500 5.6163 21.9884 -0.3901 27.1158 -3.5014
# 6 -9.0465 -10.0748 0.0959 4.4095 -3.5014 44.9185
#
#
#
# Elastic Compliance Matrix: (Units=1/GPa)
#
#
# Indices 1 2 3 4 5 6 
#
# 1 0.007513 -0.002561 -0.002324 0.000730 -0.002683 0.000663
# 2 -0.002561 0.012792 -0.003448 -0.006302 0.002234 0.003153
# 3 -0.002324 -0.003448 0.011199 0.001927 -0.006991 -0.001999
# 4 0.000730 -0.006302 0.001927 0.027975 -0.000888 -0.004086
# 5 -0.002683 0.002234 -0.006991 -0.000888 0.044383 0.003522
# 6 0.000663 0.003153 -0.001999 -0.004086 0.003522 0.023783
#
#
# Mechanical properties :
#
#
# Convention : Reuss Voigt Hill
#
# Bulk Modulus (GPa) = 67.39660 81.82840 74.61250
# Shear Modulus (GPa) = 33.49938 39.87210 36.68574
#
# Velocity S-wave (km/s) = 3.80321 4.14922 3.97997
# Velocity P-wave (km/s) = 6.95603 7.63456 7.30318
#
# Compressibility (1/GPa) = 0.01483754
#
# Stress axis : x y z
#
# Youngs Moduli (GPa) = 133.10894 78.17438 89.29251
#
# Poissons Ratio (x) = 0.20021 0.20755
# Poissons Ratio (y) = 0.34089 0.30786
# Poissons Ratio (z) = 0.30939 0.26952
#
# Static dielectric constant tensor:
#      x y z
#    x 5.039920 -0.501540 -0.020200 
#    y -0.501540 4.212060 -0.115490 
#    z -0.020200 -0.115490 4.198220 
# 
# 
# High freq. dielectric constant tensor:
#      x y z
#    x 1.940110 -0.017660 0.012270 
#    y -0.017660 1.914410 -0.001270 
#    z 0.012270 -0.001270 1.898220 
# 
# From -- ./inp_files/159262.got.cif
#   From: 2010.06.25/outbox.cif.g09.slc.cpg/sg2_80_cif.got.tgz:159262.got - 2010.06.27 13:26:56.
