data_PCOD8023436
_publ_section_title
;
Structure prediction by ZEFSAII (Michael W. Deem and Ramdas Pophale) SiO2 
 PCOD8023436
Probable space group: P -1
;
_chemical_formula_sum "Si O2"
_cell_formula_units_Z 16
_cell_length_a 12.789019
_cell_length_b 8.969190
_cell_length_c 17.900628
_cell_angle_alpha 105.250849
_cell_angle_beta 47.272695
_cell_angle_gamma 142.325983
_cell_volume 730.277032
_symmetry_space_group_name_H-M "P -1"
_symmetry_group_IT_number 2
_symmetry_cell_setting 'triclinic'
loop_
_space_group_symop_operation_xyz
x,y,z
-x,-y,-z
loop_
_atom_site_type_symbol
_atom_site_label
_atom_site_fract_x
_atom_site_fract_y
_atom_site_fract_z
Si Si1 0.928419 0.538163 0.470445
Si Si2 0.501389 0.665271 0.287086
Si Si3 0.411053 0.189029 0.146949
Si Si4 0.067321 0.308243 0.150065
Si Si5 0.059278 0.492101 0.702369
Si Si6 0.840301 0.717688 0.733594
Si Si7 0.531476 0.702338 0.541811
Si Si8 0.390585 0.226852 0.323128
O O1 0.605737 0.290267 0.606352
O O2 0.969441 0.480791 0.366683
O O3 0.000000 0.500000 0.500000
O O4 0.103164 0.861589 0.424080
O O5 0.413559 0.601254 0.233575
O O6 0.340604 0.362269 0.355305
O O7 0.840568 0.979810 0.177419
O O8 0.199343 0.134912 0.231850
O O9 0.542187 0.309962 0.184073
O O10 0.665306 0.430538 0.998306
O O11 0.220783 0.860376 0.181322
O O12 0.179252 0.349959 0.179903
O O13 0.920261 0.337723 0.233846
O O14 0.337707 0.645369 0.586741
O O15 0.139077 0.945231 0.582830
O O16 0.500000 0.500000 0.500000
O O17 0.433065 0.625661 0.666158
#
# Coordination Sequence:
#
# PCOD8023436 Si02
#       8
#     2   2   2   2   2   2   2   2
#     4  11  22  40  66  94 136 169 213 282 346 390
#     4  11  24  40  66  99 134 178 213 280 339 398
#     4  10  24  47  68  91 132 187 227 271 321 397
#     4  12  26  45  64  99 140 179 230 268 329 402
#     4  11  25  41  69  98 132 178 219 281 340 394
#     4  11  23  42  71  99 131 171 224 284 333 393
#     4  12  22  41  70 104 128 166 225 278 346 397
#     4  10  23  41  67  94 130 170 223 270 330 402
#
# _framework density 21.909495
#
# number of rings (size 3 to 8) (size 9 to 14) (size 15 to 20)
#    0.000    1.000    2.500    4.125    3.500    3.000 
#    2.250    0.625    0.000    0.000    0.000    0.000 
#    0.000    0.000    0.000    0.000    0.000    0.000 
#
# Total GULP energy -198308.300630 kJ/mol
# GULP energy per Si atom -12394.268789 kJ/mol
# Density = 2.185963 g / cm^3
# Si number density = 21.909495 Si / 1000 Ang^3
#
#
#
# Elastic Constant Matrix: (Units=GPa)
#
#
# Indices 1 2 3 4 5 6 
#
# 1 116.1053 45.2927 66.4288 -3.1892 21.2322 16.1825
# 2 45.2927 101.3886 43.7909 -3.5025 10.6171 13.3361
# 3 66.4288 43.7909 112.1298 -4.9868 18.6640 11.0442
# 4 -3.1892 -3.5025 -4.9868 24.8688 3.2432 -1.5903
# 5 21.2322 10.6171 18.6640 3.2432 34.0467 11.4668
# 6 16.1825 13.3361 11.0442 -1.5903 11.4668 39.0390
#
#
#
# Elastic Compliance Matrix: (Units=1/GPa)
#
#
# Indices 1 2 3 4 5 6 
#
# 1 0.014546 -0.002963 -0.006590 0.000510 -0.003915 -0.001982
# 2 -0.002963 0.012796 -0.003024 0.000635 0.000240 -0.002332
# 3 -0.006590 -0.003024 0.014593 0.002144 -0.003394 0.000721
# 4 0.000510 0.000635 0.002144 0.041816 -0.006548 0.002592
# 5 -0.003915 0.000240 -0.003394 -0.006548 0.037144 -0.008676
# 6 -0.001982 -0.002332 0.000721 0.002592 -0.008676 0.029684
#
#
# Mechanical properties :
#
#
# Convention : Reuss Voigt Hill
#
# Bulk Modulus (GPa) = 59.59576 71.18316 65.38946
# Shear Modulus (GPa) = 27.57449 31.19832 29.38641
#
# Velocity S-wave (km/s) = 3.55147 3.77764 3.66630
# Velocity P-wave (km/s) = 6.63907 7.18245 6.91610
#
# Compressibility (1/GPa) = 0.01677972
#
# Stress axis : x y z
#
# Youngs Moduli (GPa) = 68.74882 78.14682 68.52672
#
# Poissons Ratio (x) = 0.23156 0.45162
# Poissons Ratio (y) = 0.20371 0.20723
# Poissons Ratio (z) = 0.45309 0.23632
#
# Static dielectric constant tensor:
#      x y z
#    x 4.118170 0.116640 0.248260 
#    y 0.116640 4.125860 0.141160 
#    z 0.248260 0.141160 3.759780 
# 
# 
# High freq. dielectric constant tensor:
#      x y z
#    x 1.866200 0.001600 0.015360 
#    y 0.001600 1.874680 0.007630 
#    z 0.015360 0.007630 1.839230 
# 
# From -- ./inp_files/566775.got.cif
#   From: 2010.06.25/outbox.cif.g09.slc.cpg/sg2_284_cif.got.tgz:566775.got - 2010.06.27 13:26:56.
