data_PCOD8023931
_publ_section_title
;
Structure prediction by ZEFSAII (Michael W. Deem and Ramdas Pophale) SiO2 
 PCOD8023931
Probable space group: P -1
;
_chemical_formula_sum "Si O2"
_cell_formula_units_Z 16
_cell_length_a 7.368680
_cell_length_b 20.091338
_cell_length_c 6.052822
_cell_angle_alpha 128.610208
_cell_angle_beta 79.068015
_cell_angle_gamma 112.588199
_cell_volume 644.949200
_symmetry_space_group_name_H-M "P -1"
_symmetry_group_IT_number 2
_symmetry_cell_setting 'triclinic'
loop_
_space_group_symop_operation_xyz
x,y,z
-x,-y,-z
loop_
_atom_site_type_symbol
_atom_site_label
_atom_site_fract_x
_atom_site_fract_y
_atom_site_fract_z
Si Si1 0.592301 0.135933 0.872840
Si Si2 0.772642 0.723662 0.686884
Si Si3 0.078047 0.687927 0.839090
Si Si4 0.225663 0.016881 0.428842
Si Si5 0.809091 0.422092 0.800205
Si Si6 0.251270 0.411972 0.975528
Si Si7 0.509576 0.683955 0.046704
Si Si8 0.336032 0.152573 0.331385
O O1 0.389745 0.093591 0.694992
O O2 0.726325 0.073832 0.735253
O O3 0.730461 0.232498 0.934568
O O4 0.536941 0.155880 0.173773
O O5 0.555194 0.699061 0.804814
O O6 0.808173 0.817847 0.740302
O O7 0.941400 0.739205 0.863770
O O8 0.771600 0.641936 0.360666
O O9 0.149748 0.634032 0.526013
O O10 0.963077 0.621810 0.923873
O O11 0.241365 0.051268 0.242229
O O12 0.000000 0.000000 0.500000
O O13 0.674315 0.479041 0.858168
O O14 0.714853 0.357380 0.899217
O O15 0.000000 0.500000 0.000000
O O16 0.403949 0.393703 0.065941
O O17 0.621122 0.778027 0.334209
#
# Coordination Sequence:
#
# PCOD8023931 Si02
#       8
#     2   2   2   2   2   2   2   2
#     4  11  26  48  75 109 147 190 237 297 372 434
#     4  10  23  43  70 104 139 199 239 295 363 427
#     4  11  24  46  71 105 148 191 245 298 362 441
#     4  11  28  49  76 111 145 186 239 303 366 443
#     4  12  23  43  66 105 141 192 246 306 358 412
#     4  10  23  42  67  99 145 196 241 301 359 421
#     4  10  23  43  67  98 144 190 248 292 356 440
#     4  11  23  47  73 105 143 189 240 295 371 433
#
# _framework density 24.808157999999999
#
# number of rings (size 3 to 8) (size 9 to 14) (size 15 to 20)
#    0.000    1.250    2.500    1.875    7.000    4.000 
#    6.750    0.000    0.000    0.000    0.000    0.000 
#    0.000    0.000    0.000    0.000    0.000    0.000 
#
# Total GULP energy -198288.047112 kJ/mol
# GULP energy per Si atom -12393.002945 kJ/mol
# Density = 2.475169 g / cm^3
# Si number density = 24.808158 Si / 1000 Ang^3
#
#
#
# Elastic Constant Matrix: (Units=GPa)
#
#
# Indices 1 2 3 4 5 6 
#
# 1 98.6072 12.3216 24.8969 1.2543 -6.4055 -0.1235
# 2 12.3216 134.7782 38.7854 -12.8668 -11.0880 11.9422
# 3 24.8969 38.7854 114.3574 -12.6352 -23.5288 14.5636
# 4 1.2543 -12.8668 -12.6352 40.4549 5.6740 -9.9594
# 5 -6.4055 -11.0880 -23.5288 5.6740 38.2185 -0.1762
# 6 -0.1235 11.9422 14.5636 -9.9594 -0.1762 41.7510
#
#
#
# Elastic Compliance Matrix: (Units=1/GPa)
#
#
# Indices 1 2 3 4 5 6 
#
# 1 0.010828 -0.000453 -0.002330 -0.001089 0.000414 0.000716
# 2 -0.000453 0.008438 -0.002281 0.001578 0.000728 -0.001240
# 3 -0.002330 -0.002281 0.011813 0.001430 0.005993 -0.003108
# 4 -0.001089 0.001578 0.001430 0.027484 -0.002899 0.005590
# 5 0.000414 0.000728 0.005993 -0.002899 0.030553 -0.002860
# 6 0.000716 -0.001240 -0.003108 0.005590 -0.002860 0.026714
#
#
# Mechanical properties :
#
#
# Convention : Reuss Voigt Hill
#
# Bulk Modulus (GPa) = 47.73332 55.52785 51.63058
# Shear Modulus (GPa) = 37.61081 42.20080 39.90581
#
# Velocity S-wave (km/s) = 3.89789 4.12890 4.01506
# Velocity P-wave (km/s) = 6.28815 6.72026 6.50779
#
# Compressibility (1/GPa) = 0.02094973
#
# Stress axis : x y z
#
# Youngs Moduli (GPa) = 92.35489 118.51411 84.65601
#
# Poissons Ratio (x) = 0.05365 0.19727
# Poissons Ratio (y) = 0.04181 0.19312
# Poissons Ratio (z) = 0.21521 0.27036
#
# Static dielectric constant tensor:
#      x y z
#    x 4.965010 -0.672440 -0.461450 
#    y -0.672440 6.065270 0.252200 
#    z -0.461450 0.252200 4.475330 
# 
# 
# High freq. dielectric constant tensor:
#      x y z
#    x 2.000670 -0.014220 -0.023180 
#    y -0.014220 2.005280 -0.006500 
#    z -0.023180 -0.006500 1.978530 
# 
# From -- ./inp_files/53921.got.cif
#   From: 2010.06.25/outbox.cif.g09.slc.cpg/sg2_27_cif.got.tgz:53921.got - 2010.06.27 13:26:56.
