data_PCOD8023712
_publ_section_title
;
Structure prediction by ZEFSAII (Michael W. Deem and Ramdas Pophale) SiO2 
 PCOD8023712
Probable space group: P -1
;
_chemical_formula_sum "Si O2"
_cell_formula_units_Z 14
_cell_length_a 20.931771
_cell_length_b 7.806906
_cell_length_c 17.768212
_cell_angle_alpha 140.274274
_cell_angle_beta 17.867434
_cell_angle_gamma 139.143532
_cell_volume 564.955463
_symmetry_space_group_name_H-M "P -1"
_symmetry_group_IT_number 2
_symmetry_cell_setting 'triclinic'
loop_
_space_group_symop_operation_xyz
x,y,z
-x,-y,-z
loop_
_atom_site_type_symbol
_atom_site_label
_atom_site_fract_x
_atom_site_fract_y
_atom_site_fract_z
Si Si1 0.093425 0.752357 0.348115
Si Si2 0.370721 0.065619 0.259760
Si Si3 0.258644 0.927209 0.808533
Si Si4 0.074257 0.403429 0.113776
Si Si5 0.369288 0.661206 0.453926
Si Si6 0.681978 0.745393 0.883086
Si Si7 0.072585 0.868318 0.153994
O O1 0.160899 0.547011 0.141835
O O2 0.890339 0.623678 0.579623
O O3 0.300099 0.861727 0.201329
O O4 0.000000 0.000000 0.500000
O O5 0.444925 0.372028 0.254797
O O6 0.164889 0.066297 0.544116
O O7 0.584895 0.980053 0.025179
O O8 0.462858 0.088344 0.672853
O O9 0.310377 0.675312 0.614802
O O10 0.179340 0.127851 0.901338
O O11 0.099449 0.826675 0.020245
O O12 0.116397 0.596398 0.058371
O O13 0.827865 0.317641 0.371176
O O14 0.756659 0.881106 0.925442
O O15 0.500000 0.500000 0.000000
#
# Coordination Sequence:
#
# PCOD8023712 Si02
#       7
#     2   2   2   2   2   2   2
#     4  11  22  41  62  95 127 171 211 256 319 390
#     4  10  23  42  64  91 133 172 208 263 323 374
#     4  11  25  42  70  94 127 168 215 271 314 371
#     4  11  23  44  66  93 134 167 213 261 320 379
#     4  10  23  44  65  97 123 166 221 258 322 386
#     4  11  25  38  60  96 133 167 215 260 317 381
#     4  10  24  43  61  97 129 165 219 259 312 389
#
# _framework density 24.780716000000002
#
# number of rings (size 3 to 8) (size 9 to 14) (size 15 to 20)
#    0.000    1.429    4.286    1.286    6.000    4.000 
#    0.000    6.429    0.000    0.000    0.000    0.000 
#    0.000    0.000    0.000    0.000    0.000    0.000 
#
# Total GULP energy -173444.851998 kJ/mol
# GULP energy per Si atom -12388.918000 kJ/mol
# Density = 2.472431 g / cm^3
# Si number density = 24.780716 Si / 1000 Ang^3
#
#
#
# Elastic Constant Matrix: (Units=GPa)
#
#
# Indices 1 2 3 4 5 6 
#
# 1 82.4633 11.7616 29.3489 -0.6645 8.9594 5.9501
# 2 11.7616 79.5982 7.1962 -2.8212 -12.2705 8.0297
# 3 29.3489 7.1962 47.4630 -2.9054 -14.6736 4.0190
# 4 -0.6645 -2.8212 -2.9054 21.0328 4.1820 -10.6556
# 5 8.9594 -12.2705 -14.6736 4.1820 40.6090 -11.4508
# 6 5.9501 8.0297 4.0190 -10.6556 -11.4508 32.0865
#
#
#
# Elastic Compliance Matrix: (Units=1/GPa)
#
#
# Indices 1 2 3 4 5 6 
#
# 1 0.019667 -0.002877 -0.015115 -0.002593 -0.012161 -0.006235
# 2 -0.002877 0.013757 0.001331 0.000351 0.004894 -0.001213
# 3 -0.015115 0.001331 0.035461 0.003944 0.017743 0.005670
# 4 -0.002593 0.000351 0.003944 0.057676 0.001708 0.019662
# 5 -0.012161 0.004894 0.017743 0.001708 0.038745 0.013202
# 6 -0.006235 -0.001213 0.005670 0.019662 0.013202 0.043156
#
#
# Mechanical properties :
#
#
# Convention : Reuss Voigt Hill
#
# Bulk Modulus (GPa) = 28.12088 34.01532 31.06810
# Shear Modulus (GPa) = 19.71297 29.49351 24.60324
#
# Velocity S-wave (km/s) = 2.82351 3.45364 3.15435
# Velocity P-wave (km/s) = 4.69065 5.44609 5.08242
#
# Compressibility (1/GPa) = 0.03556077
#
# Stress axis : x y z
#
# Youngs Moduli (GPa) = 50.84694 72.68914 28.20028
#
# Poissons Ratio (x) = 0.20914 0.42626
# Poissons Ratio (y) = 0.14629 -0.03752
# Poissons Ratio (z) = 0.76857 -0.09672
#
# Static dielectric constant tensor:
#      x y z
#    x 4.273310 0.179510 -0.397410 
#    y 0.179510 4.604540 -0.359780 
#    z -0.397410 -0.359780 4.282600 
# 
# 
# High freq. dielectric constant tensor:
#      x y z
#    x 1.964910 0.026460 -0.012860 
#    y 0.026460 1.994850 -0.008970 
#    z -0.012860 -0.008970 1.998650 
# 
# From -- ./inp_files/313211.got.cif
#   From: 2010.06.25/outbox.cif.g09.slc.cpg/sg2_157_cif.got.tgz:313211.got - 2010.06.27 13:26:56.
