data_PCOD8023136
_publ_section_title
;
Structure prediction by ZEFSAII (Michael W. Deem and Ramdas Pophale) SiO2 
 PCOD8023136
Probable space group: P -1
;
_chemical_formula_sum "Si O2"
_cell_formula_units_Z 14
_cell_length_a 10.605806
_cell_length_b 9.228469
_cell_length_c 18.181922
_cell_angle_alpha 119.062355
_cell_angle_beta 151.161864
_cell_angle_gamma 80.411256
_cell_volume 592.087980
_symmetry_space_group_name_H-M "P -1"
_symmetry_group_IT_number 2
_symmetry_cell_setting 'triclinic'
loop_
_space_group_symop_operation_xyz
x,y,z
-x,-y,-z
loop_
_atom_site_type_symbol
_atom_site_label
_atom_site_fract_x
_atom_site_fract_y
_atom_site_fract_z
Si Si1 0.764320 0.732098 0.519383
Si Si2 0.195997 0.117116 0.202678
Si Si3 0.068390 0.535100 0.385377
Si Si4 0.256589 0.769870 0.980213
Si Si5 0.977556 0.481772 0.897570
Si Si6 0.030407 0.853741 0.531408
Si Si7 0.854577 0.083018 0.729162
O O1 0.921306 0.615670 0.590407
O O2 0.397877 0.607836 0.336439
O O3 0.761171 0.752812 0.434483
O O4 0.981916 0.968652 0.723290
O O5 0.578879 0.298233 0.430174
O O6 0.037412 0.216174 0.184386
O O7 0.154997 0.947981 0.195415
O O8 0.000000 0.000000 0.000000
O O9 0.963732 0.659684 0.405161
O O10 0.795454 0.395338 0.147494
O O11 0.227270 0.692649 0.030406
O O12 0.606267 0.000021 0.209228
O O13 0.076741 0.331671 0.888483
O O14 0.000000 0.500000 0.000000
O O15 0.000000 0.000000 0.500000
O O16 0.500000 0.000000 0.500000
#
# Coordination Sequence:
#
# PCOD8023136 Si02
#       7
#     2   2   2   2   2   2   2
#     4  11  24  47  66 100 140 183 234 286 354 424
#     4  12  22  43  76 110 142 183 241 303 353 420
#     4  12  25  46  75 100 143 186 241 291 354 428
#     4  12  25  47  74 106 137 189 239 293 360 425
#     4  11  23  41  71 106 139 179 236 295 353 412
#     4  12  30  48  69 103 147 187 234 295 361 434
#     4  10  23  40  69 103 144 180 231 299 352 413
#
# _framework density 23.645133999999999
#
# number of rings (size 3 to 8) (size 9 to 14) (size 15 to 20)
#    0.000    0.571    4.286    4.286    6.000    1.143 
#    2.571    0.000    0.000    0.000    0.000    0.000 
#    0.000    0.000    0.000    0.000    0.000    0.000 
#
# Total GULP energy -173599.992132 kJ/mol
# GULP energy per Si atom -12399.999438 kJ/mol
# Density = 2.359132 g / cm^3
# Si number density = 23.645134 Si / 1000 Ang^3
#
#
#
# Elastic Constant Matrix: (Units=GPa)
#
#
# Indices 1 2 3 4 5 6 
#
# 1 103.9202 36.3962 19.5501 6.2787 -20.7255 -9.4955
# 2 36.3962 139.3052 -2.6028 -7.2219 -12.3297 -6.9241
# 3 19.5501 -2.6028 60.3430 6.4558 -24.6525 -4.7158
# 4 6.2787 -7.2219 6.4558 34.3867 5.3417 -14.4449
# 5 -20.7255 -12.3297 -24.6525 5.3417 40.1819 6.4079
# 6 -9.4955 -6.9241 -4.7158 -14.4449 6.4079 47.1768
#
#
#
# Elastic Compliance Matrix: (Units=1/GPa)
#
#
# Indices 1 2 3 4 5 6 
#
# 1 0.012125 -0.002943 -0.001823 -0.003099 0.004604 0.000252
# 2 -0.002943 0.008307 0.001861 0.002200 0.001680 0.001259
# 3 -0.001823 0.001861 0.024310 -0.007135 0.015813 -0.001996
# 4 -0.003099 0.002200 -0.007135 0.038632 -0.012430 0.012503
# 5 0.004604 0.001680 0.015813 -0.012430 0.040169 -0.006508
# 6 0.000252 0.001259 -0.001996 0.012503 -0.006508 0.025945
#
#
# Mechanical properties :
#
#
# Convention : Reuss Voigt Hill
#
# Bulk Modulus (GPa) = 25.68487 45.58394 35.63441
# Shear Modulus (GPa) = 29.71335 41.03073 35.37204
#
# Velocity S-wave (km/s) = 3.54875 4.17018 3.87195
# Velocity P-wave (km/s) = 5.26097 6.51977 5.92390
#
# Compressibility (1/GPa) = 0.03893343
#
# Stress axis : x y z
#
# Youngs Moduli (GPa) = 82.47552 120.37538 41.13503
#
# Poissons Ratio (x) = 0.35421 0.07498
# Poissons Ratio (y) = 0.24268 -0.07655
# Poissons Ratio (z) = 0.15034 -0.22400
#
# Static dielectric constant tensor:
#      x y z
#    x 4.243830 -0.268790 -0.234620 
#    y -0.268790 4.764350 0.250580 
#    z -0.234620 0.250580 4.319060 
# 
# 
# High freq. dielectric constant tensor:
#      x y z
#    x 1.928570 -0.001060 -0.022360 
#    y -0.001060 1.955030 0.003240 
#    z -0.022360 0.003240 1.929130 
# 
# From -- ./inp_files/566104.got.cif
#   From: 2010.06.25/outbox.cif.g09.slc.cpg/sg2_284_cif.got.tgz:566104.got - 2010.06.27 13:26:56.
