data_PCOD8023085
_publ_section_title
;
Structure prediction by ZEFSAII (Michael W. Deem and Ramdas Pophale) SiO2 
 PCOD8023085
Probable space group: P -1
;
_chemical_formula_sum "Si O2"
_cell_formula_units_Z 16
_cell_length_a 29.728431
_cell_length_b 24.565002
_cell_length_c 11.043153
_cell_angle_alpha 31.916440
_cell_angle_beta 32.072938
_cell_angle_gamma 10.446763
_cell_volume 766.351867
_symmetry_space_group_name_H-M "P -1"
_symmetry_group_IT_number 2
_symmetry_cell_setting 'triclinic'
loop_
_space_group_symop_operation_xyz
x,y,z
-x,-y,-z
loop_
_atom_site_type_symbol
_atom_site_label
_atom_site_fract_x
_atom_site_fract_y
_atom_site_fract_z
Si Si1 0.820950 0.385832 0.998618
Si Si2 0.737889 0.361012 0.016264
Si Si3 0.028463 0.116220 0.603628
Si Si4 0.744595 0.706984 0.575048
Si Si5 0.383868 0.291913 0.714288
Si Si6 0.765542 0.731092 0.755386
Si Si7 0.485340 0.328450 0.612699
Si Si8 0.634151 0.328744 0.889994
O O1 0.646868 0.537032 0.002860
O O2 0.701109 0.498629 0.186976
O O3 0.854905 0.468244 0.751148
O O4 0.090325 0.027014 0.045285
O O5 0.511043 0.589711 0.013766
O O6 0.939474 0.197636 0.790243
O O7 0.866795 0.112723 0.251330
O O8 0.810465 0.405127 0.469805
O O9 0.244138 0.955099 0.414998
O O10 0.674718 0.802567 0.694381
O O11 0.950229 0.554719 0.352812
O O12 0.500000 0.000000 0.500000
O O13 0.531699 0.183827 0.684948
O O14 0.578722 0.033934 0.654687
O O15 0.239825 0.358896 0.971434
O O16 0.354719 0.576812 0.383763
O O17 0.500000 0.500000 0.000000
#
# Coordination Sequence:
#
# PCOD8023085 Si02
#       8
#     2   2   2   2   2   2   2   2
#     4  12  25  41  68  97 134 178 213 271 338 388
#     4  10  23  41  63 103 130 172 221 259 326 404
#     4  10  23  40  67  95 135 169 218 268 324 398
#     4  11  27  47  68  96 135 171 226 277 330 393
#     4  11  23  43  70  95 133 172 223 279 327 382
#     4  10  26  46  67  98 126 175 230 278 329 387
#     4  11  24  41  64 102 135 172 216 264 331 401
#     4  11  24  43  70  99 137 171 219 269 324 405
#
# _framework density 20.878138
#
# number of rings (size 3 to 8) (size 9 to 14) (size 15 to 20)
#    0.000    1.250    1.250    4.125    8.750    4.000 
#    0.000    2.500    0.000    0.000    0.000    0.000 
#    0.000    0.000    0.000    0.000    0.000    0.000 
#
# Total GULP energy -198465.619147 kJ/mol
# GULP energy per Si atom -12404.101197 kJ/mol
# Density = 2.083062 g / cm^3
# Si number density = 20.878138 Si / 1000 Ang^3
#
#
#
# Elastic Constant Matrix: (Units=GPa)
#
#
# Indices 1 2 3 4 5 6 
#
# 1 145.5084 48.5501 22.5304 -4.2310 -12.0176 13.5991
# 2 48.5501 77.0120 18.9657 8.5294 -5.3383 -7.5853
# 3 22.5304 18.9657 69.3799 3.8070 -8.0113 -2.3472
# 4 -4.2310 8.5294 3.8070 15.1758 0.1485 0.1304
# 5 -12.0176 -5.3383 -8.0113 0.1485 28.2911 -6.6293
# 6 13.5991 -7.5853 -2.3472 0.1304 -6.6293 30.5379
#
#
#
# Elastic Compliance Matrix: (Units=1/GPa)
#
#
# Indices 1 2 3 4 5 6 
#
# 1 0.010666 -0.007713 -0.001901 0.007833 0.000940 -0.006641
# 2 -0.007713 0.020856 -0.001883 -0.013500 0.002313 0.009030
# 3 -0.001901 -0.001883 0.016299 -0.003622 0.004064 0.002529
# 4 0.007833 -0.013500 -0.003622 0.076668 -0.002521 -0.007995
# 5 0.000940 0.002313 0.004064 -0.002521 0.039466 0.009047
# 6 -0.006641 0.009030 0.002529 -0.007995 0.009047 0.040139
#
#
# Mechanical properties :
#
#
# Convention : Reuss Voigt Hill
#
# Bulk Modulus (GPa) = 40.27904 52.44362 46.36133
# Shear Modulus (GPa) = 21.24361 28.25790 24.75075
#
# Velocity S-wave (km/s) = 3.19330 3.68294 3.44682
# Velocity P-wave (km/s) = 5.73851 6.57715 6.17209
#
# Compressibility (1/GPa) = 0.02482681
#
# Stress axis : x y z
#
# Youngs Moduli (GPa) = 93.75310 47.94823 61.35233
#
# Poissons Ratio (x) = 0.36980 0.11666
# Poissons Ratio (y) = 0.72308 0.11554
# Poissons Ratio (z) = 0.17827 0.09030
#
# Static dielectric constant tensor:
#      x y z
#    x 3.923680 0.085080 -0.131020 
#    y 0.085080 3.719400 -0.006720 
#    z -0.131020 -0.006720 3.950320 
# 
# 
# High freq. dielectric constant tensor:
#      x y z
#    x 1.832290 0.001470 -0.007030 
#    y 0.001470 1.806730 0.004470 
#    z -0.007030 0.004470 1.830240 
# 
# From -- ./inp_files/272053.got.cif
#   From: 2010.06.25/outbox.cif.g09.slc.cpg/sg2_137_cif.got.tgz:272053.got - 2010.06.27 13:26:56.
