data_PCOD8023420
_publ_section_title
;
Structure prediction by ZEFSAII (Michael W. Deem and Ramdas Pophale) SiO2 
 PCOD8023420
Probable space group: P -1
;
_chemical_formula_sum "Si O2"
_cell_formula_units_Z 14
_cell_length_a 20.502515
_cell_length_b 7.469263
_cell_length_c 8.546852
_cell_angle_alpha 120.063327
_cell_angle_beta 30.448979
_cell_angle_gamma 117.113873
_cell_volume 573.205556
_symmetry_space_group_name_H-M "P -1"
_symmetry_group_IT_number 2
_symmetry_cell_setting 'triclinic'
loop_
_space_group_symop_operation_xyz
x,y,z
-x,-y,-z
loop_
_atom_site_type_symbol
_atom_site_label
_atom_site_fract_x
_atom_site_fract_y
_atom_site_fract_z
Si Si1 0.999340 0.281040 0.197034
Si Si2 0.210878 0.114309 0.158731
Si Si3 0.949258 0.263855 0.642986
Si Si4 0.759617 0.837569 0.516585
Si Si5 0.566661 0.602718 0.258914
Si Si6 0.724308 0.251378 0.620470
Si Si7 0.616195 0.417802 0.627082
O O1 0.958055 0.186979 0.410103
O O2 0.874476 0.315098 0.365380
O O3 0.078066 0.497618 0.171884
O O4 0.093169 0.136180 0.842190
O O5 0.252741 0.158466 0.269718
O O6 0.079587 0.226129 0.448397
O O7 0.176649 0.869796 0.088960
O O8 0.326818 0.206528 0.847439
O O9 0.702465 0.617713 0.478016
O O10 0.685201 0.025808 0.675660
O O11 0.500000 0.500000 0.500000
O O12 0.450359 0.691639 0.435210
O O13 0.640382 0.421590 0.945830
O O14 0.696515 0.257764 0.493837
O O15 0.500000 0.500000 0.000000
#
# Coordination Sequence:
#
# PCOD8023420 Si02
#       7
#     2   2   2   2   2   2   2
#     4  11  23  42  70 105 145 187 227 287 361 418
#     4  11  22  44  67 104 143 182 241 288 343 427
#     4  10  23  41  67 100 151 181 226 292 352 411
#     4  12  24  43  72 107 141 187 238 281 354 429
#     4  11  25  48  73  98 142 188 236 297 353 415
#     4  11  23  45  71 102 144 179 236 297 344 413
#     4  10  23  45  67  97 138 181 239 290 344 405
#
# _framework density 24.424049
#
# number of rings (size 3 to 8) (size 9 to 14) (size 15 to 20)
#    0.000    1.143    5.714    0.429    2.000    4.571 
#    2.571    2.143    0.000    0.000    0.000    0.000 
#    0.000    0.000    0.000    0.000    0.000    0.000 
#
# Total GULP energy -173546.228565 kJ/mol
# GULP energy per Si atom -12396.159183 kJ/mol
# Density = 2.436846 g / cm^3
# Si number density = 24.424049 Si / 1000 Ang^3
#
#
#
# Elastic Constant Matrix: (Units=GPa)
#
#
# Indices 1 2 3 4 5 6 
#
# 1 156.6749 46.1654 36.3272 -14.6770 -20.1289 -19.0882
# 2 46.1654 104.6164 26.5098 -45.2407 -6.8557 -20.9091
# 3 36.3272 26.5098 71.7305 -30.7251 -4.7783 -7.1166
# 4 -14.6770 -45.2407 -30.7251 49.0201 -0.7375 -5.7091
# 5 -20.1289 -6.8557 -4.7783 -0.7375 29.6984 -3.2110
# 6 -19.0882 -20.9091 -7.1166 -5.7091 -3.2110 34.9335
#
#
#
# Elastic Compliance Matrix: (Units=1/GPa)
#
#
# Indices 1 2 3 4 5 6 
#
# 1 0.008877 -0.003206 -0.003763 -0.002326 0.004855 0.002232
# 2 -0.003206 0.028684 0.008363 0.033624 0.009166 0.023458
# 3 -0.003763 0.008363 0.024299 0.023320 0.005187 0.012188
# 4 -0.002326 0.033624 0.023320 0.069832 0.015613 0.036453
# 5 0.004855 0.009166 0.005187 0.015613 0.041988 0.015607
# 6 0.002232 0.023458 0.012188 0.036453 0.015607 0.053761
#
#
# Mechanical properties :
#
#
# Convention : Reuss Voigt Hill
#
# Bulk Modulus (GPa) = 15.46777 61.22517 38.34647
# Shear Modulus (GPa) = 20.30858 37.66504 28.98681
#
# Velocity S-wave (km/s) = 2.88670 3.93126 3.44875
# Velocity P-wave (km/s) = 4.17822 6.76227 5.62076
#
# Compressibility (1/GPa) = 0.06465054
#
# Stress axis : x y z
#
# Youngs Moduli (GPa) = 112.64599 34.86288 41.15357
#
# Poissons Ratio (x) = 0.11176 0.15484
# Poissons Ratio (y) = 0.36110 -0.34418
# Poissons Ratio (z) = 0.42384 -0.29157
#
# Static dielectric constant tensor:
#      x y z
#    x 3.511810 -0.618780 0.279990 
#    y -0.618780 4.449140 -0.233580 
#    z 0.279990 -0.233580 4.192180 
# 
# 
# High freq. dielectric constant tensor:
#      x y z
#    x 1.975070 -0.004020 -0.008780 
#    y -0.004020 1.982010 -0.019560 
#    z -0.008780 -0.019560 1.956230 
# 
# From -- ./inp_files/342898.got.cif
#   From: 2010.06.25/outbox.cif.g09.slc.cpg/sg2_172_cif.got.tgz:342898.got - 2010.06.27 13:26:56.
