data_PCOD8023049
_publ_section_title
;
Structure prediction by ZEFSAII (Michael W. Deem and Ramdas Pophale) SiO2 
 PCOD8023049
Probable space group: P -1
;
_chemical_formula_sum "Si O2"
_cell_formula_units_Z 14
_cell_length_a 21.884987
_cell_length_b 8.977832
_cell_length_c 9.248450
_cell_angle_alpha 52.876787
_cell_angle_beta 127.392813
_cell_angle_gamma 150.628943
_cell_volume 695.084478
_symmetry_space_group_name_H-M "P -1"
_symmetry_group_IT_number 2
_symmetry_cell_setting 'triclinic'
loop_
_space_group_symop_operation_xyz
x,y,z
-x,-y,-z
loop_
_atom_site_type_symbol
_atom_site_label
_atom_site_fract_x
_atom_site_fract_y
_atom_site_fract_z
Si Si1 0.771283 0.691956 0.932074
Si Si2 0.821507 0.454310 0.941727
Si Si3 0.499743 0.313200 0.700573
Si Si4 0.966777 0.397314 0.846907
Si Si5 0.331998 0.667525 0.721036
Si Si6 0.108153 0.347165 0.399517
Si Si7 0.540556 0.768100 0.974724
O O1 0.837022 0.666578 0.938935
O O2 0.635359 0.474526 0.793603
O O3 0.849792 0.032494 0.863990
O O4 0.758435 0.580183 0.136983
O O5 0.885091 0.629637 0.777386
O O6 0.907244 0.451028 0.133971
O O7 0.678480 0.103279 0.924388
O O8 0.500000 0.500000 0.500000
O O9 0.459605 0.269505 0.833131
O O10 0.394736 0.981076 0.673534
O O11 0.925277 0.517576 0.652766
O O12 0.000000 0.500000 0.000000
O O13 0.245660 0.538341 0.533773
O O14 0.439836 0.726839 0.802528
O O15 0.000000 0.000000 0.500000
O O16 0.500000 0.500000 0.000000
#
# Coordination Sequence:
#
# PCOD8023049 Si02
#       7
#     2   2   2   2   2   2   2
#     4  11  21  44  66  93 125 173 211 262 319 380
#     4  11  23  44  65  94 129 168 218 257 318 382
#     4  11  23  41  65  94 133 165 210 262 322 380
#     4  10  23  40  66  89 124 171 214 257 318 372
#     4  11  22  43  65  92 134 165 211 261 321 380
#     4  11  26  43  64  95 130 168 214 265 319 372
#     4  11  25  40  67  99 127 171 211 259 321 378
#
# _framework density 20.141435000000001
#
# number of rings (size 3 to 8) (size 9 to 14) (size 15 to 20)
#    0.000    1.143    2.857    3.857   12.000    1.714 
#    0.000    1.429    0.000    0.000    0.000    0.000 
#    0.000    0.000    0.000    0.000    0.000    0.000 
#
# Total GULP energy -173603.460115 kJ/mol
# GULP energy per Si atom -12400.247151 kJ/mol
# Density = 2.009559 g / cm^3
# Si number density = 20.141435 Si / 1000 Ang^3
#
#
#
# Elastic Constant Matrix: (Units=GPa)
#
#
# Indices 1 2 3 4 5 6 
#
# 1 107.6366 40.4765 24.3205 -21.5765 12.2276 4.7249
# 2 40.4765 137.1095 18.4565 -21.2136 8.2990 -5.4746
# 3 24.3205 18.4565 72.1149 -12.8985 21.8410 13.0639
# 4 -21.5765 -21.2136 -12.8985 35.7698 -4.8993 8.4377
# 5 12.2276 8.2990 21.8410 -4.8993 23.5037 -2.9417
# 6 4.7249 -5.4746 13.0639 8.4377 -2.9417 39.6445
#
#
#
# Elastic Compliance Matrix: (Units=1/GPa)
#
#
# Indices 1 2 3 4 5 6 
#
# 1 0.012121 -0.002477 -0.000636 0.005796 -0.004021 -0.003109
# 2 -0.002477 0.008679 -0.001069 0.002980 -0.000009 0.001211
# 3 -0.000636 -0.001069 0.024314 0.007432 -0.021748 -0.011280
# 4 0.005796 0.002980 0.007432 0.037914 -0.004463 -0.011129
# 5 -0.004021 -0.000009 -0.021748 -0.004463 0.065606 0.013463
# 6 -0.003109 0.001211 -0.011280 -0.011129 0.013463 0.032846
#
#
# Mechanical properties :
#
#
# Convention : Reuss Voigt Hill
#
# Bulk Modulus (GPa) = 27.21149 53.70756 40.45953
# Shear Modulus (GPa) = 24.74105 35.35745 30.04925
#
# Velocity S-wave (km/s) = 3.50861 4.19436 3.86672
# Velocity P-wave (km/s) = 5.47296 7.08379 6.32982
#
# Compressibility (1/GPa) = 0.03674918
#
# Stress axis : x y z
#
# Youngs Moduli (GPa) = 82.50421 115.22646 41.12806
#
# Poissons Ratio (x) = 0.28537 0.02617
# Poissons Ratio (y) = 0.20433 0.04398
# Poissons Ratio (z) = 0.05249 0.12321
#
# Static dielectric constant tensor:
#      x y z
#    x 3.972540 0.006320 0.366470 
#    y 0.006320 3.761120 0.024490 
#    z 0.366470 0.024490 3.761150 
# 
# 
# High freq. dielectric constant tensor:
#      x y z
#    x 1.794660 -0.002790 0.019750 
#    y -0.002790 1.806510 0.002760 
#    z 0.019750 0.002760 1.780310 
# 
# From -- ./inp_files/171822.got.cif
#   From: 2010.06.25/outbox.cif.g09.slc.cpg/sg2_86_cif.got.tgz:171822.got - 2010.06.27 13:26:56.
