data_PCOD8023240
_publ_section_title
;
Structure prediction by ZEFSAII (Michael W. Deem and Ramdas Pophale) SiO2 
 PCOD8023240
Probable space group: P -1
;
_chemical_formula_sum "Si O2"
_cell_formula_units_Z 10
_cell_length_a 16.344488
_cell_length_b 12.891358
_cell_length_c 12.801080
_cell_angle_alpha 143.178155
_cell_angle_beta 164.568622
_cell_angle_gamma 31.588816
_cell_volume 371.803065
_symmetry_space_group_name_H-M "P -1"
_symmetry_group_IT_number 2
_symmetry_cell_setting 'triclinic'
loop_
_space_group_symop_operation_xyz
x,y,z
-x,-y,-z
loop_
_atom_site_type_symbol
_atom_site_label
_atom_site_fract_x
_atom_site_fract_y
_atom_site_fract_z
Si Si1 0.413923 0.828614 0.774933
Si Si2 0.246328 0.429841 0.426285
Si Si3 0.725865 0.197440 0.202115
Si Si4 0.309600 0.885326 0.131796
Si Si5 0.319433 0.709693 0.353375
O O1 0.539424 0.723714 0.959548
O O2 0.519093 0.668504 0.679767
O O3 0.980275 0.959165 0.341734
O O4 0.500000 0.000000 0.000000
O O5 0.083384 0.663396 0.450277
O O6 0.610571 0.289947 0.828036
O O7 0.358050 0.407153 0.424349
O O8 0.961644 0.366033 0.054745
O O9 0.533188 0.220999 0.873179
O O10 0.500000 0.000000 0.500000
O O11 0.887666 0.049659 0.733192
#
# Coordination Sequence:
#
# PCOD8023240 Si02
#       5
#     2   2   2   2   2
#     4  10  24  42  65  87 128 172 211 258 311 379
#     4  11  23  42  65  99 127 161 210 263 311 373
#     4  10  23  41  63  95 124 167 212 261 313 369
#     4   9  20  42  66  92 128 168 205 256 316 380
#     4  10  24  41  67  92 130 168 206 254 319 371
#
# _framework density 26.895959999999999
#
# number of rings (size 3 to 8) (size 9 to 14) (size 15 to 20)
#    0.000    2.000    0.000    1.200   14.000    1.600 
#    3.600    5.000    0.000    0.000    0.000    0.000 
#    0.000    0.000    0.000    0.000    0.000    0.000 
#
# Total GULP energy -123928.131020 kJ/mol
# GULP energy per Si atom -12392.813102 kJ/mol
# Density = 2.683474 g / cm^3
# Si number density = 26.895960 Si / 1000 Ang^3
#
#
#
# Elastic Constant Matrix: (Units=GPa)
#
#
# Indices 1 2 3 4 5 6 
#
# 1 217.1198 38.9372 43.8936 21.1741 -32.5342 -12.6283
# 2 38.9372 121.5352 7.1265 7.9412 -10.7405 -15.7769
# 3 43.8936 7.1265 61.0639 29.5310 -20.9266 -2.6289
# 4 21.1741 7.9412 29.5310 47.5811 -6.9230 -2.2641
# 5 -32.5342 -10.7405 -20.9266 -6.9230 52.1077 6.8941
# 6 -12.6283 -15.7769 -2.6289 -2.2641 6.8941 34.7691
#
#
#
# Elastic Compliance Matrix: (Units=1/GPa)
#
#
# Indices 1 2 3 4 5 6 
#
# 1 0.005875 -0.001405 -0.003388 0.000042 0.001909 0.000864
# 2 -0.001405 0.009228 0.000939 -0.001217 0.000775 0.003515
# 3 -0.003388 0.000939 0.028766 -0.015433 0.007735 -0.001168
# 4 0.000042 -0.001217 -0.015433 0.030456 -0.002478 0.000771
# 5 0.001909 0.000775 0.007735 -0.002478 0.023749 -0.003240
# 6 0.000864 0.003515 -0.001168 0.000771 -0.003240 0.031274
#
#
# Mechanical properties :
#
#
# Convention : Reuss Voigt Hill
#
# Bulk Modulus (GPa) = 27.65495 64.40371 46.02933
# Shear Modulus (GPa) = 33.53275 47.54236 40.53756
#
# Velocity S-wave (km/s) = 3.53478 4.20889 3.88648
# Velocity P-wave (km/s) = 5.19269 6.90052 6.10660
#
# Compressibility (1/GPa) = 0.03615990
#
# Stress axis : x y z
#
# Youngs Moduli (GPa) = 170.21536 108.37115 34.76378
#
# Poissons Ratio (x) = 0.15230 0.11777
# Poissons Ratio (y) = 0.23922 -0.03264
# Poissons Ratio (z) = 0.57662 -0.10175
#
# Static dielectric constant tensor:
#      x y z
#    x 5.358030 -0.343240 -0.297060 
#    y -0.343240 7.814130 -1.138380 
#    z -0.297060 -1.138380 4.892250 
# 
# 
# High freq. dielectric constant tensor:
#      x y z
#    x 2.092810 -0.001340 -0.020450 
#    y -0.001340 2.105160 0.001830 
#    z -0.020450 0.001830 2.053580 
# 
# From -- ./inp_files/16322.got.cif
#   From: 2010.06.25/outbox.cif.g09.slc.cpg/sg2_9_cif.got.tgz:16322.got - 2010.06.27 13:26:56.
