data_PCOD8023724
_publ_section_title
;
Structure prediction by ZEFSAII (Michael W. Deem and Ramdas Pophale) SiO2 
 PCOD8023724
Probable space group: P -1
;
_chemical_formula_sum "Si O2"
_cell_formula_units_Z 16
_cell_length_a 11.141296
_cell_length_b 14.535019
_cell_length_c 8.479235
_cell_angle_alpha 58.503033
_cell_angle_beta 139.712169
_cell_angle_gamma 104.730804
_cell_volume 730.710135
_symmetry_space_group_name_H-M "P -1"
_symmetry_group_IT_number 2
_symmetry_cell_setting 'triclinic'
loop_
_space_group_symop_operation_xyz
x,y,z
-x,-y,-z
loop_
_atom_site_type_symbol
_atom_site_label
_atom_site_fract_x
_atom_site_fract_y
_atom_site_fract_z
Si Si1 0.681556 0.695500 0.110667
Si Si2 0.059968 0.639259 0.735773
Si Si3 0.674753 0.596194 0.875888
Si Si4 0.085357 0.262168 0.188872
Si Si5 0.451208 0.117779 0.422817
Si Si6 0.323758 0.793593 0.887106
Si Si7 0.315496 0.751837 0.280040
Si Si8 0.684788 0.962251 0.330446
O O1 0.886444 0.647614 0.436854
O O2 0.661539 0.599991 0.050802
O O3 0.677914 0.804741 0.907203
O O4 0.517308 0.728229 0.049889
O O5 0.156199 0.740409 0.709497
O O6 0.990486 0.640394 0.845740
O O7 0.218329 0.523969 0.971008
O O8 0.766579 0.695742 0.814159
O O9 0.455683 0.628255 0.563185
O O10 0.155073 0.147110 0.474297
O O11 0.904661 0.249759 0.913756
O O12 0.636503 0.161468 0.621531
O O13 0.334630 0.106225 0.470935
O O14 0.500000 0.000000 0.500000
O O15 0.252115 0.926858 0.658069
O O16 0.359701 0.785119 0.117510
O O17 0.500000 0.000000 0.000000
#
# Coordination Sequence:
#
# PCOD8023724 Si02
#       8
#     2   2   2   2   2   2   2   2
#     4  11  23  41  64  93 132 168 213 259 322 377
#     4  11  26  41  66  96 126 171 219 262 316 382
#     4  11  23  45  65  91 131 169 213 272 320 366
#     4  11  24  41  69  98 123 171 217 264 318 374
#     4  11  22  39  66  95 128 176 202 259 327 374
#     4  11  24  41  64  97 127 169 214 260 320 375
#     4  10  23  42  64  95 130 163 220 264 315 380
#     4  12  21  42  68  92 134 165 207 263 317 382
#
# _framework density 21.896508000000001
#
# number of rings (size 3 to 8) (size 9 to 14) (size 15 to 20)
#    0.000    1.000    5.000    2.250    0.000    8.500 
#    0.000    1.250    0.000    0.000    0.000    0.000 
#    0.000    0.000    0.000    0.000    0.000    0.000 
#
# Total GULP energy -198242.894900 kJ/mol
# GULP energy per Si atom -12390.180931 kJ/mol
# Density = 2.184667 g / cm^3
# Si number density = 21.896508 Si / 1000 Ang^3
#
#
#
# Elastic Constant Matrix: (Units=GPa)
#
#
# Indices 1 2 3 4 5 6 
#
# 1 49.7704 6.4309 7.8936 3.5880 3.4827 2.2637
# 2 6.4309 90.3711 21.2144 -11.9085 5.0083 -10.8878
# 3 7.8936 21.2144 101.0835 9.7848 14.4247 5.4202
# 4 3.5880 -11.9085 9.7848 30.7580 -5.3740 5.8139
# 5 3.4827 5.0083 14.4247 -5.3740 26.4742 -2.1812
# 6 2.2637 -10.8878 5.4202 5.8139 -2.1812 35.3910
#
#
#
# Elastic Compliance Matrix: (Units=1/GPa)
#
#
# Indices 1 2 3 4 5 6 
#
# 1 0.020905 -0.001828 -0.000435 -0.003243 -0.002948 -0.001482
# 2 -0.001828 0.013217 -0.003588 0.005961 0.001220 0.003828
# 3 -0.000435 -0.003588 0.012479 -0.006160 -0.007515 -0.002438
# 4 -0.003243 0.005961 -0.006160 0.039524 0.010442 -0.002864
# 5 -0.002948 0.001220 -0.007515 0.010442 0.044369 0.002734
# 6 -0.001482 0.003828 -0.002438 -0.002864 0.002734 0.030541
#
#
# Mechanical properties :
#
#
# Convention : Reuss Voigt Hill
#
# Bulk Modulus (GPa) = 28.65325 34.70032 31.67678
# Shear Modulus (GPa) = 27.11961 32.23705 29.67833
#
# Velocity S-wave (km/s) = 3.52310 3.84115 3.68556
# Velocity P-wave (km/s) = 5.44645 5.96275 5.71044
#
# Compressibility (1/GPa) = 0.03490006
#
# Stress axis : x y z
#
# Youngs Moduli (GPa) = 47.83576 75.66078 80.13392
#
# Poissons Ratio (x) = 0.13831 0.03484
# Poissons Ratio (y) = 0.08745 0.28748
# Poissons Ratio (z) = 0.02080 0.27144
#
# Static dielectric constant tensor:
#      x y z
#    x 4.002110 -0.178280 -0.021900 
#    y -0.178280 4.171230 -0.101080 
#    z -0.021900 -0.101080 3.915040 
# 
# 
# High freq. dielectric constant tensor:
#      x y z
#    x 1.857790 -0.016950 0.000460 
#    y -0.016950 1.870810 -0.009280 
#    z 0.000460 -0.009280 1.863280 
# 
# From -- ./inp_files/272252.got.cif
#   From: 2010.06.25/outbox.cif.g09.slc.cpg/sg2_137_cif.got.tgz:272252.got - 2010.06.27 13:26:56.
