data_PCOD8023529
_publ_section_title
;
Structure prediction by ZEFSAII (Michael W. Deem and Ramdas Pophale) SiO2 
 PCOD8023529
Probable space group: P -1
;
_chemical_formula_sum "Si O2"
_cell_formula_units_Z 16
_cell_length_a 15.529336
_cell_length_b 11.629433
_cell_length_c 15.721854
_cell_angle_alpha 145.494605
_cell_angle_beta 27.150026
_cell_angle_gamma 136.127813
_cell_volume 733.120083
_symmetry_space_group_name_H-M "P -1"
_symmetry_group_IT_number 2
_symmetry_cell_setting 'triclinic'
loop_
_space_group_symop_operation_xyz
x,y,z
-x,-y,-z
loop_
_atom_site_type_symbol
_atom_site_label
_atom_site_fract_x
_atom_site_fract_y
_atom_site_fract_z
Si Si1 0.438486 0.810292 0.992876
Si Si2 0.239954 0.513593 0.885723
Si Si3 0.986026 0.083493 0.260438
Si Si4 0.155410 0.658527 0.866501
Si Si5 0.334199 0.752881 0.237836
Si Si6 0.717355 0.024727 0.307473
Si Si7 0.372119 0.580123 0.462462
Si Si8 0.279716 0.290762 0.031336
O O1 0.256371 0.722516 0.052145
O O2 0.613324 0.638448 0.731997
O O3 0.380398 0.856707 0.169984
O O4 0.500000 0.000000 0.000000
O O5 0.413565 0.356987 0.665066
O O6 0.053162 0.408195 0.007914
O O7 0.253475 0.563533 0.805132
O O8 0.854328 0.138216 0.490590
O O9 0.850721 0.000817 0.256336
O O10 0.112378 0.273724 0.238268
O O11 0.142328 0.903309 0.034591
O O12 0.272094 0.560252 0.627628
O O13 0.291353 0.515795 0.120032
O O14 0.513834 0.779045 0.156900
O O15 0.739894 0.254522 0.395276
O O16 0.500000 0.000000 0.500000
O O17 0.784497 0.859840 0.077990
#
# Coordination Sequence:
#
# PCOD8023529 Si02
#       8
#     2   2   2   2   2   2   2   2
#     4  10  25  45  69  93 133 188 227 275 339 409
#     4   9  24  42  66  96 130 169 235 278 336 385
#     4  12  26  41  72 105 139 178 227 283 343 415
#     4  11  22  43  67 102 127 173 223 296 331 387
#     4  11  26  46  65  98 147 182 226 280 342 415
#     4  12  22  42  69 102 135 174 224 279 341 395
#     4  10  23  41  69  95 129 173 225 280 326 400
#     4  11  25  44  69 100 141 187 224 276 347 412
#
# _framework density 21.824528999999998
#
# number of rings (size 3 to 8) (size 9 to 14) (size 15 to 20)
#    0.750    0.500    2.500    2.625    5.250    2.000 
#    2.250    1.250    0.000    0.000    0.000    0.000 
#    0.000    0.000    0.000    0.000    0.000    0.000 
#
# Total GULP energy -198320.002705 kJ/mol
# GULP energy per Si atom -12395.000169 kJ/mol
# Density = 2.177486 g / cm^3
# Si number density = 21.824529 Si / 1000 Ang^3
#
#
#
# Elastic Constant Matrix: (Units=GPa)
#
#
# Indices 1 2 3 4 5 6 
#
# 1 48.8085 17.2710 18.5389 -0.9949 14.6800 -16.6508
# 2 17.2710 91.1201 11.0929 5.7810 13.0770 -13.1750
# 3 18.5389 11.0929 106.0836 -4.2783 24.4564 -5.9277
# 4 -0.9949 5.7810 -4.2783 35.5203 -2.8143 3.5219
# 5 14.6800 13.0770 24.4564 -2.8143 33.2681 -10.7275
# 6 -16.6508 -13.1750 -5.9277 3.5219 -10.7275 49.6211
#
#
#
# Elastic Compliance Matrix: (Units=1/GPa)
#
#
# Indices 1 2 3 4 5 6 
#
# 1 0.026658 -0.002830 -0.002447 -0.000265 -0.006794 0.006452
# 2 -0.002830 0.012404 -0.000064 -0.002541 -0.003207 0.001823
# 3 -0.002447 -0.000064 0.011614 0.000845 -0.007744 -0.001185
# 4 -0.000265 -0.002541 0.000845 0.029060 0.002230 -0.002243
# 5 -0.006794 -0.003207 -0.007744 0.002230 0.041750 0.004811
# 6 0.006452 0.001823 -0.001185 -0.002243 0.004811 0.023859
#
#
# Mechanical properties :
#
#
# Convention : Reuss Voigt Hill
#
# Bulk Modulus (GPa) = 25.00337 37.75752 31.38045
# Shear Modulus (GPa) = 29.52336 36.95586 33.23961
#
# Velocity S-wave (km/s) = 3.68198 4.11946 3.90685
# Velocity P-wave (km/s) = 5.43667 6.32176 5.89585
#
# Compressibility (1/GPa) = 0.03999460
#
# Stress axis : x y z
#
# Youngs Moduli (GPa) = 37.51213 80.62090 86.10441
#
# Poissons Ratio (x) = 0.22817 0.21066
# Poissons Ratio (y) = 0.10617 0.00548
# Poissons Ratio (z) = 0.09178 0.00513
#
# Static dielectric constant tensor:
#      x y z
#    x 3.910660 -0.125210 -0.148450 
#    y -0.125210 4.005560 0.086120 
#    z -0.148450 0.086120 4.262410 
# 
# 
# High freq. dielectric constant tensor:
#      x y z
#    x 1.854270 -0.005440 0.002820 
#    y -0.005440 1.862170 -0.011860 
#    z 0.002820 -0.011860 1.855610 
# 
# From -- ./inp_files/532002.got.cif
#   From: 2010.06.25/outbox.cif.g09.slc.cpg/sg2_267_cif.got.tgz:532002.got - 2010.06.27 13:26:56.
