data_PCOD8023910
_publ_section_title
;
Structure prediction by ZEFSAII (Michael W. Deem and Ramdas Pophale) SiO2 
 PCOD8023910
Probable space group: P -1
;
_chemical_formula_sum "Si O2"
_cell_formula_units_Z 16
_cell_length_a 15.792330
_cell_length_b 8.707141
_cell_length_c 8.412308
_cell_angle_alpha 100.982258
_cell_angle_beta 73.255066
_cell_angle_gamma 48.933401
_cell_volume 710.263643
_symmetry_space_group_name_H-M "P -1"
_symmetry_group_IT_number 2
_symmetry_cell_setting 'triclinic'
loop_
_space_group_symop_operation_xyz
x,y,z
-x,-y,-z
loop_
_atom_site_type_symbol
_atom_site_label
_atom_site_fract_x
_atom_site_fract_y
_atom_site_fract_z
Si Si1 0.013618 0.700823 0.727955
Si Si2 0.505126 0.216897 0.215217
Si Si3 0.487584 0.938295 0.325427
Si Si4 0.788619 0.826077 0.446580
Si Si5 0.164337 0.928828 0.362415
Si Si6 0.783712 0.308769 0.401901
Si Si7 0.417418 0.456515 0.993681
Si Si8 0.768676 0.015471 0.164749
O O1 0.074111 0.445139 0.629647
O O2 0.129675 0.666059 0.719629
O O3 0.968205 0.830362 0.607342
O O4 0.889663 0.841777 0.940725
O O5 0.370740 0.436927 0.431494
O O6 0.467134 0.267930 0.061873
O O7 0.625614 0.176686 0.185261
O O8 0.551835 0.977063 0.176721
O O9 0.500000 0.000000 0.500000
O O10 0.328300 0.133072 0.425683
O O11 0.557746 0.671399 0.211047
O O12 0.759763 0.022756 0.597115
O O13 0.787550 0.863853 0.265737
O O14 0.135484 0.854258 0.513438
O O15 0.259167 0.711790 0.141095
O O16 0.773450 0.184840 0.256779
O O17 0.500000 0.500000 0.000000
#
# Coordination Sequence:
#
# PCOD8023910 Si02
#       8
#     2   2   2   2   2   2   2   2
#     4  12  23  43  66  97 133 178 229 275 335 398
#     4  11  23  43  68 100 134 175 226 276 335 397
#     4  12  24  43  70 102 139 176 223 278 341 394
#     4  11  23  44  65  95 138 178 225 275 335 403
#     4  10  23  43  67  97 130 181 225 274 335 403
#     4  10  23  42  67  96 139 175 224 280 333 403
#     4  11  23  43  68 102 138 172 223 284 330 397
#     4  11  24  41  64 100 136 179 223 274 341 398
#
# _framework density 22.526845999999999
#
# number of rings (size 3 to 8) (size 9 to 14) (size 15 to 20)
#    0.000    1.000    3.750    3.000    0.000    2.000 
#    2.250    1.250    0.000    0.000    0.000    0.000 
#    0.000    0.000    0.000    0.000    0.000    0.000 
#
# Total GULP energy -198295.035825 kJ/mol
# GULP energy per Si atom -12393.439739 kJ/mol
# Density = 2.247557 g / cm^3
# Si number density = 22.526846 Si / 1000 Ang^3
#
#
#
# Elastic Constant Matrix: (Units=GPa)
#
#
# Indices 1 2 3 4 5 6 
#
# 1 74.7541 18.6345 31.0130 -4.5703 -5.5997 4.9057
# 2 18.6345 87.6920 26.8539 18.5565 7.0712 -0.7984
# 3 31.0130 26.8539 101.8263 12.8162 5.0426 -0.0632
# 4 -4.5703 18.5565 12.8162 17.8577 3.6519 -2.4085
# 5 -5.5997 7.0712 5.0426 3.6519 42.0584 4.0665
# 6 4.9057 -0.7984 -0.0632 -2.4085 4.0665 34.5055
#
#
#
# Elastic Compliance Matrix: (Units=1/GPa)
#
#
# Indices 1 2 3 4 5 6 
#
# 1 0.018398 -0.005176 -0.006097 0.013540 0.003084 -0.002165
# 2 -0.005176 0.016565 -0.000457 -0.017812 -0.001882 0.000097
# 3 -0.006097 -0.000457 0.013152 -0.010179 -0.001461 0.000342
# 4 0.013540 -0.017812 -0.010179 0.086177 -0.001840 0.003876
# 5 0.003084 -0.001882 -0.001461 -0.001840 0.025185 -0.003581
# 6 -0.002165 0.000097 0.000342 0.003876 -0.003581 0.029984
#
#
# Mechanical properties :
#
#
# Convention : Reuss Voigt Hill
#
# Bulk Modulus (GPa) = 40.55899 46.36392 43.46146
# Shear Modulus (GPa) = 22.61027 31.40238 27.00633
#
# Velocity S-wave (km/s) = 3.17156 3.73768 3.46620
# Velocity P-wave (km/s) = 5.60853 6.26525 5.94596
#
# Compressibility (1/GPa) = 0.02465544
#
# Stress axis : x y z
#
# Youngs Moduli (GPa) = 54.35483 60.36707 76.03570
#
# Poissons Ratio (x) = 0.31247 0.46355
# Poissons Ratio (y) = 0.28135 0.03475
# Poissons Ratio (z) = 0.33137 0.02759
#
# Static dielectric constant tensor:
#      x y z
#    x 4.716320 0.649370 -0.262690 
#    y 0.649370 4.731310 -0.336640 
#    z -0.262690 -0.336640 4.135140 
# 
# 
# High freq. dielectric constant tensor:
#      x y z
#    x 1.893720 0.012550 -0.000150 
#    y 0.012550 1.893940 0.001840 
#    z -0.000150 0.001840 1.881470 
# 
# From -- ./inp_files/205545.got.cif
#   From: 2010.06.25/outbox.cif.g09.slc.cpg/sg2_103_cif.got.tgz:205545.got - 2010.06.27 13:26:56.
