data_PCOD8023051
_publ_section_title
;
Structure prediction by ZEFSAII (Michael W. Deem and Ramdas Pophale) SiO2 
 PCOD8023051
Probable space group: P -1
;
_chemical_formula_sum "Si O2"
_cell_formula_units_Z 14
_cell_length_a 14.672978
_cell_length_b 6.221674
_cell_length_c 23.082367
_cell_angle_alpha 75.299636
_cell_angle_beta 160.630076
_cell_angle_gamma 111.074059
_cell_volume 626.787703
_symmetry_space_group_name_H-M "P -1"
_symmetry_group_IT_number 2
_symmetry_cell_setting 'triclinic'
loop_
_space_group_symop_operation_xyz
x,y,z
-x,-y,-z
loop_
_atom_site_type_symbol
_atom_site_label
_atom_site_fract_x
_atom_site_fract_y
_atom_site_fract_z
Si Si1 0.419651 0.203188 0.281667
Si Si2 0.018428 0.906210 0.358392
Si Si3 0.319056 0.476767 0.304392
Si Si4 0.107180 0.287583 0.982556
Si Si5 0.691805 0.884016 0.587424
Si Si6 0.701451 0.223694 0.142153
Si Si7 0.571427 0.535801 0.956303
O O1 0.690669 0.117211 0.437429
O O2 0.499810 0.398056 0.368538
O O3 0.362918 0.321264 0.180550
O O4 0.124353 0.984718 0.138721
O O5 0.730892 0.689456 0.223021
O O6 0.046202 0.906284 0.303850
O O7 0.985085 0.161019 0.337105
O O8 0.511543 0.717462 0.437534
O O9 0.183201 0.264014 0.284462
O O10 0.050491 0.526577 0.109104
O O11 0.245294 0.352234 0.997837
O O12 0.500000 0.000000 0.500000
O O13 0.525364 0.257072 0.089919
O O14 0.779395 0.457405 0.131088
O O15 0.500000 0.000000 0.000000
#
# Coordination Sequence:
#
# PCOD8023051 Si02
#       7
#     2   2   2   2   2   2   2
#     4  11  25  42  65  90 131 168 218 266 304 374
#     4  11  22  40  62  94 126 159 207 264 315 372
#     4  11  22  39  66  94 125 168 207 259 323 378
#     4  11  24  45  62  91 128 175 216 259 309 377
#     4  11  22  37  64  99 128 152 204 269 319 371
#     4   9  21  40  62  91 128 164 198 263 319 380
#     4  10  23  40  66  89 126 166 211 252 323 382
#
# _framework density 22.336110999999999
#
# number of rings (size 3 to 8) (size 9 to 14) (size 15 to 20)
#    0.000    1.429    2.857    1.286    2.000    9.714 
#    0.000    0.714    0.000    0.000    0.000    0.000 
#    0.000    0.000    0.000    0.000    0.000    0.000 
#
# Total GULP energy -173495.249476 kJ/mol
# GULP energy per Si atom -12392.517820 kJ/mol
# Density = 2.228527 g / cm^3
# Si number density = 22.336111 Si / 1000 Ang^3
#
#
#
# Elastic Constant Matrix: (Units=GPa)
#
#
# Indices 1 2 3 4 5 6 
#
# 1 76.0431 37.1818 25.9393 -18.6037 8.9538 -3.5248
# 2 37.1818 97.2947 51.5750 -27.4816 0.1780 -13.2660
# 3 25.9393 51.5750 123.1558 -43.5199 -4.0315 -5.7578
# 4 -18.6037 -27.4816 -43.5199 51.9207 3.1540 5.9833
# 5 8.9538 0.1780 -4.0315 3.1540 34.2928 -2.5328
# 6 -3.5248 -13.2660 -5.7578 5.9833 -2.5328 41.5259
#
#
#
# Elastic Compliance Matrix: (Units=1/GPa)
#
#
# Indices 1 2 3 4 5 6 
#
# 1 0.017390 -0.005675 -0.000296 0.003414 -0.004946 -0.001172
# 2 -0.005675 0.015957 -0.004529 0.002128 0.000947 0.003739
# 3 -0.000296 -0.004529 0.013069 0.008499 0.000794 -0.000836
# 4 0.003414 0.002128 0.008499 0.029157 -0.002749 -0.002221
# 5 -0.004946 0.000947 0.000794 -0.002749 0.030962 0.002277
# 6 -0.001172 0.003739 -0.000836 -0.002221 0.002277 0.025519
#
#
# Mechanical properties :
#
#
# Convention : Reuss Voigt Hill
#
# Bulk Modulus (GPa) = 39.34751 58.43174 48.88963
# Shear Modulus (GPa) = 30.95477 37.66771 34.31124
#
# Velocity S-wave (km/s) = 3.72676 4.11104 3.92361
# Velocity P-wave (km/s) = 6.01437 6.98221 6.51628
#
# Compressibility (1/GPa) = 0.02541457
#
# Stress axis : x y z
#
# Youngs Moduli (GPa) = 57.50551 62.66934 76.51496
#
# Poissons Ratio (x) = 0.35563 0.02267
# Poissons Ratio (y) = 0.32633 0.34657
# Poissons Ratio (z) = 0.01704 0.28386
#
# Static dielectric constant tensor:
#      x y z
#    x 3.942300 -0.020620 0.103360 
#    y -0.020620 4.491950 -0.559920 
#    z 0.103360 -0.559920 4.316870 
# 
# 
# High freq. dielectric constant tensor:
#      x y z
#    x 1.861410 0.000760 0.012760 
#    y 0.000760 1.896760 -0.024080 
#    z 0.012760 -0.024080 1.871410 
# 
# From -- ./inp_files/611167.got.cif
#   From: 2010.06.25/outbox.cif.g09.slc.cpg/sg2_306_cif.got.tgz:611167.got - 2010.06.27 13:26:56.
