data_PCOD8023927
_publ_section_title
;
Structure prediction by ZEFSAII (Michael W. Deem and Ramdas Pophale) SiO2 
 PCOD8023927
Probable space group: P -1
;
_chemical_formula_sum "Si O2"
_cell_formula_units_Z 16
_cell_length_a 19.547627
_cell_length_b 9.340371
_cell_length_c 14.885037
_cell_angle_alpha 127.771041
_cell_angle_beta 160.096547
_cell_angle_gamma 53.534577
_cell_volume 729.637096
_symmetry_space_group_name_H-M "P -1"
_symmetry_group_IT_number 2
_symmetry_cell_setting 'triclinic'
loop_
_space_group_symop_operation_xyz
x,y,z
-x,-y,-z
loop_
_atom_site_type_symbol
_atom_site_label
_atom_site_fract_x
_atom_site_fract_y
_atom_site_fract_z
Si Si1 0.388415 0.450417 0.433815
Si Si2 0.392577 0.077214 0.736079
Si Si3 0.269698 0.721768 0.120411
Si Si4 0.091112 0.425679 0.490553
Si Si5 0.106858 0.971473 0.478406
Si Si6 0.805193 0.200849 0.733339
Si Si7 0.813235 0.916207 0.932768
Si Si8 0.824566 0.214971 0.339071
O O1 0.500000 0.500000 0.500000
O O2 0.538372 0.428743 0.697507
O O3 0.223607 0.621043 0.301234
O O4 0.309857 0.249850 0.251167
O O5 0.256275 0.263161 0.641678
O O6 0.329703 0.986525 0.717653
O O7 0.340272 0.952241 0.538768
O O8 0.629427 0.103725 0.033244
O O9 0.231723 0.766029 0.195150
O O10 0.085581 0.629485 0.813732
O O11 0.320217 0.902978 0.196164
O O12 0.216755 0.576687 0.656432
O O13 0.000000 0.500000 0.500000
O O14 0.125664 0.794467 0.496852
O O15 0.947301 0.967288 0.200990
O O16 0.024853 0.139496 0.504064
O O17 0.039688 0.136952 0.989342
#
# Coordination Sequence:
#
# PCOD8023927 Si02
#       8
#     2   2   2   2   2   2   2   2
#     4  10  24  39  64  99 130 170 225 270 325 413
#     4  11  23  46  69  99 139 173 229 281 334 404
#     4  11  23  43  69  97 134 178 218 277 340 397
#     4  12  24  47  66  99 138 176 226 285 332 400
#     4  10  23  42  67  99 134 177 219 286 329 403
#     4  10  23  43  67  98 135 173 218 285 332 397
#     4  11  21  43  66  94 138 173 219 274 344 388
#     4  11  24  40  73  96 132 185 222 271 345 393
#
# _framework density 21.928711
#
# number of rings (size 3 to 8) (size 9 to 14) (size 15 to 20)
#    0.000    1.250    3.750    1.875    7.000    1.000 
#    6.750    0.000    0.000    0.000    0.000    0.000 
#    0.000    0.000    0.000    0.000    0.000    0.000 
#
# Total GULP energy -198243.641152 kJ/mol
# GULP energy per Si atom -12390.227572 kJ/mol
# Density = 2.187880 g / cm^3
# Si number density = 21.928711 Si / 1000 Ang^3
#
#
#
# Elastic Constant Matrix: (Units=GPa)
#
#
# Indices 1 2 3 4 5 6 
#
# 1 93.1767 36.2072 32.9805 12.2874 -18.7015 11.6032
# 2 36.2072 117.3279 28.6859 1.5283 -12.4216 25.1551
# 3 32.9805 28.6859 67.6395 -4.0805 -5.8465 13.4371
# 4 12.2874 1.5283 -4.0805 35.3681 8.9058 3.3274
# 5 -18.7015 -12.4216 -5.8465 8.9058 29.7346 0.6704
# 6 11.6032 25.1551 13.4371 3.3274 0.6704 36.0540
#
#
#
# Elastic Compliance Matrix: (Units=1/GPa)
#
#
# Indices 1 2 3 4 5 6 
#
# 1 0.017947 -0.002197 -0.007213 -0.009897 0.011935 -0.000863
# 2 -0.002197 0.011484 -0.002241 -0.000178 0.003175 -0.006512
# 3 -0.007213 -0.002241 0.020162 0.006137 -0.003253 -0.004135
# 4 -0.009897 -0.000178 0.006137 0.036657 -0.016025 -0.002063
# 5 0.011935 0.003175 -0.003253 -0.016025 0.046719 -0.004234
# 6 -0.000863 -0.006512 -0.004135 -0.002063 -0.004234 0.034368
#
#
# Mechanical properties :
#
#
# Convention : Reuss Voigt Hill
#
# Bulk Modulus (GPa) = 38.03736 52.65457 45.34597
# Shear Modulus (GPa) = 25.07461 32.24941 28.66201
#
# Velocity S-wave (km/s) = 3.38518 3.83906 3.61924
# Velocity P-wave (km/s) = 5.71514 6.61173 6.17972
#
# Compressibility (1/GPa) = 0.02628994
#
# Stress axis : x y z
#
# Youngs Moduli (GPa) = 55.71848 87.07777 49.59748
#
# Poissons Ratio (x) = 0.19135 0.35774
# Poissons Ratio (y) = 0.12244 0.11117
# Poissons Ratio (z) = 0.40190 0.19518
#
# Static dielectric constant tensor:
#      x y z
#    x 4.203540 0.084160 0.275440 
#    y 0.084160 4.915350 -0.438730 
#    z 0.275440 -0.438730 4.311740 
# 
# 
# High freq. dielectric constant tensor:
#      x y z
#    x 1.858600 0.013670 -0.001210 
#    y 0.013670 1.876650 -0.011570 
#    z -0.001210 -0.011570 1.859980 
# 
# From -- ./inp_files/434267.got.cif
#   From: 2010.06.25/outbox.cif.g09.slc.cpg/sg2_218_cif.got.tgz:434267.got - 2010.06.27 13:26:56.
