data_PCOD8023584
_publ_section_title
;
Structure prediction by ZEFSAII (Michael W. Deem and Ramdas Pophale) SiO2 
 PCOD8023584
Probable space group: P -1
;
_chemical_formula_sum "Si O2"
_cell_formula_units_Z 14
_cell_length_a 11.459152
_cell_length_b 13.506187
_cell_length_c 8.426841
_cell_angle_alpha 81.133833
_cell_angle_beta 106.795588
_cell_angle_gamma 151.073466
_cell_volume 590.022309
_symmetry_space_group_name_H-M "P -1"
_symmetry_group_IT_number 2
_symmetry_cell_setting 'triclinic'
loop_
_space_group_symop_operation_xyz
x,y,z
-x,-y,-z
loop_
_atom_site_type_symbol
_atom_site_label
_atom_site_fract_x
_atom_site_fract_y
_atom_site_fract_z
Si Si1 0.368644 0.102205 0.115305
Si Si2 0.135179 0.017242 0.741480
Si Si3 0.109789 0.518793 0.892530
Si Si4 0.370055 0.306005 0.242999
Si Si5 0.115838 0.324112 0.459613
Si Si6 0.227836 0.836198 0.373759
Si Si7 0.331950 0.502614 0.168371
O O1 0.643808 0.249425 0.147076
O O2 0.419545 0.254721 0.148861
O O3 0.238972 0.943772 0.242121
O O4 0.196683 0.982656 0.918786
O O5 0.375361 0.258780 0.737798
O O6 0.892830 0.912118 0.716035
O O7 0.053686 0.897960 0.580261
O O8 0.882495 0.337996 0.723547
O O9 0.212826 0.484276 0.990314
O O10 0.000000 0.500000 0.000000
O O11 0.606675 0.495446 0.404518
O O12 0.319251 0.379332 0.129116
O O13 0.168239 0.407353 0.285771
O O14 0.955871 0.281799 0.518968
O O15 0.500000 0.000000 0.500000
#
# Coordination Sequence:
#
# PCOD8023584 Si02
#       7
#     2   2   2   2   2   2   2
#     4  11  26  47  70 104 135 180 235 280 344 410
#     4  10  23  41  71 101 138 185 217 277 343 416
#     4  11  27  49  73  99 136 184 234 287 334 407
#     4  11  23  43  71 105 142 178 224 288 339 409
#     4  11  25  43  65 106 139 179 227 283 343 400
#     4  12  29  46  71 100 138 184 230 288 341 405
#     4  10  24  44  74 100 143 180 229 276 347 409
#
# _framework density 23.727916
#
# number of rings (size 3 to 8) (size 9 to 14) (size 15 to 20)
#    0.000    1.143    1.429    3.857   10.000    4.571 
#    0.000    0.000    0.000    0.000    0.000    0.000 
#    0.000    0.000    0.000    0.000    0.000    0.000 
#
# Total GULP energy -173554.533943 kJ/mol
# GULP energy per Si atom -12396.752424 kJ/mol
# Density = 2.367391 g / cm^3
# Si number density = 23.727916 Si / 1000 Ang^3
#
#
#
# Elastic Constant Matrix: (Units=GPa)
#
#
# Indices 1 2 3 4 5 6 
#
# 1 87.8792 37.9804 36.1587 6.6845 -21.4665 24.4249
# 2 37.9804 121.0024 28.7862 9.1235 -10.3524 30.1668
# 3 36.1587 28.7862 100.2054 22.5416 -17.1835 17.4877
# 4 6.6845 9.1235 22.5416 50.4023 3.0565 5.0663
# 5 -21.4665 -10.3524 -17.1835 3.0565 44.0232 -2.5258
# 6 24.4249 30.1668 17.4877 5.0663 -2.5258 41.7540
#
#
#
# Elastic Compliance Matrix: (Units=1/GPa)
#
#
# Indices 1 2 3 4 5 6 
#
# 1 0.017077 -0.002439 -0.003263 -0.000083 0.006114 -0.006481
# 2 -0.002439 0.010829 -0.000933 -0.000671 0.000702 -0.005883
# 3 -0.003263 -0.000933 0.013716 -0.005536 0.003798 -0.002260
# 4 -0.000083 -0.000671 -0.005536 0.022702 -0.003943 -0.000141
# 5 0.006114 0.000702 0.003798 -0.003943 0.027415 -0.003538
# 6 -0.006481 -0.005883 -0.002260 -0.000141 -0.003538 0.032741
#
#
# Mechanical properties :
#
#
# Convention : Reuss Voigt Hill
#
# Bulk Modulus (GPa) = 35.27100 57.21527 46.24314
# Shear Modulus (GPa) = 33.96729 40.98002 37.47366
#
# Velocity S-wave (km/s) = 3.78766 4.16032 3.97836
# Velocity P-wave (km/s) = 5.83315 6.87336 6.37451
#
# Compressibility (1/GPa) = 0.02835190
#
# Stress axis : x y z
#
# Youngs Moduli (GPa) = 58.55809 92.34522 72.90704
#
# Poissons Ratio (x) = 0.22520 0.23793
# Poissons Ratio (y) = 0.14281 0.06801
# Poissons Ratio (z) = 0.19110 0.08615
#
# Static dielectric constant tensor:
#      x y z
#    x 4.007880 0.267530 -0.021790 
#    y 0.267530 4.614630 0.101220 
#    z -0.021790 0.101220 4.272300 
# 
# 
# High freq. dielectric constant tensor:
#      x y z
#    x 1.919030 0.019500 -0.003940 
#    y 0.019500 1.963740 0.012140 
#    z -0.003940 0.012140 1.945710 
# 
# From -- ./inp_files/273401.got.cif
#   From: 2010.06.25/outbox.cif.g09.slc.cpg/sg2_137_cif.got.tgz:273401.got - 2010.06.27 13:26:56.
