data_PCOD8023935
_publ_section_title
;
Structure prediction by ZEFSAII (Michael W. Deem and Ramdas Pophale) SiO2 
 PCOD8023935
Probable space group: P -1
;
_chemical_formula_sum "Si O2"
_cell_formula_units_Z 14
_cell_length_a 24.477847
_cell_length_b 5.654881
_cell_length_c 15.320993
_cell_angle_alpha 122.867233
_cell_angle_beta 20.466151
_cell_angle_gamma 120.854613
_cell_volume 622.753360
_symmetry_space_group_name_H-M "P -1"
_symmetry_group_IT_number 2
_symmetry_cell_setting 'triclinic'
loop_
_space_group_symop_operation_xyz
x,y,z
-x,-y,-z
loop_
_atom_site_type_symbol
_atom_site_label
_atom_site_fract_x
_atom_site_fract_y
_atom_site_fract_z
Si Si1 0.922252 0.638564 0.727737
Si Si2 0.431268 0.171419 0.215406
Si Si3 0.123588 0.941025 0.876030
Si Si4 0.448607 0.820304 0.299166
Si Si5 0.374576 0.000738 0.765392
Si Si6 0.923266 0.833655 0.307885
Si Si7 0.130219 0.534621 0.051941
O O1 0.900699 0.401679 0.786926
O O2 0.000000 0.500000 0.500000
O O3 0.746621 0.743612 0.995216
O O4 0.040243 0.874236 0.637949
O O5 0.503163 0.491676 0.160376
O O6 0.246556 0.175588 0.480148
O O7 0.472828 0.996445 0.207318
O O8 0.500000 0.000000 0.000000
O O9 0.266516 0.783839 0.587202
O O10 0.186119 0.221667 0.887187
O O11 0.000000 0.000000 0.000000
O O12 0.042428 0.758962 0.036568
O O13 0.537520 0.008300 0.275642
O O14 0.500000 0.000000 0.500000
O O15 0.271609 0.725485 0.844410
O O16 0.961699 0.585760 0.268630
#
# Coordination Sequence:
#
# PCOD8023935 Si02
#       7
#     2   2   2   2   2   2   2
#     4  10  24  42  69  99 131 187 241 290 350 425
#     4  12  29  48  69 104 145 191 239 294 355 428
#     4  11  22  41  70 103 135 179 233 289 356 426
#     4  12  28  45  74 106 140 195 234 292 365 428
#     4  11  26  44  68 105 145 185 238 302 362 432
#     4  10  23  42  68 100 136 177 231 298 346 421
#     4  10  23  42  69 100 142 181 231 299 355 418
#
# _framework density 22.480808
#
# number of rings (size 3 to 8) (size 9 to 14) (size 15 to 20)
#    0.000    1.143    1.429    3.857   10.000    5.714 
#    0.000    0.000    0.000    0.000    0.000    0.000 
#    0.000    0.000    0.000    0.000    0.000    0.000 
#
# Total GULP energy -173438.569167 kJ/mol
# GULP energy per Si atom -12388.469226 kJ/mol
# Density = 2.242964 g / cm^3
# Si number density = 22.480808 Si / 1000 Ang^3
#
#
#
# Elastic Constant Matrix: (Units=GPa)
#
#
# Indices 1 2 3 4 5 6 
#
# 1 158.5802 33.2469 45.7887 0.5956 12.7618 -17.6399
# 2 33.2469 84.6383 26.7209 8.3424 11.1631 -13.5653
# 3 45.7887 26.7209 94.0073 11.2447 20.9725 -11.4379
# 4 0.5956 8.3424 11.2447 27.3772 7.1868 2.9353
# 5 12.7618 11.1631 20.9725 7.1868 46.5877 -2.6265
# 6 -17.6399 -13.5653 -11.4379 2.9353 -2.6265 40.6917
#
#
#
# Elastic Compliance Matrix: (Units=1/GPa)
#
#
# Indices 1 2 3 4 5 6 
#
# 1 0.007841 -0.001909 -0.003169 0.001638 -0.000419 0.001727
# 2 -0.001909 0.014277 -0.001993 -0.003541 -0.001255 0.003546
# 3 -0.003169 -0.001993 0.014499 -0.004347 -0.004394 0.002067
# 4 0.001638 -0.003541 -0.004347 0.040998 -0.004245 -0.004924
# 5 -0.000419 -0.001255 -0.004394 -0.004245 0.024516 0.000054
# 6 0.001727 0.003546 0.002067 -0.004924 0.000054 0.027446
#
#
# Mechanical properties :
#
#
# Convention : Reuss Voigt Hill
#
# Bulk Modulus (GPa) = 44.49390 60.97098 52.73244
# Shear Modulus (GPa) = 33.06639 38.36260 35.71450
#
# Velocity S-wave (km/s) = 3.83936 4.13541 3.99013
# Velocity P-wave (km/s) = 6.28404 7.06982 6.68848
#
# Compressibility (1/GPa) = 0.02247499
#
# Stress axis : x y z
#
# Youngs Moduli (GPa) = 127.53842 70.04265 68.96851
#
# Poissons Ratio (x) = 0.13371 0.21854
# Poissons Ratio (y) = 0.24346 0.13749
# Poissons Ratio (z) = 0.40413 0.13963
#
# Static dielectric constant tensor:
#      x y z
#    x 4.465410 -0.150580 0.052850 
#    y -0.150580 4.281010 0.073050 
#    z 0.052850 0.073050 4.013070 
# 
# 
# High freq. dielectric constant tensor:
#      x y z
#    x 1.912130 -0.001270 -0.002870 
#    y -0.001270 1.886840 -0.000540 
#    z -0.002870 -0.000540 1.877440 
# 
# From -- ./inp_files/68752.got.cif
#   From: 2010.06.25/outbox.cif.g09.slc.cpg/sg2_35_cif.got.tgz:68752.got - 2010.06.27 13:26:56.
