data_PCOD8023221
_publ_section_title
;
Structure prediction by ZEFSAII (Michael W. Deem and Ramdas Pophale) SiO2 
 PCOD8023221
Probable space group: P -1
;
_chemical_formula_sum "Si O2"
_cell_formula_units_Z 14
_cell_length_a 9.302233
_cell_length_b 12.845414
_cell_length_c 8.854459
_cell_angle_alpha 98.432187
_cell_angle_beta 112.801241
_cell_angle_gamma 51.483772
_cell_volume 756.538577
_symmetry_space_group_name_H-M "P -1"
_symmetry_group_IT_number 2
_symmetry_cell_setting 'triclinic'
loop_
_space_group_symop_operation_xyz
x,y,z
-x,-y,-z
loop_
_atom_site_type_symbol
_atom_site_label
_atom_site_fract_x
_atom_site_fract_y
_atom_site_fract_z
Si Si1 0.121270 0.544301 0.490027
Si Si2 0.363785 0.956556 0.456479
Si Si3 0.451412 0.704353 0.334665
Si Si4 0.179171 0.481718 0.153684
Si Si5 0.702270 0.380319 0.977904
Si Si6 0.601187 0.230591 0.349238
Si Si7 0.931588 0.221836 0.320357
O O1 0.337414 0.440310 0.629060
O O2 0.110793 0.539931 0.305452
O O3 0.040242 0.693354 0.534012
O O4 0.000000 0.500000 0.500000
O O5 0.137803 0.076348 0.350604
O O6 0.500000 0.000000 0.500000
O O7 0.452056 0.831632 0.350052
O O8 0.367827 0.905241 0.617984
O O9 0.317385 0.718705 0.147004
O O10 0.378482 0.706167 0.476365
O O11 0.227906 0.565594 0.102879
O O12 0.380930 0.327949 0.207834
O O13 0.000000 0.500000 0.000000
O O14 0.500000 0.500000 0.000000
O O15 0.873779 0.293644 0.151142
O O16 0.767075 0.204218 0.297439
#
# Coordination Sequence:
#
# PCOD8023221 Si02
#       7
#     2   2   2   2   2   2   2
#     4  11  21  36  63  93 119 159 208 251 304 362
#     4  10  23  41  63  86 122 164 205 250 307 362
#     4   9  21  39  60  85 124 156 204 245 306 352
#     4  11  23  38  61  94 129 154 200 261 310 353
#     4  12  22  37  62  94 124 157 200 257 303 356
#     4   9  21  41  61  86 119 162 206 245 301 365
#     4  12  22  37  67  89 122 160 211 243 303 371
#
# _framework density 18.505336
#
# number of rings (size 3 to 8) (size 9 to 14) (size 15 to 20)
#    0.857    0.571    2.857    3.000    2.000    2.857 
#    0.000    0.000    0.000    1.714    0.000    0.000 
#    0.000    0.000    0.000    0.000    0.000    0.000 
#
# Total GULP energy -173508.535393 kJ/mol
# GULP energy per Si atom -12393.466814 kJ/mol
# Density = 1.846322 g / cm^3
# Si number density = 18.505336 Si / 1000 Ang^3
#
#
#
# Elastic Constant Matrix: (Units=GPa)
#
#
# Indices 1 2 3 4 5 6 
#
# 1 106.9319 24.2939 46.2113 -4.1880 -12.0380 16.4443
# 2 24.2939 88.0845 39.8984 -12.8063 3.0010 11.4704
# 3 46.2113 39.8984 117.9677 -10.0254 4.1668 3.3351
# 4 -4.1880 -12.8063 -10.0254 33.6227 5.5119 4.1873
# 5 -12.0380 3.0010 4.1668 5.5119 32.3616 -3.8965
# 6 16.4443 11.4704 3.3351 4.1873 -3.8965 33.0470
#
#
#
# Elastic Compliance Matrix: (Units=1/GPa)
#
#
# Indices 1 2 3 4 5 6 
#
# 1 0.012971 -0.000971 -0.004822 -0.000390 0.005001 -0.004992
# 2 -0.000971 0.015024 -0.003978 0.005549 -0.002833 -0.005368
# 3 -0.004822 -0.003978 0.011902 0.001674 -0.003000 0.002013
# 4 -0.000390 0.005549 0.001674 0.034444 -0.007604 -0.007162
# 5 0.005001 -0.002833 -0.003000 -0.007604 0.035176 0.003909
# 6 -0.004992 -0.005368 0.002013 -0.007162 0.003909 0.035772
#
#
# Mechanical properties :
#
#
# Convention : Reuss Voigt Hill
#
# Bulk Modulus (GPa) = 49.12079 59.31017 54.21548
# Shear Modulus (GPa) = 29.13463 33.31163 31.22313
#
# Velocity S-wave (km/s) = 3.97216 4.24737 4.11207
# Velocity P-wave (km/s) = 6.90212 7.49489 7.20460
#
# Compressibility (1/GPa) = 0.02035798
#
# Stress axis : x y z
#
# Youngs Moduli (GPa) = 77.09262 66.55833 84.01642
#
# Poissons Ratio (x) = 0.06460 0.40510
# Poissons Ratio (y) = 0.07482 0.33421
# Poissons Ratio (z) = 0.37172 0.26476
#
# Static dielectric constant tensor:
#      x y z
#    x 3.318850 0.032190 -0.109380 
#    y 0.032190 3.457480 -0.060310 
#    z -0.109380 -0.060310 3.486130 
# 
# 
# High freq. dielectric constant tensor:
#      x y z
#    x 1.723200 0.003430 -0.002710 
#    y 0.003430 1.712480 -0.010540 
#    z -0.002710 -0.010540 1.714250 
# 
# From -- ./inp_files/180560.got.cif
#   From: 2010.06.25/outbox.cif.g09.slc.cpg/sg2_91_cif.got.tgz:180560.got - 2010.06.27 13:26:56.
