data_PCOD8023899
_publ_section_title
;
Structure prediction by ZEFSAII (Michael W. Deem and Ramdas Pophale) SiO2 
 PCOD8023899
Probable space group: P -1
;
_chemical_formula_sum "Si O2"
_cell_formula_units_Z 16
_cell_length_a 13.514450
_cell_length_b 22.279851
_cell_length_c 7.077290
_cell_angle_alpha 79.937730
_cell_angle_beta 99.310194
_cell_angle_gamma 160.222661
_cell_volume 709.934810
_symmetry_space_group_name_H-M "P -1"
_symmetry_group_IT_number 2
_symmetry_cell_setting 'triclinic'
loop_
_space_group_symop_operation_xyz
x,y,z
-x,-y,-z
loop_
_atom_site_type_symbol
_atom_site_label
_atom_site_fract_x
_atom_site_fract_y
_atom_site_fract_z
Si Si1 0.682704 0.827142 0.910770
Si Si2 0.276644 0.810155 0.892065
Si Si3 0.636889 0.905134 0.106992
Si Si4 0.175391 0.803826 0.246399
Si Si5 0.044589 0.617898 0.570235
Si Si6 0.685030 0.695260 0.955167
Si Si7 0.607583 0.548601 0.298009
Si Si8 0.539534 0.250166 0.482124
O O1 0.536862 0.677062 0.946349
O O2 0.695305 0.859258 0.681780
O O3 0.505248 0.773417 0.016371
O O4 0.000000 0.000000 0.000000
O O5 0.050357 0.652038 0.760602
O O6 0.503591 0.982674 0.752569
O O7 0.447222 0.856216 0.037927
O O8 0.106346 0.752696 0.029484
O O9 0.632934 0.884765 0.336234
O O10 0.965844 0.105201 0.034163
O O11 0.164411 0.733796 0.390350
O O12 0.943714 0.718974 0.307356
O O13 0.246012 0.673101 0.604025
O O14 0.716571 0.408968 0.535106
O O15 0.590906 0.617346 0.763635
O O16 0.561609 0.583800 0.146657
O O17 0.500000 0.500000 0.500000
#
# Coordination Sequence:
#
# PCOD8023899 Si02
#       8
#     2   2   2   2   2   2   2   2
#     4  10  23  42  67  95 132 180 227 279 336 404
#     4  11  23  43  70 100 137 185 225 287 350 400
#     4  11  22  43  71  97 138 183 225 287 343 413
#     4  11  24  44  69 102 137 177 237 286 341 419
#     4  11  24  40  65 102 140 179 224 281 350 412
#     4  10  24  43  66 100 132 177 236 276 340 408
#     4  11  25  44  69  98 137 182 224 286 342 406
#     4  11  24  40  65 102 139 178 230 282 338 420
#
# _framework density 22.537281
#
# number of rings (size 3 to 8) (size 9 to 14) (size 15 to 20)
#    0.000    1.250    3.750    1.125    0.000   11.500 
#    0.000    0.000    0.000    0.000    0.000    0.000 
#    0.000    0.000    0.000    0.000    0.000    0.000 
#
# Total GULP energy -198420.824295 kJ/mol
# GULP energy per Si atom -12401.301518 kJ/mol
# Density = 2.248599 g / cm^3
# Si number density = 22.537281 Si / 1000 Ang^3
#
#
#
# Elastic Constant Matrix: (Units=GPa)
#
#
# Indices 1 2 3 4 5 6 
#
# 1 72.1504 18.0411 22.8652 -4.3232 -4.9788 -17.6959
# 2 18.0411 60.5188 36.6553 7.5854 -2.0349 -13.3845
# 3 22.8652 36.6553 125.8309 8.9405 -7.0378 -5.7833
# 4 -4.3232 7.5854 8.9405 33.0187 -2.6560 -2.6330
# 5 -4.9788 -2.0349 -7.0378 -2.6560 51.4358 -0.7556
# 6 -17.6959 -13.3845 -5.7833 -2.6330 -0.7556 34.6030
#
#
#
# Elastic Compliance Matrix: (Units=1/GPa)
#
#
# Indices 1 2 3 4 5 6 
#
# 1 0.017546 -0.002566 -0.002288 0.004271 0.001621 0.007959
# 2 -0.002566 0.022450 -0.005552 -0.003515 -0.000211 0.006172
# 3 -0.002288 -0.005552 0.010075 -0.001826 0.000817 -0.001755
# 4 0.004271 -0.003515 -0.001826 0.032530 0.001749 0.003033
# 5 0.001621 -0.000211 0.000817 0.001749 0.019814 0.001450
# 6 0.007959 0.006172 -0.001755 0.003033 0.001450 0.035326
#
#
# Mechanical properties :
#
#
# Convention : Reuss Voigt Hill
#
# Bulk Modulus (GPa) = 34.17622 45.95815 40.06719
# Shear Modulus (GPa) = 29.70801 35.87405 32.79103
#
# Velocity S-wave (km/s) = 3.63460 3.99402 3.81854
# Velocity P-wave (km/s) = 5.72809 6.45801 6.10397
#
# Compressibility (1/GPa) = 0.02926011
#
# Stress axis : x y z
#
# Youngs Moduli (GPa) = 56.99171 44.54406 99.25475
#
# Poissons Ratio (x) = 0.11428 0.22710
# Poissons Ratio (y) = 0.14621 0.55105
# Poissons Ratio (z) = 0.13040 0.24731
#
# Static dielectric constant tensor:
#      x y z
#    x 4.500350 -0.471140 -0.083680 
#    y -0.471140 3.966000 0.131250 
#    z -0.083680 0.131250 3.994910 
# 
# 
# High freq. dielectric constant tensor:
#      x y z
#    x 1.901230 -0.020400 0.002160 
#    y -0.020400 1.874030 0.005580 
#    z 0.002160 0.005580 1.892540 
# 
# From -- ./inp_files/101103.got.cif
#   From: 2010.06.25/outbox.cif.g09.slc.cpg/sg2_51_cif.got.tgz:101103.got - 2010.06.27 13:26:56.
