data_PCOD8023634
_publ_section_title
;
Structure prediction by ZEFSAII (Michael W. Deem and Ramdas Pophale) SiO2 
 PCOD8023634
Probable space group: P -1
;
_chemical_formula_sum "Si O2"
_cell_formula_units_Z 12
_cell_length_a 11.440663
_cell_length_b 8.382547
_cell_length_c 8.420780
_cell_angle_alpha 127.539384
_cell_angle_beta 55.978904
_cell_angle_gamma 128.950865
_cell_volume 477.166778
_symmetry_space_group_name_H-M "P -1"
_symmetry_group_IT_number 2
_symmetry_cell_setting 'triclinic'
loop_
_space_group_symop_operation_xyz
x,y,z
-x,-y,-z
loop_
_atom_site_type_symbol
_atom_site_label
_atom_site_fract_x
_atom_site_fract_y
_atom_site_fract_z
Si Si1 0.314530 0.355872 0.059528
Si Si2 0.529635 0.846335 0.591846
Si Si3 0.946486 0.586866 0.863023
Si Si4 0.260877 0.912173 0.693242
Si Si5 0.951935 0.762741 0.303673
Si Si6 0.646517 0.646456 0.624487
O O1 0.218222 0.488940 0.151244
O O2 0.267008 0.270231 0.223737
O O3 0.500000 0.500000 0.000000
O O4 0.248644 0.138827 0.870637
O O5 0.369983 0.875371 0.722582
O O6 0.586802 0.828985 0.717113
O O7 0.496519 0.601839 0.394105
O O8 0.660846 0.054860 0.521364
O O9 0.088916 0.708207 0.703323
O O10 0.944535 0.354911 0.778214
O O11 0.969507 0.760135 0.097139
O O12 0.767495 0.620744 0.393061
O O13 0.000000 0.000000 0.500000
#
# Coordination Sequence:
#
# PCOD8023634 Si02
#       6
#     2   2   2   2   2   2
#     4  12  26  42  68 107 145 189 239 295 362 428
#     4  10  23  41  73  97 138 188 234 294 349 425
#     4  11  26  47  73 106 151 186 242 305 351 433
#     4  11  22  46  70 104 139 188 241 297 362 414
#     4  11  25  47  75 107 143 195 240 296 368 422
#     4  11  23  44  66 100 142 185 237 289 355 425
#
# _framework density 25.148440999999998
#
# number of rings (size 3 to 8) (size 9 to 14) (size 15 to 20)
#    0.000    1.000    3.333    2.500    2.333    4.000 
#    3.000    0.000    0.000    0.000    0.000    0.000 
#    0.000    0.000    0.000    0.000    0.000    0.000 
#
# Total GULP energy -148733.284511 kJ/mol
# GULP energy per Si atom -12394.440376 kJ/mol
# Density = 2.509120 g / cm^3
# Si number density = 25.148441 Si / 1000 Ang^3
#
#
#
# Elastic Constant Matrix: (Units=GPa)
#
#
# Indices 1 2 3 4 5 6 
#
# 1 216.3655 51.7813 37.2690 -12.6369 -22.5623 -24.4222
# 2 51.7813 98.6525 33.3196 -12.4805 -4.5555 -0.9403
# 3 37.2690 33.3196 64.8560 1.5344 -9.9010 -0.2322
# 4 -12.6369 -12.4805 1.5344 40.6253 4.3380 -6.3392
# 5 -22.5623 -4.5555 -9.9010 4.3380 34.6757 -1.5897
# 6 -24.4222 -0.9403 -0.2322 -6.3392 -1.5897 42.1161
#
#
#
# Elastic Compliance Matrix: (Units=1/GPa)
#
#
# Indices 1 2 3 4 5 6 
#
# 1 0.006410 -0.002278 -0.002039 0.001651 0.003267 0.004027
# 2 -0.002278 0.013817 -0.006180 0.003894 -0.001943 -0.000534
# 3 -0.002039 -0.006180 0.020486 -0.004007 0.004136 -0.001654
# 4 0.001651 0.003894 -0.004007 0.027563 -0.002774 0.005066
# 5 0.003267 -0.001943 0.004136 -0.002774 0.032360 0.002678
# 6 0.004027 -0.000534 -0.001654 0.005066 0.002678 0.026921
#
#
# Mechanical properties :
#
#
# Convention : Reuss Voigt Hill
#
# Bulk Modulus (GPa) = 50.71302 69.40152 60.05727
# Shear Modulus (GPa) = 32.23216 40.65038 36.44127
#
# Velocity S-wave (km/s) = 3.58393 4.02483 3.81076
# Velocity P-wave (km/s) = 6.11027 7.01824 6.57993
#
# Compressibility (1/GPa) = 0.01971880
#
# Stress axis : x y z
#
# Youngs Moduli (GPa) = 156.01318 72.37286 48.81391
#
# Poissons Ratio (x) = 0.16484 0.09953
# Poissons Ratio (y) = 0.35534 0.30169
# Poissons Ratio (z) = 0.31811 0.44730
#
# Static dielectric constant tensor:
#      x y z
#    x 4.669010 -0.241490 -0.104500 
#    y -0.241490 4.623550 -0.374660 
#    z -0.104500 -0.374660 4.477400 
# 
# 
# High freq. dielectric constant tensor:
#      x y z
#    x 2.015230 -0.013020 -0.012370 
#    y -0.013020 1.999960 -0.012310 
#    z -0.012370 -0.012310 1.981320 
# 
# From -- ./inp_files/207611.got.cif
#   From: 2010.06.25/outbox.cif.g09.slc.cpg/sg2_104_cif.got.tgz:207611.got - 2010.06.27 13:26:56.
