data_PCOD8023320
_publ_section_title
;
Structure prediction by ZEFSAII (Michael W. Deem and Ramdas Pophale) SiO2 
 PCOD8023320
Probable space group: P -1
;
_chemical_formula_sum "Si O2"
_cell_formula_units_Z 12
_cell_length_a 15.072001
_cell_length_b 15.657478
_cell_length_c 6.787974
_cell_angle_alpha 129.368284
_cell_angle_beta 64.154329
_cell_angle_gamma 151.655229
_cell_volume 554.359167
_symmetry_space_group_name_H-M "P -1"
_symmetry_group_IT_number 2
_symmetry_cell_setting 'triclinic'
loop_
_space_group_symop_operation_xyz
x,y,z
-x,-y,-z
loop_
_atom_site_type_symbol
_atom_site_label
_atom_site_fract_x
_atom_site_fract_y
_atom_site_fract_z
Si Si1 0.863251 0.075226 0.481478
Si Si2 0.709643 0.238107 0.362596
Si Si3 0.686565 0.534255 0.380682
Si Si4 0.426624 0.107353 0.220945
Si Si5 0.069045 0.626951 0.314898
Si Si6 0.595177 0.639133 0.914696
O O1 0.844992 0.169916 0.516268
O O2 0.087499 0.268255 0.610624
O O3 0.732697 0.960126 0.639059
O O4 0.778895 0.896312 0.165069
O O5 0.519172 0.129514 0.349316
O O6 0.760944 0.282392 0.610593
O O7 0.889042 0.467767 0.406330
O O8 0.680470 0.083793 0.095585
O O9 0.594071 0.333473 0.267315
O O10 0.682011 0.625843 0.680190
O O11 0.572146 0.455805 0.178790
O O12 0.000000 0.500000 0.000000
O O13 0.500000 0.500000 0.000000
#
# Coordination Sequence:
#
# PCOD8023320 Si02
#       6
#     2   2   2   2   2   2
#     4  12  24  43  71 100 130 178 224 270 337 394
#     4  10  23  41  65  94 143 174 217 278 316 397
#     4  11  25  47  69  97 138 169 221 284 331 397
#     4  11  22  44  67 101 133 179 225 266 336 394
#     4  11  22  41  64  99 132 180 222 264 336 390
#     4  11  25  48  70  98 131 174 223 278 342 397
#
# _framework density 21.646616000000002
#
# number of rings (size 3 to 8) (size 9 to 14) (size 15 to 20)
#    0.000    1.000    5.000    1.500    0.000    2.667 
#    6.000    0.000    0.000    0.000    0.000    0.000 
#    0.000    0.000    0.000    0.000    0.000    0.000 
#
# Total GULP energy -148854.696431 kJ/mol
# GULP energy per Si atom -12404.558036 kJ/mol
# Density = 2.159735 g / cm^3
# Si number density = 21.646616 Si / 1000 Ang^3
#
#
#
# Elastic Constant Matrix: (Units=GPa)
#
#
# Indices 1 2 3 4 5 6 
#
# 1 109.3111 37.8210 37.5771 -7.0276 23.2446 1.8365
# 2 37.8210 95.7499 37.2286 16.5403 4.7797 6.6790
# 3 37.5771 37.2286 89.6838 8.1254 16.0358 -8.8785
# 4 -7.0276 16.5403 8.1254 31.8785 -4.3963 -9.5149
# 5 23.2446 4.7797 16.0358 -4.3963 37.6250 1.7247
# 6 1.8365 6.6790 -8.8785 -9.5149 1.7247 45.1527
#
#
#
# Elastic Compliance Matrix: (Units=1/GPa)
#
#
# Indices 1 2 3 4 5 6 
#
# 1 0.013473 -0.004952 -0.002976 0.005811 -0.005795 0.001045
# 2 -0.004952 0.016103 -0.004638 -0.009519 0.002116 -0.005179
# 3 -0.002976 -0.004638 0.015678 -0.001783 -0.004631 0.003691
# 4 0.005811 -0.009519 -0.001783 0.041232 0.002766 0.009404
# 5 -0.005795 0.002116 -0.004631 0.002766 0.032262 -0.001637
# 6 0.001045 -0.005179 0.003691 0.009404 -0.001637 0.025641
#
#
# Mechanical properties :
#
#
# Convention : Reuss Voigt Hill
#
# Bulk Modulus (GPa) = 49.70020 57.77756 53.73888
# Shear Modulus (GPa) = 28.37226 35.07245 31.72236
#
# Velocity S-wave (km/s) = 3.62429 4.02957 3.83229
# Velocity P-wave (km/s) = 6.36582 6.95695 6.66794
#
# Compressibility (1/GPa) = 0.02012064
#
# Stress axis : x y z
#
# Youngs Moduli (GPa) = 74.22246 62.09891 63.78421
#
# Poissons Ratio (x) = 0.30751 0.18985
# Poissons Ratio (y) = 0.36755 0.29586
# Poissons Ratio (z) = 0.22091 0.28804
#
# Static dielectric constant tensor:
#      x y z
#    x 4.938090 -0.193060 -0.315840 
#    y -0.193060 4.016050 0.197540 
#    z -0.315840 0.197540 4.078390 
# 
# 
# High freq. dielectric constant tensor:
#      x y z
#    x 1.853950 -0.003570 0.003560 
#    y -0.003570 1.861270 0.012750 
#    z 0.003560 0.012750 1.851280 
# 
# From -- ./inp_files/91218.got.cif
#   From: 2010.06.25/outbox.cif.g09.slc.cpg/sg2_46_cif.got.tgz:91218.got - 2010.06.27 13:26:56.
