data_PCOD8023772
_publ_section_title
;
Structure prediction by ZEFSAII (Michael W. Deem and Ramdas Pophale) SiO2 
 PCOD8023772
Probable space group: P -1
;
_chemical_formula_sum "Si O2"
_cell_formula_units_Z 16
_cell_length_a 14.678819
_cell_length_b 17.895537
_cell_length_c 13.714246
_cell_angle_alpha 42.164548
_cell_angle_beta 126.304892
_cell_angle_gamma 159.145867
_cell_volume 780.899481
_symmetry_space_group_name_H-M "P -1"
_symmetry_group_IT_number 2
_symmetry_cell_setting 'triclinic'
loop_
_space_group_symop_operation_xyz
x,y,z
-x,-y,-z
loop_
_atom_site_type_symbol
_atom_site_label
_atom_site_fract_x
_atom_site_fract_y
_atom_site_fract_z
Si Si1 0.168085 0.424628 0.528582
Si Si2 0.337431 0.067102 0.769299
Si Si3 0.257623 0.468057 0.856033
Si Si4 0.266859 0.317906 0.843265
Si Si5 0.416944 0.031584 0.479143
Si Si6 0.701636 0.530079 0.898260
Si Si7 0.622870 0.934300 0.983170
Si Si8 0.520437 0.085781 0.705972
O O1 0.417673 0.628846 0.409182
O O2 0.172099 0.328034 0.699769
O O3 0.220455 0.592412 0.449958
O O4 0.861724 0.153690 0.549645
O O5 0.313466 0.939207 0.804355
O O6 0.435579 0.113347 0.892478
O O7 0.034845 0.855296 0.784072
O O8 0.381079 0.478025 0.860335
O O9 0.331711 0.653258 0.676288
O O10 0.374029 0.569108 0.942167
O O11 0.922268 0.147418 0.948133
O O12 0.526923 0.482386 0.804328
O O13 0.000000 0.000000 0.000000
O O14 0.361457 0.941530 0.641480
O O15 0.500000 0.000000 0.500000
O O16 0.617515 0.352367 0.946921
O O17 0.636998 0.070171 0.818044
#
# Coordination Sequence:
#
# PCOD8023772 Si02
#       8
#     2   2   2   2   2   2   2   2
#     4  10  25  44  62  95 130 172 215 266 324 380
#     4   9  24  44  63  97 130 174 223 261 328 387
#     4  11  23  41  64 101 130 167 220 268 332 390
#     4  12  23  45  70  92 134 174 216 276 328 384
#     4  12  24  39  68  99 135 171 213 268 334 393
#     4  11  24  40  69  95 127 176 222 271 320 385
#     4  11  22  41  68  96 132 170 221 269 321 392
#     4  10  23  42  65  94 135 174 209 275 323 390
#
# _framework density 20.489191999999999
#
# number of rings (size 3 to 8) (size 9 to 14) (size 15 to 20)
#    0.750    0.500    2.500    3.000    3.500    3.000 
#    0.000    0.625    0.000    0.000    0.000    0.000 
#    0.000    0.000    0.000    0.000    0.000    0.000 
#
# Total GULP energy -198366.171001 kJ/mol
# GULP energy per Si atom -12397.885688 kJ/mol
# Density = 2.044256 g / cm^3
# Si number density = 20.489192 Si / 1000 Ang^3
#
#
#
# Elastic Constant Matrix: (Units=GPa)
#
#
# Indices 1 2 3 4 5 6 
#
# 1 107.9337 40.8330 47.6853 11.4234 -2.2962 -17.0702
# 2 40.8330 105.9060 45.3082 16.2539 -12.6688 -7.7247
# 3 47.6853 45.3082 112.6988 9.1801 -0.3719 -10.8871
# 4 11.4234 16.2539 9.1801 37.1239 -2.5947 -7.2950
# 5 -2.2962 -12.6688 -0.3719 -2.5947 32.1735 1.4637
# 6 -17.0702 -7.7247 -10.8871 -7.2950 1.4637 36.6526
#
#
#
# Elastic Compliance Matrix: (Units=1/GPa)
#
#
# Indices 1 2 3 4 5 6 
#
# 1 0.012764 -0.002940 -0.003752 -0.000957 -0.000551 0.004042
# 2 -0.002940 0.013319 -0.003850 -0.003772 0.004715 -0.000645
# 3 -0.003752 -0.003850 0.012114 -0.000059 -0.001698 0.001095
# 4 -0.000957 -0.003772 -0.000059 0.029857 0.000642 0.004659
# 5 -0.000551 0.004715 -0.001698 0.000642 0.032975 -0.000957
# 6 0.004042 -0.000645 0.001095 0.004659 -0.000957 0.030321
#
#
# Mechanical properties :
#
#
# Convention : Reuss Voigt Hill
#
# Bulk Modulus (GPa) = 58.43952 66.02127 62.23039
# Shear Modulus (GPa) = 31.61811 34.03748 32.82780
#
# Velocity S-wave (km/s) = 3.93257 4.08025 4.00709
# Velocity P-wave (km/s) = 7.01457 7.38176 7.20051
#
# Compressibility (1/GPa) = 0.01711171
#
# Stress axis : x y z
#
# Youngs Moduli (GPa) = 78.34722 75.08071 82.55212
#
# Poissons Ratio (x) = 0.22076 0.30973
# Poissons Ratio (y) = 0.23037 0.31783
# Poissons Ratio (z) = 0.29395 0.28906
#
# Static dielectric constant tensor:
#      x y z
#    x 3.739720 -0.123950 -0.101150 
#    y -0.123950 3.648770 0.064530 
#    z -0.101150 0.064530 3.573880 
# 
# 
# High freq. dielectric constant tensor:
#      x y z
#    x 1.802010 -0.005330 -0.005160 
#    y -0.005330 1.805260 0.007330 
#    z -0.005160 0.007330 1.795040 
# 
# From -- ./inp_files/433153.got.cif
#   From: 2010.06.25/outbox.cif.g09.slc.cpg/sg2_217_cif.got.tgz:433153.got - 2010.06.27 13:26:56.
