data_PCOD8023288
_publ_section_title
;
Structure prediction by ZEFSAII (Michael W. Deem and Ramdas Pophale) SiO2 
 PCOD8023288
Probable space group: P -1
;
_chemical_formula_sum "Si O2"
_cell_formula_units_Z 14
_cell_length_a 8.917698
_cell_length_b 11.291225
_cell_length_c 10.934201
_cell_angle_alpha 77.273992
_cell_angle_beta 89.135479
_cell_angle_gamma 139.658286
_cell_volume 665.374778
_symmetry_space_group_name_H-M "P -1"
_symmetry_group_IT_number 2
_symmetry_cell_setting 'triclinic'
loop_
_space_group_symop_operation_xyz
x,y,z
-x,-y,-z
loop_
_atom_site_type_symbol
_atom_site_label
_atom_site_fract_x
_atom_site_fract_y
_atom_site_fract_z
Si Si1 0.223583 0.910444 0.799650
Si Si2 0.936408 0.607781 0.466720
Si Si3 0.006709 0.615703 0.065429
Si Si4 0.420818 0.623921 0.702562
Si Si5 0.191873 0.338266 0.314258
Si Si6 0.558674 0.975537 0.631725
Si Si7 0.716906 0.340547 0.745683
O O1 0.330542 0.854885 0.750721
O O2 0.028937 0.848129 0.725386
O O3 0.438437 0.143436 0.759004
O O4 0.106744 0.799988 0.955788
O O5 0.740420 0.483165 0.391926
O O6 0.889117 0.695090 0.535977
O O7 0.895418 0.462584 0.592740
O O8 0.205947 0.806234 0.364918
O O9 0.184108 0.699601 0.157268
O O10 0.741914 0.478897 0.150513
O O11 0.000000 0.500000 0.000000
O O12 0.590126 0.615825 0.708096
O O13 0.588769 0.850589 0.645597
O O14 0.275856 0.523503 0.218807
O O15 0.500000 0.000000 0.500000
#
# Coordination Sequence:
#
# PCOD8023288 Si02
#       7
#     2   2   2   2   2   2   2
#     4  12  23  43  67  94 130 168 212 265 315 372
#     4  10  23  41  64  96 130 162 211 259 317 376
#     4  12  22  45  66  93 127 168 217 265 309 375
#     4  12  25  41  67  93 131 171 210 259 321 376
#     4  10  24  43  62  96 131 168 205 264 319 379
#     4  12  22  39  66  96 122 168 213 258 317 371
#     4  10  23  43  67  91 131 163 211 267 315 369
#
# _framework density 21.040770999999999
#
# number of rings (size 3 to 8) (size 9 to 14) (size 15 to 20)
#    0.857    0.000    4.286    3.429    0.000    4.000 
#    0.000    0.714    0.000    0.000    0.000    0.000 
#    0.000    0.000    0.000    0.000    0.000    0.000 
#
# Total GULP energy -173616.856428 kJ/mol
# GULP energy per Si atom -12401.204031 kJ/mol
# Density = 2.099288 g / cm^3
# Si number density = 21.040771 Si / 1000 Ang^3
#
#
#
# Elastic Constant Matrix: (Units=GPa)
#
#
# Indices 1 2 3 4 5 6 
#
# 1 81.4854 28.0712 34.6385 -2.9651 3.2706 15.3161
# 2 28.0712 129.3876 37.6212 -8.9072 6.7856 21.6450
# 3 34.6385 37.6212 127.1718 -8.7879 -3.0521 8.0602
# 4 -2.9651 -8.9072 -8.7879 32.6950 -1.1476 4.7125
# 5 3.2706 6.7856 -3.0521 -1.1476 14.8436 -2.2834
# 6 15.3161 21.6450 8.0602 4.7125 -2.2834 31.0504
#
#
#
# Elastic Compliance Matrix: (Units=1/GPa)
#
#
# Indices 1 2 3 4 5 6 
#
# 1 0.015584 -0.000914 -0.003600 0.000984 -0.004697 -0.006610
# 2 -0.000914 0.010263 -0.002284 0.002901 -0.005809 -0.006978
# 3 -0.003600 -0.002284 0.009676 0.001665 0.004095 0.000904
# 4 0.000984 0.002901 0.001665 0.033063 0.000133 -0.007948
# 5 -0.004697 -0.005809 0.004095 0.000133 0.073557 0.010692
# 6 -0.006610 -0.006978 0.000904 -0.007948 0.010692 0.042088
#
#
# Mechanical properties :
#
#
# Convention : Reuss Voigt Hill
#
# Bulk Modulus (GPa) = 45.60734 59.85630 52.73182
# Shear Modulus (GPa) = 24.37413 31.56537 27.96975
#
# Velocity S-wave (km/s) = 3.40725 3.87744 3.64993
# Velocity P-wave (km/s) = 6.09934 6.96819 6.54819
#
# Compressibility (1/GPa) = 0.02192629
#
# Stress axis : x y z
#
# Youngs Moduli (GPa) = 64.16737 97.43995 103.35354
#
# Poissons Ratio (x) = 0.08911 0.37207
# Poissons Ratio (y) = 0.05868 0.23602
# Poissons Ratio (z) = 0.23100 0.22252
#
# Static dielectric constant tensor:
#      x y z
#    x 3.574510 -0.024040 -0.173550 
#    y -0.024040 3.939250 -0.043370 
#    z -0.173550 -0.043370 4.099150 
# 
# 
# High freq. dielectric constant tensor:
#      x y z
#    x 1.801730 -0.000710 -0.007640 
#    y -0.000710 1.841710 0.001630 
#    z -0.007640 0.001630 1.829770 
# 
# From -- ./inp_files/390006.got.cif
#   From: 2010.06.25/outbox.cif.g09.slc.cpg/sg2_196_cif.got.tgz:390006.got - 2010.06.27 13:26:56.
