data_PCOD8023663
_publ_section_title
;
Structure prediction by ZEFSAII (Michael W. Deem and Ramdas Pophale) SiO2 
 PCOD8023663
Probable space group: P -1
;
_chemical_formula_sum "Si O2"
_cell_formula_units_Z 16
_cell_length_a 21.193650
_cell_length_b 11.422292
_cell_length_c 8.928923
_cell_angle_alpha 141.895928
_cell_angle_beta 140.837235
_cell_angle_gamma 43.468126
_cell_volume 804.424126
_symmetry_space_group_name_H-M "P -1"
_symmetry_group_IT_number 2
_symmetry_cell_setting 'triclinic'
loop_
_space_group_symop_operation_xyz
x,y,z
-x,-y,-z
loop_
_atom_site_type_symbol
_atom_site_label
_atom_site_fract_x
_atom_site_fract_y
_atom_site_fract_z
Si Si1 0.031044 0.939606 0.665477
Si Si2 0.215636 0.558015 0.690232
Si Si3 0.604318 0.504326 0.279568
Si Si4 0.940820 0.668456 0.870383
Si Si5 0.350558 0.210480 0.123893
Si Si6 0.111827 0.293179 0.840302
Si Si7 0.359851 0.493083 0.159780
Si Si8 0.419322 0.747490 0.764615
O O1 0.137289 0.760527 0.689443
O O2 0.935095 0.871106 0.490245
O O3 0.000000 0.000000 0.500000
O O4 0.050275 0.125778 0.976867
O O5 0.305541 0.492376 0.666081
O O6 0.156621 0.391201 0.437794
O O7 0.261854 0.582849 0.961939
O O8 0.585860 0.700871 0.547773
O O9 0.639270 0.309420 0.255679
O O10 0.500000 0.500000 0.000000
O O11 0.052253 0.507521 0.875676
O O12 0.920622 0.695313 0.035835
O O13 0.342514 0.326395 0.070563
O O14 0.234506 0.234493 0.990484
O O15 0.410656 0.978977 0.978260
O O16 0.373260 0.684648 0.463981
O O17 0.459973 0.385345 0.133968
#
# Coordination Sequence:
#
# PCOD8023663 Si02
#       8
#     2   2   2   2   2   2   2   2
#     4   9  20  33  58  89 121 154 193 246 306 364
#     4  11  21  38  61  91 124 159 199 249 314 352
#     4  11  23  39  60  94 127 152 199 268 300 351
#     4   9  18  35  56  88 122 149 190 252 307 355
#     4  11  23  39  65  90 118 168 207 241 304 368
#     4   9  18  34  57  88 118 148 199 247 301 357
#     4  10  23  43  59  83 128 168 203 250 298 361
#     4  10  23  42  62  85 122 170 210 245 298 359
#
# _framework density 19.890004999999999
#
# number of rings (size 3 to 8) (size 9 to 14) (size 15 to 20)
#    0.000    2.000    2.500    1.125    3.500    2.500 
#    2.250    2.500    0.000    4.500    0.000    0.000 
#    0.000    0.000    0.000    0.000    0.000    0.000 
#
# Total GULP energy -198314.358677 kJ/mol
# GULP energy per Si atom -12394.647417 kJ/mol
# Density = 1.984473 g / cm^3
# Si number density = 19.890005 Si / 1000 Ang^3
#
#
#
# Elastic Constant Matrix: (Units=GPa)
#
#
# Indices 1 2 3 4 5 6 
#
# 1 45.4258 23.8081 34.8487 2.3771 2.3500 0.4546
# 2 23.8081 96.0689 84.6454 7.2809 1.6495 6.0285
# 3 34.8487 84.6454 148.3508 4.7299 13.6373 4.3595
# 4 2.3771 7.2809 4.7299 40.4684 5.7333 7.7585
# 5 2.3500 1.6495 13.6373 5.7333 26.4631 -4.9642
# 6 0.4546 6.0285 4.3595 7.7585 -4.9642 23.1899
#
#
#
# Elastic Compliance Matrix: (Units=1/GPa)
#
#
# Indices 1 2 3 4 5 6 
#
# 1 0.027158 -0.002125 -0.005267 -0.001031 0.000951 0.001559
# 2 -0.002125 0.022213 -0.012571 -0.002993 0.005716 -0.001145
# 3 -0.005267 -0.012571 0.015854 0.002205 -0.007774 -0.002011
# 4 -0.001031 -0.002993 0.002205 0.028468 -0.009106 -0.011090
# 5 0.000951 0.005716 -0.007774 -0.009106 0.045726 0.012792
# 6 0.001559 -0.001145 -0.002011 -0.011090 0.012792 0.050216
#
#
# Mechanical properties :
#
#
# Convention : Reuss Voigt Hill
#
# Bulk Modulus (GPa) = 39.53010 64.05000 51.79005
# Shear Modulus (GPa) = 21.00878 27.79385 24.40131
#
# Velocity S-wave (km/s) = 3.25352 3.74221 3.50639
# Velocity P-wave (km/s) = 5.83364 7.13752 6.51826
#
# Compressibility (1/GPa) = 0.02529718
#
# Stress axis : x y z
#
# Youngs Moduli (GPa) = 36.82183 45.01901 63.07413
#
# Poissons Ratio (x) = 0.09569 0.33222
# Poissons Ratio (y) = 0.07826 0.79292
# Poissons Ratio (z) = 0.19395 0.56595
#
# Static dielectric constant tensor:
#      x y z
#    x 3.623190 0.132950 0.409060 
#    y 0.132950 3.632240 0.299760 
#    z 0.409060 0.299760 4.192730 
# 
# 
# High freq. dielectric constant tensor:
#      x y z
#    x 1.762030 0.003050 0.021920 
#    y 0.003050 1.764700 0.004900 
#    z 0.021920 0.004900 1.788330 
# 
# From -- ./inp_files/345763.got.cif
#   From: 2010.06.25/outbox.cif.g09.slc.cpg/sg2_173_cif.got.tgz:345763.got - 2010.06.27 13:26:56.
