data_PCOD8023095
_publ_section_title
;
Structure prediction by ZEFSAII (Michael W. Deem and Ramdas Pophale) SiO2 
 PCOD8023095
Probable space group: P -1
;
_chemical_formula_sum "Si O2"
_cell_formula_units_Z 16
_cell_length_a 11.361255
_cell_length_b 11.791661
_cell_length_c 9.624676
_cell_angle_alpha 48.520273
_cell_angle_beta 121.182962
_cell_angle_gamma 89.631950
_cell_volume 692.864808
_symmetry_space_group_name_H-M "P -1"
_symmetry_group_IT_number 2
_symmetry_cell_setting 'triclinic'
loop_
_space_group_symop_operation_xyz
x,y,z
-x,-y,-z
loop_
_atom_site_type_symbol
_atom_site_label
_atom_site_fract_x
_atom_site_fract_y
_atom_site_fract_z
Si Si1 0.615488 0.059865 0.967012
Si Si2 0.872737 0.685112 0.111514
Si Si3 0.494124 0.202954 0.192172
Si Si4 0.524024 0.732560 0.550670
Si Si5 0.960457 0.726474 0.416420
Si Si6 0.937288 0.202754 0.326165
Si Si7 0.212209 0.198426 0.336598
Si Si8 0.414533 0.634079 0.111141
O O1 0.594177 0.099060 0.757480
O O2 0.571130 0.245129 0.863148
O O3 0.500000 0.000000 0.000000
O O4 0.793373 0.890147 0.249406
O O5 0.949326 0.752002 0.221857
O O6 0.000468 0.469558 0.359531
O O7 0.689803 0.743264 0.998564
O O8 0.864727 0.773238 0.887737
O O9 0.526507 0.202183 0.375452
O O10 0.633085 0.006198 0.379252
O O11 0.517606 0.346964 0.009972
O O12 0.714424 0.676234 0.695569
O O13 0.490883 0.576521 0.619161
O O14 0.091303 0.751435 0.561549
O O15 0.066220 0.250826 0.310822
O O16 0.767435 0.322722 0.048113
O O17 0.000000 0.000000 0.500000
#
# Coordination Sequence:
#
# PCOD8023095 Si02
#       8
#     2   2   2   2   2   2   2   2
#     4  12  24  43  69  93 130 178 218 268 329 392
#     4  10  23  40  68 100 127 165 224 270 319 383
#     4  11  21  43  69  94 133 173 217 265 330 389
#     4  11  24  40  67 101 128 166 223 274 320 386
#     4  11  22  41  64  93 131 168 213 264 324 382
#     4  12  23  42  64  94 132 172 216 259 323 391
#     4  11  22  42  69  97 126 175 220 265 324 391
#     4  12  25  43  65  98 134 171 216 274 327 383
#
# _framework density 23.092527
#
# number of rings (size 3 to 8) (size 9 to 14) (size 15 to 20)
#    0.000    0.750    2.500    7.500    0.000    3.000 
#    0.000    4.375    0.000    0.000    0.000    0.000 
#    0.000    0.000    0.000    0.000    0.000    0.000 
#
# Total GULP energy -198298.224798 kJ/mol
# GULP energy per Si atom -12393.639050 kJ/mol
# Density = 2.303997 g / cm^3
# Si number density = 23.092527 Si / 1000 Ang^3
#
#
#
# Elastic Constant Matrix: (Units=GPa)
#
#
# Indices 1 2 3 4 5 6 
#
# 1 89.1279 15.0386 26.1218 3.2253 -14.0299 6.0123
# 2 15.0386 127.9806 19.7969 10.9601 -6.3807 14.9584
# 3 26.1218 19.7969 100.6990 5.6771 -16.5255 0.3128
# 4 3.2253 10.9601 5.6771 40.1734 -1.1364 -1.2115
# 5 -14.0299 -6.3807 -16.5255 -1.1364 28.9221 -5.2374
# 6 6.0123 14.9584 0.3128 -1.2115 -5.2374 24.7675
#
#
#
# Elastic Compliance Matrix: (Units=1/GPa)
#
#
# Indices 1 2 3 4 5 6 
#
# 1 0.012876 -0.000668 -0.002465 -0.000434 0.004349 -0.001793
# 2 -0.000668 0.008938 -0.001478 -0.002346 -0.000265 -0.005388
# 3 -0.002465 -0.001478 0.011828 -0.000835 0.005656 0.002497
# 4 -0.000434 -0.002346 -0.000835 0.025780 0.000326 0.002863
# 5 0.004349 -0.000265 0.005656 0.000326 0.041280 0.007778
# 6 -0.001793 -0.005388 0.002497 0.002863 0.007778 0.045818
#
#
# Mechanical properties :
#
#
# Convention : Reuss Voigt Hill
#
# Bulk Modulus (GPa) = 40.95106 48.85799 44.90452
# Shear Modulus (GPa) = 30.50938 35.89596 33.20267
#
# Velocity S-wave (km/s) = 3.63875 3.94692 3.79596
# Velocity P-wave (km/s) = 5.95197 6.47876 6.22094
#
# Compressibility (1/GPa) = 0.02441939
#
# Stress axis : x y z
#
# Youngs Moduli (GPa) = 77.66258 111.87723 84.54403
#
# Poissons Ratio (x) = 0.07476 0.20841
# Poissons Ratio (y) = 0.05189 0.12499
# Poissons Ratio (z) = 0.19145 0.16539
#
# Static dielectric constant tensor:
#      x y z
#    x 5.874640 -0.232420 1.513340 
#    y -0.232420 4.201060 0.067030 
#    z 1.513340 0.067030 5.620630 
# 
# 
# High freq. dielectric constant tensor:
#      x y z
#    x 1.880490 -0.005400 -0.000660 
#    y -0.005400 1.925700 0.006950 
#    z -0.000660 0.006950 1.931720 
# 
# From -- ./inp_files/261701.got.cif
#   From: 2010.06.25/outbox.cif.g09.slc.cpg/sg2_131_cif.got.tgz:261701.got - 2010.06.27 13:26:56.
