data_PCOD8023044
_publ_section_title
;
Structure prediction by ZEFSAII (Michael W. Deem and Ramdas Pophale) SiO2 
 PCOD8023044
Probable space group: P -1
;
_chemical_formula_sum "Si O2"
_cell_formula_units_Z 14
_cell_length_a 9.234357
_cell_length_b 8.867296
_cell_length_c 10.135708
_cell_angle_alpha 90.489482
_cell_angle_beta 56.962269
_cell_angle_gamma 100.230932
_cell_volume 680.761752
_symmetry_space_group_name_H-M "P -1"
_symmetry_group_IT_number 2
_symmetry_cell_setting 'triclinic'
loop_
_space_group_symop_operation_xyz
x,y,z
-x,-y,-z
loop_
_atom_site_type_symbol
_atom_site_label
_atom_site_fract_x
_atom_site_fract_y
_atom_site_fract_z
Si Si1 0.657499 0.809354 0.198700
Si Si2 0.704256 0.130730 0.540244
Si Si3 0.724876 0.139484 0.235848
Si Si4 0.668532 0.637109 0.923009
Si Si5 0.631432 0.808637 0.684947
Si Si6 0.692569 0.606959 0.420213
Si Si7 0.050516 0.623937 0.715308
O O1 0.448182 0.800362 0.313252
O O2 0.729662 0.731039 0.286788
O O3 0.762572 0.988529 0.140741
O O4 0.691312 0.719807 0.051804
O O5 0.643158 0.082550 0.419981
O O6 0.882297 0.264622 0.444099
O O7 0.736756 0.982819 0.604137
O O8 0.578123 0.208607 0.231565
O O9 0.898314 0.274451 0.173626
O O10 0.660232 0.768278 0.821194
O O11 0.841089 0.564045 0.811887
O O12 0.500000 0.500000 0.000000
O O13 0.705069 0.689635 0.555441
O O14 0.500000 0.500000 0.500000
O O15 0.850059 0.516031 0.335275
#
# Coordination Sequence:
#
# PCOD8023044 Si02
#       7
#     2   2   2   2   2   2   2
#     4  11  20  40  67  94 128 166 205 264 323 369
#     4   9  18  39  72  98 109 155 231 269 287 370
#     4   9  18  39  72  98 109 155 231 269 287 370
#     4  12  30  42  54  94 150 169 191 263 337 376
#     4  11  20  40  67  94 128 166 205 264 323 369
#     4  12  17  35  73  95 113 174 217 257 305 370
#     4  10  23  40  66 101 122 162 222 265 301 376
#
# _framework density 20.565199
#
# number of rings (size 3 to 8) (size 9 to 14) (size 15 to 20)
#    0.857    0.571    5.714    1.714    0.000    4.571 
#    0.000    0.000    6.286    0.000    0.000    0.000 
#    0.000    0.000    0.000    0.000    0.000    0.000 
#
# Total GULP energy -173513.520710 kJ/mol
# GULP energy per Si atom -12393.822908 kJ/mol
# Density = 2.051839 g / cm^3
# Si number density = 20.565199 Si / 1000 Ang^3
#
#
#
# Elastic Constant Matrix: (Units=GPa)
#
#
# Indices 1 2 3 4 5 6 
#
# 1 86.6013 36.1838 20.3345 -8.0208 -29.6550 -9.1667
# 2 36.1838 98.1839 11.5592 10.5626 -22.2398 -11.2264
# 3 20.3345 11.5592 38.8828 4.0128 -7.3455 -2.9844
# 4 -8.0208 10.5626 4.0128 10.6161 -0.4842 -4.7100
# 5 -29.6550 -22.2398 -7.3455 -0.4842 35.0698 -1.2211
# 6 -9.1667 -11.2264 -2.9844 -4.7100 -1.2211 24.7607
#
#
#
# Elastic Compliance Matrix: (Units=1/GPa)
#
#
# Indices 1 2 3 4 5 6 
#
# 1 0.029997 -0.008280 -0.013055 0.043302 0.018498 0.014927
# 2 -0.008280 0.016265 0.002577 -0.023071 0.003549 0.000406
# 3 -0.013055 0.002577 0.033687 -0.027503 -0.002902 -0.004979
# 4 0.043302 -0.023071 -0.027503 0.177601 0.019967 0.037024
# 5 0.018498 0.003549 -0.002902 0.019967 0.046569 0.014202
# 6 0.014927 0.000406 -0.004979 0.037024 0.014202 0.053240
#
#
# Mechanical properties :
#
#
# Convention : Reuss Voigt Hill
#
# Bulk Modulus (GPa) = 23.56542 39.98034 31.77288
# Shear Modulus (GPa) = 12.22437 24.46202 18.34320
#
# Velocity S-wave (km/s) = 2.44072 3.45263 2.98980
# Velocity P-wave (km/s) = 4.40756 5.94788 5.23468
#
# Compressibility (1/GPa) = 0.04243506
#
# Stress axis : x y z
#
# Youngs Moduli (GPa) = 33.33698 61.48134 29.68464
#
# Poissons Ratio (x) = 0.50904 0.38753
# Poissons Ratio (y) = 0.27601 -0.07650
# Poissons Ratio (z) = 0.43521 -0.15845
#
# Static dielectric constant tensor:
#      x y z
#    x 3.455440 -0.091810 0.024470 
#    y -0.091810 3.795930 0.019860 
#    z 0.024470 0.019860 3.531180 
# 
# 
# High freq. dielectric constant tensor:
#      x y z
#    x 1.785410 -0.011580 -0.001700 
#    y -0.011580 1.811800 0.005370 
#    z -0.001700 0.005370 1.785860 
# 
# From -- ./inp_files/159097.got.cif
#   From: 2010.06.25/outbox.cif.g09.slc.cpg/sg2_80_cif.got.tgz:159097.got - 2010.06.27 13:26:56.
