data_PCOD8023580
_publ_section_title
;
Structure prediction by ZEFSAII (Michael W. Deem and Ramdas Pophale) SiO2 
 PCOD8023580
Probable space group: P -1
;
_chemical_formula_sum "Si O2"
_cell_formula_units_Z 16
_cell_length_a 9.151909
_cell_length_b 8.975599
_cell_length_c 11.850953
_cell_angle_alpha 58.003197
_cell_angle_beta 116.916257
_cell_angle_gamma 105.316570
_cell_volume 735.772730
_symmetry_space_group_name_H-M "P -1"
_symmetry_group_IT_number 2
_symmetry_cell_setting 'triclinic'
loop_
_space_group_symop_operation_xyz
x,y,z
-x,-y,-z
loop_
_atom_site_type_symbol
_atom_site_label
_atom_site_fract_x
_atom_site_fract_y
_atom_site_fract_z
Si Si1 0.568090 0.521817 0.889993
Si Si2 0.227438 0.301559 0.610191
Si Si3 0.098918 0.830018 0.072214
Si Si4 0.760998 0.377604 0.356074
Si Si5 0.056302 0.471019 0.281992
Si Si6 0.944682 0.048701 0.587281
Si Si7 0.885493 0.713838 0.843866
Si Si8 0.550609 0.175490 0.881997
O O1 0.431110 0.619574 0.732224
O O2 0.727099 0.652293 0.886924
O O3 0.596206 0.329999 0.924502
O O4 0.500000 0.500000 0.000000
O O5 0.181522 0.469956 0.599277
O O6 0.190503 0.363061 0.443695
O O7 0.411754 0.239681 0.720244
O O8 0.106202 0.137652 0.667434
O O9 0.076596 0.681524 0.221413
O O10 0.292107 0.874962 0.115373
O O11 0.036685 0.753350 0.962465
O O12 0.000000 0.000000 0.000000
O O13 0.798834 0.184693 0.489533
O O14 0.870534 0.409342 0.269498
O O15 0.077843 0.441490 0.167770
O O16 0.864761 0.886414 0.691632
O O17 0.000000 0.000000 0.500000
O O18 0.500000 0.000000 0.000000
#
# Coordination Sequence:
#
# PCOD8023580 Si02
#       8
#     2   2   2   2   2   2   2   2
#     4  11  26  46  67  99 140 188 231 285 353 407
#     4  10  23  44  71 103 138 182 230 282 355 411
#     4  12  29  44  69 103 137 184 236 290 347 417
#     4  10  23  41  70  99 138 184 227 282 351 412
#     4  11  22  45  72  99 137 185 231 285 348 417
#     4  11  21  41  69 104 135 177 228 287 345 418
#     4  12  25  45  69 102 139 182 237 284 351 417
#     4  11  26  47  70 100 138 180 233 289 346 417
#
# _framework density 21.745844999999999
#
# number of rings (size 3 to 8) (size 9 to 14) (size 15 to 20)
#    0.000    1.000    3.750    3.375   10.500    2.000 
#    0.000    0.000    0.000    0.000    0.000    0.000 
#    0.000    0.000    0.000    0.000    0.000    0.000 
#
# Total GULP energy -198341.911573 kJ/mol
# GULP energy per Si atom -12396.369473 kJ/mol
# Density = 2.169635 g / cm^3
# Si number density = 21.745845 Si / 1000 Ang^3
#
#
#
# Elastic Constant Matrix: (Units=GPa)
#
#
# Indices 1 2 3 4 5 6 
#
# 1 105.4758 35.1069 34.6752 -18.2243 9.8513 -2.1508
# 2 35.1069 110.3160 43.5220 -23.9564 7.1848 -1.3019
# 3 34.6752 43.5220 82.8147 -19.2804 5.0316 -2.5770
# 4 -18.2243 -23.9564 -19.2804 50.8044 0.2382 -6.8687
# 5 9.8513 7.1848 5.0316 0.2382 41.1136 -7.7586
# 6 -2.1508 -1.3019 -2.5770 -6.8687 -7.7586 35.5284
#
#
#
# Elastic Compliance Matrix: (Units=1/GPa)
#
#
# Indices 1 2 3 4 5 6 
#
# 1 0.011750 -0.001823 -0.003325 0.002154 -0.002031 0.000376
# 2 -0.001823 0.012380 -0.004875 0.003395 -0.001072 0.000412
# 3 -0.003325 -0.004875 0.016798 0.003073 -0.000161 0.001397
# 4 0.002154 0.003395 0.003073 0.023895 -0.000690 0.004947
# 5 -0.002031 -0.001072 -0.000161 -0.000690 0.026036 0.005378
# 6 0.000376 0.000412 0.001397 0.004947 0.005378 0.030417
#
#
# Mechanical properties :
#
#
# Convention : Reuss Voigt Hill
#
# Bulk Modulus (GPa) = 47.88702 58.35719 53.12210
# Shear Modulus (GPa) = 33.71951 37.84277 35.78114
#
# Velocity S-wave (km/s) = 3.94206 4.17613 4.06078
# Velocity P-wave (km/s) = 6.54132 7.08151 6.81676
#
# Compressibility (1/GPa) = 0.02088249
#
# Stress axis : x y z
#
# Youngs Moduli (GPa) = 85.10354 80.77549 59.53087
#
# Poissons Ratio (x) = 0.14726 0.19796
# Poissons Ratio (y) = 0.15515 0.29019
# Poissons Ratio (z) = 0.28300 0.39374
#
# Static dielectric constant tensor:
#      x y z
#    x 3.806260 0.034970 0.086970 
#    y 0.034970 4.244860 -0.092300 
#    z 0.086970 -0.092300 4.040070 
# 
# 
# High freq. dielectric constant tensor:
#      x y z
#    x 1.845410 -0.000230 0.006210 
#    y -0.000230 1.869370 -0.013170 
#    z 0.006210 -0.013170 1.861780 
# 
# From -- ./inp_files/243204.got.cif
#   From: 2010.06.25/outbox.cif.g09.slc.cpg/sg2_122_cif.got.tgz:243204.got - 2010.06.27 13:26:56.
