data_PCOD8023305
_publ_section_title
;
Structure prediction by ZEFSAII (Michael W. Deem and Ramdas Pophale) SiO2 
 PCOD8023305
Probable space group: P -1
;
_chemical_formula_sum "Si O2"
_cell_formula_units_Z 16
_cell_length_a 8.988426
_cell_length_b 14.943633
_cell_length_c 11.462686
_cell_angle_alpha 102.941023
_cell_angle_beta 58.100907
_cell_angle_gamma 55.616177
_cell_volume 718.924694
_symmetry_space_group_name_H-M "P -1"
_symmetry_group_IT_number 2
_symmetry_cell_setting 'triclinic'
loop_
_space_group_symop_operation_xyz
x,y,z
-x,-y,-z
loop_
_atom_site_type_symbol
_atom_site_label
_atom_site_fract_x
_atom_site_fract_y
_atom_site_fract_z
Si Si1 0.693481 0.520417 0.197533
Si Si2 0.347518 0.282257 0.862385
Si Si3 0.415698 0.487573 0.152407
Si Si4 0.836303 0.997092 0.987632
Si Si5 0.809791 0.804867 0.610831
Si Si6 0.263445 0.829806 0.127994
Si Si7 0.232217 0.682622 0.611267
Si Si8 0.335912 0.003311 0.479373
O O1 0.709319 0.586802 0.106361
O O2 0.606861 0.457502 0.165502
O O3 0.434126 0.663843 0.440540
O O4 0.034909 0.371163 0.070876
O O5 0.615230 0.165546 0.811746
O O6 0.451296 0.178927 0.676586
O O7 0.049185 0.648457 0.380660
O O8 0.500000 0.500000 0.000000
O O9 0.489692 0.347411 0.081712
O O10 0.503389 0.116885 0.215212
O O11 0.811450 0.054344 0.890282
O O12 0.000000 0.000000 0.000000
O O13 0.054364 0.812621 0.826876
O O14 0.717565 0.934543 0.611367
O O15 0.968706 0.752410 0.656216
O O16 0.980808 0.887625 0.296875
O O17 0.500000 0.500000 0.500000
O O18 0.500000 0.000000 0.500000
#
# Coordination Sequence:
#
# PCOD8023305 Si02
#       8
#     2   2   2   2   2   2   2   2
#     4  10  23  41  65 103 135 173 231 290 336 428
#     4  11  23  38  67 100 135 174 230 288 355 403
#     4  11  21  44  70 103 134 181 232 284 354 414
#     4  12  29  47  68 106 143 182 238 295 350 414
#     4  11  26  46  73 101 142 186 238 284 347 430
#     4  12  24  42  70  96 143 179 229 296 349 412
#     4  11  26  47  73  95 141 192 239 279 350 425
#     4  12  24  41  71  99 135 186 232 291 353 421
#
# _framework density 22.255459999999999
#
# number of rings (size 3 to 8) (size 9 to 14) (size 15 to 20)
#    0.000    0.750    2.500    4.500    7.000    1.500 
#    0.000    0.000    0.000    0.000    0.000    0.000 
#    0.000    0.000    0.000    0.000    0.000    0.000 
#
# Total GULP energy -198334.210708 kJ/mol
# GULP energy per Si atom -12395.888169 kJ/mol
# Density = 2.220481 g / cm^3
# Si number density = 22.255460 Si / 1000 Ang^3
#
#
#
# Elastic Constant Matrix: (Units=GPa)
#
#
# Indices 1 2 3 4 5 6 
#
# 1 -208.1224 -41.1828 177.1054 17.4346 -26.4097 141.3125
# 2 -41.1828 72.8218 41.9845 3.5723 -10.1632 27.5378
# 3 177.1054 41.9845 136.1004 -0.6837 -13.1618 -33.5629
# 4 17.4346 3.5723 -0.6837 37.9870 11.4049 -3.2070
# 5 -26.4097 -10.1632 -13.1618 11.4049 45.4842 8.5848
# 6 141.3125 27.5378 -33.5629 -3.2070 8.5848 -30.0963
#
#
#
# Elastic Compliance Matrix: (Units=1/GPa)
#
#
# Indices 1 2 3 4 5 6 
#
# 1 0.002711 -0.002430 -0.000292 0.000191 -0.001083 0.010501
# 2 -0.002430 0.012460 -0.000372 -0.000359 0.001207 0.000789
# 3 -0.000292 -0.000372 0.006281 -0.001365 0.003345 -0.007617
# 4 0.000191 -0.000359 -0.001365 0.028065 -0.006862 -0.002858
# 5 -0.001083 0.001207 0.003345 -0.006862 0.024323 -0.000043
# 6 0.010501 0.000789 -0.007617 -0.002858 -0.000043 0.025586
#
#
# Mechanical properties :
#
#
# Convention : Reuss Voigt Hill
#
# Bulk Modulus (GPa) = 65.51797 39.62379 52.57088
# Shear Modulus (GPa) = 45.16639 -1.13218 22.01710
#
# Velocity S-wave (km/s) = 4.50983 -0.71402 3.14871
# Velocity P-wave (km/s) = 7.52470 4.14282 6.07388
#
# Compressibility (1/GPa) = 0.01526299
#
# Stress axis : x y z
#
# Youngs Moduli (GPa) = 368.90512 80.25511 159.21772
#
# Poissons Ratio (x) = 0.19502 0.04651
# Poissons Ratio (y) = 0.89645 0.05926
# Poissons Ratio (z) = 0.10776 0.02987
#
# Static dielectric constant tensor:
#      x y z
#    x 4.007030 -0.123610 -0.113010 
#    y -0.123610 4.054960 0.028640 
#    z -0.113010 0.028640 4.310830 
# 
# 
# High freq. dielectric constant tensor:
#      x y z
#    x 1.880280 -0.004910 -0.006510 
#    y -0.004910 1.871120 0.004820 
#    z -0.006510 0.004820 1.892960 
# 
# From -- ./inp_files/399266.got.cif
#   From: 2010.06.25/outbox.cif.g09.slc.cpg/sg2_200_cif.got.tgz:399266.got - 2010.06.27 13:26:56.
