data_PCOD8023872
_publ_section_title
;
Structure prediction by ZEFSAII (Michael W. Deem and Ramdas Pophale) SiO2 
 PCOD8023872
Probable space group: P -1
;
_chemical_formula_sum "Si O2"
_cell_formula_units_Z 16
_cell_length_a 9.456058
_cell_length_b 27.194868
_cell_length_c 12.278895
_cell_angle_alpha 153.196379
_cell_angle_beta 142.816641
_cell_angle_gamma 30.539573
_cell_volume 718.105368
_symmetry_space_group_name_H-M "P -1"
_symmetry_group_IT_number 2
_symmetry_cell_setting 'triclinic'
loop_
_space_group_symop_operation_xyz
x,y,z
-x,-y,-z
loop_
_atom_site_type_symbol
_atom_site_label
_atom_site_fract_x
_atom_site_fract_y
_atom_site_fract_z
Si Si1 0.855467 0.250236 0.018873
Si Si2 0.752623 0.122504 0.029777
Si Si3 0.868877 0.468908 0.181747
Si Si4 0.464499 0.507123 0.169669
Si Si5 0.199539 0.183744 0.885807
Si Si6 0.170717 0.584038 0.490874
Si Si7 0.626792 0.088448 0.639488
Si Si8 0.000207 0.720904 0.451313
O O1 0.582627 0.392358 0.103113
O O2 0.946778 0.279283 0.247117
O O3 0.776764 0.144897 0.776366
O O4 0.099986 0.192334 0.965539
O O5 0.844515 0.223688 0.275867
O O6 0.491138 0.173575 0.050832
O O7 0.666558 0.094212 0.804226
O O8 0.000000 0.000000 0.000000
O O9 0.712045 0.526276 0.316245
O O10 0.110623 0.494837 0.355092
O O11 0.632869 0.540866 0.086891
O O12 0.988078 0.314938 0.948691
O O13 0.197374 0.640189 0.312377
O O14 0.226386 0.061858 0.599814
O O15 0.500000 0.500000 0.500000
O O16 0.994629 0.625698 0.350980
O O17 0.299709 0.170331 0.566838
#
# Coordination Sequence:
#
# PCOD8023872 Si02
#       8
#     2   2   2   2   2   2   2   2
#     4  11  25  44  69 101 141 182 228 283 348 407
#     4  12  26  46  69 106 135 181 237 279 344 410
#     4  10  24  42  67 101 136 177 231 279 351 405
#     4  10  23  42  67 102 133 180 225 286 347 407
#     4  11  25  45  70  98 140 188 225 287 340 407
#     4  12  24  43  67 104 140 179 228 288 341 408
#     4  12  26  48  71 102 140 183 233 282 340 414
#     4  12  25  43  75 102 139 182 228 288 346 406
#
# _framework density 22.280854000000001
#
# number of rings (size 3 to 8) (size 9 to 14) (size 15 to 20)
#    0.000    0.750    3.750    3.000    5.250    2.000 
#    0.000    3.750    0.000    0.000    0.000    0.000 
#    0.000    0.000    0.000    0.000    0.000    0.000 
#
# Total GULP energy -198347.941097 kJ/mol
# GULP energy per Si atom -12396.746319 kJ/mol
# Density = 2.223014 g / cm^3
# Si number density = 22.280854 Si / 1000 Ang^3
#
#
#
# Elastic Constant Matrix: (Units=GPa)
#
#
# Indices 1 2 3 4 5 6 
#
# 1 161.8737 50.3559 58.7624 3.0005 6.4330 -12.5343
# 2 50.3559 99.2954 33.2052 -3.8816 -8.9073 -4.8377
# 3 58.7624 33.2052 96.3173 7.1216 -2.0598 -1.6033
# 4 3.0005 -3.8816 7.1216 32.8837 1.3901 -3.8810
# 5 6.4330 -8.9073 -2.0598 1.3901 40.8742 0.5735
# 6 -12.5343 -4.8377 -1.6033 -3.8810 0.5735 32.4950
#
#
#
# Elastic Compliance Matrix: (Units=1/GPa)
#
#
# Indices 1 2 3 4 5 6 
#
# 1 0.009110 -0.003190 -0.004477 0.000204 -0.002402 0.002885
# 2 -0.003190 0.012975 -0.002621 0.002353 0.003106 0.000798
# 3 -0.004477 -0.002621 0.014248 -0.003243 0.000987 -0.001819
# 4 0.000204 0.002353 -0.003243 0.031889 -0.000825 0.004092
# 5 -0.002402 0.003106 0.000987 -0.000825 0.025612 -0.000966
# 6 0.002885 0.000798 -0.001819 0.004092 -0.000966 0.032422
#
#
# Mechanical properties :
#
#
# Convention : Reuss Voigt Hill
#
# Bulk Modulus (GPa) = 63.46341 71.34814 67.40578
# Shear Modulus (GPa) = 32.87671 35.59479 34.23575
#
# Velocity S-wave (km/s) = 3.84547 4.00127 3.92414
# Velocity P-wave (km/s) = 6.94709 7.31017 7.13094
#
# Compressibility (1/GPa) = 0.01575711
#
# Stress axis : x y z
#
# Youngs Moduli (GPa) = 109.76729 77.07297 70.18630
#
# Poissons Ratio (x) = 0.24586 0.31420
# Poissons Ratio (y) = 0.35015 0.18397
# Poissons Ratio (z) = 0.49140 0.20202
#
# Static dielectric constant tensor:
#      x y z
#    x 4.274710 0.104170 0.003260 
#    y 0.104170 3.849620 0.178130 
#    z 0.003260 0.178130 3.878700 
# 
# 
# High freq. dielectric constant tensor:
#      x y z
#    x 1.903990 0.005210 0.000550 
#    y 0.005210 1.875560 0.000650 
#    z 0.000550 0.000650 1.868240 
# 
# From -- ./inp_files/407366.got.cif
#   From: 2010.06.25/outbox.cif.g09.slc.cpg/sg2_204_cif.got.tgz:407366.got - 2010.06.27 13:26:56.
