data_PCOD8023926
_publ_section_title
;
Structure prediction by ZEFSAII (Michael W. Deem and Ramdas Pophale) SiO2 
 PCOD8023926
Probable space group: P -1
;
_chemical_formula_sum "Si O2"
_cell_formula_units_Z 16
_cell_length_a 11.224610
_cell_length_b 8.544861
_cell_length_c 11.819302
_cell_angle_alpha 114.265422
_cell_angle_beta 124.243340
_cell_angle_gamma 52.735905
_cell_volume 741.541171
_symmetry_space_group_name_H-M "P -1"
_symmetry_group_IT_number 2
_symmetry_cell_setting 'triclinic'
loop_
_space_group_symop_operation_xyz
x,y,z
-x,-y,-z
loop_
_atom_site_type_symbol
_atom_site_label
_atom_site_fract_x
_atom_site_fract_y
_atom_site_fract_z
Si Si1 0.717390 0.966471 0.135613
Si Si2 0.743610 0.252083 0.878158
Si Si3 0.368373 0.309250 0.112250
Si Si4 0.236909 0.092780 0.606527
Si Si5 0.596833 0.699546 0.381117
Si Si6 0.511307 0.693649 0.581445
Si Si7 0.931451 0.086647 0.155848
Si Si8 0.073800 0.644515 0.592628
O O1 0.746128 0.860935 0.240854
O O2 0.545353 0.174812 0.105774
O O3 0.860778 0.016388 0.200167
O O4 0.732179 0.805372 0.002957
O O5 0.720853 0.470478 0.921699
O O6 0.574082 0.257656 0.755287
O O7 0.797138 0.167569 0.007669
O O8 0.890286 0.098046 0.831232
O O9 0.372943 0.326409 0.255966
O O10 0.332297 0.175649 0.605186
O O11 0.043307 0.176421 0.500280
O O12 0.325021 0.860388 0.560918
O O13 0.575685 0.748945 0.518315
O O14 0.732477 0.465709 0.371534
O O15 0.500000 0.500000 0.500000
O O16 0.950335 0.269350 0.267270
O O17 0.000000 0.500000 0.500000
#
# Coordination Sequence:
#
# PCOD8023926 Si02
#       8
#     2   2   2   2   2   2   2   2
#     4  10  24  44  68 100 131 176 225 275 331 388
#     4  11  25  43  70  97 134 180 221 270 339 392
#     4  10  23  42  67  99 133 175 226 269 329 400
#     4  10  24  44  68  98 135 173 221 276 334 392
#     4  11  23  43  70  99 127 182 219 271 332 395
#     4  11  22  40  64 102 134 172 221 268 334 398
#     4  11  26  44  66  99 139 172 223 277 330 401
#     4  10  24  43  66 102 130 174 221 275 333 390
#
# _framework density 21.576684
#
# number of rings (size 3 to 8) (size 9 to 14) (size 15 to 20)
#    0.000    1.500    1.250    1.875   10.500    4.000 
#    4.500    0.000    0.000    0.000    0.000    0.000 
#    0.000    0.000    0.000    0.000    0.000    0.000 
#
# Total GULP energy -198348.053370 kJ/mol
# GULP energy per Si atom -12396.753336 kJ/mol
# Density = 2.152757 g / cm^3
# Si number density = 21.576684 Si / 1000 Ang^3
#
#
#
# Elastic Constant Matrix: (Units=GPa)
#
#
# Indices 1 2 3 4 5 6 
#
# 1 91.0087 38.6067 55.8051 -5.1012 -5.0709 -1.5725
# 2 38.6067 129.7582 67.5402 -4.4485 1.6581 -19.4432
# 3 55.8051 67.5402 142.2242 9.7345 -8.8582 -11.7104
# 4 -5.1012 -4.4485 9.7345 44.6549 -5.5827 5.2538
# 5 -5.0709 1.6581 -8.8582 -5.5827 33.6501 -5.4796
# 6 -1.5725 -19.4432 -11.7104 5.2538 -5.4796 36.5286
#
#
#
# Elastic Compliance Matrix: (Units=1/GPa)
#
#
# Indices 1 2 3 4 5 6 
#
# 1 0.015364 -0.002024 -0.005415 0.003160 0.001117 -0.002439
# 2 -0.002024 0.011260 -0.004363 0.001211 -0.001130 0.004164
# 3 -0.005415 -0.004363 0.011784 -0.003586 0.002244 0.002074
# 4 0.003160 0.001211 -0.003586 0.024433 0.002966 -0.003438
# 5 0.001117 -0.001130 0.002244 0.002966 0.031758 0.004503
# 6 -0.002439 0.004164 0.002074 -0.003438 0.004503 0.031322
#
#
# Mechanical properties :
#
#
# Convention : Reuss Voigt Hill
#
# Bulk Modulus (GPa) = 67.55256 76.32169 71.93713
# Shear Modulus (GPa) = 32.37096 36.36931 34.37014
#
# Velocity S-wave (km/s) = 3.87754 4.11004 3.99548
# Velocity P-wave (km/s) = 7.17100 7.61396 7.39579
#
# Compressibility (1/GPa) = 0.01480329
#
# Stress axis : x y z
#
# Youngs Moduli (GPa) = 65.08654 88.81100 84.86210
#
# Poissons Ratio (x) = 0.17977 0.45951
# Poissons Ratio (y) = 0.13175 0.37028
# Poissons Ratio (z) = 0.35243 0.38751
#
# Static dielectric constant tensor:
#      x y z
#    x 3.741850 -0.308510 -0.074550 
#    y -0.308510 4.784130 -0.255020 
#    z -0.074550 -0.255020 4.154170 
# 
# 
# High freq. dielectric constant tensor:
#      x y z
#    x 1.830160 -0.008920 -0.005790 
#    y -0.008920 1.865860 0.002140 
#    z -0.005790 0.002140 1.859320 
# 
# From -- ./inp_files/332275.got.cif
#   From: 2010.06.25/outbox.cif.g09.slc.cpg/sg2_167_cif.got.tgz:332275.got - 2010.06.27 13:26:56.
