data_PCOD8023602
_publ_section_title
;
Structure prediction by ZEFSAII (Michael W. Deem and Ramdas Pophale) SiO2 
 PCOD8023602
Probable space group: P -1
;
_chemical_formula_sum "Si O2"
_cell_formula_units_Z 16
_cell_length_a 15.209017
_cell_length_b 15.951775
_cell_length_c 15.726966
_cell_angle_alpha 162.104709
_cell_angle_beta 36.099476
_cell_angle_gamma 141.986642
_cell_volume 686.983489
_symmetry_space_group_name_H-M "P -1"
_symmetry_group_IT_number 2
_symmetry_cell_setting 'triclinic'
loop_
_space_group_symop_operation_xyz
x,y,z
-x,-y,-z
loop_
_atom_site_type_symbol
_atom_site_label
_atom_site_fract_x
_atom_site_fract_y
_atom_site_fract_z
Si Si1 0.910653 0.935778 0.886123
Si Si2 0.900690 0.651863 0.984394
Si Si3 0.683753 0.068297 0.823739
Si Si4 0.345462 0.953846 0.984183
Si Si5 0.328373 0.377124 0.009921
Si Si6 0.811025 0.558696 0.467196
Si Si7 0.855558 0.603683 0.166250
Si Si8 0.805434 0.186053 0.363278
O O1 0.800389 0.682149 0.689474
O O2 0.808146 0.134996 0.210085
O O3 0.022084 0.801308 0.731791
O O4 0.008618 0.093873 0.888484
O O5 0.746501 0.562813 0.966014
O O6 0.011237 0.408346 0.664357
O O7 0.877906 0.730738 0.176855
O O8 0.515059 0.960906 0.825819
O O9 0.793955 0.834988 0.496649
O O10 0.681438 0.174376 0.025346
O O11 0.735471 0.339673 0.991764
O O12 0.250977 0.762094 0.804006
O O13 0.288843 0.254248 0.330235
O O14 0.246524 0.521743 0.289903
O O15 0.500000 0.500000 0.000000
O O16 0.305144 0.052721 0.733928
O O17 0.000000 0.500000 0.000000
#
# Coordination Sequence:
#
# PCOD8023602 Si02
#       8
#     2   2   2   2   2   2   2   2
#     4  10  23  41  71  98 134 162 225 289 330 382
#     4  11  25  43  68  99 138 174 227 282 331 398
#     4  11  25  47  63  98 133 177 222 281 330 403
#     4  11  24  43  71  91 135 172 223 281 347 383
#     4  11  24  45  67  95 139 183 217 270 343 403
#     4  12  22  40  68 101 125 172 220 278 337 392
#     4  12  26  43  72  99 137 181 229 270 329 402
#     4  10  23  42  69  98 127 172 222 276 333 396
#
# _framework density 23.290223999999998
#
# number of rings (size 3 to 8) (size 9 to 14) (size 15 to 20)
#    0.000    1.000    2.500    3.750    3.500    3.500 
#    6.750    0.000    0.000    0.000    0.000    0.000 
#    0.000    0.000    0.000    0.000    0.000    0.000 
#
# Total GULP energy -198311.034804 kJ/mol
# GULP energy per Si atom -12394.439675 kJ/mol
# Density = 2.323721 g / cm^3
# Si number density = 23.290224 Si / 1000 Ang^3
#
#
#
# Elastic Constant Matrix: (Units=GPa)
#
#
# Indices 1 2 3 4 5 6 
#
# 1 121.3219 45.5978 23.5862 -14.6598 21.5727 12.6615
# 2 45.5978 81.7684 22.3324 -9.4147 10.4369 -2.5739
# 3 23.5862 22.3324 109.6608 -2.6185 9.5610 0.1054
# 4 -14.6598 -9.4147 -2.6185 33.9413 1.2936 3.3763
# 5 21.5727 10.4369 9.5610 1.2936 41.0509 -3.4300
# 6 12.6615 -2.5739 0.1054 3.3763 -3.4300 29.0317
#
#
#
# Elastic Compliance Matrix: (Units=1/GPa)
#
#
# Indices 1 2 3 4 5 6 
#
# 1 0.013098 -0.005956 -0.000963 0.004904 -0.005926 -0.007508
# 2 -0.005956 0.016427 -0.002007 0.001457 -0.000303 0.003856
# 3 -0.000963 -0.002007 0.009841 -0.000173 -0.001264 0.000077
# 4 0.004904 0.001457 -0.000173 0.032773 -0.004470 -0.006348
# 5 -0.005926 -0.000303 -0.001264 -0.004470 0.028526 0.006453
# 6 -0.007508 0.003856 0.000077 -0.006348 0.006453 0.039562
#
#
# Mechanical properties :
#
#
# Convention : Reuss Voigt Hill
#
# Bulk Modulus (GPa) = 46.48257 55.08710 50.78484
# Shear Modulus (GPa) = 30.25707 35.55377 32.90542
#
# Velocity S-wave (km/s) = 3.60826 3.91135 3.76286
# Velocity P-wave (km/s) = 6.11234 6.64094 6.38211
#
# Compressibility (1/GPa) = 0.02151344
#
# Stress axis : x y z
#
# Youngs Moduli (GPa) = 76.34594 60.87508 101.61723
#
# Poissons Ratio (x) = 0.36260 0.09788
# Poissons Ratio (y) = 0.45475 0.20392
# Poissons Ratio (z) = 0.07353 0.12216
#
# Static dielectric constant tensor:
#      x y z
#    x 4.438190 0.045690 0.083630 
#    y 0.045690 4.040780 -0.113740 
#    z 0.083630 -0.113740 4.259120 
# 
# 
# High freq. dielectric constant tensor:
#      x y z
#    x 1.926700 0.000060 0.005830 
#    y 0.000060 1.902090 0.002530 
#    z 0.005830 0.002530 1.933900 
# 
# From -- ./inp_files/534671.got.cif
#   From: 2010.06.25/outbox.cif.g09.slc.cpg/sg2_268_cif.got.tgz:534671.got - 2010.06.27 13:26:56.
