data_PCOD8023623
_publ_section_title
;
Structure prediction by ZEFSAII (Michael W. Deem and Ramdas Pophale) SiO2 
 PCOD8023623
Probable space group: P -1
;
_chemical_formula_sum "Si O2"
_cell_formula_units_Z 16
_cell_length_a 15.030105
_cell_length_b 5.250794
_cell_length_c 17.901046
_cell_angle_alpha 49.948134
_cell_angle_beta 138.443214
_cell_angle_gamma 125.958296
_cell_volume 701.655960
_symmetry_space_group_name_H-M "P -1"
_symmetry_group_IT_number 2
_symmetry_cell_setting 'triclinic'
loop_
_space_group_symop_operation_xyz
x,y,z
-x,-y,-z
loop_
_atom_site_type_symbol
_atom_site_label
_atom_site_fract_x
_atom_site_fract_y
_atom_site_fract_z
Si Si1 0.215073 0.229431 0.334736
Si Si2 0.538000 0.639236 0.079541
Si Si3 0.214356 0.607702 0.661474
Si Si4 0.916507 0.256734 0.932512
Si Si5 0.422425 0.311135 0.320296
Si Si6 0.926572 0.475412 0.567379
Si Si7 0.627695 0.959888 0.822360
Si Si8 0.302438 0.327845 0.529268
O O1 0.135946 0.522746 0.206581
O O2 0.311212 0.142506 0.344345
O O3 0.317369 0.341886 0.446870
O O4 0.098331 0.915010 0.348393
O O5 0.697318 0.646483 0.198438
O O6 0.445897 0.394992 0.125227
O O7 0.500000 0.500000 0.000000
O O8 0.500000 0.000000 0.000000
O O9 0.147305 0.465147 0.568018
O O10 0.089203 0.632888 0.634873
O O11 0.320430 0.967381 0.644738
O O12 0.786388 0.017287 0.934889
O O13 0.000000 0.500000 0.000000
O O14 0.000000 0.000000 0.000000
O O15 0.387040 0.077947 0.269572
O O16 0.584687 0.342026 0.434669
O O17 0.422354 0.713394 0.238641
O O18 0.854342 0.661901 0.549733
#
# Coordination Sequence:
#
# PCOD8023623 Si02
#       8
#     2   2   2   2   2   2   2   2
#     4  10  25  40  62 109 130 179 242 280 348 425
#     4  12  27  46  73 104 140 187 244 296 344 421
#     4  10  23  45  64 104 136 188 236 290 368 413
#     4  11  25  45  70  93 138 187 228 284 346 415
#     4  11  23  41  73  99 146 179 219 290 354 424
#     4  10  23  41  72  96 145 180 234 300 354 424
#     4  11  24  46  69 101 137 182 233 283 353 419
#     4  11  22  40  70  99 142 182 227 295 359 423
#
# _framework density 22.8032
#
# number of rings (size 3 to 8) (size 9 to 14) (size 15 to 20)
#    0.000    1.250    1.250    3.750    8.750    2.500 
#    0.000    0.000    0.000    0.000    0.000    0.000 
#    0.000    0.000    0.000    0.000    0.000    0.000 
#
# Total GULP energy -198318.717015 kJ/mol
# GULP energy per Si atom -12394.919813 kJ/mol
# Density = 2.275130 g / cm^3
# Si number density = 22.803200 Si / 1000 Ang^3
#
#
#
# Elastic Constant Matrix: (Units=GPa)
#
#
# Indices 1 2 3 4 5 6 
#
# 1 91.6554 14.1133 47.3173 1.9363 -3.1303 3.6227
# 2 14.1133 72.9026 44.8582 12.6861 1.5970 -4.6675
# 3 47.3173 44.8582 120.3426 -4.9635 14.4038 6.5496
# 4 1.9363 12.6861 -4.9635 41.4514 -2.6815 8.4262
# 5 -3.1303 1.5970 14.4038 -2.6815 33.1308 -2.6934
# 6 3.6227 -4.6675 6.5496 8.4262 -2.6934 44.8285
#
#
#
# Elastic Compliance Matrix: (Units=1/GPa)
#
#
# Indices 1 2 3 4 5 6 
#
# 1 0.014368 0.001753 -0.006916 -0.001896 0.004178 0.000639
# 2 0.001753 0.020971 -0.009502 -0.008501 0.003021 0.005210
# 3 -0.006916 -0.009502 0.015864 0.005534 -0.006987 -0.004208
# 4 -0.001896 -0.008501 0.005534 0.028873 -0.000407 -0.006992
# 5 0.004178 0.003021 -0.006987 -0.000407 0.033689 0.003098
# 6 0.000639 0.005210 -0.004208 -0.006992 0.003098 0.024913
#
#
# Mechanical properties :
#
#
# Convention : Reuss Voigt Hill
#
# Bulk Modulus (GPa) = 45.71674 55.27537 50.49606
# Shear Modulus (GPa) = 28.52246 35.78959 32.15603
#
# Velocity S-wave (km/s) = 3.54052 3.96599 3.75928
# Velocity P-wave (km/s) = 6.06676 6.72792 6.40587
#
# Compressibility (1/GPa) = 0.02187382
#
# Stress axis : x y z
#
# Youngs Moduli (GPa) = 69.59711 47.68469 63.03391
#
# Poissons Ratio (x) = -0.08360 0.43595
# Poissons Ratio (y) = -0.12202 0.59896
# Poissons Ratio (z) = 0.48134 0.45311
#
# Static dielectric constant tensor:
#      x y z
#    x 4.351160 0.216760 -0.017470 
#    y 0.216760 4.155220 0.081410 
#    z -0.017470 0.081410 4.548140 
# 
# 
# High freq. dielectric constant tensor:
#      x y z
#    x 1.909700 0.006060 0.008890 
#    y 0.006060 1.910140 -0.003250 
#    z 0.008890 -0.003250 1.891810 
# 
# From -- ./inp_files/571598.got.cif
#   From: 2010.06.25/outbox.cif.g09.slc.cpg/sg2_286_cif.got.tgz:571598.got - 2010.06.27 13:26:56.
