data_PCOD8023205
_publ_section_title
;
Structure prediction by ZEFSAII (Michael W. Deem and Ramdas Pophale) SiO2 
 PCOD8023205
Probable space group: P -1
;
_chemical_formula_sum "Si O2"
_cell_formula_units_Z 14
_cell_length_a 14.141773
_cell_length_b 9.486158
_cell_length_c 16.211405
_cell_angle_alpha 44.271952
_cell_angle_beta 153.801520
_cell_angle_gamma 129.807536
_cell_volume 670.211622
_symmetry_space_group_name_H-M "P -1"
_symmetry_group_IT_number 2
_symmetry_cell_setting 'triclinic'
loop_
_space_group_symop_operation_xyz
x,y,z
-x,-y,-z
loop_
_atom_site_type_symbol
_atom_site_label
_atom_site_fract_x
_atom_site_fract_y
_atom_site_fract_z
Si Si1 0.360912 0.519226 0.120309
Si Si2 0.903103 0.527070 0.797276
Si Si3 0.476192 0.905753 0.611702
Si Si4 0.670638 0.756524 0.384435
Si Si5 0.740109 0.061219 0.181814
Si Si6 0.968777 0.936449 0.749844
Si Si7 0.682580 0.124726 0.825026
O O1 0.485513 0.334728 0.253394
O O2 0.508862 0.618086 0.264421
O O3 0.279992 0.696452 0.919713
O O4 0.141699 0.429914 0.024557
O O5 0.847680 0.621354 0.624908
O O6 0.898358 0.701204 0.790810
O O7 0.727473 0.361154 0.748675
O O8 0.500000 0.000000 0.500000
O O9 0.240453 0.928718 0.455799
O O10 0.654354 0.012929 0.762770
O O11 0.537895 0.887235 0.292341
O O12 0.806816 0.921099 0.370127
O O13 0.906048 0.011545 0.258514
O O14 0.500000 0.000000 0.000000
O O15 0.124967 0.980229 0.930435
#
# Coordination Sequence:
#
# PCOD8023205 Si02
#       7
#     2   2   2   2   2   2   2
#     4  10  23  41  62  93 127 165 208 264 312 369
#     4  11  22  37  67  98 118 168 218 258 312 373
#     4  12  27  42  59  97 139 167 204 262 327 378
#     4  11  21  40  71  93 122 164 217 266 308 371
#     4   9  19  43  70  92 123 164 219 265 303 371
#     4  11  23  40  68  94 129 168 211 258 323 370
#     4  12  23  39  67  95 130 163 213 264 314 381
#
# _framework density 20.888923999999999
#
# number of rings (size 3 to 8) (size 9 to 14) (size 15 to 20)
#    0.000    1.143    5.714    2.571    2.000    5.714 
#    0.000    3.571    0.000    0.000    0.000    0.000 
#    0.000    0.000    0.000    0.000    0.000    0.000 
#
# Total GULP energy -173533.487532 kJ/mol
# GULP energy per Si atom -12395.249109 kJ/mol
# Density = 2.084138 g / cm^3
# Si number density = 20.888924 Si / 1000 Ang^3
#
#
#
# Elastic Constant Matrix: (Units=GPa)
#
#
# Indices 1 2 3 4 5 6 
#
# 1 126.0910 60.4428 57.4091 -7.6589 -1.8300 4.2763
# 2 60.4428 91.3075 42.3725 -2.1633 0.5230 -7.6327
# 3 57.4091 42.3725 115.2818 -5.4658 13.7828 -4.2714
# 4 -7.6589 -2.1633 -5.4658 35.2837 -10.4745 -1.0439
# 5 -1.8300 0.5230 13.7828 -10.4745 41.0171 1.4451
# 6 4.2763 -7.6327 -4.2714 -1.0439 1.4451 33.6892
#
#
#
# Elastic Compliance Matrix: (Units=1/GPa)
#
#
# Indices 1 2 3 4 5 6 
#
# 1 0.013900 -0.007356 -0.004612 0.002647 0.003083 -0.004066
# 2 -0.007356 0.017383 -0.002592 -0.000812 -0.000046 0.004520
# 3 -0.004612 -0.002592 0.012511 -0.000528 -0.004574 0.001764
# 4 0.002647 -0.000812 -0.000528 0.031245 0.008284 0.000026
# 5 0.003083 -0.000046 -0.004574 0.008284 0.028239 -0.001936
# 6 -0.004066 0.004520 0.001764 0.000026 -0.001936 0.031531
#
#
# Mechanical properties :
#
#
# Convention : Reuss Voigt Hill
#
# Bulk Modulus (GPa) = 68.14481 72.56992 70.35737
# Shear Modulus (GPa) = 29.61742 33.49506 31.55624
#
# Velocity S-wave (km/s) = 3.76952 4.00870 3.89095
# Velocity P-wave (km/s) = 7.18603 7.49950 7.34444
#
# Compressibility (1/GPa) = 0.01467463
#
# Stress axis : x y z
#
# Youngs Moduli (GPa) = 71.94084 57.52738 79.93011
#
# Poissons Ratio (x) = 0.42318 0.36865
# Poissons Ratio (y) = 0.52920 0.20714
# Poissons Ratio (z) = 0.33181 0.14909
#
# Static dielectric constant tensor:
#      x y z
#    x 4.027770 0.294020 -0.238120 
#    y 0.294020 3.922520 0.053050 
#    z -0.238120 0.053050 4.132680 
# 
# 
# High freq. dielectric constant tensor:
#      x y z
#    x 1.808350 0.014540 -0.004770 
#    y 0.014540 1.806730 0.021010 
#    z -0.004770 0.021010 1.835890 
# 
# From -- ./inp_files/188897.got.cif
#   From: 2010.06.25/outbox.cif.g09.slc.cpg/sg2_95_cif.got.tgz:188897.got - 2010.06.27 13:26:56.
