data_PCOD8023227
_publ_section_title
;
Structure prediction by ZEFSAII (Michael W. Deem and Ramdas Pophale) SiO2 
 PCOD8023227
Probable space group: P -1
;
_chemical_formula_sum "Si O2"
_cell_formula_units_Z 16
_cell_length_a 15.955456
_cell_length_b 12.899990
_cell_length_c 9.468884
_cell_angle_alpha 67.422685
_cell_angle_beta 103.493618
_cell_angle_gamma 154.496386
_cell_volume 742.776987
_symmetry_space_group_name_H-M "P -1"
_symmetry_group_IT_number 2
_symmetry_cell_setting 'triclinic'
loop_
_space_group_symop_operation_xyz
x,y,z
-x,-y,-z
loop_
_atom_site_type_symbol
_atom_site_label
_atom_site_fract_x
_atom_site_fract_y
_atom_site_fract_z
Si Si1 0.182143 0.102899 0.407191
Si Si2 0.768127 0.599296 0.625797
Si Si3 0.702935 0.353228 0.951718
Si Si4 0.056269 0.403592 0.810357
Si Si5 0.513000 0.304399 0.415432
Si Si6 0.254020 0.789948 0.147048
Si Si7 0.307206 0.842622 0.469200
Si Si8 0.954049 0.849993 0.172756
O O1 0.238925 0.274448 0.439270
O O2 0.381006 0.261076 0.395376
O O3 0.986924 0.809904 0.550566
O O4 0.104771 0.058137 0.250073
O O5 0.735048 0.513957 0.814624
O O6 0.590868 0.353292 0.574141
O O7 0.825813 0.412440 0.865576
O O8 0.766720 0.419324 0.104503
O O9 0.464211 0.058345 0.012547
O O10 0.122241 0.571330 0.628250
O O11 0.977889 0.194657 0.824552
O O12 0.879821 0.256743 0.906277
O O13 0.713687 0.565148 0.264106
O O14 0.359586 0.032993 0.427975
O O15 0.260332 0.770513 0.324950
O O16 0.500000 0.000000 0.500000
O O17 0.000000 0.000000 0.000000
#
# Coordination Sequence:
#
# PCOD8023227 Si02
#       8
#     2   2   2   2   2   2   2   2
#     4  10  23  41  63  93 121 165 215 256 311 370
#     4  10  23  41  63  90 128 162 208 261 309 371
#     4  11  24  41  62  91 131 165 205 259 314 370
#     4  12  25  42  65  94 128 168 210 258 315 374
#     4  11  23  40  66  93 122 166 211 258 314 371
#     4  11  25  40  62  95 127 166 209 254 315 375
#     4  12  22  42  67  92 129 166 210 260 311 374
#     4  11  24  41  64  92 126 162 212 262 309 371
#
# _framework density 21.540786000000001
#
# number of rings (size 3 to 8) (size 9 to 14) (size 15 to 20)
#    0.000    1.000    2.500    3.375    5.250    2.500 
#    0.000    0.000    0.000    0.000    0.000    0.000 
#    0.000    0.000    0.000    0.000    0.000    0.000 
#
# Total GULP energy -198346.458032 kJ/mol
# GULP energy per Si atom -12396.653627 kJ/mol
# Density = 2.149176 g / cm^3
# Si number density = 21.540786 Si / 1000 Ang^3
#
#
#
# Elastic Constant Matrix: (Units=GPa)
#
#
# Indices 1 2 3 4 5 6 
#
# 1 109.8953 17.8578 24.5639 -22.2548 -12.6842 9.4835
# 2 17.8578 52.8414 28.5668 -0.2357 -1.2997 -7.0138
# 3 24.5639 28.5668 116.5547 -9.7304 12.4651 -6.2440
# 4 -22.2548 -0.2357 -9.7304 24.6074 -3.7224 -5.8465
# 5 -12.6842 -1.2997 12.4651 -3.7224 34.2180 -0.3098
# 6 9.4835 -7.0138 -6.2440 -5.8465 -0.3098 34.7565
#
#
#
# Elastic Compliance Matrix: (Units=1/GPa)
#
#
# Indices 1 2 3 4 5 6 
#
# 1 0.013537 -0.003730 -0.001821 0.011871 0.006806 -0.002716
# 2 -0.003730 0.023563 -0.005213 -0.004069 0.001006 0.004161
# 3 -0.001821 -0.005213 0.011030 0.002391 -0.004615 0.001788
# 4 0.011871 -0.004069 0.002391 0.055063 0.009417 0.005716
# 5 0.006806 0.001006 -0.004615 0.009417 0.034486 -0.000592
# 6 -0.002716 0.004161 0.001788 0.005716 -0.000592 0.031630
#
#
# Mechanical properties :
#
#
# Convention : Reuss Voigt Hill
#
# Bulk Modulus (GPa) = 37.59386 46.80760 42.20073
# Shear Modulus (GPa) = 25.03704 32.60324 28.82014
#
# Velocity S-wave (km/s) = 3.41296 3.89467 3.66175
# Velocity P-wave (km/s) = 5.74642 6.48086 6.12466
#
# Compressibility (1/GPa) = 0.02660009
#
# Stress axis : x y z
#
# Youngs Moduli (GPa) = 73.87290 42.44030 90.66112
#
# Poissons Ratio (x) = 0.15832 0.16509
# Poissons Ratio (y) = 0.27558 0.47264
# Poissons Ratio (z) = 0.13452 0.22125
#
# Static dielectric constant tensor:
#      x y z
#    x 4.021800 -0.000480 -0.074310 
#    y -0.000480 3.715620 0.099470 
#    z -0.074310 0.099470 4.033220 
# 
# 
# High freq. dielectric constant tensor:
#      x y z
#    x 1.854290 -0.000220 -0.007870 
#    y -0.000220 1.847030 0.008350 
#    z -0.007870 0.008350 1.847350 
# 
# From -- ./inp_files/307361.got.cif
#   From: 2010.06.25/outbox.cif.g09.slc.cpg/sg2_154_cif.got.tgz:307361.got - 2010.06.27 13:26:56.
