data_PCOD8023922
_publ_section_title
;
Structure prediction by ZEFSAII (Michael W. Deem and Ramdas Pophale) SiO2 
 PCOD8023922
Probable space group: P -1
;
_chemical_formula_sum "Si O2"
_cell_formula_units_Z 16
_cell_length_a 10.126298
_cell_length_b 8.869158
_cell_length_c 13.991093
_cell_angle_alpha 49.849270
_cell_angle_beta 101.197092
_cell_angle_gamma 70.050781
_cell_volume 737.717252
_symmetry_space_group_name_H-M "P -1"
_symmetry_group_IT_number 2
_symmetry_cell_setting 'triclinic'
loop_
_space_group_symop_operation_xyz
x,y,z
-x,-y,-z
loop_
_atom_site_type_symbol
_atom_site_label
_atom_site_fract_x
_atom_site_fract_y
_atom_site_fract_z
Si Si1 0.976481 0.504074 0.107799
Si Si2 0.478507 0.356892 0.476477
Si Si3 0.803852 0.326841 0.261092
Si Si4 0.987813 0.255554 0.500623
Si Si5 0.541153 0.495389 0.793147
Si Si6 0.634949 0.838658 0.670295
Si Si7 0.124190 0.056683 0.961028
Si Si8 0.890301 0.428775 0.619954
O O1 0.865449 0.408743 0.149531
O O2 0.869746 0.785374 0.019154
O O3 0.162534 0.324146 0.261360
O O4 0.000000 0.500000 0.000000
O O5 0.500000 0.500000 0.500000
O O6 0.541151 0.384591 0.371884
O O7 0.278800 0.481667 0.382708
O O8 0.588617 0.061991 0.644469
O O9 0.850841 0.393674 0.339395
O O10 0.599981 0.474504 0.170135
O O11 0.890295 0.037983 0.380687
O O12 0.887099 0.327036 0.557441
O O13 0.109435 0.336197 0.488014
O O14 0.606860 0.643737 0.787668
O O15 0.688534 0.199301 0.926397
O O16 0.500000 0.000000 0.500000
O O17 0.059182 0.208034 0.790783
O O18 0.000000 0.000000 0.000000
#
# Coordination Sequence:
#
# PCOD8023922 Si02
#       8
#     2   2   2   2   2   2   2   2
#     4  12  28  46  71 102 138 187 228 281 351 422
#     4  11  23  36  67 101 133 169 232 289 330 394
#     4  11  25  44  69 100 138 175 226 295 343 402
#     4  10  24  41  70  97 137 175 227 283 353 389
#     4  11  24  42  68  97 134 181 225 277 348 403
#     4  10  23  42  67  98 135 179 231 278 337 407
#     4  12  23  45  71  93 137 186 225 273 341 420
#     4  11  22  44  66 101 133 183 228 279 339 417
#
# _framework density 21.688524999999998
#
# number of rings (size 3 to 8) (size 9 to 14) (size 15 to 20)
#    0.000    1.000    3.750    2.250   12.250    0.500 
#    0.000    3.750    0.000    0.000    0.000    0.000 
#    0.000    0.000    0.000    0.000    0.000    0.000 
#
# Total GULP energy -198416.965577 kJ/mol
# GULP energy per Si atom -12401.060349 kJ/mol
# Density = 2.163916 g / cm^3
# Si number density = 21.688525 Si / 1000 Ang^3
#
#
#
# Elastic Constant Matrix: (Units=GPa)
#
#
# Indices 1 2 3 4 5 6 
#
# 1 145.4997 39.5648 41.7010 -16.0512 -0.7948 -13.6967
# 2 39.5648 117.9768 45.8761 -18.8231 -11.4743 13.5454
# 3 41.7010 45.8761 86.2979 -20.7053 -9.9687 -2.7169
# 4 -16.0512 -18.8231 -20.7053 42.0453 -13.4630 -3.9424
# 5 -0.7948 -11.4743 -9.9687 -13.4630 24.3926 -1.1772
# 6 -13.6967 13.5454 -2.7169 -3.9424 -1.1772 35.5510
#
#
#
# Elastic Compliance Matrix: (Units=1/GPa)
#
#
# Indices 1 2 3 4 5 6 
#
# 1 0.008786 -0.002294 -0.002816 0.000931 -0.001231 0.004107
# 2 -0.002294 0.012763 -0.004040 0.004414 0.006456 -0.005353
# 3 -0.002816 -0.004040 0.019142 0.010679 0.011894 0.003496
# 4 0.000931 0.004414 0.010679 0.041296 0.029507 0.005050
# 5 -0.001231 0.006456 0.011894 0.029507 0.065304 0.003409
# 6 0.004107 -0.005353 0.003496 0.005050 0.003409 0.032690
#
#
# Mechanical properties :
#
#
# Convention : Reuss Voigt Hill
#
# Bulk Modulus (GPa) = 44.65911 67.11757 55.88834
# Shear Modulus (GPa) = 24.30175 35.23993 29.77084
#
# Velocity S-wave (km/s) = 3.35100 4.03528 3.70895
# Velocity P-wave (km/s) = 5.96725 7.26117 6.64578
#
# Compressibility (1/GPa) = 0.02239185
#
# Stress axis : x y z
#
# Youngs Moduli (GPa) = 113.81331 78.34913 52.24058
#
# Poissons Ratio (x) = 0.17977 0.14709
# Poissons Ratio (y) = 0.26114 0.21106
# Poissons Ratio (z) = 0.32045 0.31654
#
# Static dielectric constant tensor:
#      x y z
#    x 4.021880 0.132950 -0.029070 
#    y 0.132950 4.425080 -0.465140 
#    z -0.029070 -0.465140 4.208280 
# 
# 
# High freq. dielectric constant tensor:
#      x y z
#    x 1.855860 0.010700 -0.004760 
#    y 0.010700 1.864860 -0.017400 
#    z -0.004760 -0.017400 1.834210 
# 
# From -- ./inp_files/494405.got.cif
#   From: 2010.06.25/outbox.cif.g09.slc.cpg/sg2_248_cif.got.tgz:494405.got - 2010.06.27 13:26:56.
