data_PCOD8023471
_publ_section_title
;
Structure prediction by ZEFSAII (Michael W. Deem and Ramdas Pophale) SiO2 
 PCOD8023471
Probable space group: P -1
;
_chemical_formula_sum "Si O2"
_cell_formula_units_Z 14
_cell_length_a 22.037954
_cell_length_b 11.730194
_cell_length_c 6.133368
_cell_angle_alpha 66.317796
_cell_angle_beta 90.495886
_cell_angle_gamma 147.710891
_cell_volume 571.298066
_symmetry_space_group_name_H-M "P -1"
_symmetry_group_IT_number 2
_symmetry_cell_setting 'triclinic'
loop_
_space_group_symop_operation_xyz
x,y,z
-x,-y,-z
loop_
_atom_site_type_symbol
_atom_site_label
_atom_site_fract_x
_atom_site_fract_y
_atom_site_fract_z
Si Si1 0.209333 0.445430 0.732956
Si Si2 0.649186 0.876082 0.338768
Si Si3 0.087831 0.093908 0.616207
Si Si4 0.096661 0.790801 0.169019
Si Si5 0.785143 0.280088 0.382199
Si Si6 0.524241 0.660208 0.058825
Si Si7 0.254562 0.282429 0.123849
O O1 0.217255 0.420232 0.497660
O O2 0.297523 0.743122 0.542401
O O3 0.267708 0.443301 0.889101
O O4 0.036669 0.170099 0.998486
O O5 0.525281 0.690052 0.298858
O O6 0.550490 0.621704 0.730952
O O7 0.743327 0.169851 0.213893
O O8 0.769041 0.003369 0.143825
O O9 0.164599 0.120738 0.477975
O O10 0.000000 0.000000 0.500000
O O11 0.000000 0.500000 0.500000
O O12 0.969794 0.626412 0.149316
O O13 0.170444 0.024442 0.166839
O O14 0.705262 0.019916 0.726106
O O15 0.426584 0.569018 0.975938
#
# Coordination Sequence:
#
# PCOD8023471 Si02
#       7
#     2   2   2   2   2   2   2
#     4  10  23  41  68 102 137 182 230 278 346 407
#     4  11  27  46  72  98 143 186 226 288 360 399
#     4   9  19  40  64  98 136 180 222 277 338 404
#     4  12  25  44  74 107 134 178 240 287 340 414
#     4  12  25  45  72 104 142 173 236 292 338 413
#     4  11  27  46  70 101 139 189 229 282 354 419
#     4  11  26  43  71  99 145 182 228 277 353 416
#
# _framework density 24.505596000000001
#
# number of rings (size 3 to 8) (size 9 to 14) (size 15 to 20)
#    0.000    1.143    1.429    4.286   10.000    2.857 
#    0.000    1.429    0.000    0.000    0.000    0.000 
#    0.000    0.000    0.000    0.000    0.000    0.000 
#
# Total GULP energy -173437.555750 kJ/mol
# GULP energy per Si atom -12388.396839 kJ/mol
# Density = 2.444982 g / cm^3
# Si number density = 24.505596 Si / 1000 Ang^3
#
#
#
# Elastic Constant Matrix: (Units=GPa)
#
#
# Indices 1 2 3 4 5 6 
#
# 1 124.8885 88.7055 35.6646 6.2469 4.6739 -11.5776
# 2 88.7055 191.7538 34.3518 4.2397 2.1913 -6.1260
# 3 35.6646 34.3518 82.9087 -5.2485 -6.3709 -8.7065
# 4 6.2469 4.2397 -5.2485 27.1253 0.1971 -7.1253
# 5 4.6739 2.1913 -6.3709 0.1971 38.2254 3.9208
# 6 -11.5776 -6.1260 -8.7065 -7.1253 3.9208 49.9220
#
#
#
# Elastic Compliance Matrix: (Units=1/GPa)
#
#
# Indices 1 2 3 4 5 6 
#
# 1 0.013157 -0.005312 -0.003607 -0.002468 -0.002055 0.001579
# 2 -0.005312 0.007848 -0.001035 -0.000336 0.000081 -0.000504
# 3 -0.003607 -0.001035 0.014739 0.004353 0.002728 0.002014
# 4 -0.002468 -0.000336 0.004353 0.039855 0.000245 0.005815
# 5 -0.002055 0.000081 0.002728 0.000245 0.027074 -0.002082
# 6 0.001579 -0.000504 0.002014 0.005815 -0.002082 0.021681
#
#
# Mechanical properties :
#
#
# Convention : Reuss Voigt Hill
#
# Bulk Modulus (GPa) = 63.14602 79.66610 71.40606
# Shear Modulus (GPa) = 33.43619 39.10979 36.27299
#
# Velocity S-wave (km/s) = 3.69783 3.99927 3.85150
# Velocity P-wave (km/s) = 6.63746 7.34204 6.99862
#
# Compressibility (1/GPa) = 0.01583631
#
# Stress axis : x y z
#
# Youngs Moduli (GPa) = 76.00691 127.42119 67.84925
#
# Poissons Ratio (x) = 0.67681 0.24474
# Poissons Ratio (y) = 0.40372 0.07021
# Poissons Ratio (z) = 0.27416 0.13186
#
# Static dielectric constant tensor:
#      x y z
#    x 4.696710 -0.303380 -0.323130 
#    y -0.303380 4.884020 0.180140 
#    z -0.323130 0.180140 4.614820 
# 
# 
# High freq. dielectric constant tensor:
#      x y z
#    x 1.970330 -0.008530 0.000210 
#    y -0.008530 1.998820 0.013710 
#    z 0.000210 0.013710 1.965670 
# 
# From -- ./inp_files/123630.got.cif
#   From: 2010.06.25/outbox.cif.g09.slc.cpg/sg2_62_cif.got.tgz:123630.got - 2010.06.27 13:26:56.
