data_PCOD8023703
_publ_section_title
;
Structure prediction by ZEFSAII (Michael W. Deem and Ramdas Pophale) SiO2 
 PCOD8023703
Probable space group: P -1
;
_chemical_formula_sum "Si O2"
_cell_formula_units_Z 14
_cell_length_a 9.170712
_cell_length_b 8.334124
_cell_length_c 12.229428
_cell_angle_alpha 74.553265
_cell_angle_beta 118.994358
_cell_angle_gamma 129.811430
_cell_volume 626.654012
_symmetry_space_group_name_H-M "P -1"
_symmetry_group_IT_number 2
_symmetry_cell_setting 'triclinic'
loop_
_space_group_symop_operation_xyz
x,y,z
-x,-y,-z
loop_
_atom_site_type_symbol
_atom_site_label
_atom_site_fract_x
_atom_site_fract_y
_atom_site_fract_z
Si Si1 0.930887 0.648000 0.466988
Si Si2 0.566791 0.902483 0.827569
Si Si3 0.491625 0.461343 0.254059
Si Si4 0.387890 0.585553 0.996226
Si Si5 0.702550 0.481763 0.635382
Si Si6 0.064627 0.632401 0.109023
Si Si7 0.612550 0.981070 0.442587
O O1 0.742462 0.584143 0.328434
O O2 0.842886 0.630296 0.559326
O O3 0.000000 0.500000 0.500000
O O4 0.136340 0.884541 0.473816
O O5 0.613119 0.760930 0.802832
O O6 0.420588 0.932858 0.695788
O O7 0.780581 0.121237 0.899046
O O8 0.461204 0.800518 0.925651
O O9 0.442758 0.604247 0.142779
O O10 0.378195 0.413195 0.338959
O O11 0.500000 0.500000 0.000000
O O12 0.145079 0.414405 0.911234
O O13 0.846525 0.440718 0.758373
O O14 0.488319 0.262048 0.558665
O O15 0.000000 0.500000 0.000000
O O16 0.500000 0.000000 0.500000
#
# Coordination Sequence:
#
# PCOD8023703 Si02
#       7
#     2   2   2   2   2   2   2
#     4  12  23  42  71  95 127 180 217 265 340 388
#     4  10  23  42  70  93 133 176 218 263 333 384
#     4  11  23  43  65 100 136 171 219 279 320 392
#     4  10  23  42  63  97 135 170 220 267 318 391
#     4  11  24  43  65  98 137 164 224 277 320 390
#     4  11  23  44  68  96 130 174 217 267 330 386
#     4  11  22  41  68  99 126 174 222 267 325 395
#
# _framework density 22.340878
#
# number of rings (size 3 to 8) (size 9 to 14) (size 15 to 20)
#    0.000    1.143    4.286    1.286    2.000    3.429 
#    2.571    2.857    0.000    0.000    0.000    0.000 
#    0.000    0.000    0.000    0.000    0.000    0.000 
#
# Total GULP energy -173555.577221 kJ/mol
# GULP energy per Si atom -12396.826944 kJ/mol
# Density = 2.229003 g / cm^3
# Si number density = 22.340878 Si / 1000 Ang^3
#
#
#
# Elastic Constant Matrix: (Units=GPa)
#
#
# Indices 1 2 3 4 5 6 
#
# 1 103.1061 32.1350 37.9477 17.7826 3.3368 23.9046
# 2 32.1350 118.1726 55.5012 24.2743 -1.2784 30.9590
# 3 37.9477 55.5012 110.1716 8.9219 10.3961 17.3846
# 4 17.7826 24.2743 8.9219 42.9150 3.2598 -0.5740
# 5 3.3368 -1.2784 10.3961 3.2598 48.5701 10.5552
# 6 23.9046 30.9590 17.3846 -0.5740 10.5552 36.8698
#
#
#
# Elastic Compliance Matrix: (Units=1/GPa)
#
#
# Indices 1 2 3 4 5 6 
#
# 1 0.013740 0.001884 -0.003915 -0.006255 0.002413 -0.009433
# 2 0.001884 0.016651 -0.006607 -0.009416 0.005347 -0.013765
# 3 -0.003915 -0.006607 0.013412 0.002881 -0.003585 0.002834
# 4 -0.006255 -0.009416 0.002881 0.031189 -0.005266 0.012596
# 5 0.002413 0.005347 -0.003585 -0.005266 0.024153 -0.011360
# 6 -0.009433 -0.013765 0.002834 0.012596 -0.011360 0.046909
#
#
# Mechanical properties :
#
#
# Convention : Reuss Voigt Hill
#
# Bulk Modulus (GPa) = 37.69656 64.73533 51.21595
# Shear Modulus (GPa) = 29.04072 39.39540 34.21806
#
# Velocity S-wave (km/s) = 3.60931 4.20381 3.91786
# Velocity P-wave (km/s) = 5.85487 7.25271 6.59095
#
# Compressibility (1/GPa) = 0.02652762
#
# Stress axis : x y z
#
# Youngs Moduli (GPa) = 72.78089 60.05543 74.56278
#
# Poissons Ratio (x) = -0.11317 0.29189
# Poissons Ratio (y) = -0.13716 0.49267
# Poissons Ratio (z) = 0.28491 0.39681
#
# Static dielectric constant tensor:
#      x y z
#    x 4.290250 0.378010 -0.267270 
#    y 0.378010 4.316220 -0.743180 
#    z -0.267270 -0.743180 0.072860 
# 
# 
# High freq. dielectric constant tensor:
#      x y z
#    x 1.886210 0.009480 0.002690 
#    y 0.009480 1.866260 -0.005400 
#    z 0.002690 -0.005400 1.897990 
# 
# From -- ./inp_files/176945.got.cif
#   From: 2010.06.25/outbox.cif.g09.slc.cpg/sg2_89_cif.got.tgz:176945.got - 2010.06.27 13:26:56.
