data_PCOD8023262
_publ_section_title
;
Structure prediction by ZEFSAII (Michael W. Deem and Ramdas Pophale) SiO2 
 PCOD8023262
Probable space group: P -1
;
_chemical_formula_sum "Si O2"
_cell_formula_units_Z 16
_cell_length_a 9.890258
_cell_length_b 13.917577
_cell_length_c 11.391632
_cell_angle_alpha 31.632829
_cell_angle_beta 110.815683
_cell_angle_gamma 97.676952
_cell_volume 721.609245
_symmetry_space_group_name_H-M "P -1"
_symmetry_group_IT_number 2
_symmetry_cell_setting 'triclinic'
loop_
_space_group_symop_operation_xyz
x,y,z
-x,-y,-z
loop_
_atom_site_type_symbol
_atom_site_label
_atom_site_fract_x
_atom_site_fract_y
_atom_site_fract_z
Si Si1 0.627212 0.646397 0.779786
Si Si2 0.052164 0.504097 0.880502
Si Si3 0.788611 0.080530 0.054642
Si Si4 0.813344 0.793111 0.159956
Si Si5 0.539746 0.018252 0.216297
Si Si6 0.379772 0.762209 0.778063
Si Si7 0.048090 0.926555 0.462210
Si Si8 0.091571 0.613398 0.265891
O O1 0.477331 0.717382 0.737973
O O2 0.606898 0.788121 0.512695
O O3 0.769806 0.639768 0.914977
O O4 0.649677 0.424633 0.977054
O O5 0.031913 0.726547 0.619211
O O6 0.952276 0.435039 0.828378
O O7 0.000000 0.500000 0.000000
O O8 0.643290 0.055442 0.103609
O O9 0.852522 0.921444 0.139179
O O10 0.767646 0.297862 0.775350
O O11 0.930861 0.080763 0.181826
O O12 0.829992 0.582550 0.433286
O O13 0.934821 0.759797 0.125959
O O14 0.637462 0.915258 0.943615
O O15 0.544988 0.143548 0.200291
O O16 0.222947 0.917281 0.517933
O O17 0.000000 0.000000 0.500000
#
# Coordination Sequence:
#
# PCOD8023262 Si02
#       8
#     2   2   2   2   2   2   2   2
#     4  10  24  41  63 101 139 175 220 275 348 398
#     4  11  22  40  70  99 137 172 220 286 336 396
#     4  12  25  43  69 100 131 177 232 279 335 399
#     4  11  27  49  66  98 135 186 228 275 334 404
#     4  12  25  42  70  96 139 174 225 278 337 405
#     4  10  23  41  64 102 135 181 219 276 343 406
#     4  11  21  39  66 101 138 166 224 278 335 401
#     4  11  26  46  71  97 135 180 232 278 333 405
#
# _framework density 22.172664000000001
#
# number of rings (size 3 to 8) (size 9 to 14) (size 15 to 20)
#    0.000    1.000    2.500    3.375    5.250    1.500 
#    0.000    0.000    0.000    0.000    0.000    0.000 
#    0.000    0.000    0.000    0.000    0.000    0.000 
#
# Total GULP energy -198270.005329 kJ/mol
# GULP energy per Si atom -12391.875333 kJ/mol
# Density = 2.212220 g / cm^3
# Si number density = 22.172664 Si / 1000 Ang^3
#
#
#
# Elastic Constant Matrix: (Units=GPa)
#
#
# Indices 1 2 3 4 5 6 
#
# 1 94.5606 16.3848 24.2312 -5.2249 -5.9721 -2.5443
# 2 16.3848 97.0893 11.5967 -2.0948 -4.0862 -4.5424
# 3 24.2312 11.5967 76.5660 -11.0640 -7.4839 11.0324
# 4 -5.2249 -2.0948 -11.0640 28.4469 4.1360 -4.1424
# 5 -5.9721 -4.0862 -7.4839 4.1360 42.2231 -1.7509
# 6 -2.5443 -4.5424 11.0324 -4.1424 -1.7509 27.3927
#
#
#
# Elastic Compliance Matrix: (Units=1/GPa)
#
#
# Indices 1 2 3 4 5 6 
#
# 1 0.011946 -0.001394 -0.003723 0.000885 0.000915 0.002570
# 2 -0.001394 0.010849 -0.001439 0.000224 0.000672 0.002326
# 3 -0.003723 -0.001439 0.016145 0.004348 0.001507 -0.006333
# 4 0.000885 0.000224 0.004348 0.037981 -0.002639 0.003943
# 5 0.000915 0.000672 0.001507 -0.002639 0.024435 0.000752
# 6 0.002570 0.002326 -0.006333 0.003943 0.000752 0.040325
#
#
# Mechanical properties :
#
#
# Convention : Reuss Voigt Hill
#
# Bulk Modulus (GPa) = 38.71581 41.40459 40.06020
# Shear Modulus (GPa) = 30.59923 34.01275 32.30599
#
# Velocity S-wave (km/s) = 3.71892 3.92087 3.82123
# Velocity P-wave (km/s) = 5.99495 6.26194 6.12990
#
# Compressibility (1/GPa) = 0.02582924
#
# Stress axis : x y z
#
# Youngs Moduli (GPa) = 83.70668 92.17576 61.93901
#
# Poissons Ratio (x) = 0.12846 0.23058
# Poissons Ratio (y) = 0.11665 0.08914
# Poissons Ratio (z) = 0.31162 0.13266
#
# Static dielectric constant tensor:
#      x y z
#    x 4.025250 0.068850 -0.218960 
#    y 0.068850 4.074510 -0.217530 
#    z -0.218960 -0.217530 4.311050 
# 
# 
# High freq. dielectric constant tensor:
#      x y z
#    x 1.879170 0.002400 -0.001900 
#    y 0.002400 1.877940 -0.012740 
#    z -0.001900 -0.012740 1.881440 
# 
# From -- ./inp_files/398260.got.cif
#   From: 2010.06.25/outbox.cif.g09.slc.cpg/sg2_200_cif.got.tgz:398260.got - 2010.06.27 13:26:56.
