data_PCOD8023214
_publ_section_title
;
Structure prediction by ZEFSAII (Michael W. Deem and Ramdas Pophale) SiO2 
 PCOD8023214
Probable space group: P -1
;
_chemical_formula_sum "Si O2"
_cell_formula_units_Z 16
_cell_length_a 18.971481
_cell_length_b 9.007910
_cell_length_c 9.097854
_cell_angle_alpha 135.561157
_cell_angle_beta 126.520458
_cell_angle_gamma 49.002832
_cell_volume 797.615134
_symmetry_space_group_name_H-M "P -1"
_symmetry_group_IT_number 2
_symmetry_cell_setting 'triclinic'
loop_
_space_group_symop_operation_xyz
x,y,z
-x,-y,-z
loop_
_atom_site_type_symbol
_atom_site_label
_atom_site_fract_x
_atom_site_fract_y
_atom_site_fract_z
Si Si1 0.255781 0.867647 0.344131
Si Si2 0.234606 0.204201 0.971738
Si Si3 0.257158 0.590550 0.442689
Si Si4 0.097034 0.968628 0.679072
Si Si5 0.395191 0.706933 0.865216
Si Si6 0.228252 0.367810 0.761729
Si Si7 0.387974 0.545654 0.061849
Si Si8 0.094649 0.859004 0.927068
O O1 0.240703 0.758497 0.400106
O O2 0.359038 0.711763 0.288144
O O3 0.238441 0.131702 0.532644
O O4 0.182329 0.874783 0.132415
O O5 0.232124 0.352502 0.930983
O O6 0.135817 0.166783 0.830392
O O7 0.328329 0.964741 0.911098
O O8 0.246362 0.353323 0.227476
O O9 0.176818 0.719606 0.556007
O O10 0.359988 0.533799 0.607954
O O11 0.078753 0.983877 0.839868
O O12 0.000000 0.000000 0.500000
O O13 0.504513 0.647468 0.914283
O O14 0.384915 0.694822 0.018889
O O15 0.125139 0.580981 0.744955
O O16 0.318425 0.416773 0.855091
O O17 0.000000 0.000000 0.000000
#
# Coordination Sequence:
#
# PCOD8023214 Si02
#       8
#     2   2   2   2   2   2   2   2
#     4  11  21  41  64  92 127 164 206 261 313 366
#     4  11  22  41  66  92 126 166 210 259 311 372
#     4  11  21  41  64  92 127 164 206 261 313 366
#     4  11  25  43  64  93 126 160 207 258 313 376
#     4  10  23  41  62  94 132 166 209 259 309 372
#     4  11  22  41  66  92 126 166 210 259 311 372
#     4  10  23  41  62  94 132 166 209 259 309 372
#     4  11  25  43  64  93 126 160 207 258 313 376
#
# _framework density 20.059799999999999
#
# number of rings (size 3 to 8) (size 9 to 14) (size 15 to 20)
#    0.000    1.250    5.000    3.750    0.000    7.000 
#    0.000    2.500    0.000    0.000    0.000    0.000 
#    0.000    0.000    0.000    0.000    0.000    0.000 
#
# Total GULP energy -198371.896351 kJ/mol
# GULP energy per Si atom -12398.243522 kJ/mol
# Density = 2.001414 g / cm^3
# Si number density = 20.059800 Si / 1000 Ang^3
#
#
#
# Elastic Constant Matrix: (Units=GPa)
#
#
# Indices 1 2 3 4 5 6 
#
# 1 117.9344 46.8058 26.7999 1.5668 -12.2201 -18.8215
# 2 46.8058 76.6812 18.1336 -2.1626 7.3306 -12.5334
# 3 26.7999 18.1336 98.8192 14.5300 -1.9220 -11.7966
# 4 1.5668 -2.1626 14.5300 44.9927 5.4290 -0.1747
# 5 -12.2201 7.3306 -1.9220 5.4290 34.1175 -6.1265
# 6 -18.8215 -12.5334 -11.7966 -0.1747 -6.1265 25.3720
#
#
#
# Elastic Compliance Matrix: (Units=1/GPa)
#
#
# Indices 1 2 3 4 5 6 
#
# 1 0.013973 -0.007814 -0.001014 -0.001506 0.008308 0.008030
# 2 -0.007814 0.019185 -0.001800 0.002654 -0.007245 0.001113
# 3 -0.001014 -0.001800 0.011897 -0.004134 0.002138 0.004378
# 4 -0.001506 0.002654 -0.004134 0.024424 -0.005759 -0.002951
# 5 0.008308 -0.007245 0.002138 -0.005759 0.037125 0.012503
# 6 0.008030 0.001113 0.004378 -0.002951 0.012503 0.050955
#
#
# Mechanical properties :
#
#
# Convention : Reuss Voigt Hill
#
# Bulk Modulus (GPa) = 42.01597 52.99038 47.50317
# Shear Modulus (GPa) = 26.77405 34.34278 30.55842
#
# Velocity S-wave (km/s) = 3.65733 4.14215 3.90727
# Velocity P-wave (km/s) = 6.23102 7.02496 6.63987
#
# Compressibility (1/GPa) = 0.02380047
#
# Stress axis : x y z
#
# Youngs Moduli (GPa) = 71.56531 52.12308 84.05601
#
# Poissons Ratio (x) = 0.40727 0.08524
# Poissons Ratio (y) = 0.55918 0.15128
# Poissons Ratio (z) = 0.07258 0.09381
#
# Static dielectric constant tensor:
#      x y z
#    x 4.186580 -0.721740 -0.444180 
#    y -0.721740 4.485200 0.507380 
#    z -0.444180 0.507380 4.194610 
# 
# 
# High freq. dielectric constant tensor:
#      x y z
#    x 1.785540 -0.000090 -0.011060 
#    y -0.000090 1.779500 -0.002720 
#    z -0.011060 -0.002720 1.794700 
# 
# From -- ./inp_files/201785.got.cif
#   From: 2010.06.25/outbox.cif.g09.slc.cpg/sg2_101_cif.got.tgz:201785.got - 2010.06.27 13:26:56.
