data_PCOD8023212
_publ_section_title
;
Structure prediction by ZEFSAII (Michael W. Deem and Ramdas Pophale) SiO2 
 PCOD8023212
Probable space group: P -1
;
_chemical_formula_sum "Si O2"
_cell_formula_units_Z 16
_cell_length_a 17.563537
_cell_length_b 5.131372
_cell_length_c 28.251545
_cell_angle_alpha 110.661015
_cell_angle_beta 158.801050
_cell_angle_gamma 80.156831
_cell_volume 761.785817
_symmetry_space_group_name_H-M "P -1"
_symmetry_group_IT_number 2
_symmetry_cell_setting 'triclinic'
loop_
_space_group_symop_operation_xyz
x,y,z
-x,-y,-z
loop_
_atom_site_type_symbol
_atom_site_label
_atom_site_fract_x
_atom_site_fract_y
_atom_site_fract_z
Si Si1 0.502246 0.035661 0.634581
Si Si2 0.932506 0.442530 0.105894
Si Si3 0.875003 0.365243 0.369878
Si Si4 0.607113 0.749900 0.224576
Si Si5 0.323285 0.841594 0.617691
Si Si6 0.749040 0.705789 0.848752
Si Si7 0.019606 0.873684 0.098592
Si Si8 0.365108 0.712574 0.437706
O O1 0.640825 0.415334 0.730424
O O2 0.716234 0.942658 0.761307
O O3 0.332539 0.965231 0.577291
O O4 0.351226 0.840296 0.489867
O O5 0.057432 0.735403 0.160725
O O6 0.090146 0.524496 0.250150
O O7 0.918381 0.121882 0.058209
O O8 0.668684 0.394865 0.958416
O O9 0.672586 0.466076 0.246250
O O10 0.000000 0.500000 0.500000
O O11 0.083002 0.505225 0.459887
O O12 0.751128 0.987599 0.280207
O O13 0.677841 0.917489 0.327905
O O14 0.553565 0.802669 0.757872
O O15 0.825921 0.591938 0.935330
O O16 0.000000 0.000000 0.000000
O O17 0.500000 0.500000 0.500000
O O18 0.500000 0.000000 0.500000
#
# Coordination Sequence:
#
# PCOD8023212 Si02
#       8
#     2   2   2   2   2   2   2   2
#     4  12  26  39  64  92 136 179 215 261 324 387
#     4  12  23  42  67  91 125 178 216 267 317 374
#     4  10  23  41  62  94 129 166 211 270 325 394
#     4  11  23  41  65  92 129 165 218 267 330 381
#     4  11  24  37  64  92 134 166 210 263 336 387
#     4  12  25  38  59  99 139 170 207 255 331 411
#     4  12  23  40  61  93 135 167 209 256 322 392
#     4  12  26  45  65  91 133 177 227 268 309 382
#
# _framework density 21.003281000000001
#
# number of rings (size 3 to 8) (size 9 to 14) (size 15 to 20)
#    0.000    0.500    5.000    4.125    8.750    0.000 
#    0.000    0.000    0.000    1.500    0.000    0.000 
#    0.000    0.000    0.000    0.000    0.000    0.000 
#
# Total GULP energy -198288.304390 kJ/mol
# GULP energy per Si atom -12393.019024 kJ/mol
# Density = 2.095548 g / cm^3
# Si number density = 21.003281 Si / 1000 Ang^3
#
#
#
# Elastic Constant Matrix: (Units=GPa)
#
#
# Indices 1 2 3 4 5 6 
#
# 1 99.1692 28.1225 44.0210 10.3456 4.1778 7.8332
# 2 28.1225 100.4596 25.9449 -5.7451 -2.0280 15.7030
# 3 44.0210 25.9449 93.4523 -4.7546 -0.4202 -0.3599
# 4 10.3456 -5.7451 -4.7546 34.9168 -2.2576 0.0943
# 5 4.1778 -2.0280 -0.4202 -2.2576 42.3684 6.1138
# 6 7.8332 15.7030 -0.3599 0.0943 6.1138 21.3691
#
#
#
# Elastic Compliance Matrix: (Units=1/GPa)
#
#
# Indices 1 2 3 4 5 6 
#
# 1 0.014525 -0.002199 -0.006538 -0.005638 -0.001414 -0.003389
# 2 -0.002199 0.012853 -0.002426 0.002610 0.002296 -0.009348
# 3 -0.006538 -0.002426 0.014651 0.003537 0.000236 0.004343
# 4 -0.005638 0.002610 0.003537 0.031383 0.002480 -0.000640
# 5 -0.001414 0.002296 0.000236 0.002480 0.025196 -0.008385
# 6 -0.003389 -0.009348 0.004343 -0.000640 -0.008385 0.057383
#
#
# Mechanical properties :
#
#
# Convention : Reuss Voigt Hill
#
# Bulk Modulus (GPa) = 50.74823 54.36200 52.55512
# Shear Modulus (GPa) = 27.04393 32.73037 29.88715
#
# Velocity S-wave (km/s) = 3.59221 3.95187 3.77633
# Velocity P-wave (km/s) = 6.43582 6.83826 6.64009
#
# Compressibility (1/GPa) = 0.01970512
#
# Stress axis : x y z
#
# Youngs Moduli (GPa) = 68.84752 77.80271 68.25285
#
# Poissons Ratio (x) = 0.17107 0.44622
# Poissons Ratio (y) = 0.15138 0.16555
# Poissons Ratio (z) = 0.45011 0.18871
#
# Static dielectric constant tensor:
#      x y z
#    x 4.082720 0.352450 0.083150 
#    y 0.352450 3.955060 -0.029580 
#    z 0.083150 -0.029580 4.184100 
# 
# 
# High freq. dielectric constant tensor:
#      x y z
#    x 1.798860 0.022160 0.012630 
#    y 0.022160 1.831950 -0.014160 
#    z 0.012630 -0.014160 1.818920 
# 
# From -- ./inp_files/623804.got.cif
#   From: 2010.06.25/outbox.cif.g09.slc.cpg/sg2_312_cif.got.tgz:623804.got - 2010.06.27 13:26:56.
