data_PCOD8023764
_publ_section_title
;
Structure prediction by ZEFSAII (Michael W. Deem and Ramdas Pophale) SiO2 
 PCOD8023764
Probable space group: P -1
;
_chemical_formula_sum "Si O2"
_cell_formula_units_Z 16
_cell_length_a 8.273498
_cell_length_b 9.085492
_cell_length_c 13.090359
_cell_angle_alpha 46.293886
_cell_angle_beta 97.316359
_cell_angle_gamma 90.553045
_cell_volume 701.302163
_symmetry_space_group_name_H-M "P -1"
_symmetry_group_IT_number 2
_symmetry_cell_setting 'triclinic'
loop_
_space_group_symop_operation_xyz
x,y,z
-x,-y,-z
loop_
_atom_site_type_symbol
_atom_site_label
_atom_site_fract_x
_atom_site_fract_y
_atom_site_fract_z
Si Si1 0.022513 0.076530 0.352545
Si Si2 0.616742 0.506593 0.801279
Si Si3 0.216245 0.119356 0.720581
Si Si4 0.411522 0.356246 0.489337
Si Si5 0.858503 0.859602 0.074329
Si Si6 0.453639 0.145578 0.054905
Si Si7 0.630254 0.930470 0.697379
Si Si8 0.975419 0.471464 0.893036
O O1 0.198518 0.994731 0.359694
O O2 0.015631 0.313822 0.261996
O O3 0.000000 0.000000 0.500000
O O4 0.886135 0.029653 0.281640
O O5 0.619819 0.506679 0.679004
O O6 0.574248 0.744760 0.714434
O O7 0.794726 0.399922 0.900546
O O8 0.486327 0.367397 0.905881
O O9 0.246665 0.309283 0.558320
O O10 0.122766 0.207225 0.773193
O O11 0.382597 0.998181 0.835703
O O12 0.500000 0.500000 0.500000
O O13 0.503114 0.131734 0.580759
O O14 0.887613 0.674437 0.085212
O O15 0.669124 0.955887 0.986753
O O16 0.000000 0.000000 0.000000
O O17 0.351231 0.167969 0.141242
O O18 0.000000 0.500000 0.000000
#
# Coordination Sequence:
#
# PCOD8023764 Si02
#       8
#     2   2   2   2   2   2   2   2
#     4  11  24  45  67  94 131 174 218 268 322 382
#     4  11  22  42  67  94 125 168 215 266 321 379
#     4  11  24  43  66  95 130 172 217 267 323 383
#     4  11  25  43  62  92 132 168 211 266 321 385
#     4  12  24  40  65  98 132 171 212 266 327 387
#     4  11  23  40  67  98 128 165 217 271 320 382
#     4  10  23  42  65  93 127 169 214 265 320 381
#     4  11  24  43  66  96 130 167 215 269 321 383
#
# _framework density 22.814703000000002
#
# number of rings (size 3 to 8) (size 9 to 14) (size 15 to 20)
#    0.000    1.000    0.000    7.875    0.000    9.000 
#    0.000    1.875    0.000    0.000    0.000    0.000 
#    0.000    0.000    0.000    0.000    0.000    0.000 
#
# Total GULP energy -198301.228220 kJ/mol
# GULP energy per Si atom -12393.826764 kJ/mol
# Density = 2.276278 g / cm^3
# Si number density = 22.814703 Si / 1000 Ang^3
#
#
#
# Elastic Constant Matrix: (Units=GPa)
#
#
# Indices 1 2 3 4 5 6 
#
# 1 110.0568 32.2945 58.8103 14.3407 -21.1714 21.8362
# 2 32.2945 73.1651 27.8135 31.6016 -5.2412 5.9973
# 3 58.8103 27.8135 151.3637 33.7883 -32.4902 -0.9319
# 4 14.3407 31.6016 33.7883 47.4062 -0.6660 -1.7996
# 5 -21.1714 -5.2412 -32.4902 -0.6660 47.8736 3.0484
# 6 21.8362 5.9973 -0.9319 -1.7996 3.0484 42.9536
#
#
#
# Elastic Compliance Matrix: (Units=1/GPa)
#
#
# Indices 1 2 3 4 5 6 
#
# 1 0.014736 -0.004674 -0.004560 0.001686 0.003387 -0.007108
# 2 -0.004674 0.021373 0.001133 -0.013675 0.000930 -0.001222
# 3 -0.004560 0.001133 0.010873 -0.006986 0.005280 0.001728
# 4 0.001686 -0.013675 -0.006986 0.034710 -0.005183 0.002723
# 5 0.003387 0.000930 0.005280 -0.005183 0.026242 -0.003816
# 6 -0.007108 -0.001222 0.001728 0.002723 -0.003816 0.027487
#
#
# Mechanical properties :
#
#
# Convention : Reuss Voigt Hill
#
# Bulk Modulus (GPa) = 32.48672 63.60246 48.04459
# Shear Modulus (GPa) = 30.88632 42.02450 36.45541
#
# Velocity S-wave (km/s) = 3.68338 4.29650 4.00170
# Velocity P-wave (km/s) = 5.68859 7.24925 6.51581
#
# Compressibility (1/GPa) = 0.03078181
#
# Stress axis : x y z
#
# Youngs Moduli (GPa) = 67.85939 46.78763 91.96691
#
# Poissons Ratio (x) = 0.21868 0.41935
# Poissons Ratio (y) = 0.31717 -0.10421
# Poissons Ratio (z) = 0.30943 -0.05302
#
# Static dielectric constant tensor:
#      x y z
#    x 4.679760 0.162190 -0.713480 
#    y 0.162190 3.904370 0.301350 
#    z -0.713480 0.301350 4.748660 
# 
# 
# High freq. dielectric constant tensor:
#      x y z
#    x 1.905580 0.007930 -0.019320 
#    y 0.007930 1.906750 0.019540 
#    z -0.019320 0.019540 1.912420 
# 
# From -- ./inp_files/243856.got.cif
#   From: 2010.06.25/outbox.cif.g09.slc.cpg/sg2_122_cif.got.tgz:243856.got - 2010.06.27 13:26:56.
