data_PCOD8023732
_publ_section_title
;
Structure prediction by ZEFSAII (Michael W. Deem and Ramdas Pophale) SiO2 
 PCOD8023732
Probable space group: P -1
;
_chemical_formula_sum "Si O2"
_cell_formula_units_Z 16
_cell_length_a 20.898403
_cell_length_b 6.683272
_cell_length_c 8.349266
_cell_angle_alpha 120.979018
_cell_angle_beta 53.114224
_cell_angle_gamma 90.379009
_cell_volume 717.755420
_symmetry_space_group_name_H-M "P -1"
_symmetry_group_IT_number 2
_symmetry_cell_setting 'triclinic'
loop_
_space_group_symop_operation_xyz
x,y,z
-x,-y,-z
loop_
_atom_site_type_symbol
_atom_site_label
_atom_site_fract_x
_atom_site_fract_y
_atom_site_fract_z
Si Si1 0.591146 0.255278 0.293130
Si Si2 0.037000 0.344336 0.544010
Si Si3 0.445639 0.162112 0.998066
Si Si4 0.112800 0.783366 0.283515
Si Si5 0.913104 0.222056 0.303586
Si Si6 0.307203 0.489343 0.914919
Si Si7 0.285324 0.648568 0.376654
Si Si8 0.611747 0.089194 0.543245
O O1 0.500000 0.500000 0.500000
O O2 0.589338 0.997605 0.126581
O O3 0.612909 0.230469 0.436385
O O4 0.668914 0.291259 0.101063
O O5 0.953143 0.320048 0.744874
O O6 0.000000 0.500000 0.500000
O O7 0.080794 0.507989 0.635422
O O8 0.109332 0.039684 0.302651
O O9 0.513754 0.238870 0.828774
O O10 0.357144 0.421321 0.289969
O O11 0.500000 0.000000 0.000000
O O12 0.085969 0.844290 0.537107
O O13 0.209391 0.549236 0.024857
O O14 0.819043 0.253369 0.381011
O O15 0.000000 0.000000 0.000000
O O16 0.306770 0.513142 0.115783
O O17 0.371575 0.205963 0.635391
O O18 0.311836 0.889294 0.450480
#
# Coordination Sequence:
#
# PCOD8023732 Si02
#       8
#     2   2   2   2   2   2   2   2
#     4  12  23  41  68  98 132 175 225 275 334 397
#     4   9  19  40  65  90 125 165 211 270 329 387
#     4  12  24  44  69  98 140 183 222 279 336 399
#     4   9  21  40  66  96 124 172 220 267 332 404
#     4  10  23  42  64  97 133 170 218 275 337 396
#     4  11  24  43  67  98 134 177 225 275 335 402
#     4  11  25  45  67  98 137 178 226 281 337 401
#     4  12  25  45  67  99 138 176 226 278 334 399
#
# _framework density 22.291716000000001
#
# number of rings (size 3 to 8) (size 9 to 14) (size 15 to 20)
#    0.000    1.250    2.500    3.000    3.500    1.500 
#    4.500    0.000    0.000    0.000    0.000    0.000 
#    0.000    0.000    0.000    0.000    0.000    0.000 
#
# Total GULP energy -198269.469010 kJ/mol
# GULP energy per Si atom -12391.841813 kJ/mol
# Density = 2.224098 g / cm^3
# Si number density = 22.291716 Si / 1000 Ang^3
#
#
#
# Elastic Constant Matrix: (Units=GPa)
#
#
# Indices 1 2 3 4 5 6 
#
# 1 124.1108 37.8589 38.0775 4.1768 -18.4098 27.4087
# 2 37.8589 112.4737 29.2931 12.4026 -8.3443 12.7329
# 3 38.0775 29.2931 91.2621 0.7638 -23.5307 8.2434
# 4 4.1768 12.4026 0.7638 24.0652 8.1005 0.4771
# 5 -18.4098 -8.3443 -23.5307 8.1005 35.0329 4.5057
# 6 27.4087 12.7329 8.2434 0.4771 4.5057 51.1888
#
#
#
# Elastic Compliance Matrix: (Units=1/GPa)
#
#
# Indices 1 2 3 4 5 6 
#
# 1 0.011505 -0.001944 -0.002231 -0.002640 0.005437 -0.005771
# 2 -0.001944 0.011030 -0.002102 -0.005834 0.001731 -0.001462
# 3 -0.002231 -0.002102 0.015064 -0.002044 0.009109 -0.001491
# 4 -0.002640 -0.005834 -0.002044 0.050509 -0.016364 0.004164
# 5 0.005437 0.001731 0.009109 -0.016364 0.042799 -0.008423
# 6 -0.005771 -0.001462 -0.001491 0.004164 -0.008423 0.023932
#
#
# Mechanical properties :
#
#
# Convention : Reuss Voigt Hill
#
# Bulk Modulus (GPa) = 39.92915 59.81173 49.87044
# Shear Modulus (GPa) = 28.45101 36.89853 32.67477
#
# Velocity S-wave (km/s) = 3.57642 4.07290 3.83271
# Velocity P-wave (km/s) = 5.91653 7.00055 6.48124
#
# Compressibility (1/GPa) = 0.02504436
#
# Stress axis : x y z
#
# Youngs Moduli (GPa) = 86.92243 90.66178 66.38559
#
# Poissons Ratio (x) = 0.17621 0.14811
# Poissons Ratio (y) = 0.16894 0.13956
# Poissons Ratio (z) = 0.19392 0.19059
#
# Static dielectric constant tensor:
#      x y z
#    x 4.612410 0.845130 -0.048170 
#    y 0.845130 5.669040 0.219560 
#    z -0.048170 0.219560 3.928270 
# 
# 
# High freq. dielectric constant tensor:
#      x y z
#    x 1.891910 0.012490 -0.012260 
#    y 0.012490 1.884140 0.011080 
#    z -0.012260 0.011080 1.857090 
# 
# From -- ./inp_files/48143.got.cif
#   From: 2010.06.25/outbox.cif.g09.slc.cpg/sg2_25_cif.got.tgz:48143.got - 2010.06.27 13:26:56.
