data_PCOD8023105
_publ_section_title
;
Structure prediction by ZEFSAII (Michael W. Deem and Ramdas Pophale) SiO2 
 PCOD8023105
Probable space group: P -1
;
_chemical_formula_sum "Si O2"
_cell_formula_units_Z 14
_cell_length_a 11.343842
_cell_length_b 9.463795
_cell_length_c 9.641172
_cell_angle_alpha 125.035153
_cell_angle_beta 126.357186
_cell_angle_gamma 56.125715
_cell_volume 644.480187
_symmetry_space_group_name_H-M "P -1"
_symmetry_group_IT_number 2
_symmetry_cell_setting 'triclinic'
loop_
_space_group_symop_operation_xyz
x,y,z
-x,-y,-z
loop_
_atom_site_type_symbol
_atom_site_label
_atom_site_fract_x
_atom_site_fract_y
_atom_site_fract_z
Si Si1 0.807350 0.198290 0.575626
Si Si2 0.470742 0.268704 0.736289
Si Si3 0.903137 0.098449 0.290190
Si Si4 0.759073 0.364942 0.101371
Si Si5 0.157296 0.508371 0.047557
Si Si6 0.488379 0.875331 0.610553
Si Si7 0.335631 0.118573 0.011147
O O1 0.881566 0.207927 0.482378
O O2 0.766068 0.392651 0.731960
O O3 0.653427 0.147631 0.413362
O O4 0.924189 0.046803 0.672675
O O5 0.327720 0.442062 0.778816
O O6 0.480848 0.264465 0.574607
O O7 0.436545 0.087686 0.654925
O O8 0.632575 0.272720 0.914570
O O9 0.879257 0.236453 0.222474
O O10 0.783494 0.989548 0.134490
O O11 0.861995 0.388972 0.056237
O O12 0.271943 0.304236 0.983162
O O13 0.000000 0.500000 0.000000
O O14 0.641866 0.824574 0.783187
O O15 0.500000 0.000000 0.000000
#
# Coordination Sequence:
#
# PCOD8023105 Si02
#       7
#     2   2   2   2   2   2   2
#     4  11  25  45  69 101 144 184 231 286 347 420
#     4  10  23  40  68 106 138 173 228 301 341 399
#     4  11  25  45  70 100 142 187 230 284 355 414
#     4  11  24  44  70 101 139 180 232 287 350 408
#     4  12  27  48  71 102 143 184 236 289 346 421
#     4  11  22  42  68 103 139 180 233 283 343 418
#     4  12  24  42  74 102 139 186 232 283 348 414
#
# _framework density 21.722933999999999
#
# number of rings (size 3 to 8) (size 9 to 14) (size 15 to 20)
#    0.000    0.857    5.714    0.857    4.000    1.143 
#    5.143    1.429    0.000    0.000    0.000    0.000 
#    0.000    0.000    0.000    0.000    0.000    0.000 
#
# Total GULP energy -173630.054639 kJ/mol
# GULP energy per Si atom -12402.146760 kJ/mol
# Density = 2.167349 g / cm^3
# Si number density = 21.722934 Si / 1000 Ang^3
#
#
#
# Elastic Constant Matrix: (Units=GPa)
#
#
# Indices 1 2 3 4 5 6 
#
# 1 82.4805 34.7937 24.9883 8.1875 -4.2402 7.4582
# 2 34.7937 108.5020 37.6898 -2.6947 -11.1196 8.0499
# 3 24.9883 37.6898 104.9875 -2.8893 -12.7282 1.5234
# 4 8.1875 -2.6947 -2.8893 39.2433 2.3016 -5.0142
# 5 -4.2402 -11.1196 -12.7282 2.3016 35.6162 -1.1687
# 6 7.4582 8.0499 1.5234 -5.0142 -1.1687 30.5878
#
#
#
# Elastic Compliance Matrix: (Units=1/GPa)
#
#
# Indices 1 2 3 4 5 6 
#
# 1 0.015157 -0.003944 -0.002266 -0.004004 -0.000083 -0.003205
# 2 -0.003944 0.011900 -0.003032 0.001072 0.002035 -0.001766
# 3 -0.002266 -0.003032 0.011514 0.001080 0.002864 0.001063
# 4 -0.004004 0.001072 0.001080 0.027195 -0.001348 0.005047
# 5 -0.000083 0.002035 0.002864 -0.001348 0.029822 0.000260
# 6 -0.003205 -0.001766 0.001063 0.005047 0.000260 0.034723
#
#
# Mechanical properties :
#
#
# Convention : Reuss Voigt Hill
#
# Bulk Modulus (GPa) = 49.77683 54.54595 52.16139
# Shear Modulus (GPa) = 32.15657 34.32268 33.23963
#
# Velocity S-wave (km/s) = 3.85165 3.97926 3.91597
# Velocity P-wave (km/s) = 6.53792 6.80272 6.67164
#
# Compressibility (1/GPa) = 0.02008967
#
# Stress axis : x y z
#
# Youngs Moduli (GPa) = 65.97573 84.03115 86.85082
#
# Poissons Ratio (x) = 0.33139 0.19677
# Poissons Ratio (y) = 0.26019 0.26330
# Poissons Ratio (z) = 0.14947 0.25475
#
# Static dielectric constant tensor:
#      x y z
#    x 3.326800 0.253490 -0.077600 
#    y 0.253490 3.894650 -0.017620 
#    z -0.077600 -0.017620 4.245600 
# 
# 
# High freq. dielectric constant tensor:
#      x y z
#    x 1.846020 0.003360 -0.008760 
#    y 0.003360 1.850660 0.009830 
#    z -0.008760 0.009830 1.871120 
# 
# From -- ./inp_files/158545.got.cif
#   From: 2010.06.25/outbox.cif.g09.slc.cpg/sg2_80_cif.got.tgz:158545.got - 2010.06.27 13:26:56.
