data_PCOD8023791
_publ_section_title
;
Structure prediction by ZEFSAII (Michael W. Deem and Ramdas Pophale) SiO2 
 PCOD8023791
Probable space group: P -1
;
_chemical_formula_sum "Si O2"
_cell_formula_units_Z 16
_cell_length_a 8.343529
_cell_length_b 16.603217
_cell_length_c 8.749722
_cell_angle_alpha 52.719739
_cell_angle_beta 65.283417
_cell_angle_gamma 98.912430
_cell_volume 723.002667
_symmetry_space_group_name_H-M "P -1"
_symmetry_group_IT_number 2
_symmetry_cell_setting 'triclinic'
loop_
_space_group_symop_operation_xyz
x,y,z
-x,-y,-z
loop_
_atom_site_type_symbol
_atom_site_label
_atom_site_fract_x
_atom_site_fract_y
_atom_site_fract_z
Si Si1 0.299858 0.114584 0.062824
Si Si2 0.763285 0.261095 0.653763
Si Si3 0.857013 0.762494 0.219211
Si Si4 0.866311 0.312725 0.896648
Si Si5 0.483222 0.495571 0.195764
Si Si6 0.018350 0.153639 0.613953
Si Si7 0.847813 0.485384 0.209726
Si Si8 0.426503 0.254207 0.148648
O O1 0.529679 0.135977 0.919411
O O2 0.284940 0.207178 0.853864
O O3 0.285622 0.149615 0.200892
O O4 0.112115 0.974585 0.273189
O O5 0.866638 0.331480 0.691799
O O6 0.719026 0.344084 0.472084
O O7 0.912778 0.229797 0.539380
O O8 0.719334 0.630191 0.511937
O O9 0.983290 0.866182 0.180563
O O10 0.035404 0.768836 0.029655
O O11 0.020834 0.436871 0.784086
O O12 0.624094 0.247049 0.134370
O O13 0.693994 0.521304 0.163872
O O14 0.500000 0.500000 0.000000
O O15 0.467749 0.608777 0.120203
O O16 0.266388 0.231824 0.374415
O O17 0.000000 0.500000 0.000000
#
# Coordination Sequence:
#
# PCOD8023791 Si02
#       8
#     2   2   2   2   2   2   2   2
#     4  11  23  43  65  99 127 173 221 266 317 384
#     4  10  23  42  65  97 128 172 215 268 320 385
#     4  11  24  42  66  94 130 170 220 267 323 381
#     4  10  25  40  63  95 135 169 210 266 327 387
#     4  12  24  41  66  97 134 168 213 273 332 385
#     4  11  23  43  68  90 133 177 216 265 319 382
#     4  12  24  38  63  99 134 168 211 263 330 395
#     4  11  24  41  66  94 132 172 214 264 329 383
#
# _framework density 22.129932
#
# number of rings (size 3 to 8) (size 9 to 14) (size 15 to 20)
#    0.000    1.000    2.500    3.750    8.750    1.000 
#    0.000    0.625    0.000    0.000    0.000    0.000 
#    0.000    0.000    0.000    0.000    0.000    0.000 
#
# Total GULP energy -198318.979712 kJ/mol
# GULP energy per Si atom -12394.936232 kJ/mol
# Density = 2.207956 g / cm^3
# Si number density = 22.129932 Si / 1000 Ang^3
#
#
#
# Elastic Constant Matrix: (Units=GPa)
#
#
# Indices 1 2 3 4 5 6 
#
# 1 129.6604 42.7350 39.4655 4.6655 -22.2410 -8.7350
# 2 42.7350 106.3776 38.2438 -0.8468 -18.9196 -15.6587
# 3 39.4655 38.2438 63.7689 -1.7732 -11.2250 -6.1153
# 4 4.6655 -0.8468 -1.7732 26.1645 -2.4591 -12.4127
# 5 -22.2410 -18.9196 -11.2250 -2.4591 28.3202 3.8166
# 6 -8.7350 -15.6587 -6.1153 -12.4127 3.8166 30.4474
#
#
#
# Elastic Compliance Matrix: (Units=1/GPa)
#
#
# Indices 1 2 3 4 5 6 
#
# 1 0.010663 -0.001694 -0.004732 -0.001871 0.005229 -0.000181
# 2 -0.001694 0.014073 -0.005725 0.003978 0.005263 0.006564
# 3 -0.004732 -0.005725 0.022499 0.002897 0.001464 0.001214
# 4 -0.001871 0.003978 0.002897 0.049589 0.003698 0.021844
# 5 0.005229 0.005263 0.001464 0.003698 0.043764 0.000523
# 6 -0.000181 0.006564 0.001214 0.021844 0.000523 0.045251
#
#
# Mechanical properties :
#
#
# Convention : Reuss Voigt Hill
#
# Bulk Modulus (GPa) = 43.60698 60.07728 51.84213
# Shear Modulus (GPa) = 22.95836 28.94393 25.95114
#
# Velocity S-wave (km/s) = 3.22442 3.62043 3.42814
# Velocity P-wave (km/s) = 5.79743 6.68454 6.25673
#
# Compressibility (1/GPa) = 0.02293211
#
# Stress axis : x y z
#
# Youngs Moduli (GPa) = 93.78006 71.05732 44.44707
#
# Poissons Ratio (x) = 0.12037 0.21034
# Poissons Ratio (y) = 0.15886 0.25447
# Poissons Ratio (z) = 0.44380 0.40681
#
# Static dielectric constant tensor:
#      x y z
#    x 4.099730 -0.159220 -0.159380 
#    y -0.159220 4.148950 0.067090 
#    z -0.159380 0.067090 3.611480 
# 
# 
# High freq. dielectric constant tensor:
#      x y z
#    x 1.886190 -0.000200 -0.021550 
#    y -0.000200 1.885030 0.008090 
#    z -0.021550 0.008090 1.839960 
# 
# From -- ./inp_files/205861.got.cif
#   From: 2010.06.25/outbox.cif.g09.slc.cpg/sg2_103_cif.got.tgz:205861.got - 2010.06.27 13:26:56.
