data_PCOD8023737
_publ_section_title
;
Structure prediction by ZEFSAII (Michael W. Deem and Ramdas Pophale) SiO2 
 PCOD8023737
Probable space group: P -1
;
_chemical_formula_sum "Si O2"
_cell_formula_units_Z 16
_cell_length_a 16.471585
_cell_length_b 8.321989
_cell_length_c 17.044290
_cell_angle_alpha 130.456851
_cell_angle_beta 145.629872
_cell_angle_gamma 36.647515
_cell_volume 786.658498
_symmetry_space_group_name_H-M "P -1"
_symmetry_group_IT_number 2
_symmetry_cell_setting 'triclinic'
loop_
_space_group_symop_operation_xyz
x,y,z
-x,-y,-z
loop_
_atom_site_type_symbol
_atom_site_label
_atom_site_fract_x
_atom_site_fract_y
_atom_site_fract_z
Si Si1 0.563129 0.876973 0.924866
Si Si2 0.766049 0.687539 0.305704
Si Si3 0.013796 0.925532 0.729930
Si Si4 0.497075 0.101185 0.701387
Si Si5 0.834822 0.793904 0.993509
Si Si6 0.606749 0.232806 0.551202
Si Si7 0.493358 0.482224 0.699707
Si Si8 0.098970 0.983971 0.496729
O O1 0.577943 0.611364 0.848398
O O2 0.406481 0.112589 0.821596
O O3 0.754880 0.790811 0.013970
O O4 0.500000 0.000000 0.000000
O O5 0.692356 0.729970 0.348313
O O6 0.854940 0.392350 0.252673
O O7 0.906390 0.756134 0.434178
O O8 0.812367 0.027725 0.620761
O O9 0.009631 0.010190 0.662946
O O10 0.084422 0.046026 0.880534
O O11 0.481502 0.321800 0.706705
O O12 0.501325 0.889606 0.583270
O O13 0.676914 0.941252 0.848592
O O14 0.000000 0.500000 0.000000
O O15 0.500000 0.500000 0.500000
O O16 0.623499 0.280364 0.670586
O O17 0.303445 0.707449 0.575930
O O18 0.000000 0.000000 0.500000
#
# Coordination Sequence:
#
# PCOD8023737 Si02
#       8
#     2   2   2   2   2   2   2   2
#     4  10  24  44  67  92 138 175 215 277 332 398
#     4  10  23  42  64  99 128 170 219 272 333 384
#     4  12  24  40  72  97 131 172 220 275 328 394
#     4  11  24  44  69  95 135 172 221 270 327 402
#     4  11  26  46  67  96 131 181 222 270 336 397
#     4  12  22  45  68  94 134 178 215 268 335 391
#     4  11  24  42  67  97 128 176 225 262 330 399
#     4  11  23  39  66  98 132 165 216 280 321 390
#
# _framework density 20.339196000000001
#
# number of rings (size 3 to 8) (size 9 to 14) (size 15 to 20)
#    0.000    1.000    2.500    4.500    8.750    1.000 
#    2.250    1.250    0.000    0.000    0.000    0.000 
#    0.000    0.000    0.000    0.000    0.000    0.000 
#
# Total GULP energy -198390.042860 kJ/mol
# GULP energy per Si atom -12399.377679 kJ/mol
# Density = 2.029290 g / cm^3
# Si number density = 20.339196 Si / 1000 Ang^3
#
#
#
# Elastic Constant Matrix: (Units=GPa)
#
#
# Indices 1 2 3 4 5 6 
#
# 1 134.8280 42.0841 37.3769 16.4037 -6.1842 3.2650
# 2 42.0841 120.4632 46.9977 29.2682 8.1325 7.0445
# 3 37.3769 46.9977 115.8562 26.2006 3.7627 2.2883
# 4 16.4037 29.2682 26.2006 28.3234 -7.5375 2.5615
# 5 -6.1842 8.1325 3.7627 -7.5375 28.6907 6.9677
# 6 3.2650 7.0445 2.2883 2.5615 6.9677 38.6353
#
#
#
# Elastic Compliance Matrix: (Units=1/GPa)
#
#
# Indices 1 2 3 4 5 6 
#
# 1 0.008898 -0.002562 -0.001968 0.000219 0.003142 -0.000749
# 2 -0.002562 0.013457 -0.001407 -0.013170 -0.007667 0.000102
# 3 -0.001968 -0.001407 0.012232 -0.010042 -0.004556 0.001186
# 4 0.000219 -0.013170 -0.010042 0.064828 0.023478 -0.005555
# 5 0.003142 -0.007667 -0.004556 0.023478 0.046546 -0.008549
# 6 -0.000749 0.000102 0.001186 -0.005555 -0.008549 0.027768
#
#
# Mechanical properties :
#
#
# Convention : Reuss Voigt Hill
#
# Bulk Modulus (GPa) = 44.02749 69.34053 56.68401
# Shear Modulus (GPa) = 25.88343 35.44247 30.66295
#
# Velocity S-wave (km/s) = 3.57121 4.17894 3.88697
# Velocity P-wave (km/s) = 6.22080 7.57963 6.93358
#
# Compressibility (1/GPa) = 0.02271308
#
# Stress axis : x y z
#
# Youngs Moduli (GPa) = 112.38803 74.31275 81.74998
#
# Poissons Ratio (x) = 0.19039 0.16087
# Poissons Ratio (y) = 0.28795 0.11502
# Poissons Ratio (z) = 0.22117 0.10455
#
# Static dielectric constant tensor:
#      x y z
#    x 3.162110 0.424460 -0.244000 
#    y 0.424460 3.363510 0.694330 
#    z -0.244000 0.694330 1.584670 
# 
# 
# High freq. dielectric constant tensor:
#      x y z
#    x 1.803270 -0.002890 -0.000480 
#    y -0.002890 1.805160 0.006900 
#    z -0.000480 0.006900 1.796490 
# 
# From -- ./inp_files/262812.got.cif
#   From: 2010.06.25/outbox.cif.g09.slc.cpg/sg2_132_cif.got.tgz:262812.got - 2010.06.27 13:26:56.
