data_PCOD8023932
_publ_section_title
;
Structure prediction by ZEFSAII (Michael W. Deem and Ramdas Pophale) SiO2 
 PCOD8023932
Probable space group: P -1
;
_chemical_formula_sum "Si O2"
_cell_formula_units_Z 16
_cell_length_a 8.768396
_cell_length_b 9.045663
_cell_length_c 11.323558
_cell_angle_alpha 105.030302
_cell_angle_beta 120.113823
_cell_angle_gamma 68.169136
_cell_volume 718.234799
_symmetry_space_group_name_H-M "P -1"
_symmetry_group_IT_number 2
_symmetry_cell_setting 'triclinic'
loop_
_space_group_symop_operation_xyz
x,y,z
-x,-y,-z
loop_
_atom_site_type_symbol
_atom_site_label
_atom_site_fract_x
_atom_site_fract_y
_atom_site_fract_z
Si Si1 0.832865 0.230184 0.555476
Si Si2 0.220274 0.566588 0.866250
Si Si3 0.443902 0.795103 0.936042
Si Si4 0.778188 0.550087 0.916388
Si Si5 0.596134 0.776397 0.231566
Si Si6 0.485354 0.185781 0.535228
Si Si7 0.178306 0.428577 0.325183
Si Si8 0.808847 0.001070 0.302117
O O1 0.641753 0.237481 0.540297
O O2 0.857770 0.405760 0.582925
O O3 0.839288 0.154145 0.411855
O O4 0.992398 0.119835 0.679111
O O5 0.330675 0.664889 0.856921
O O6 0.271486 0.388727 0.798510
O O7 0.000884 0.631104 0.779480
O O8 0.275575 0.564291 0.028221
O O9 0.649365 0.727492 0.943720
O O10 0.320751 0.950984 0.852848
O O11 0.449376 0.847810 0.085206
O O12 0.730056 0.537440 0.757253
O O13 0.000000 0.500000 0.000000
O O14 0.502817 0.755219 0.314027
O O15 0.712998 0.900953 0.330175
O O16 0.300150 0.283333 0.418402
O O17 0.500000 0.000000 0.500000
#
# Coordination Sequence:
#
# PCOD8023932 Si02
#       8
#     2   2   2   2   2   2   2   2
#     4  11  25  44  66  97 131 176 218 270 330 394
#     4  10  23  42  68 100 126 170 227 274 315 392
#     4  11  24  41  71  97 128 175 221 270 330 381
#     4   9  20  40  65  96 129 163 216 270 316 386
#     4  11  23  45  63  94 133 172 215 273 328 388
#     4  12  27  43  66  99 135 170 217 278 330 387
#     4  11  24  43  71  93 133 178 216 265 337 393
#     4  11  24  45  67  95 134 171 222 271 324 393
#
# _framework density 22.276835999999999
#
# number of rings (size 3 to 8) (size 9 to 14) (size 15 to 20)
#    0.000    1.250    2.500    3.000    7.000    0.500 
#    0.000    0.625    0.000    0.000    0.000    0.000 
#    0.000    0.000    0.000    0.000    0.000    0.000 
#
# Total GULP energy -198251.784445 kJ/mol
# GULP energy per Si atom -12390.736528 kJ/mol
# Density = 2.222613 g / cm^3
# Si number density = 22.276836 Si / 1000 Ang^3
#
#
#
# Elastic Constant Matrix: (Units=GPa)
#
#
# Indices 1 2 3 4 5 6 
#
# 1 61.9303 28.2583 19.3382 -4.5248 5.1192 -8.2323
# 2 28.2583 115.3757 53.3708 -16.5735 1.0049 -4.1955
# 3 19.3382 53.3708 113.7078 -19.6568 -6.1749 -16.2521
# 4 -4.5248 -16.5735 -19.6568 38.6916 -0.0219 12.6029
# 5 5.1192 1.0049 -6.1749 -0.0219 32.5906 -0.4758
# 6 -8.2323 -4.1955 -16.2521 12.6029 -0.4758 31.6748
#
#
#
# Elastic Compliance Matrix: (Units=1/GPa)
#
#
# Indices 1 2 3 4 5 6 
#
# 1 0.019136 -0.004230 -0.001069 -0.001566 -0.003014 0.004443
# 2 -0.004230 0.012403 -0.005045 0.003359 -0.000721 -0.003393
# 3 -0.001069 -0.005045 0.012597 0.002647 0.002778 0.004506
# 4 -0.001566 0.003359 0.002647 0.032157 0.000499 -0.011391
# 5 -0.003014 -0.000721 0.002778 0.000499 0.031718 0.000824
# 6 0.004443 -0.003393 0.004506 -0.011391 0.000824 0.039132
#
#
# Mechanical properties :
#
#
# Convention : Reuss Voigt Hill
#
# Bulk Modulus (GPa) = 42.64683 54.77205 48.70944
# Shear Modulus (GPa) = 28.46625 33.26115 30.86370
#
# Velocity S-wave (km/s) = 3.57857 3.86823 3.72622
# Velocity P-wave (km/s) = 6.02166 6.67768 6.35814
#
# Compressibility (1/GPa) = 0.02344840
#
# Stress axis : x y z
#
# Youngs Moduli (GPa) = 52.25714 80.62751 79.38482
#
# Poissons Ratio (x) = 0.34103 0.08482
# Poissons Ratio (y) = 0.22103 0.40053
# Poissons Ratio (z) = 0.05584 0.40680
#
# Static dielectric constant tensor:
#      x y z
#    x 4.083810 -0.122560 -0.083350 
#    y -0.122560 3.948600 -0.095330 
#    z -0.083350 -0.095330 4.237200 
# 
# 
# High freq. dielectric constant tensor:
#      x y z
#    x 1.874500 -0.004310 0.004210 
#    y -0.004310 1.871840 -0.011660 
#    z 0.004210 -0.011660 1.881210 
# 
# From -- ./inp_files/245568.got.cif
#   From: 2010.06.25/outbox.cif.g09.slc.cpg/sg2_123_cif.got.tgz:245568.got - 2010.06.27 13:26:56.
