data_PCOD8023557
_publ_section_title
;
Structure prediction by ZEFSAII (Michael W. Deem and Ramdas Pophale) SiO2 
 PCOD8023557
Probable space group: P -1
;
_chemical_formula_sum "Si O2"
_cell_formula_units_Z 14
_cell_length_a 14.734802
_cell_length_b 14.802275
_cell_length_c 15.356537
_cell_angle_alpha 19.456661
_cell_angle_beta 47.931659
_cell_angle_gamma 38.552359
_cell_volume 657.688261
_symmetry_space_group_name_H-M "P -1"
_symmetry_group_IT_number 2
_symmetry_cell_setting 'triclinic'
loop_
_space_group_symop_operation_xyz
x,y,z
-x,-y,-z
loop_
_atom_site_type_symbol
_atom_site_label
_atom_site_fract_x
_atom_site_fract_y
_atom_site_fract_z
Si Si1 0.568271 0.836039 0.861760
Si Si2 0.478631 0.376493 0.283697
Si Si3 0.136466 0.864913 0.657790
Si Si4 0.126056 0.110027 0.258194
Si Si5 0.211317 0.053891 0.607559
Si Si6 0.438803 0.873030 0.223251
Si Si7 0.850903 0.268210 0.909420
O O1 0.526773 0.054674 0.603236
O O2 0.506049 0.094582 0.747667
O O3 0.489481 0.645528 0.084010
O O4 0.752830 0.538661 0.021528
O O5 0.304062 0.582336 0.179568
O O6 0.600924 0.206950 0.278554
O O7 0.957667 0.017684 0.626054
O O8 0.196142 0.901339 0.493404
O O9 0.148402 0.082183 0.525144
O O10 0.255464 0.085659 0.141280
O O11 0.000000 0.500000 0.000000
O O12 0.143337 0.426986 0.344948
O O13 0.146536 0.911415 0.841957
O O14 0.500000 0.500000 0.500000
O O15 0.500000 0.000000 0.000000
O O16 0.000000 0.000000 0.000000
#
# Coordination Sequence:
#
# PCOD8023557 Si02
#       7
#     2   2   2   2   2   2   2
#     4  11  22  43  69  96 131 174 226 276 321 395
#     4  11  23  43  73  96 123 175 230 270 328 390
#     4  10  23  41  70 105 127 176 231 286 324 383
#     4  11  23  42  71  95 142 175 225 279 337 382
#     4  11  23  43  72  98 128 173 231 267 323 407
#     4  12  25  43  61  97 138 179 219 268 333 396
#     4  12  26  46  65  99 141 171 208 282 345 392
#
# _framework density 21.286681000000002
#
# number of rings (size 3 to 8) (size 9 to 14) (size 15 to 20)
#    0.000    0.857    1.429    7.286    4.000    0.000 
#    7.714    0.000    0.000    0.000    0.000    0.000 
#    0.000    0.000    0.000    0.000    0.000    0.000 
#
# Total GULP energy -173606.650066 kJ/mol
# GULP energy per Si atom -12400.475005 kJ/mol
# Density = 2.123823 g / cm^3
# Si number density = 21.286681 Si / 1000 Ang^3
#
#
#
# Elastic Constant Matrix: (Units=GPa)
#
#
# Indices 1 2 3 4 5 6 
#
# 1 120.0954 51.7045 40.0868 -12.9138 4.1381 -2.9398
# 2 51.7045 140.3656 34.0669 -8.9985 0.4476 -15.9986
# 3 40.0868 34.0669 109.1257 -5.0315 -10.8194 -3.6139
# 4 -12.9138 -8.9985 -5.0315 42.1955 8.4563 -12.3282
# 5 4.1381 0.4476 -10.8194 8.4563 36.0349 -6.7850
# 6 -2.9398 -15.9986 -3.6139 -12.3282 -6.7850 36.7640
#
#
#
# Elastic Compliance Matrix: (Units=1/GPa)
#
#
# Indices 1 2 3 4 5 6 
#
# 1 0.011193 -0.003179 -0.003298 0.002831 -0.002978 -0.000413
# 2 -0.003179 0.009283 -0.001476 0.002078 0.000140 0.004363
# 3 -0.003298 -0.001476 0.011236 -0.000576 0.004047 0.000752
# 4 0.002831 0.002078 -0.000576 0.028884 -0.005466 0.009751
# 5 -0.002978 0.000140 0.004047 -0.005466 0.031376 0.004179
# 6 -0.000413 0.004363 0.000752 0.009751 0.004179 0.033181
#
#
# Mechanical properties :
#
#
# Convention : Reuss Voigt Hill
#
# Bulk Modulus (GPa) = 63.26439 69.03368 66.14903
# Shear Modulus (GPa) = 34.16998 39.24745 36.70872
#
# Velocity S-wave (km/s) = 4.01088 4.29856 4.15721
# Velocity P-wave (km/s) = 7.15781 7.55894 7.36111
#
# Compressibility (1/GPa) = 0.01580668
#
# Stress axis : x y z
#
# Youngs Moduli (GPa) = 89.34265 107.71832 89.00244
#
# Poissons Ratio (x) = 0.34240 0.29351
# Poissons Ratio (y) = 0.28399 0.13139
# Poissons Ratio (z) = 0.29463 0.15902
#
# Static dielectric constant tensor:
#      x y z
#    x 4.274120 -0.024980 -0.059900 
#    y -0.024980 3.817730 0.008390 
#    z -0.059900 0.008390 4.028080 
# 
# 
# High freq. dielectric constant tensor:
#      x y z
#    x 1.847970 -0.000240 -0.015080 
#    y -0.000240 1.820510 0.006660 
#    z -0.015080 0.006660 1.850700 
# 
# From -- ./inp_files/52413.got.cif
#   From: 2010.06.25/outbox.cif.g09.slc.cpg/sg2_27_cif.got.tgz:52413.got - 2010.06.27 13:26:56.
