data_PCOD8023400
_publ_section_title
;
Structure prediction by ZEFSAII (Michael W. Deem and Ramdas Pophale) SiO2 
 PCOD8023400
Probable space group: P -1
;
_chemical_formula_sum "Si O2"
_cell_formula_units_Z 16
_cell_length_a 17.853900
_cell_length_b 20.799295
_cell_length_c 6.820471
_cell_angle_alpha 63.605748
_cell_angle_beta 62.513416
_cell_angle_gamma 19.358582
_cell_volume 744.434040
_symmetry_space_group_name_H-M "P -1"
_symmetry_group_IT_number 2
_symmetry_cell_setting 'triclinic'
loop_
_space_group_symop_operation_xyz
x,y,z
-x,-y,-z
loop_
_atom_site_type_symbol
_atom_site_label
_atom_site_fract_x
_atom_site_fract_y
_atom_site_fract_z
Si Si1 0.128993 0.825867 0.511988
Si Si2 0.487941 0.477753 0.833479
Si Si3 0.905555 0.433474 0.404244
Si Si4 0.384628 0.035245 0.239792
Si Si5 0.809501 0.946006 0.801981
Si Si6 0.347983 0.343472 0.984258
Si Si7 0.256175 0.321175 0.452746
Si Si8 0.169870 0.600817 0.121111
O O1 0.329510 0.655086 0.657308
O O2 0.257854 0.734577 0.272796
O O3 0.968732 0.882057 0.599935
O O4 0.000000 0.000000 0.500000
O O5 0.500000 0.500000 0.000000
O O6 0.375589 0.490226 0.978774
O O7 0.826332 0.496799 0.190461
O O8 0.749460 0.612015 0.467492
O O9 0.878608 0.376196 0.620146
O O10 0.175226 0.238998 0.330291
O O11 0.572353 0.871975 0.400693
O O12 0.284616 0.040972 0.250428
O O13 0.500000 0.000000 0.000000
O O14 0.601482 0.156529 0.854860
O O15 0.937218 0.808534 0.016195
O O16 0.336513 0.273974 0.194505
O O17 0.267045 0.451037 0.122682
O O18 0.000000 0.500000 0.500000
#
# Coordination Sequence:
#
# PCOD8023400 Si02
#       8
#     2   2   2   2   2   2   2   2
#     4  10  23  44  67  98 135 175 220 275 336 392
#     4  10  23  41  66  99 135 172 218 274 332 407
#     4  11  24  42  69  91 128 174 217 271 328 386
#     4  12  26  42  67  97 131 177 219 265 332 384
#     4  11  23  42  67  95 134 172 218 273 322 396
#     4  11  22  43  65  93 130 168 221 271 325 387
#     4  11  26  43  65  95 128 171 222 274 326 387
#     4  10  23  41  66  97 128 174 218 266 334 388
#
# _framework density 21.492837999999999
#
# number of rings (size 3 to 8) (size 9 to 14) (size 15 to 20)
#    0.000    1.250    2.500    2.250    5.250    4.000 
#    0.000    0.000    0.000    0.000    0.000    0.000 
#    0.000    0.000    0.000    0.000    0.000    0.000 
#
# Total GULP energy -198236.842913 kJ/mol
# GULP energy per Si atom -12389.802682 kJ/mol
# Density = 2.144392 g / cm^3
# Si number density = 21.492838 Si / 1000 Ang^3
#
#
#
# Elastic Constant Matrix: (Units=GPa)
#
#
# Indices 1 2 3 4 5 6 
#
# 1 67.9468 18.9120 33.7354 -4.7843 -6.2350 -12.3602
# 2 18.9120 141.7922 57.0512 4.3150 -8.5516 -13.5073
# 3 33.7354 57.0512 160.0090 -1.2172 -10.5323 -13.9152
# 4 -4.7843 4.3150 -1.2172 38.9724 -2.1032 0.4837
# 5 -6.2350 -8.5516 -10.5323 -2.1032 33.2263 3.4499
# 6 -12.3602 -13.5073 -13.9152 0.4837 3.4499 33.3780
#
#
#
# Elastic Compliance Matrix: (Units=1/GPa)
#
#
# Indices 1 2 3 4 5 6 
#
# 1 0.017540 -0.000669 -0.002905 0.002176 0.001838 0.004792
# 2 -0.000669 0.008492 -0.002659 -0.001079 0.000941 0.001998
# 3 -0.002905 -0.002659 0.007983 0.000239 0.001207 0.001048
# 4 0.002176 -0.001079 0.000239 0.026156 0.001873 -0.000104
# 5 0.001838 0.000941 0.001207 0.001873 0.031362 -0.001704
# 6 0.004792 0.001998 0.001048 -0.000104 -0.001704 0.033157
#
#
# Mechanical properties :
#
#
# Convention : Reuss Voigt Hill
#
# Bulk Modulus (GPa) = 46.41026 65.46058 55.93542
# Shear Modulus (GPa) = 34.64082 38.45195 36.54638
#
# Velocity S-wave (km/s) = 4.01900 4.23432 4.12806
# Velocity P-wave (km/s) = 6.57090 7.37760 6.98590
#
# Compressibility (1/GPa) = 0.02154696
#
# Stress axis : x y z
#
# Youngs Moduli (GPa) = 57.01373 117.76160 125.27220
#
# Poissons Ratio (x) = 0.07884 0.36391
# Poissons Ratio (y) = 0.03817 0.33311
# Poissons Ratio (z) = 0.16562 0.31313
#
# Static dielectric constant tensor:
#      x y z
#    x 3.802730 0.145640 0.056180 
#    y 0.145640 4.080020 0.119340 
#    z 0.056180 0.119340 4.222230 
# 
# 
# High freq. dielectric constant tensor:
#      x y z
#    x 1.827750 -0.000610 -0.007640 
#    y -0.000610 1.861020 0.004540 
#    z -0.007640 0.004540 1.861860 
# 
# From -- ./inp_files/52369.got.cif
#   From: 2010.06.25/outbox.cif.g09.slc.cpg/sg2_27_cif.got.tgz:52369.got - 2010.06.27 13:26:56.
