data_PCOD8023836
_publ_section_title
;
Structure prediction by ZEFSAII (Michael W. Deem and Ramdas Pophale) SiO2 
 PCOD8023836
Probable space group: P -1
;
_chemical_formula_sum "Si O2"
_cell_formula_units_Z 12
_cell_length_a 7.159918
_cell_length_b 12.314796
_cell_length_c 9.500793
_cell_angle_alpha 105.894986
_cell_angle_beta 45.084120
_cell_angle_gamma 89.887179
_cell_volume 546.568380
_symmetry_space_group_name_H-M "P -1"
_symmetry_group_IT_number 2
_symmetry_cell_setting 'triclinic'
loop_
_space_group_symop_operation_xyz
x,y,z
-x,-y,-z
loop_
_atom_site_type_symbol
_atom_site_label
_atom_site_fract_x
_atom_site_fract_y
_atom_site_fract_z
Si Si1 0.083975 0.819980 0.344605
Si Si2 0.295832 0.328438 0.595718
Si Si3 0.814005 0.977378 0.789987
Si Si4 0.043220 0.549837 0.644706
Si Si5 0.889991 0.217561 0.233124
Si Si6 0.324030 0.303613 0.896447
O O1 0.369779 0.773048 0.258625
O O2 0.968376 0.714971 0.316719
O O3 0.863384 0.903943 0.594162
O O4 0.123057 0.897396 0.216876
O O5 0.576189 0.233251 0.355552
O O6 0.305990 0.350681 0.764685
O O7 0.270991 0.450979 0.573490
O O8 0.006126 0.905939 0.786084
O O9 0.500000 0.000000 0.000000
O O10 0.000000 0.500000 0.500000
O O11 0.140803 0.667151 0.607612
O O12 0.767352 0.588220 0.903818
O O13 0.109380 0.223510 0.996540
#
# Coordination Sequence:
#
# PCOD8023836 Si02
#       6
#     2   2   2   2   2   2
#     4  11  25  41  71  97 129 179 224 267 342 385
#     4  12  24  44  67 101 138 170 224 280 324 398
#     4  11  21  45  70  93 134 175 221 277 324 403
#     4  10  23  43  71  96 135 182 220 266 337 392
#     4  10  23  42  66  95 139 170 222 273 330 389
#     4  10  24  44  65 101 133 174 222 271 332 394
#
# _framework density 21.955166999999999
#
# number of rings (size 3 to 8) (size 9 to 14) (size 15 to 20)
#    1.000    0.333    3.333    2.000    0.000    4.000 
#    0.000    1.667    0.000    0.000    0.000    0.000 
#    0.000    0.000    0.000    0.000    0.000    0.000 
#
# Total GULP energy -148729.611088 kJ/mol
# GULP energy per Si atom -12394.134257 kJ/mol
# Density = 2.190520 g / cm^3
# Si number density = 21.955167 Si / 1000 Ang^3
#
#
#
# Elastic Constant Matrix: (Units=GPa)
#
#
# Indices 1 2 3 4 5 6 
#
# 1 99.9495 39.0020 51.5291 -6.4890 -4.4778 -25.3348
# 2 39.0020 74.0206 12.7897 -5.9918 -3.0117 -21.8000
# 3 51.5291 12.7897 118.6699 -7.0179 -17.3565 -5.1837
# 4 -6.4890 -5.9918 -7.0179 27.8622 -1.7105 -0.1525
# 5 -4.4778 -3.0117 -17.3565 -1.7105 36.6931 -0.1408
# 6 -25.3348 -21.8000 -5.1837 -0.1525 -0.1408 45.2459
#
#
#
# Elastic Compliance Matrix: (Units=1/GPa)
#
#
# Indices 1 2 3 4 5 6 
#
# 1 0.017470 -0.006249 -0.006820 0.000945 -0.001540 0.005988
# 2 -0.006249 0.018521 0.001368 0.002999 0.001566 0.005596
# 3 -0.006820 0.001368 0.012024 0.002035 0.005056 -0.001759
# 4 0.000945 0.002999 0.002035 0.037470 0.003080 0.002343
# 5 -0.001540 0.001566 0.005056 0.003080 0.029731 0.000574
# 6 0.005988 0.005596 -0.001759 0.002343 0.000574 0.027959
#
#
# Mechanical properties :
#
#
# Convention : Reuss Voigt Hill
#
# Bulk Modulus (GPa) = 40.63018 55.47574 48.05296
# Shear Modulus (GPa) = 28.60736 34.58153 31.59444
#
# Velocity S-wave (km/s) = 3.61361 3.97306 3.79759
# Velocity P-wave (km/s) = 5.99642 6.80951 6.41586
#
# Compressibility (1/GPa) = 0.02461224
#
# Stress axis : x y z
#
# Youngs Moduli (GPa) = 57.24131 53.99382 83.16967
#
# Poissons Ratio (x) = 0.33742 0.56722
# Poissons Ratio (y) = 0.35771 -0.11380
# Poissons Ratio (z) = 0.39039 -0.07388
#
# Static dielectric constant tensor:
#      x y z
#    x 3.684010 -0.257980 -0.227550 
#    y -0.257980 4.015100 -0.125740 
#    z -0.227550 -0.125740 4.124100 
# 
# 
# High freq. dielectric constant tensor:
#      x y z
#    x 1.847830 -0.022280 -0.015190 
#    y -0.022280 1.861760 -0.011030 
#    z -0.015190 -0.011030 1.872320 
# 
# From -- ./inp_files/134396.got.cif
#   From: 2010.06.25/outbox.cif.g09.slc.cpg/sg2_68_cif.got.tgz:134396.got - 2010.06.27 13:26:56.
