data_PCOD8023234
_publ_section_title
;
Structure prediction by ZEFSAII (Michael W. Deem and Ramdas Pophale) SiO2 
 PCOD8023234
Probable space group: P -1
;
_chemical_formula_sum "Si O2"
_cell_formula_units_Z 16
_cell_length_a 22.511505
_cell_length_b 5.090006
_cell_length_c 13.236406
_cell_angle_alpha 55.021315
_cell_angle_beta 144.630510
_cell_angle_gamma 126.026608
_cell_volume 695.658950
_symmetry_space_group_name_H-M "P -1"
_symmetry_group_IT_number 2
_symmetry_cell_setting 'triclinic'
loop_
_space_group_symop_operation_xyz
x,y,z
-x,-y,-z
loop_
_atom_site_type_symbol
_atom_site_label
_atom_site_fract_x
_atom_site_fract_y
_atom_site_fract_z
Si Si1 0.169482 0.175343 0.776486
Si Si2 0.979962 0.958203 0.699855
Si Si3 0.327345 0.822747 0.490290
Si Si4 0.453355 0.794443 0.332895
Si Si5 0.762581 0.736772 0.359007
Si Si6 0.272549 0.515158 0.279327
Si Si7 0.292620 0.741793 0.953138
Si Si8 0.955182 0.695511 0.077245
O O1 0.182434 0.366999 0.644010
O O2 0.248479 0.382481 0.923687
O O3 0.049159 0.103983 0.664506
O O4 0.204575 0.830141 0.887184
O O5 0.983588 0.579898 0.805851
O O6 0.857577 0.952966 0.512492
O O7 0.024851 0.188867 0.805559
O O8 0.306375 0.588574 0.610488
O O9 0.252223 0.647675 0.332708
O O10 0.450382 0.873901 0.614497
O O11 0.305902 0.171355 0.413447
O O12 0.500000 0.500000 0.500000
O O13 0.362872 0.807678 0.286661
O O14 0.400133 0.731832 0.162040
O O15 0.686008 0.973273 0.168183
O O16 0.168843 0.455318 0.080712
O O17 0.000000 0.000000 0.000000
#
# Coordination Sequence:
#
# PCOD8023234 Si02
#       8
#     2   2   2   2   2   2   2   2
#     4  10  23  41  63  94 126 167 208 254 312 371
#     4  12  23  39  66  91 130 170 212 255 310 377
#     4  11  24  41  67  91 126 168 209 267 318 371
#     4  10  23  44  68  96 123 164 214 261 317 378
#     4  10  26  41  65  92 133 164 215 256 318 370
#     4  11  23  42  65  93 129 164 213 261 315 373
#     4  10  24  41  66  92 130 160 211 261 315 366
#     4  12  25  40  64  96 131 169 210 258 314 373
#
# _framework density 22.999776000000001
#
# number of rings (size 3 to 8) (size 9 to 14) (size 15 to 20)
#    0.750    0.500    0.000    5.625    3.500    6.000 
#    0.000    0.625    0.000    0.000    0.000    0.000 
#    0.000    0.000    0.000    0.000    0.000    0.000 
#
# Total GULP energy -198331.840213 kJ/mol
# GULP energy per Si atom -12395.740013 kJ/mol
# Density = 2.294743 g / cm^3
# Si number density = 22.999776 Si / 1000 Ang^3
#
#
#
# Elastic Constant Matrix: (Units=GPa)
#
#
# Indices 1 2 3 4 5 6 
#
# 1 74.8781 37.7831 32.7745 3.6951 -10.8183 19.2023
# 2 37.7831 98.7461 43.9578 3.3954 -13.6382 11.1041
# 3 32.7745 43.9578 138.6350 -0.7840 -2.3662 18.4491
# 4 3.6951 3.3954 -0.7840 35.0176 0.4502 -7.6954
# 5 -10.8183 -13.6382 -2.3662 0.4502 24.8352 -1.7806
# 6 19.2023 11.1041 18.4491 -7.6954 -1.7806 44.9847
#
#
#
# Elastic Compliance Matrix: (Units=1/GPa)
#
#
# Indices 1 2 3 4 5 6 
#
# 1 0.019302 -0.004923 -0.002067 -0.003101 0.005097 -0.006505
# 2 -0.004923 0.014245 -0.003262 -0.001012 0.005383 -0.000037
# 3 -0.002067 -0.003262 0.008972 0.000318 -0.001987 -0.002017
# 4 -0.003101 -0.001012 0.000318 0.030460 -0.001957 0.006576
# 5 0.005097 0.005383 -0.001987 -0.001957 0.045199 -0.001235
# 6 -0.006505 -0.000037 -0.002017 0.006576 -0.001235 0.026919
#
#
# Mechanical properties :
#
#
# Convention : Reuss Voigt Hill
#
# Bulk Modulus (GPa) = 45.42306 60.14333 52.78319
# Shear Modulus (GPa) = 28.91186 34.15042 31.53114
#
# Velocity S-wave (km/s) = 3.54934 3.85751 3.70663
# Velocity P-wave (km/s) = 6.04891 6.78578 6.42791
#
# Compressibility (1/GPa) = 0.02201525
#
# Stress axis : x y z
#
# Youngs Moduli (GPa) = 51.80938 70.19905 111.45380
#
# Poissons Ratio (x) = 0.34560 0.23037
# Poissons Ratio (y) = 0.25506 0.36355
# Poissons Ratio (z) = 0.10709 0.22898
#
# Static dielectric constant tensor:
#      x y z
#    x 4.156550 0.090890 -0.030610 
#    y 0.090890 4.628850 -0.004690 
#    z -0.030610 -0.004690 4.253980 
# 
# 
# High freq. dielectric constant tensor:
#      x y z
#    x 1.894320 0.005930 -0.014560 
#    y 0.005930 1.908220 0.002260 
#    z -0.014560 0.002260 1.916200 
# 
# From -- ./inp_files/473371.got.cif
#   From: 2010.06.25/outbox.cif.g09.slc.cpg/sg2_237_cif.got.tgz:473371.got - 2010.06.27 13:26:56.
