data_PCOD8023981
_publ_section_title
;
Structure prediction by ZEFSAII (Michael W. Deem and Ramdas Pophale) SiO2 
 PCOD8023981
Probable space group: P -1
;
_chemical_formula_sum "Si O2"
_cell_formula_units_Z 16
_cell_length_a 19.281533
_cell_length_b 11.475583
_cell_length_c 16.464109
_cell_angle_alpha 33.489995
_cell_angle_beta 157.257345
_cell_angle_gamma 147.281212
_cell_volume 731.255473
_symmetry_space_group_name_H-M "P -1"
_symmetry_group_IT_number 2
_symmetry_cell_setting 'triclinic'
loop_
_space_group_symop_operation_xyz
x,y,z
-x,-y,-z
loop_
_atom_site_type_symbol
_atom_site_label
_atom_site_fract_x
_atom_site_fract_y
_atom_site_fract_z
Si Si1 0.860941 0.984732 0.101486
Si Si2 0.977546 0.433360 0.874052
Si Si3 0.530047 0.151577 0.323609
Si Si4 0.138704 0.748583 0.491960
Si Si5 0.367485 0.638815 0.099131
Si Si6 0.642200 0.041432 0.237556
Si Si7 0.424900 0.676190 0.557660
Si Si8 0.977109 0.911446 0.619003
O O1 0.878766 0.934911 0.246119
O O2 0.001340 0.896050 0.250101
O O3 0.927724 0.249782 0.998574
O O4 0.640961 0.855343 0.917791
O O5 0.003435 0.674956 0.797851
O O6 0.802510 0.375910 0.655249
O O7 0.172909 0.450785 0.028403
O O8 0.740555 0.263703 0.449487
O O9 0.506068 0.296841 0.290354
O O10 0.524305 0.904813 0.484474
O O11 0.303196 0.858533 0.672654
O O12 0.000000 0.500000 0.500000
O O13 0.521684 0.518084 0.317693
O O14 0.435300 0.843721 0.120108
O O15 0.331025 0.745683 0.913991
O O16 0.769523 0.897824 0.429169
O O17 0.000000 0.000000 0.500000
#
# Coordination Sequence:
#
# PCOD8023981 Si02
#       8
#     2   2   2   2   2   2   2   2
#     4  10  25  43  65 101 131 171 227 266 335 394
#     4  11  22  40  69  98 132 176 213 278 330 389
#     4  10  24  45  67  96 130 174 221 274 324 400
#     4  11  26  45  64  92 136 174 219 276 328 392
#     4  11  22  40  67  95 133 173 217 270 333 389
#     4  10  24  41  59  99 131 169 226 265 325 402
#     4  10  23  42  68  97 130 169 225 272 329 388
#     4  11  21  41  65  96 136 172 214 273 323 396
#
# _framework density 21.880178000000001
#
# number of rings (size 3 to 8) (size 9 to 14) (size 15 to 20)
#    0.000    1.500    2.500    1.125    5.250    0.500 
#    0.000    5.625    0.000    0.000    0.000    0.000 
#    0.000    0.000    0.000    0.000    0.000    0.000 
#
# Total GULP energy -198298.976118 kJ/mol
# GULP energy per Si atom -12393.686007 kJ/mol
# Density = 2.183038 g / cm^3
# Si number density = 21.880178 Si / 1000 Ang^3
#
#
#
# Elastic Constant Matrix: (Units=GPa)
#
#
# Indices 1 2 3 4 5 6 
#
# 1 83.0601 39.3924 46.9778 16.1599 -2.9561 8.8468
# 2 39.3924 96.7949 32.5532 13.0316 2.2341 2.3506
# 3 46.9778 32.5532 102.9471 7.2430 -1.7120 2.4788
# 4 16.1599 13.0316 7.2430 32.2294 -1.7684 7.9399
# 5 -2.9561 2.2341 -1.7120 -1.7684 28.1285 5.6559
# 6 8.8468 2.3506 2.4788 7.9399 5.6559 25.1329
#
#
#
# Elastic Compliance Matrix: (Units=1/GPa)
#
#
# Indices 1 2 3 4 5 6 
#
# 1 0.020001 -0.005045 -0.007013 -0.005056 0.002743 -0.004897
# 2 -0.005045 0.013420 -0.001811 -0.003168 -0.002354 0.002230
# 3 -0.007013 -0.001811 0.013394 0.001002 0.000088 0.000981
# 4 -0.005056 -0.003168 0.001002 0.037529 0.004323 -0.010852
# 5 0.002743 -0.002354 0.000088 0.004323 0.038470 -0.010777
# 6 -0.004897 0.002230 0.000981 -0.010852 -0.010777 0.047060
#
#
# Mechanical properties :
#
#
# Convention : Reuss Voigt Hill
#
# Bulk Modulus (GPa) = 52.41848 57.84988 55.13418
# Shear Modulus (GPa) = 24.51311 28.02339 26.26825
#
# Velocity S-wave (km/s) = 3.35077 3.58266 3.46865
# Velocity P-wave (km/s) = 6.24334 6.60384 6.42612
#
# Compressibility (1/GPa) = 0.01907724
#
# Stress axis : x y z
#
# Youngs Moduli (GPa) = 49.99674 74.51443 74.66075
#
# Poissons Ratio (x) = 0.37594 0.52357
# Poissons Ratio (y) = 0.25224 0.13524
# Poissons Ratio (z) = 0.35061 0.13497
#
# Static dielectric constant tensor:
#      x y z
#    x 3.797900 -0.116840 -0.076170 
#    y -0.116840 4.047600 0.076860 
#    z -0.076170 0.076860 4.252360 
# 
# 
# High freq. dielectric constant tensor:
#      x y z
#    x 1.845780 -0.006890 0.004640 
#    y -0.006890 1.863720 0.004980 
#    z 0.004640 0.004980 1.873580 
# 
# From -- ./inp_files/452539.got.cif
#   From: 2010.06.25/outbox.cif.g09.slc.cpg/sg2_227_cif.got.tgz:452539.got - 2010.06.27 13:26:56.
