data_PCOD8023297
_publ_section_title
;
Structure prediction by ZEFSAII (Michael W. Deem and Ramdas Pophale) SiO2 
 PCOD8023297
Probable space group: P -1
;
_chemical_formula_sum "Si O2"
_cell_formula_units_Z 14
_cell_length_a 11.200590
_cell_length_b 9.805295
_cell_length_c 8.763105
_cell_angle_alpha 132.701087
_cell_angle_beta 65.670901
_cell_angle_gamma 93.790066
_cell_volume 610.900041
_symmetry_space_group_name_H-M "P -1"
_symmetry_group_IT_number 2
_symmetry_cell_setting 'triclinic'
loop_
_space_group_symop_operation_xyz
x,y,z
-x,-y,-z
loop_
_atom_site_type_symbol
_atom_site_label
_atom_site_fract_x
_atom_site_fract_y
_atom_site_fract_z
Si Si1 0.737242 0.316711 0.064149
Si Si2 0.467274 0.215132 0.118400
Si Si3 0.967675 0.490350 0.685693
Si Si4 0.188161 0.793231 0.390040
Si Si5 0.572441 0.075716 0.654354
Si Si6 0.999625 0.878665 0.057062
Si Si7 0.747881 0.698776 0.459826
O O1 0.806674 0.197441 0.787959
O O2 0.837841 0.220037 0.076137
O O3 0.586647 0.304938 0.170543
O O4 0.731061 0.542572 0.226087
O O5 0.326337 0.335667 0.369094
O O6 0.456521 0.208338 0.933371
O O7 0.500000 0.000000 0.000000
O O8 0.092955 0.340590 0.604180
O O9 0.000000 0.500000 0.500000
O O10 0.838825 0.406955 0.698676
O O11 0.928088 0.709166 0.942674
O O12 0.339858 0.794792 0.369013
O O13 0.073717 0.984622 0.661120
O O14 0.500000 0.000000 0.500000
O O15 0.681425 0.907408 0.571775
O O16 0.000000 0.000000 0.000000
#
# Coordination Sequence:
#
# PCOD8023297 Si02
#       7
#     2   2   2   2   2   2   2
#     4  10  23  41  64  98 126 171 227 264 334 383
#     4   9  20  40  65  89 126 175 215 266 321 391
#     4  11  25  43  65 105 130 171 227 266 333 393
#     4  11  25  42  69  94 136 172 216 279 327 390
#     4  10  24  44  66 100 130 175 219 270 336 386
#     4  11  24  40  66  96 133 175 213 273 327 393
#     4  10  23  42  68  93 132 173 217 276 320 396
#
# _framework density 22.917007000000002
#
# number of rings (size 3 to 8) (size 9 to 14) (size 15 to 20)
#    0.000    1.714    1.429    0.857   10.000    4.571 
#    2.571    1.429    0.000    0.000    0.000    0.000 
#    0.000    0.000    0.000    0.000    0.000    0.000 
#
# Total GULP energy -173526.140359 kJ/mol
# GULP energy per Si atom -12394.724311 kJ/mol
# Density = 2.286485 g / cm^3
# Si number density = 22.917007 Si / 1000 Ang^3
#
#
#
# Elastic Constant Matrix: (Units=GPa)
#
#
# Indices 1 2 3 4 5 6 
#
# 1 106.0584 55.3274 28.7517 -4.3897 29.3784 29.2501
# 2 55.3274 103.0775 24.0758 1.8756 6.0065 26.1934
# 3 28.7517 24.0758 117.4606 3.6072 14.1302 15.4287
# 4 -4.3897 1.8756 3.6072 29.3379 8.9484 -0.4379
# 5 29.3784 6.0065 14.1302 8.9484 32.7311 3.9950
# 6 29.2501 26.1934 15.4287 -0.4379 3.9950 40.8688
#
#
#
# Elastic Compliance Matrix: (Units=1/GPa)
#
#
# Indices 1 2 3 4 5 6 
#
# 1 0.022338 -0.008839 -0.000501 0.009931 -0.019941 -0.008078
# 2 -0.008839 0.015356 -0.001228 -0.004445 0.007327 -0.003816
# 3 -0.000501 -0.001228 0.009554 -0.000253 -0.003117 -0.002159
# 4 0.009931 -0.004445 -0.000253 0.041705 -0.019166 -0.001843
# 5 -0.019941 0.007327 -0.003117 -0.019166 0.053036 0.005363
# 6 -0.008078 -0.003816 -0.002159 -0.001843 0.005363 0.032967
#
#
# Mechanical properties :
#
#
# Convention : Reuss Voigt Hill
#
# Bulk Modulus (GPa) = 38.29566 60.32294 49.30930
# Shear Modulus (GPa) = 24.41444 35.15031 29.78237
#
# Velocity S-wave (km/s) = 3.26750 3.92064 3.60887
# Velocity P-wave (km/s) = 5.56617 6.84651 6.23927
#
# Compressibility (1/GPa) = 0.02611262
#
# Stress axis : x y z
#
# Youngs Moduli (GPa) = 44.76655 65.11974 104.66666
#
# Poissons Ratio (x) = 0.57560 0.05247
# Poissons Ratio (y) = 0.39570 0.12848
# Poissons Ratio (z) = 0.02244 0.07994
#
# Static dielectric constant tensor:
#      x y z
#    x 4.054960 0.378290 0.214890 
#    y 0.378290 4.074430 -0.117450 
#    z 0.214890 -0.117450 4.871450 
# 
# 
# High freq. dielectric constant tensor:
#      x y z
#    x 1.897180 0.023970 0.017920 
#    y 0.023970 1.898450 -0.003670 
#    z 0.017920 -0.003670 1.919580 
# 
# From -- ./inp_files/245754.got.cif
#   From: 2010.06.25/outbox.cif.g09.slc.cpg/sg2_123_cif.got.tgz:245754.got - 2010.06.27 13:26:56.
