data_PCOD8023825
_publ_section_title
;
Structure prediction by ZEFSAII (Michael W. Deem and Ramdas Pophale) SiO2 
 PCOD8023825
Probable space group: P -1
;
_chemical_formula_sum "Si O2"
_cell_formula_units_Z 16
_cell_length_a 16.215499
_cell_length_b 15.531348
_cell_length_c 15.283412
_cell_angle_alpha 35.587593
_cell_angle_beta 143.126060
_cell_angle_gamma 161.136736
_cell_volume 714.687967
_symmetry_space_group_name_H-M "P -1"
_symmetry_group_IT_number 2
_symmetry_cell_setting 'triclinic'
loop_
_space_group_symop_operation_xyz
x,y,z
-x,-y,-z
loop_
_atom_site_type_symbol
_atom_site_label
_atom_site_fract_x
_atom_site_fract_y
_atom_site_fract_z
Si Si1 0.793186 0.919888 0.601600
Si Si2 0.294164 0.845722 0.717676
Si Si3 0.771356 0.672682 0.086674
Si Si4 0.717437 0.516824 0.360332
Si Si5 0.477557 0.096028 0.978229
Si Si6 0.948423 0.747709 0.854068
Si Si7 0.595349 0.088552 0.607357
Si Si8 0.000787 0.693383 0.126912
O O1 0.570212 0.703660 0.665703
O O2 0.826730 0.794887 0.682219
O O3 0.749227 0.017685 0.415683
O O4 0.075990 0.197044 0.651798
O O5 0.050957 0.512738 0.794412
O O6 0.517859 0.989711 0.854120
O O7 0.349974 0.879216 0.634346
O O8 0.774584 0.586972 0.249495
O O9 0.771197 0.552891 0.106715
O O10 0.500000 0.500000 0.000000
O O11 0.000000 0.000000 0.000000
O O12 0.772048 0.393399 0.523534
O O13 0.209963 0.941334 0.864828
O O14 0.500000 0.000000 0.000000
O O15 0.722935 0.426289 0.908502
O O16 0.036977 0.838502 0.956520
O O17 0.759441 0.096912 0.773993
O O18 0.500000 0.000000 0.500000
#
# Coordination Sequence:
#
# PCOD8023825 Si02
#       8
#     2   2   2   2   2   2   2   2
#     4  11  23  42  66  94 131 171 212 269 331 386
#     4  10  23  42  66  94 130 173 218 268 326 389
#     4  12  27  39  56  85 126 171 221 277 319 368
#     4  11  23  40  58  89 126 174 222 267 319 376
#     4  11  24  45  72 101 130 168 216 265 324 399
#     4  11  23  43  69  98 131 169 212 268 330 390
#     4  11  23  37  63  91 127 172 226 274 312 378
#     4  11  23  40  64  88 126 177 224 268 323 385
#
# _framework density 22.387392999999999
#
# number of rings (size 3 to 8) (size 9 to 14) (size 15 to 20)
#    0.000    1.000    2.500    4.125    7.000    2.000 
#    0.000    1.250    0.000    0.000    0.000    0.000 
#    0.000    0.000    0.000    0.000    0.000    0.000 
#
# Total GULP energy -198215.643439 kJ/mol
# GULP energy per Si atom -12388.477715 kJ/mol
# Density = 2.233644 g / cm^3
# Si number density = 22.387393 Si / 1000 Ang^3
#
#
#
# Elastic Constant Matrix: (Units=GPa)
#
#
# Indices 1 2 3 4 5 6 
#
# 1 93.4439 32.8752 25.9769 1.5147 23.5064 -0.2925
# 2 32.8752 121.4241 24.2796 -1.3768 15.2845 9.5014
# 3 25.9769 24.2796 85.2577 -0.0221 29.8196 -3.9857
# 4 1.5147 -1.3768 -0.0221 26.4135 3.6270 5.2618
# 5 23.5064 15.2845 29.8196 3.6270 36.6687 2.6765
# 6 -0.2925 9.5014 -3.9857 5.2618 2.6765 33.6055
#
#
#
# Elastic Compliance Matrix: (Units=1/GPa)
#
#
# Indices 1 2 3 4 5 6 
#
# 1 0.013682 -0.002762 -0.000874 -0.000247 -0.006986 0.001391
# 2 -0.002762 0.009697 -0.001823 0.001384 -0.000696 -0.003143
# 3 -0.000874 -0.001823 0.017242 0.001081 -0.013058 0.003424
# 4 -0.000247 0.001384 0.001081 0.039823 -0.004790 -0.006119
# 5 -0.006986 -0.000696 -0.013058 -0.004790 0.043434 -0.004122
# 6 0.001391 -0.003143 0.003424 -0.006119 -0.004122 0.032350
#
#
# Mechanical properties :
#
#
# Convention : Reuss Voigt Hill
#
# Bulk Modulus (GPa) = 33.66553 51.82103 42.74328
# Shear Modulus (GPa) = 28.24097 33.80379 31.02238
#
# Velocity S-wave (km/s) = 3.55557 3.89002 3.72655
# Velocity P-wave (km/s) = 5.65035 6.58589 6.13598
#
# Compressibility (1/GPa) = 0.02970397
#
# Stress axis : x y z
#
# Youngs Moduli (GPa) = 73.08888 103.12218 57.99750
#
# Poissons Ratio (x) = 0.28482 0.05067
# Poissons Ratio (y) = 0.20187 0.10573
# Poissons Ratio (z) = 0.06386 0.18799
#
# Static dielectric constant tensor:
#      x y z
#    x 3.771170 0.152010 0.301230 
#    y 0.152010 3.927820 -0.224300 
#    z 0.301230 -0.224300 4.521590 
# 
# 
# High freq. dielectric constant tensor:
#      x y z
#    x 1.856990 0.006520 0.020140 
#    y 0.006520 1.886580 -0.007550 
#    z 0.020140 -0.007550 1.890650 
# 
# From -- ./inp_files/52098.got.cif
#   From: 2010.06.25/outbox.cif.g09.slc.cpg/sg2_27_cif.got.tgz:52098.got - 2010.06.27 13:26:56.
