data_PCOD8023107
_publ_section_title
;
Structure prediction by ZEFSAII (Michael W. Deem and Ramdas Pophale) SiO2 
 PCOD8023107
Probable space group: P -1
;
_chemical_formula_sum "Si O2"
_cell_formula_units_Z 12
_cell_length_a 5.224487
_cell_length_b 19.727685
_cell_length_c 11.765044
_cell_angle_alpha 30.026006
_cell_angle_beta 119.123131
_cell_angle_gamma 120.683082
_cell_volume 518.978970
_symmetry_space_group_name_H-M "P -1"
_symmetry_group_IT_number 2
_symmetry_cell_setting 'triclinic'
loop_
_space_group_symop_operation_xyz
x,y,z
-x,-y,-z
loop_
_atom_site_type_symbol
_atom_site_label
_atom_site_fract_x
_atom_site_fract_y
_atom_site_fract_z
Si Si1 0.390156 0.811951 0.578528
Si Si2 0.367586 0.695050 0.512878
Si Si3 0.707654 0.453862 0.928311
Si Si4 0.966335 0.246997 0.859161
Si Si5 0.847515 0.932722 0.333402
Si Si6 0.384426 0.615065 0.237015
O O1 0.222701 0.728092 0.553925
O O2 0.452947 0.701934 0.844468
O O3 0.185491 0.910203 0.444588
O O4 0.704719 0.907111 0.466797
O O5 0.130913 0.684139 0.376300
O O6 0.474087 0.551312 0.757756
O O7 0.653184 0.820788 0.367513
O O8 0.792287 0.453379 0.813636
O O9 0.000000 0.500000 0.000000
O O10 0.842669 0.315497 0.841311
O O11 0.324658 0.273002 0.902507
O O12 0.835578 0.083919 0.066418
O O13 0.500000 0.500000 0.500000
#
# Coordination Sequence:
#
# PCOD8023107 Si02
#       6
#     2   2   2   2   2   2
#     4  10  23  40  68 107 133 182 239 277 345 403
#     4  10  24  39  77 102 143 180 243 283 347 405
#     4  12  24  48  75 104 141 184 243 291 346 415
#     4  12  26  47  71 104 149 183 229 294 351 423
#     4  10  23  43  68 109 138 187 234 281 348 417
#     4  12  29  47  72 105 143 185 233 290 362 405
#
# _framework density 23.122323999999999
#
# number of rings (size 3 to 8) (size 9 to 14) (size 15 to 20)
#    1.000    0.000    3.333    2.500    4.667    3.333 
#    0.000    5.000    0.000    0.000    0.000    0.000 
#    0.000    0.000    0.000    0.000    0.000    0.000 
#
# Total GULP energy -148796.272103 kJ/mol
# GULP energy per Si atom -12399.689342 kJ/mol
# Density = 2.306970 g / cm^3
# Si number density = 23.122324 Si / 1000 Ang^3
#
#
#
# Elastic Constant Matrix: (Units=GPa)
#
#
# Indices 1 2 3 4 5 6 
#
# 1 116.7122 10.5064 25.0113 3.8610 -1.1814 -13.7475
# 2 10.5064 68.6211 29.1671 18.0180 -2.4063 -7.2140
# 3 25.0113 29.1671 134.5762 9.4309 7.9008 -9.6786
# 4 3.8610 18.0180 9.4309 30.3627 -12.0564 -3.9286
# 5 -1.1814 -2.4063 7.9008 -12.0564 31.8430 -0.6841
# 6 -13.7475 -7.2140 -9.6786 -3.9286 -0.6841 26.0622
#
#
#
# Elastic Compliance Matrix: (Units=1/GPa)
#
#
# Indices 1 2 3 4 5 6 
#
# 1 0.009428 -0.000464 -0.001422 0.000460 0.000937 0.004411
# 2 -0.000464 0.018883 -0.002992 -0.010660 -0.001836 0.002216
# 3 -0.001422 -0.002992 0.008749 -0.001827 -0.003113 0.001314
# 4 0.000460 -0.010660 -0.001827 0.047334 0.017677 0.004213
# 5 0.000937 -0.001836 -0.003113 0.017677 0.038819 0.002513
# 6 0.004411 0.002216 0.001314 0.004213 0.002513 0.042499
#
#
# Mechanical properties :
#
#
# Convention : Reuss Voigt Hill
#
# Bulk Modulus (GPa) = 36.62330 49.91989 43.27160
# Shear Modulus (GPa) = 27.09008 34.66855 30.87931
#
# Velocity S-wave (km/s) = 3.42658 3.87635 3.65838
# Velocity P-wave (km/s) = 5.61503 6.45532 6.04978
#
# Compressibility (1/GPa) = 0.02730502
#
# Stress axis : x y z
#
# Youngs Moduli (GPa) = 106.06340 52.95736 114.30148
#
# Poissons Ratio (x) = 0.02455 0.16252
# Poissons Ratio (y) = 0.04916 0.34202
# Poissons Ratio (z) = 0.15080 0.15846
#
# Static dielectric constant tensor:
#      x y z
#    x 4.188160 -0.057420 -0.148480 
#    y -0.057420 4.000690 -0.032640 
#    z -0.148480 -0.032640 4.151850 
# 
# 
# High freq. dielectric constant tensor:
#      x y z
#    x 1.918820 -0.002870 -0.006170 
#    y -0.002870 1.896500 -0.008930 
#    z -0.006170 -0.008930 1.921030 
# 
# From -- ./inp_files/59486.got.cif
#   From: 2010.06.25/outbox.cif.g09.slc.cpg/sg2_30_cif.got.tgz:59486.got - 2010.06.27 13:26:56.
