data_PCOD8023987
_publ_section_title
;
Structure prediction by ZEFSAII (Michael W. Deem and Ramdas Pophale) SiO2 
 PCOD8023987
Probable space group: P -1
;
_chemical_formula_sum "Si O2"
_cell_formula_units_Z 14
_cell_length_a 8.770744
_cell_length_b 12.236192
_cell_length_c 18.481317
_cell_angle_alpha 20.468870
_cell_angle_beta 108.761679
_cell_angle_gamma 109.746938
_cell_volume 652.734213
_symmetry_space_group_name_H-M "P -1"
_symmetry_group_IT_number 2
_symmetry_cell_setting 'triclinic'
loop_
_space_group_symop_operation_xyz
x,y,z
-x,-y,-z
loop_
_atom_site_type_symbol
_atom_site_label
_atom_site_fract_x
_atom_site_fract_y
_atom_site_fract_z
Si Si1 0.050340 0.664040 0.700270
Si Si2 0.996889 0.731920 0.922627
Si Si3 0.143192 0.585745 0.305167
Si Si4 0.165159 0.645092 0.514630
Si Si5 0.555349 0.969037 0.944680
Si Si6 0.723845 0.772723 0.333318
Si Si7 0.618252 0.300575 0.354683
O O1 0.221770 0.702102 0.665146
O O2 0.905760 0.504527 0.727673
O O3 0.074690 0.466099 0.897962
O O4 0.000000 0.000000 0.500000
O O5 0.887176 0.008460 0.717427
O O6 0.177175 0.885455 0.874385
O O7 0.000000 0.500000 0.000000
O O8 0.255484 0.336539 0.512663
O O9 0.978553 0.591739 0.323204
O O10 0.253084 0.920016 0.106907
O O11 0.203104 0.493805 0.538073
O O12 0.329325 0.689435 0.559257
O O13 0.458957 0.185492 0.742891
O O14 0.526863 0.609632 0.136341
O O15 0.500000 0.000000 0.000000
O O16 0.500000 0.000000 0.500000
#
# Coordination Sequence:
#
# PCOD8023987 Si02
#       7
#     2   2   2   2   2   2   2
#     4  11  25  43  72  97 132 175 223 278 326 397
#     4  11  23  42  71  99 129 172 223 271 337 390
#     4  10  23  42  68  98 128 169 230 270 328 388
#     4  10  23  44  69  97 131 172 221 281 323 396
#     4  12  25  42  67  98 137 181 217 276 334 395
#     4  11  23  42  68  97 136 171 219 278 330 397
#     4  11  27  45  64 100 138 177 221 273 336 393
#
# _framework density 21.448239999999998
#
# number of rings (size 3 to 8) (size 9 to 14) (size 15 to 20)
#    0.000    1.143    1.429    5.571   10.000    1.143 
#    0.000    0.714    0.000    0.000    0.000    0.000 
#    0.000    0.000    0.000    0.000    0.000    0.000 
#
# Total GULP energy -173586.804260 kJ/mol
# GULP energy per Si atom -12399.057447 kJ/mol
# Density = 2.139942 g / cm^3
# Si number density = 21.448240 Si / 1000 Ang^3
#
#
#
# Elastic Constant Matrix: (Units=GPa)
#
#
# Indices 1 2 3 4 5 6 
#
# 1 77.1184 43.7729 44.2086 -12.6455 7.0507 10.9397
# 2 43.7729 128.9404 48.6514 -8.1791 1.9609 8.0839
# 3 44.2086 48.6514 110.3474 -14.8874 5.8939 -2.8390
# 4 -12.6455 -8.1791 -14.8874 50.6919 0.9168 1.0274
# 5 7.0507 1.9609 5.8939 0.9168 39.3377 -6.4462
# 6 10.9397 8.0839 -2.8390 1.0274 -6.4462 37.4293
#
#
#
# Elastic Compliance Matrix: (Units=1/GPa)
#
#
# Indices 1 2 3 4 5 6 
#
# 1 0.020361 -0.004036 -0.005956 0.002871 -0.003645 -0.006238
# 2 -0.004036 0.010318 -0.003016 -0.000212 0.000471 -0.001191
# 3 -0.005956 -0.003016 0.013122 0.001819 -0.000251 0.003295
# 4 0.002871 -0.000212 0.001819 0.021001 -0.001510 -0.001492
# 5 -0.003645 0.000471 -0.000251 -0.001510 0.027048 0.005644
# 6 -0.006238 -0.001191 0.003295 -0.001492 0.005644 0.030060
#
#
# Mechanical properties :
#
#
# Convention : Reuss Voigt Hill
#
# Bulk Modulus (GPa) = 56.23247 65.51913 60.87580
# Shear Modulus (GPa) = 32.49773 37.47667 34.98720
#
# Velocity S-wave (km/s) = 3.89674 4.18462 4.04324
# Velocity P-wave (km/s) = 6.82062 7.34588 7.08811
#
# Compressibility (1/GPa) = 0.01778332
#
# Stress axis : x y z
#
# Youngs Moduli (GPa) = 49.11232 96.91840 76.20753
#
# Poissons Ratio (x) = 0.39119 0.45392
# Poissons Ratio (y) = 0.19823 0.22988
# Poissons Ratio (z) = 0.29253 0.29235
#
# Static dielectric constant tensor:
#      x y z
#    x 3.805950 0.137630 0.011400 
#    y 0.137630 4.105180 0.104300 
#    z 0.011400 0.104300 3.910150 
# 
# 
# High freq. dielectric constant tensor:
#      x y z
#    x 1.834670 0.008590 0.002370 
#    y 0.008590 1.852920 0.005240 
#    z 0.002370 0.005240 1.851350 
# 
# From -- ./inp_files/159516.got.cif
#   From: 2010.06.25/outbox.cif.g09.slc.cpg/sg2_80_cif.got.tgz:159516.got - 2010.06.27 13:26:56.
