data_PCOD8023560
_publ_section_title
;
Structure prediction by ZEFSAII (Michael W. Deem and Ramdas Pophale) SiO2 
 PCOD8023560
Probable space group: P -1
;
_chemical_formula_sum "Si O2"
_cell_formula_units_Z 14
_cell_length_a 9.998346
_cell_length_b 16.156296
_cell_length_c 12.308960
_cell_angle_alpha 153.773151
_cell_angle_beta 133.869819
_cell_angle_gamma 54.732207
_cell_volume 627.322204
_symmetry_space_group_name_H-M "P -1"
_symmetry_group_IT_number 2
_symmetry_cell_setting 'triclinic'
loop_
_space_group_symop_operation_xyz
x,y,z
-x,-y,-z
loop_
_atom_site_type_symbol
_atom_site_label
_atom_site_fract_x
_atom_site_fract_y
_atom_site_fract_z
Si Si1 0.353525 0.337390 0.778286
Si Si2 0.262008 0.256133 0.042329
Si Si3 0.015171 0.548665 0.192091
Si Si4 0.391425 0.318579 0.423552
Si Si5 0.688190 0.122260 0.303134
Si Si6 0.463372 0.726188 0.981544
Si Si7 0.781953 0.951644 0.825453
O O1 0.291835 0.189088 0.476138
O O2 0.180521 0.428745 0.836768
O O3 0.500000 0.500000 0.000000
O O4 0.442196 0.219992 0.785518
O O5 0.082371 0.365141 0.069087
O O6 0.380281 0.334289 0.305841
O O7 0.381068 0.295446 0.046713
O O8 0.200398 0.028303 0.749825
O O9 0.161594 0.742160 0.526162
O O10 0.000000 0.500000 0.000000
O O11 0.601862 0.267349 0.507637
O O12 0.353488 0.514053 0.686590
O O13 0.248753 0.145974 0.188762
O O14 0.500000 0.000000 0.000000
O O15 0.321366 0.864049 0.024181
O O16 0.000000 0.000000 0.000000
#
# Coordination Sequence:
#
# PCOD8023560 Si02
#       7
#     2   2   2   2   2   2   2
#     4  12  28  53  74 105 159 201 244 307 373 451
#     4  11  24  40  77 112 142 187 244 318 368 429
#     4  12  26  47  74 109 146 192 256 302 367 446
#     4  11  23  42  74 109 147 187 244 308 375 429
#     4  10  23  41  70 108 144 178 238 311 368 423
#     4  12  24  49  75 104 148 205 242 304 384 433
#     4  12  30  47  75 108 149 201 255 302 368 460
#
# _framework density 22.317081000000002
#
# number of rings (size 3 to 8) (size 9 to 14) (size 15 to 20)
#    0.000    0.571    5.714    0.857    8.000    2.286 
#    2.571    0.000    0.000    0.000    0.000    0.000 
#    0.000    0.000    0.000    0.000    0.000    0.000 
#
# Total GULP energy -173493.029206 kJ/mol
# GULP energy per Si atom -12392.359229 kJ/mol
# Density = 2.226629 g / cm^3
# Si number density = 22.317081 Si / 1000 Ang^3
#
#
#
# Elastic Constant Matrix: (Units=GPa)
#
#
# Indices 1 2 3 4 5 6 
#
# 1 125.1651 43.5349 40.2185 10.6495 21.9993 -8.2304
# 2 43.5349 136.2492 47.8292 29.1529 3.2130 -3.8894
# 3 40.2185 47.8292 114.1290 17.0315 5.8949 -5.9055
# 4 10.6495 29.1529 17.0315 42.0836 0.1333 -11.9445
# 5 21.9993 3.2130 5.8949 0.1333 36.5161 2.7887
# 6 -8.2304 -3.8894 -5.9055 -11.9445 2.7887 41.3830
#
#
#
# Elastic Compliance Matrix: (Units=1/GPa)
#
#
# Indices 1 2 3 4 5 6 
#
# 1 0.010800 -0.002534 -0.002413 0.000630 -0.006061 0.002156
# 2 -0.002534 0.010272 -0.002685 -0.005873 0.001207 -0.001698
# 3 -0.002413 -0.002685 0.011044 -0.001914 -0.000109 0.000299
# 4 0.000630 -0.005873 -0.001914 0.030775 -0.000293 0.008203
# 5 -0.006061 0.001207 -0.000109 -0.000293 0.031200 -0.003294
# 6 0.002156 -0.001698 0.000299 0.008203 -0.003294 0.027066
#
#
# Mechanical properties :
#
#
# Convention : Reuss Voigt Hill
#
# Bulk Modulus (GPa) = 59.34577 70.96761 65.15669
# Shear Modulus (GPa) = 35.20161 40.26059 37.73110
#
# Velocity S-wave (km/s) = 3.97588 4.25199 4.11625
# Velocity P-wave (km/s) = 6.90845 7.48162 7.20074
#
# Compressibility (1/GPa) = 0.01685040
#
# Stress axis : x y z
#
# Youngs Moduli (GPa) = 92.59592 97.35581 90.54292
#
# Poissons Ratio (x) = 0.24670 0.21850
# Poissons Ratio (y) = 0.23463 0.24315
# Poissons Ratio (z) = 0.22346 0.26144
#
# Static dielectric constant tensor:
#      x y z
#    x 4.290350 -0.008460 -0.156480 
#    y -0.008460 4.681640 0.488380 
#    z -0.156480 0.488380 4.295730 
# 
# 
# High freq. dielectric constant tensor:
#      x y z
#    x 1.878030 -0.000980 -0.010230 
#    y -0.000980 1.890370 0.019330 
#    z -0.010230 0.019330 1.882220 
# 
# From -- ./inp_files/400191.got.cif
#   From: 2010.06.25/outbox.cif.g09.slc.cpg/sg2_201_cif.got.tgz:400191.got - 2010.06.27 13:26:56.
