data_PCOD8023224
_publ_section_title
;
Structure prediction by ZEFSAII (Michael W. Deem and Ramdas Pophale) SiO2 
 PCOD8023224
Probable space group: P -1
;
_chemical_formula_sum "Si O2"
_cell_formula_units_Z 16
_cell_length_a 13.966817
_cell_length_b 14.617620
_cell_length_c 17.127432
_cell_angle_alpha 40.724023
_cell_angle_beta 24.065919
_cell_angle_gamma 56.294683
_cell_volume 797.343822
_symmetry_space_group_name_H-M "P -1"
_symmetry_group_IT_number 2
_symmetry_cell_setting 'triclinic'
loop_
_space_group_symop_operation_xyz
x,y,z
-x,-y,-z
loop_
_atom_site_type_symbol
_atom_site_label
_atom_site_fract_x
_atom_site_fract_y
_atom_site_fract_z
Si Si1 0.818814 0.402783 0.124003
Si Si2 0.886190 0.608434 0.449993
Si Si3 0.668869 0.857106 0.018482
Si Si4 0.099321 0.820467 0.447766
Si Si5 0.192534 0.439882 0.291554
Si Si6 0.793970 0.810687 0.260235
Si Si7 0.686169 0.657566 0.991752
Si Si8 0.766863 0.679896 0.195712
O O1 0.525209 0.244120 0.465980
O O2 0.781787 0.527869 0.017594
O O3 0.000000 0.500000 0.000000
O O4 0.967938 0.328507 0.014063
O O5 0.905029 0.670637 0.485098
O O6 0.867207 0.729098 0.327560
O O7 0.145334 0.591397 0.244381
O O8 0.611139 0.428949 0.770345
O O9 0.655161 0.726170 0.052384
O O10 0.889673 0.036045 0.706004
O O11 0.390653 0.858344 0.238548
O O12 0.751565 0.814375 0.066906
O O13 0.990809 0.660636 0.579672
O O14 0.903601 0.796432 0.682121
O O15 0.500000 0.500000 0.000000
O O16 0.830384 0.746457 0.192559
O O17 0.000000 0.000000 0.000000
O O18 0.500000 0.500000 0.500000
#
# Coordination Sequence:
#
# PCOD8023224 Si02
#       8
#     2   2   2   2   2   2   2   2
#     4  11  22  41  69  99 122 172 228 263 311 401
#     4  10  23  41  63  89 125 163 214 257 304 387
#     4  11  24  40  59  96 132 156 207 267 318 378
#     4  11  24  38  63  91 127 166 204 260 325 366
#     4  11  22  41  64  89 116 168 213 251 305 378
#     4  11  27  45  64  99 138 170 210 278 335 375
#     4  11  20  40  64  90 128 160 210 263 313 375
#     4  12  23  42  72  96 126 175 222 264 324 394
#
# _framework density 20.066628000000001
#
# number of rings (size 3 to 8) (size 9 to 14) (size 15 to 20)
#    0.000    1.000    5.000    1.875    3.500    0.500 
#    2.250    0.000    0.000    0.000    0.000    0.000 
#    0.000    0.000    0.000    0.000    0.000    0.000 
#
# Total GULP energy -198373.448749 kJ/mol
# GULP energy per Si atom -12398.340547 kJ/mol
# Density = 2.002096 g / cm^3
# Si number density = 20.066628 Si / 1000 Ang^3
#
#
#
# Elastic Constant Matrix: (Units=GPa)
#
#
# Indices 1 2 3 4 5 6 
#
# 1 84.4459 24.8703 27.7339 2.8514 6.0903 -3.4402
# 2 24.8703 85.2289 50.1934 11.4724 0.0309 -8.1982
# 3 27.7339 50.1934 132.6848 8.2492 -0.3504 -5.6773
# 4 2.8514 11.4724 8.2492 39.2796 0.7382 0.5821
# 5 6.0903 0.0309 -0.3504 0.7382 32.2585 -1.9579
# 6 -3.4402 -8.1982 -5.6773 0.5821 -1.9579 41.1082
#
#
#
# Elastic Compliance Matrix: (Units=1/GPa)
#
#
# Indices 1 2 3 4 5 6 
#
# 1 0.013452 -0.002934 -0.001719 0.000287 -0.002551 0.000178
# 2 -0.002934 0.016392 -0.005265 -0.003517 0.000706 0.002380
# 3 -0.001719 -0.005265 0.009925 -0.000433 0.000460 0.000205
# 4 0.000287 -0.003517 -0.000433 0.026587 -0.000734 -0.001149
# 5 -0.002551 0.000706 0.000460 -0.000734 0.031594 0.001506
# 6 0.000178 0.002380 0.000205 -0.001149 0.001506 0.024932
#
#
# Mechanical properties :
#
#
# Convention : Reuss Voigt Hill
#
# Bulk Modulus (GPa) = 50.16817 56.43941 53.30379
# Shear Modulus (GPa) = 33.47578 35.83341 34.65460
#
# Velocity S-wave (km/s) = 4.08883 4.23036 4.16020
# Velocity P-wave (km/s) = 6.88088 7.21446 7.04964
#
# Compressibility (1/GPa) = 0.01993296
#
# Stress axis : x y z
#
# Youngs Moduli (GPa) = 74.33845 61.00445 100.75827
#
# Poissons Ratio (x) = 0.17896 0.17320
# Poissons Ratio (y) = 0.21808 0.53054
# Poissons Ratio (z) = 0.12778 0.32122
#
# Static dielectric constant tensor:
#      x y z
#    x 3.790130 -0.027830 0.023890 
#    y -0.027830 3.592830 0.114520 
#    z 0.023890 0.114520 3.878860 
# 
# 
# High freq. dielectric constant tensor:
#      x y z
#    x 1.797080 -0.002260 0.005900 
#    y -0.002260 1.778220 0.018060 
#    z 0.005900 0.018060 1.785700 
# 
# From -- ./inp_files/364961.got.cif
#   From: 2010.06.25/outbox.cif.g09.slc.cpg/sg2_183_cif.got.tgz:364961.got - 2010.06.27 13:26:56.
