data_PCOD8023886
_publ_section_title
;
Structure prediction by ZEFSAII (Michael W. Deem and Ramdas Pophale) SiO2 
 PCOD8023886
Probable space group: P -1
;
_chemical_formula_sum "Si O2"
_cell_formula_units_Z 12
_cell_length_a 12.446024
_cell_length_b 8.058382
_cell_length_c 9.867008
_cell_angle_alpha 60.648191
_cell_angle_beta 37.868363
_cell_angle_gamma 59.873643
_cell_volume 517.122621
_symmetry_space_group_name_H-M "P -1"
_symmetry_group_IT_number 2
_symmetry_cell_setting 'triclinic'
loop_
_space_group_symop_operation_xyz
x,y,z
-x,-y,-z
loop_
_atom_site_type_symbol
_atom_site_label
_atom_site_fract_x
_atom_site_fract_y
_atom_site_fract_z
Si Si1 0.421046 0.071450 0.192454
Si Si2 0.546924 0.289220 0.191193
Si Si3 0.270075 0.899347 0.657103
Si Si4 0.292283 0.488362 0.735311
Si Si5 0.209744 0.417974 0.131499
Si Si6 0.832189 0.666023 0.352657
O O1 0.574438 0.158775 0.080572
O O2 0.238172 0.229942 0.274991
O O3 0.370144 0.913394 0.408571
O O4 0.500000 0.000000 0.000000
O O5 0.590437 0.159504 0.335362
O O6 0.332937 0.373698 0.378983
O O7 0.658406 0.451489 0.994687
O O8 0.179394 0.711530 0.797083
O O9 0.145140 0.107565 0.742528
O O10 0.500000 0.500000 0.500000
O O11 0.197559 0.396267 0.746814
O O12 0.274348 0.357793 0.937028
O O13 0.005153 0.528147 0.299406
#
# Coordination Sequence:
#
# PCOD8023886 Si02
#       6
#     2   2   2   2   2   2
#     4  11  23  39  66  97 131 163 215 266 321 380
#     4  10  23  43  68  89 128 176 210 259 322 377
#     4  10  23  42  67  94 123 180 211 255 325 376
#     4  11  21  40  68  94 130 170 215 260 318 381
#     4  11  24  40  64 100 122 172 213 263 326 368
#     4  11  22  41  68  91 135 162 219 265 310 386
#
# _framework density 23.205328999999999
#
# number of rings (size 3 to 8) (size 9 to 14) (size 15 to 20)
#    0.000    1.333    3.333    4.000    2.333    5.333 
#    3.000    0.833    0.000    0.000    0.000    0.000 
#    0.000    0.000    0.000    0.000    0.000    0.000 
#
# Total GULP energy -148667.880072 kJ/mol
# GULP energy per Si atom -12388.990006 kJ/mol
# Density = 2.315251 g / cm^3
# Si number density = 23.205329 Si / 1000 Ang^3
#
#
#
# Elastic Constant Matrix: (Units=GPa)
#
#
# Indices 1 2 3 4 5 6 
#
# 1 105.1339 49.4527 41.3257 1.9479 23.8074 15.4082
# 2 49.4527 88.4850 19.3219 4.3348 15.3194 1.3928
# 3 41.3257 19.3219 53.4263 -1.4536 21.1123 -10.9171
# 4 1.9479 4.3348 -1.4536 31.0250 1.7606 4.2369
# 5 23.8074 15.3194 21.1123 1.7606 45.3772 11.4225
# 6 15.4082 1.3928 -10.9171 4.2369 11.4225 54.7066
#
#
#
# Elastic Compliance Matrix: (Units=1/GPa)
#
#
# Indices 1 2 3 4 5 6 
#
# 1 0.020214 -0.008125 -0.015003 0.000287 0.001316 -0.008777
# 2 -0.008125 0.015889 0.002238 -0.001863 -0.002843 0.003068
# 3 -0.015003 0.002238 0.038261 0.001231 -0.014440 0.014724
# 4 0.000287 -0.001863 0.001231 0.032874 -0.000826 -0.002161
# 5 0.001316 -0.002843 -0.014440 -0.000826 0.031497 -0.009692
# 6 -0.008777 0.003068 0.014724 -0.002161 -0.009692 0.025803
#
#
# Mechanical properties :
#
#
# Convention : Reuss Voigt Hill
#
# Bulk Modulus (GPa) = 30.69018 51.91619 41.30319
# Shear Modulus (GPa) = 23.02262 35.35142 29.18702
#
# Velocity S-wave (km/s) = 3.15322 3.90733 3.55036
# Velocity P-wave (km/s) = 5.14891 6.54045 5.88595
#
# Compressibility (1/GPa) = 0.03258371
#
# Stress axis : x y z
#
# Youngs Moduli (GPa) = 49.47120 62.93831 26.13618
#
# Poissons Ratio (x) = 0.51136 0.39212
# Poissons Ratio (y) = 0.40194 -0.05849
# Poissons Ratio (z) = 0.74222 -0.14086
#
# Static dielectric constant tensor:
#      x y z
#    x 4.361450 0.146490 0.317690 
#    y 0.146490 4.672580 0.051270 
#    z 0.317690 0.051270 3.894430 
# 
# 
# High freq. dielectric constant tensor:
#      x y z
#    x 1.925870 0.006870 0.029230 
#    y 0.006870 1.921490 0.001760 
#    z 0.029230 0.001760 1.899890 
# 
# From -- ./inp_files/147094.got.cif
#   From: 2010.06.25/outbox.cif.g09.slc.cpg/sg2_74_cif.got.tgz:147094.got - 2010.06.27 13:26:56.
