data_PCOD8023521
_publ_section_title
;
Structure prediction by ZEFSAII (Michael W. Deem and Ramdas Pophale) SiO2 
 PCOD8023521
Probable space group: P -1
;
_chemical_formula_sum "Si O2"
_cell_formula_units_Z 12
_cell_length_a 12.738171
_cell_length_b 5.725944
_cell_length_c 14.952637
_cell_angle_alpha 111.626177
_cell_angle_beta 151.085656
_cell_angle_gamma 64.194698
_cell_volume 474.534229
_symmetry_space_group_name_H-M "P -1"
_symmetry_group_IT_number 2
_symmetry_cell_setting 'triclinic'
loop_
_space_group_symop_operation_xyz
x,y,z
-x,-y,-z
loop_
_atom_site_type_symbol
_atom_site_label
_atom_site_fract_x
_atom_site_fract_y
_atom_site_fract_z
Si Si1 0.038619 0.759845 0.604474
Si Si2 0.335062 0.023339 0.767677
Si Si3 0.838993 0.501714 0.172671
Si Si4 0.867036 0.331983 0.725424
Si Si5 0.439175 0.142133 0.380442
Si Si6 0.273536 0.955915 0.055956
O O1 0.834892 0.977586 0.441937
O O2 0.000000 0.500000 0.500000
O O3 0.021883 0.742837 0.697194
O O4 0.281378 0.810164 0.765714
O O5 0.315192 0.292981 0.845396
O O6 0.584272 0.940970 0.901343
O O7 0.998110 0.652130 0.262810
O O8 0.710942 0.352170 0.987875
O O9 0.654652 0.233229 0.521898
O O10 0.779787 0.617789 0.742318
O O11 0.022563 0.142703 0.887511
O O12 0.377378 0.958983 0.232324
O O13 0.500000 0.000000 0.500000
#
# Coordination Sequence:
#
# PCOD8023521 Si02
#       6
#     2   2   2   2   2   2
#     4   9  21  40  67 102 148 195 241 286 349 434
#     4  10  23  41  69 109 151 192 240 291 358 438
#     4  11  24  43  71 109 151 189 243 293 360 441
#     4  11  27  48  73 107 147 184 249 310 364 429
#     4  11  28  52  77 101 140 193 251 308 370 429
#     4  12  27  44  77 107 148 193 239 304 368 432
#
# _framework density 25.287955
#
# number of rings (size 3 to 8) (size 9 to 14) (size 15 to 20)
#    0.000    1.333    0.000    3.000   11.667   10.667 
#    0.000    0.000    0.000    0.000    0.000    0.000 
#    0.000    0.000    0.000    0.000    0.000    0.000 
#
# Total GULP energy -148764.675389 kJ/mol
# GULP energy per Si atom -12397.056282 kJ/mol
# Density = 2.523040 g / cm^3
# Si number density = 25.287955 Si / 1000 Ang^3
#
#
#
# Elastic Constant Matrix: (Units=GPa)
#
#
# Indices 1 2 3 4 5 6 
#
# 1 108.6103 31.7782 48.6236 2.3005 -17.9366 -1.3308
# 2 31.7782 92.4615 41.9790 9.2410 -12.3486 -3.4744
# 3 48.6236 41.9790 102.5025 0.7953 -23.1534 -16.1519
# 4 2.3005 9.2410 0.7953 39.8614 -10.8275 -3.0021
# 5 -17.9366 -12.3486 -23.1534 -10.8275 45.4267 2.2303
# 6 -1.3308 -3.4744 -16.1519 -3.0021 2.2303 45.1265
#
#
#
# Elastic Compliance Matrix: (Units=1/GPa)
#
#
# Indices 1 2 3 4 5 6 
#
# 1 0.012216 -0.001810 -0.004858 0.000231 0.001989 -0.001601
# 2 -0.001810 0.013979 -0.005039 -0.003161 -0.000188 -0.000982
# 3 -0.004858 -0.005039 0.016134 0.002981 0.005392 0.005176
# 4 0.000231 -0.003161 0.002981 0.027902 0.007288 0.002326
# 5 0.001989 -0.000188 0.005392 0.007288 0.027178 0.001116
# 6 -0.001601 -0.000982 0.005176 0.002326 0.001116 0.023989
#
#
# Mechanical properties :
#
#
# Convention : Reuss Voigt Hill
#
# Bulk Modulus (GPa) = 52.86986 60.92622 56.89804
# Shear Modulus (GPa) = 33.08672 38.16248 35.62460
#
# Velocity S-wave (km/s) = 3.62110 3.88895 3.75741
# Velocity P-wave (km/s) = 6.19965 6.65662 6.43219
#
# Compressibility (1/GPa) = 0.01891437
#
# Stress axis : x y z
#
# Youngs Moduli (GPa) = 81.86115 71.53498 61.97945
#
# Poissons Ratio (x) = 0.12951 0.30110
# Poissons Ratio (y) = 0.14821 0.31231
# Poissons Ratio (z) = 0.39769 0.36046
#
# Static dielectric constant tensor:
#      x y z
#    x 4.852740 0.248860 -0.398150 
#    y 0.248860 4.587220 -0.143470 
#    z -0.398150 -0.143470 5.153350 
# 
# 
# High freq. dielectric constant tensor:
#      x y z
#    x 2.004340 0.005980 -0.004310 
#    y 0.005980 2.009050 0.011480 
#    z -0.004310 0.011480 2.018720 
# 
# From -- ./inp_files/511219.got.cif
#   From: 2010.06.25/outbox.cif.g09.slc.cpg/sg2_256_cif.got.tgz:511219.got - 2010.06.27 13:26:56.
