data_PCOD8023031
_publ_section_title
;
Structure prediction by ZEFSAII (Michael W. Deem and Ramdas Pophale) SiO2 
 PCOD8023031
Probable space group: P -1
;
_chemical_formula_sum "Si O2"
_cell_formula_units_Z 12
_cell_length_a 18.213433
_cell_length_b 8.786878
_cell_length_c 4.855287
_cell_angle_alpha 87.893217
_cell_angle_beta 72.990239
_cell_angle_gamma 136.779781
_cell_volume 470.319030
_symmetry_space_group_name_H-M "P -1"
_symmetry_group_IT_number 2
_symmetry_cell_setting 'triclinic'
loop_
_space_group_symop_operation_xyz
x,y,z
-x,-y,-z
loop_
_atom_site_type_symbol
_atom_site_label
_atom_site_fract_x
_atom_site_fract_y
_atom_site_fract_z
Si Si1 0.323868 0.337781 0.857846
Si Si2 0.315419 0.642535 0.069151
Si Si3 0.572578 0.001352 0.626066
Si Si4 0.536543 0.741238 0.209549
Si Si5 0.086253 0.467272 0.208023
Si Si6 0.920462 0.202613 0.885434
O O1 0.401448 0.511092 0.496875
O O2 0.397859 0.317046 0.930864
O O3 0.300327 0.437586 0.095673
O O4 0.192635 0.080651 0.923936
O O5 0.206167 0.551382 0.026653
O O6 0.328866 0.732333 0.360634
O O7 0.436754 0.874673 0.732812
O O8 0.617837 0.958206 0.336182
O O9 0.525509 0.818132 0.936716
O O10 0.125619 0.704067 0.184357
O O11 0.019426 0.292240 0.556507
O O12 0.988608 0.311913 0.088465
#
# Coordination Sequence:
#
# PCOD8023031 Si02
#       6
#     2   2   2   2   2   2
#     4  10  23  40  65  96 126 159 206 260 308 357
#     4  10  23  40  65  96 126 159 206 260 308 357
#     4  10  23  42  64  91 127 168 203 245 308 376
#     4  10  23  42  64  91 127 168 203 245 308 376
#     4  10  23  42  63  87 120 165 208 248 304 371
#     4  10  23  42  63  87 120 165 208 248 304 371
#
# _framework density 25.514596000000001
#
# number of rings (size 3 to 8) (size 9 to 14) (size 15 to 20)
#    0.000    2.000    0.000    1.000    0.000   25.333 
#    0.000    0.000    0.000    0.000    0.000    0.000 
#    0.000    0.000    0.000    0.000    0.000    0.000 
#
# Total GULP energy -148779.825381 kJ/mol
# GULP energy per Si atom -12398.318782 kJ/mol
# Density = 2.545652 g / cm^3
# Si number density = 25.514596 Si / 1000 Ang^3
#
#
#
# Elastic Constant Matrix: (Units=GPa)
#
#
# Indices 1 2 3 4 5 6 
#
# 1 167.5914 44.6812 95.1932 5.8434 -15.1693 17.8330
# 2 44.6812 161.0832 -3.2693 -18.7246 -13.0259 -38.5026
# 3 95.1932 -3.2693 166.1115 4.8437 17.5702 37.7212
# 4 5.8434 -18.7246 4.8437 26.3903 2.5355 1.9839
# 5 -15.1693 -13.0259 17.5702 2.5355 34.2642 7.8117
# 6 17.8330 -38.5026 37.7212 1.9839 7.8117 65.5275
#
#
#
# Elastic Compliance Matrix: (Units=1/GPa)
#
#
# Indices 1 2 3 4 5 6 
#
# 1 0.012529 -0.004060 -0.007504 -0.004941 0.008757 -0.002370
# 2 -0.004060 0.009569 0.001005 0.007108 -0.000569 0.006002
# 3 -0.007504 0.001005 0.011936 0.001238 -0.008406 -0.003274
# 4 -0.004941 0.007108 0.001238 0.043914 -0.004279 0.003989
# 5 0.008757 -0.000569 -0.008406 -0.004279 0.037992 -0.002278
# 6 -0.002370 0.006002 -0.003274 0.003989 -0.002278 0.021468
#
#
# Mechanical properties :
#
#
# Convention : Reuss Voigt Hill
#
# Bulk Modulus (GPa) = 77.41699 85.33293 81.37496
# Shear Modulus (GPa) = 30.70679 49.11512 39.91095
#
# Velocity S-wave (km/s) = 3.47291 4.39222 3.95934
# Velocity P-wave (km/s) = 6.81833 7.69672 7.27080
#
# Compressibility (1/GPa) = 0.01291706
#
# Stress axis : x y z
#
# Youngs Moduli (GPa) = 79.81800 104.50071 83.77776
#
# Poissons Ratio (x) = 0.42429 0.62863
# Poissons Ratio (y) = 0.32408 -0.08421
# Poissons Ratio (z) = 0.59892 -0.10504
#
# Static dielectric constant tensor:
#      x y z
#    x 31.580160 -1.237280 25.541970 
#    y -1.237280 4.835180 -0.850670 
#    z 25.541970 -0.850670 28.700280 
# 
# 
# High freq. dielectric constant tensor:
#      x y z
#    x 2.033940 -0.007720 0.014260 
#    y -0.007720 2.023710 0.004490 
#    z 0.014260 0.004490 2.022480 
# 
# From -- ./inp_files/103923.got.cif
#   From: 2010.06.25/outbox.cif.g09.slc.cpg/sg2_52_cif.got.tgz:103923.got - 2010.06.27 13:26:56.
