data_PCOD8023702
_publ_section_title
;
Structure prediction by ZEFSAII (Michael W. Deem and Ramdas Pophale) SiO2 
 PCOD8023702
Probable space group: P -1
;
_chemical_formula_sum "Si O2"
_cell_formula_units_Z 16
_cell_length_a 11.210865
_cell_length_b 8.672382
_cell_length_c 14.104892
_cell_angle_alpha 137.915919
_cell_angle_beta 77.319861
_cell_angle_gamma 120.204819
_cell_volume 765.781020
_symmetry_space_group_name_H-M "P -1"
_symmetry_group_IT_number 2
_symmetry_cell_setting 'triclinic'
loop_
_space_group_symop_operation_xyz
x,y,z
-x,-y,-z
loop_
_atom_site_type_symbol
_atom_site_label
_atom_site_fract_x
_atom_site_fract_y
_atom_site_fract_z
Si Si1 0.667159 0.215537 0.566073
Si Si2 0.121678 0.811550 0.623646
Si Si3 0.967133 0.763867 0.179649
Si Si4 0.627659 0.643130 0.675433
Si Si5 0.123946 0.803412 0.355111
Si Si6 0.691026 0.614691 0.436162
Si Si7 0.818024 0.184343 0.977309
Si Si8 0.157402 0.687439 0.757388
O O1 0.742402 0.124379 0.433876
O O2 0.692143 0.504659 0.666034
O O3 0.743622 0.242887 0.667158
O O4 0.500000 0.000000 0.500000
O O5 0.167908 0.878523 0.756611
O O6 0.000000 0.500000 0.500000
O O7 0.067057 0.006110 0.686343
O O8 0.076034 0.753305 0.231675
O O9 0.043957 0.816535 0.088806
O O10 0.825167 0.463063 0.074129
O O11 0.692786 0.681203 0.576924
O O12 0.457261 0.459860 0.620319
O O13 0.674208 0.931886 0.844679
O O14 0.992569 0.602090 0.354046
O O15 0.182214 0.116183 0.513756
O O16 0.714524 0.368891 0.303915
O O17 0.822573 0.156293 0.077094
#
# Coordination Sequence:
#
# PCOD8023702 Si02
#       8
#     2   2   2   2   2   2   2   2
#     4  12  25  40  65 102 134 167 217 280 335 379
#     4  12  23  42  69  98 135 169 223 284 325 387
#     4  10  23  42  64  95 134 174 219 271 329 389
#     4  11  23  43  66  92 133 177 217 269 331 397
#     4  11  22  37  65  97 125 170 215 274 322 383
#     4  11  22  40  68  94 130 171 226 275 320 391
#     4  10  23  42  63  97 132 178 217 265 334 405
#     4  11  24  39  66 101 127 174 220 271 337 388
#
# _framework density 20.893702999999999
#
# number of rings (size 3 to 8) (size 9 to 14) (size 15 to 20)
#    0.000    1.000    5.000    1.875    3.500    1.000 
#    4.500    0.000    0.000    1.500    0.000    0.000 
#    0.000    0.000    0.000    0.000    0.000    0.000 
#
# Total GULP energy -198365.964604 kJ/mol
# GULP energy per Si atom -12397.872788 kJ/mol
# Density = 2.084615 g / cm^3
# Si number density = 20.893703 Si / 1000 Ang^3
#
#
#
# Elastic Constant Matrix: (Units=GPa)
#
#
# Indices 1 2 3 4 5 6 
#
# 1 114.4847 47.0948 46.2152 -4.7819 -4.1031 -16.0619
# 2 47.0948 92.5237 55.4974 -8.7168 6.3406 -4.9943
# 3 46.2152 55.4974 120.1289 2.0106 1.6560 -8.6468
# 4 -4.7819 -8.7168 2.0106 38.7985 -4.1403 -2.3847
# 5 -4.1031 6.3406 1.6560 -4.1403 21.3424 -0.3732
# 6 -16.0619 -4.9943 -8.6468 -2.3847 -0.3732 40.8280
#
#
#
# Elastic Compliance Matrix: (Units=1/GPa)
#
#
# Indices 1 2 3 4 5 6 
#
# 1 0.012450 -0.004915 -0.002318 0.001255 0.004346 0.003919
# 2 -0.004915 0.017702 -0.006338 0.003092 -0.005129 -0.000977
# 3 -0.002318 -0.006338 0.012237 -0.002290 0.000057 0.000771
# 4 0.001255 0.003092 -0.002290 0.027384 0.004848 0.002031
# 5 0.004346 -0.005129 0.000057 0.004848 0.050183 0.001836
# 6 0.003919 -0.000977 0.000771 0.002031 0.001836 0.026214
#
#
# Mechanical properties :
#
#
# Convention : Reuss Voigt Hill
#
# Bulk Modulus (GPa) = 65.58738 69.41689 67.50213
# Shear Modulus (GPa) = 28.02763 32.08245 30.05504
#
# Velocity S-wave (km/s) = 3.66654 3.92281 3.79684
# Velocity P-wave (km/s) = 7.02736 7.33579 7.18323
#
# Compressibility (1/GPa) = 0.01524684
#
# Stress axis : x y z
#
# Youngs Moduli (GPa) = 80.31932 56.49169 81.71627
#
# Poissons Ratio (x) = 0.27765 0.18942
# Poissons Ratio (y) = 0.39476 0.51795
# Poissons Ratio (z) = 0.18618 0.35807
#
# Static dielectric constant tensor:
#      x y z
#    x 3.746980 -0.178130 0.093770 
#    y -0.178130 4.067850 0.016450 
#    z 0.093770 0.016450 3.625060 
# 
# 
# High freq. dielectric constant tensor:
#      x y z
#    x 1.806280 -0.008040 0.004720 
#    y -0.008040 1.832740 -0.000910 
#    z 0.004720 -0.000910 1.802260 
# 
# From -- ./inp_files/516385.got.cif
#   From: 2010.06.25/outbox.cif.g09.slc.cpg/sg2_259_cif.got.tgz:516385.got - 2010.06.27 13:26:56.
