data_PCOD8023790
_publ_section_title
;
Structure prediction by ZEFSAII (Michael W. Deem and Ramdas Pophale) SiO2 
 PCOD8023790
Probable space group: P -1
;
_chemical_formula_sum "Si O2"
_cell_formula_units_Z 16
_cell_length_a 14.315559
_cell_length_b 12.214957
_cell_length_c 11.908276
_cell_angle_alpha 98.202385
_cell_angle_beta 160.235505
_cell_angle_gamma 85.011058
_cell_volume 689.950582
_symmetry_space_group_name_H-M "P -1"
_symmetry_group_IT_number 2
_symmetry_cell_setting 'triclinic'
loop_
_space_group_symop_operation_xyz
x,y,z
-x,-y,-z
loop_
_atom_site_type_symbol
_atom_site_label
_atom_site_fract_x
_atom_site_fract_y
_atom_site_fract_z
Si Si1 0.340039 0.246902 0.267622
Si Si2 0.249898 0.751072 0.751173
Si Si3 0.827369 0.429394 0.201404
Si Si4 0.309518 0.061409 0.372652
Si Si5 0.702321 0.454197 0.380423
Si Si6 0.851867 0.384877 0.770237
Si Si7 0.892985 0.888056 0.223070
Si Si8 0.556514 0.965609 0.223094
O O1 0.327898 0.187217 0.365972
O O2 0.641174 0.322815 0.614567
O O3 0.305823 0.163808 0.110638
O O4 0.084650 0.314650 0.982595
O O5 0.169338 0.700491 0.777841
O O6 0.358489 0.651171 0.788681
O O7 0.983870 0.792867 0.394435
O O8 0.496834 0.854058 0.063403
O O9 0.000000 0.500000 0.500000
O O10 0.993829 0.468580 0.280667
O O11 0.517652 0.459506 0.861943
O O12 0.418650 0.065556 0.623295
O O13 0.500000 0.000000 0.500000
O O14 0.000000 0.000000 0.000000
O O15 0.668200 0.402633 0.457239
O O16 0.000000 0.500000 0.000000
O O17 0.163052 0.961223 0.488200
O O18 0.705269 0.967474 0.087329
#
# Coordination Sequence:
#
# PCOD8023790 Si02
#       8
#     2   2   2   2   2   2   2   2
#     4  12  24  46  73  98 134 184 221 275 348 394
#     4  11  25  42  69 100 140 175 222 277 338 388
#     4  10  23  42  65  97 127 179 224 263 336 404
#     4  12  23  44  69  95 135 178 227 274 325 395
#     4  11  24  44  69  94 138 176 220 276 337 402
#     4  12  27  45  71 104 132 172 231 282 335 403
#     4  12  25  44  69  99 137 177 228 267 338 402
#     4  12  26  43  66 105 134 178 226 277 322 403
#
# _framework density 23.190066000000002
#
# number of rings (size 3 to 8) (size 9 to 14) (size 15 to 20)
#    0.000    0.500    3.750    4.875    1.750    6.000 
#    0.000    0.000    0.000    0.000    0.000    0.000 
#    0.000    0.000    0.000    0.000    0.000    0.000 
#
# Total GULP energy -198393.791035 kJ/mol
# GULP energy per Si atom -12399.611940 kJ/mol
# Density = 2.313728 g / cm^3
# Si number density = 23.190066 Si / 1000 Ang^3
#
#
#
# Elastic Constant Matrix: (Units=GPa)
#
#
# Indices 1 2 3 4 5 6 
#
# 1 78.9207 45.0685 33.5684 13.2560 16.4337 6.3253
# 2 45.0685 133.3951 52.4418 1.7443 5.9209 23.4830
# 3 33.5684 52.4418 117.3153 -5.5391 14.7196 13.7997
# 4 13.2560 1.7443 -5.5391 44.0749 12.5253 -6.1344
# 5 16.4337 5.9209 14.7196 12.5253 47.2780 -0.8020
# 6 6.3253 23.4830 13.7997 -6.1344 -0.8020 40.0339
#
#
#
# Elastic Compliance Matrix: (Units=1/GPa)
#
#
# Indices 1 2 3 4 5 6 
#
# 1 0.018130 -0.004829 -0.002811 -0.004566 -0.003609 0.000165
# 2 -0.004829 0.011182 -0.003249 -0.000431 0.001324 -0.004716
# 3 -0.002811 -0.003249 0.011445 0.003107 -0.003023 -0.001180
# 4 -0.004566 -0.000431 0.003107 0.026819 -0.006366 0.003885
# 5 -0.003609 0.001324 -0.003023 -0.006366 0.024874 0.000359
# 6 0.000165 -0.004716 -0.001180 0.003885 0.000359 0.028728
#
#
# Mechanical properties :
#
#
# Convention : Reuss Voigt Hill
#
# Bulk Modulus (GPa) = 52.68815 65.75429 59.22122
# Shear Modulus (GPa) = 33.49345 39.51419 36.50382
#
# Velocity S-wave (km/s) = 3.80452 4.13234 3.97182
# Velocity P-wave (km/s) = 6.48603 7.15433 6.82836
#
# Compressibility (1/GPa) = 0.01897960
#
# Stress axis : x y z
#
# Youngs Moduli (GPa) = 55.15802 89.42663 87.37241
#
# Poissons Ratio (x) = 0.43187 0.24560
# Poissons Ratio (y) = 0.26638 0.28383
# Poissons Ratio (z) = 0.15505 0.29050
#
# Static dielectric constant tensor:
#      x y z
#    x 4.780240 0.528060 0.180380 
#    y 0.528060 3.909880 0.456070 
#    z 0.180380 0.456070 4.010800 
# 
# 
# High freq. dielectric constant tensor:
#      x y z
#    x 1.916050 0.020640 0.003540 
#    y 0.020640 1.928990 -0.008670 
#    z 0.003540 -0.008670 1.921370 
# 
# From -- ./inp_files/452429.got.cif
#   From: 2010.06.25/outbox.cif.g09.slc.cpg/sg2_227_cif.got.tgz:452429.got - 2010.06.27 13:26:56.
