data_PCOD8023616
_publ_section_title
;
Structure prediction by ZEFSAII (Michael W. Deem and Ramdas Pophale) SiO2 
 PCOD8023616
Probable space group: P -1
;
_chemical_formula_sum "Si O2"
_cell_formula_units_Z 10
_cell_length_a 14.556798
_cell_length_b 5.135854
_cell_length_c 14.082050
_cell_angle_alpha 95.365133
_cell_angle_beta 19.980215
_cell_angle_gamma 95.934222
_cell_volume 357.787445
_symmetry_space_group_name_H-M "P -1"
_symmetry_group_IT_number 2
_symmetry_cell_setting 'triclinic'
loop_
_space_group_symop_operation_xyz
x,y,z
-x,-y,-z
loop_
_atom_site_type_symbol
_atom_site_label
_atom_site_fract_x
_atom_site_fract_y
_atom_site_fract_z
Si Si1 0.165059 0.899628 0.120603
Si Si2 0.237929 0.817109 0.246553
Si Si3 0.818396 0.744299 0.184712
Si Si4 0.509535 0.426066 0.333084
Si Si5 0.685459 0.262788 0.629734
O O1 0.196015 0.702886 0.176315
O O2 0.225066 0.721627 0.964703
O O3 0.878788 0.034448 0.399487
O O4 0.385199 0.138262 0.920083
O O5 0.243731 0.623159 0.327240
O O6 0.000000 0.000000 0.500000
O O7 0.500000 0.000000 0.000000
O O8 0.605080 0.693850 0.303979
O O9 0.656196 0.768017 0.441440
O O10 0.000000 0.500000 0.000000
O O11 0.000000 0.000000 0.000000
O O12 0.311041 0.497029 0.440572
#
# Coordination Sequence:
#
# PCOD8023616 Si02
#       5
#     2   2   2   2   2
#     4  10  23  41  72 107 155 196 255 307 378 456
#     4   8  16  37  62 103 149 200 238 306 368 446
#     4  11  30  53  79 108 158 198 260 332 408 464
#     4  11  28  45  76 114 144 203 260 319 388 470
#     4  10  23  41  72 107 155 196 255 307 378 456
#
# _framework density 27.949558
#
# number of rings (size 3 to 8) (size 9 to 14) (size 15 to 20)
#    0.000    2.000    0.000    0.000   11.200    2.400 
#    0.000    3.000    0.000   14.400    0.000    4.200 
#    0.000    0.000    0.000    0.000    0.000    0.000 
#
# Total GULP energy -123934.593854 kJ/mol
# GULP energy per Si atom -12393.459385 kJ/mol
# Density = 2.788594 g / cm^3
# Si number density = 27.949558 Si / 1000 Ang^3
#
#
#
# Elastic Constant Matrix: (Units=GPa)
#
#
# Indices 1 2 3 4 5 6 
#
# 1 148.9832 36.0795 35.8838 -5.5659 38.7530 -17.8529
# 2 36.0795 102.6817 31.9993 -14.0612 17.3416 -9.9695
# 3 35.8838 31.9993 130.1391 -7.3993 16.9864 -9.6235
# 4 -5.5659 -14.0612 -7.3993 34.6622 -9.0522 -1.1810
# 5 38.7530 17.3416 16.9864 -9.0522 51.7909 4.4125
# 6 -17.8529 -9.9695 -9.6235 -1.1810 4.4125 27.5528
#
#
#
# Elastic Compliance Matrix: (Units=1/GPa)
#
#
# Indices 1 2 3 4 5 6 
#
# 1 0.010001 -0.001417 -0.000991 -0.000886 -0.007416 0.006771
# 2 -0.001417 0.011982 -0.001842 0.003841 -0.001954 0.003252
# 3 -0.000991 -0.001842 0.008806 0.000627 -0.001595 0.002049
# 4 -0.000886 0.003841 0.000627 0.031647 0.004562 0.001660
# 5 -0.007416 -0.001954 -0.001595 0.004562 0.027710 -0.010311
# 6 0.006771 0.003252 0.002049 0.001660 -0.010311 0.044296
#
#
# Mechanical properties :
#
#
# Convention : Reuss Voigt Hill
#
# Bulk Modulus (GPa) = 44.86354 65.52546 55.19450
# Shear Modulus (GPa) = 33.25083 41.32394 37.28739
#
# Velocity S-wave (km/s) = 3.45291 3.84932 3.65649
# Velocity P-wave (km/s) = 5.65537 6.57658 6.13330
#
# Compressibility (1/GPa) = 0.02228982
#
# Stress axis : x y z
#
# Youngs Moduli (GPa) = 99.98728 83.45690 113.56469
#
# Poissons Ratio (x) = 0.11824 0.11255
# Poissons Ratio (y) = 0.14166 0.20916
# Poissons Ratio (z) = 0.09909 0.15371
#
# Static dielectric constant tensor:
#      x y z
#    x 7.466800 -0.558340 0.571080 
#    y -0.558340 4.317620 -0.076130 
#    z 0.571080 -0.076130 5.511540 
# 
# 
# High freq. dielectric constant tensor:
#      x y z
#    x 2.156200 -0.013490 0.005780 
#    y -0.013490 2.089780 -0.003290 
#    z 0.005780 -0.003290 2.156730 
# 
# From -- ./inp_files/2836.got.cif
#   From: 2010.06.25/outbox.cif.g09.slc.cpg/sg2_2_cif.got.tgz:2836.got - 2010.06.27 13:26:56.
