data_PCOD8023158
_publ_section_title
;
Structure prediction by ZEFSAII (Michael W. Deem and Ramdas Pophale) SiO2 
 PCOD8023158
Probable space group: P -1
;
_chemical_formula_sum "Si O2"
_cell_formula_units_Z 14
_cell_length_a 9.236981
_cell_length_b 12.193643
_cell_length_c 11.920238
_cell_angle_alpha 123.457157
_cell_angle_beta 131.412492
_cell_angle_gamma 38.843552
_cell_volume 629.665518
_symmetry_space_group_name_H-M "P -1"
_symmetry_group_IT_number 2
_symmetry_cell_setting 'triclinic'
loop_
_space_group_symop_operation_xyz
x,y,z
-x,-y,-z
loop_
_atom_site_type_symbol
_atom_site_label
_atom_site_fract_x
_atom_site_fract_y
_atom_site_fract_z
Si Si1 0.102297 0.092492 0.559828
Si Si2 0.811592 0.628436 0.571761
Si Si3 0.328235 0.272648 0.051151
Si Si4 0.937421 0.431560 0.754051
Si Si5 0.841377 0.922145 0.053802
Si Si6 0.699029 0.120535 0.663460
Si Si7 0.637756 0.969381 0.746949
O O1 0.910236 0.291363 0.621180
O O2 0.130161 0.063782 0.423021
O O3 0.389272 0.009658 0.699608
O O4 0.000000 0.000000 0.500000
O O5 0.904638 0.529973 0.681434
O O6 0.520038 0.718678 0.438674
O O7 0.818787 0.782417 0.672545
O O8 0.000000 0.500000 0.500000
O O9 0.279543 0.427187 0.186272
O O10 0.631269 0.106538 0.114607
O O11 0.175874 0.222204 0.003950
O O12 0.215132 0.335848 0.901765
O O13 0.124818 0.839274 0.184908
O O14 0.802758 0.962351 0.924850
O O15 0.564683 0.111007 0.696052
#
# Coordination Sequence:
#
# PCOD8023158 Si02
#       7
#     2   2   2   2   2   2   2
#     4  11  23  42  71  99 130 178 231 280 340 408
#     4  11  23  42  68  96 138 180 222 285 347 396
#     4  10  23  40  71 100 136 180 226 286 334 396
#     4  11  21  42  66 101 136 175 223 290 346 387
#     4  11  22  44  70  98 137 185 235 265 339 410
#     4  11  25  41  70 103 133 184 231 275 337 416
#     4  11  22  45  67  95 140 189 225 274 337 407
#
# _framework density 22.234024999999999
#
# number of rings (size 3 to 8) (size 9 to 14) (size 15 to 20)
#    0.000    1.143    2.857    4.714    2.000    0.000 
#    0.000   19.286    0.000    0.000    0.000    0.000 
#    0.000    0.000    0.000    0.000    0.000    0.000 
#
# Total GULP energy -173509.785227 kJ/mol
# GULP energy per Si atom -12393.556088 kJ/mol
# Density = 2.218342 g / cm^3
# Si number density = 22.234025 Si / 1000 Ang^3
#
#
#
# Elastic Constant Matrix: (Units=GPa)
#
#
# Indices 1 2 3 4 5 6 
#
# 1 96.1181 38.9711 52.2557 -7.9208 -4.0003 2.1885
# 2 38.9711 108.3871 33.6628 13.0282 -1.2917 -1.3984
# 3 52.2557 33.6628 126.1458 -2.8596 -11.1896 -2.5810
# 4 -7.9208 13.0282 -2.8596 39.1001 6.7851 -14.9852
# 5 -4.0003 -1.2917 -11.1896 6.7851 37.1525 -3.9134
# 6 2.1885 -1.3984 -2.5810 -14.9852 -3.9134 29.6420
#
#
#
# Elastic Compliance Matrix: (Units=1/GPa)
#
#
# Indices 1 2 3 4 5 6 
#
# 1 0.015328 -0.004468 -0.005121 0.004510 -0.000831 0.000382
# 2 -0.004468 0.011982 -0.001495 -0.005897 0.000333 -0.002172
# 3 -0.005121 -0.001495 0.010739 0.000479 0.002738 0.001846
# 4 0.004510 -0.005897 0.000479 0.035723 -0.004317 0.016920
# 5 -0.000831 0.000333 0.002738 -0.004317 0.028653 0.001916
# 6 0.000382 -0.002172 0.001846 0.016920 0.001916 0.042573
#
#
# Mechanical properties :
#
#
# Convention : Reuss Voigt Hill
#
# Bulk Modulus (GPa) = 62.96846 64.49222 63.73034
# Shear Modulus (GPa) = 28.99254 34.89635 31.94445
#
# Velocity S-wave (km/s) = 3.61497 3.96599 3.79454
# Velocity P-wave (km/s) = 6.76803 7.07398 6.92270
#
# Compressibility (1/GPa) = 0.01588097
#
# Stress axis : x y z
#
# Youngs Moduli (GPa) = 65.24135 83.46020 93.11727
#
# Poissons Ratio (x) = 0.37288 0.47684
# Poissons Ratio (y) = 0.29148 0.13923
# Poissons Ratio (z) = 0.33409 0.12479
#
# Static dielectric constant tensor:
#      x y z
#    x 3.854560 -0.103180 -0.353610 
#    y -0.103180 4.263510 0.172690 
#    z -0.353610 0.172690 4.345840 
# 
# 
# High freq. dielectric constant tensor:
#      x y z
#    x 1.850360 -0.001950 -0.026380 
#    y -0.001950 1.874750 0.007560 
#    z -0.026380 0.007560 1.890820 
# 
# From -- ./inp_files/392872.got.cif
#   From: 2010.06.25/outbox.cif.g09.slc.cpg/sg2_197_cif.got.tgz:392872.got - 2010.06.27 13:26:56.
