data_PCOD8023072
_publ_section_title
;
Structure prediction by ZEFSAII (Michael W. Deem and Ramdas Pophale) SiO2 
 PCOD8023072
Probable space group: P -1
;
_chemical_formula_sum "Si O2"
_cell_formula_units_Z 16
_cell_length_a 15.116332
_cell_length_b 6.415313
_cell_length_c 10.831128
_cell_angle_alpha 117.933513
_cell_angle_beta 118.222205
_cell_angle_gamma 97.853172
_cell_volume 725.984163
_symmetry_space_group_name_H-M "P -1"
_symmetry_group_IT_number 2
_symmetry_cell_setting 'triclinic'
loop_
_space_group_symop_operation_xyz
x,y,z
-x,-y,-z
loop_
_atom_site_type_symbol
_atom_site_label
_atom_site_fract_x
_atom_site_fract_y
_atom_site_fract_z
Si Si1 0.733165 0.398531 0.937472
Si Si2 0.358753 0.619661 0.395857
Si Si3 0.510675 0.283727 0.097104
Si Si4 0.320872 0.281023 0.815537
Si Si5 0.962991 0.721939 0.260095
Si Si6 0.182605 0.698166 0.471207
Si Si7 0.417119 0.175756 0.268590
Si Si8 0.067507 0.329779 0.498579
O O1 0.666949 0.339539 0.749666
O O2 0.677392 0.124253 0.901483
O O3 0.723445 0.628928 0.069985
O O4 0.869466 0.513310 0.045785
O O5 0.267435 0.663284 0.425688
O O6 0.353427 0.330282 0.331586
O O7 0.485597 0.828961 0.579491
O O8 0.638592 0.513303 0.216855
O O9 0.472584 0.327633 0.219682
O O10 0.431930 0.268484 0.927917
O O11 0.500000 0.000000 0.000000
O O12 0.226251 0.996847 0.630344
O O13 0.897549 0.680445 0.338895
O O14 0.064025 0.639206 0.310665
O O15 0.001755 0.023934 0.323480
O O16 0.169756 0.494531 0.517713
O O17 0.000000 0.500000 0.500000
#
# Coordination Sequence:
#
# PCOD8023072 Si02
#       8
#     2   2   2   2   2   2   2   2
#     4  12  24  43  68  97 136 171 225 278 327 393
#     4  11  27  45  64  96 135 182 221 271 331 406
#     4  11  22  40  65 102 130 165 220 274 330 388
#     4  11  24  38  69 104 131 165 218 283 326 386
#     4  10  23  40  67 101 128 175 221 278 332 390
#     4  11  25  43  69  97 138 176 219 274 331 402
#     4  11  25  45  69  93 133 183 221 269 343 396
#     4   9  19  40  65  98 134 168 218 275 335 385
#
# _framework density 22.039048000000001
#
# number of rings (size 3 to 8) (size 9 to 14) (size 15 to 20)
#    0.000    1.250    2.500    3.375    3.500    8.500 
#    0.000    1.250    0.000    0.000    0.000    0.000 
#    0.000    0.000    0.000    0.000    0.000    0.000 
#
# Total GULP energy -198289.956244 kJ/mol
# GULP energy per Si atom -12393.122265 kJ/mol
# Density = 2.198889 g / cm^3
# Si number density = 22.039048 Si / 1000 Ang^3
#
#
#
# Elastic Constant Matrix: (Units=GPa)
#
#
# Indices 1 2 3 4 5 6 
#
# 1 102.6912 44.4037 39.1496 13.7196 -11.4445 -7.6061
# 2 44.4037 115.6608 43.6286 15.6050 6.7709 13.3343
# 3 39.1496 43.6286 99.9621 7.3269 10.6639 9.9317
# 4 13.7196 15.6050 7.3269 34.6943 -1.0836 6.4042
# 5 -11.4445 6.7709 10.6639 -1.0836 36.9142 1.7332
# 6 -7.6061 13.3343 9.9317 6.4042 1.7332 33.4030
#
#
#
# Elastic Compliance Matrix: (Units=1/GPa)
#
#
# Indices 1 2 3 4 5 6 
#
# 1 0.015620 -0.004728 -0.005211 -0.004111 0.006746 0.007432
# 2 -0.004728 0.012494 -0.002657 -0.002416 -0.002842 -0.004663
# 3 -0.005211 -0.002657 0.014089 0.000906 -0.004973 -0.004230
# 4 -0.004111 -0.002416 0.000906 0.032547 0.000167 -0.006490
# 5 0.006746 -0.002842 -0.004973 0.000167 0.031026 0.002507
# 6 0.007432 -0.004663 -0.004230 -0.006490 0.002507 0.035863
#
#
# Mechanical properties :
#
#
# Convention : Reuss Voigt Hill
#
# Bulk Modulus (GPa) = 58.78934 63.63090 61.21012
# Shear Modulus (GPa) = 28.98503 33.74446 31.36474
#
# Velocity S-wave (km/s) = 3.63046 3.91720 3.77655
# Velocity P-wave (km/s) = 6.65632 7.02807 6.84472
#
# Compressibility (1/GPa) = 0.01700989
#
# Stress axis : x y z
#
# Youngs Moduli (GPa) = 64.01856 80.04039 70.97863
#
# Poissons Ratio (x) = 0.37847 0.36984
# Poissons Ratio (y) = 0.30271 0.18862
# Poissons Ratio (z) = 0.33358 0.21270
#
# Static dielectric constant tensor:
#      x y z
#    x 3.934190 -0.096960 0.207830 
#    y -0.096960 4.051850 0.154230 
#    z 0.207830 0.154230 3.896550 
# 
# 
# High freq. dielectric constant tensor:
#      x y z
#    x 1.863100 -0.006960 0.011450 
#    y -0.006960 1.879780 0.002030 
#    z 0.011450 0.002030 1.859090 
# 
# From -- ./inp_files/71033.got.cif
#   From: 2010.06.25/outbox.cif.g09.slc.cpg/sg2_36_cif.got.tgz:71033.got - 2010.06.27 13:26:56.
