data_PCOD8023009
_publ_section_title
;
Structure prediction by ZEFSAII (Michael W. Deem and Ramdas Pophale) SiO2 
 PCOD8023009
Probable space group: P -1
;
_chemical_formula_sum "Si O2"
_cell_formula_units_Z 14
_cell_length_a 6.629058
_cell_length_b 12.872608
_cell_length_c 10.988004
_cell_angle_alpha 72.104513
_cell_angle_beta 82.846987
_cell_angle_gamma 127.733038
_cell_volume 641.937399
_symmetry_space_group_name_H-M "P -1"
_symmetry_group_IT_number 2
_symmetry_cell_setting 'triclinic'
loop_
_space_group_symop_operation_xyz
x,y,z
-x,-y,-z
loop_
_atom_site_type_symbol
_atom_site_label
_atom_site_fract_x
_atom_site_fract_y
_atom_site_fract_z
Si Si1 0.679663 0.355556 0.590331
Si Si2 0.505611 0.057983 0.671023
Si Si3 0.299141 0.066071 0.428101
Si Si4 0.179662 0.593660 0.071974
Si Si5 0.397835 0.374841 0.826763
Si Si6 0.366497 0.607774 0.683867
Si Si7 0.752450 0.133971 0.018320
O O1 0.668302 0.220574 0.658165
O O2 0.517826 0.355090 0.709959
O O3 0.534935 0.342568 0.480894
O O4 0.000000 0.500000 0.500000
O O5 0.386315 0.043462 0.555263
O O6 0.706384 0.026672 0.645553
O O7 0.260937 0.933870 0.827718
O O8 0.496606 0.240111 0.307953
O O9 0.000000 0.000000 0.500000
O O10 0.439802 0.607508 0.070670
O O11 0.970649 0.508118 0.234799
O O12 0.303402 0.759731 0.992750
O O13 0.000000 0.500000 0.000000
O O14 0.468820 0.529441 0.756384
O O15 0.064478 0.228697 0.908227
O O16 0.500000 0.000000 0.000000
#
# Coordination Sequence:
#
# PCOD8023009 Si02
#       7
#     2   2   2   2   2   2   2
#     4  11  22  41  70  96 132 172 220 283 337 397
#     4  10  24  42  63  96 133 169 214 279 328 392
#     4  10  23  41  67  97 128 174 219 272 338 396
#     4  11  24  43  66  97 137 184 228 278 333 410
#     4  11  25  43  70 100 137 185 223 281 346 398
#     4  10  23  40  65 101 127 172 227 277 336 403
#     4  11  26  44  68  99 140 179 232 279 338 411
#
# _framework density 21.808979999999998
#
# number of rings (size 3 to 8) (size 9 to 14) (size 15 to 20)
#    0.000    1.429    1.429    2.143    4.000   11.429 
#    0.000    0.000    0.000    0.000    0.000    0.000 
#    0.000    0.000    0.000    0.000    0.000    0.000 
#
# Total GULP energy -173548.485999 kJ/mol
# GULP energy per Si atom -12396.320429 kJ/mol
# Density = 2.175934 g / cm^3
# Si number density = 21.808980 Si / 1000 Ang^3
#
#
#
# Elastic Constant Matrix: (Units=GPa)
#
#
# Indices 1 2 3 4 5 6 
#
# 1 149.5457 75.0490 48.9083 -13.5485 -5.6988 -12.9347
# 2 75.0490 133.9219 61.9930 -21.9665 10.0220 -21.9823
# 3 48.9083 61.9930 115.4262 -20.3968 -7.0200 -17.6279
# 4 -13.5485 -21.9665 -20.3968 40.0567 -5.9165 3.7270
# 5 -5.6988 10.0220 -7.0200 -5.9165 32.1915 -2.2296
# 6 -12.9347 -21.9823 -17.6279 3.7270 -2.2296 38.1270
#
#
#
# Elastic Compliance Matrix: (Units=1/GPa)
#
#
# Indices 1 2 3 4 5 6 
#
# 1 0.009789 -0.005138 -0.001131 0.000385 0.003155 -0.000017
# 2 -0.005138 0.013892 -0.004665 0.002351 -0.005573 0.003554
# 3 -0.001131 -0.004665 0.013148 0.004239 0.005099 0.002890
# 4 0.000385 0.002351 0.004239 0.029301 0.005709 0.000916
# 5 0.003155 -0.005573 0.005099 0.005709 0.035640 0.001741
# 6 -0.000017 0.003554 0.002890 0.000916 0.001741 0.029620
#
#
# Mechanical properties :
#
#
# Convention : Reuss Voigt Hill
#
# Bulk Modulus (GPa) = 66.83606 85.64382 76.23994
# Shear Modulus (GPa) = 31.59696 36.27128 33.93412
#
# Velocity S-wave (km/s) = 3.81045 4.08258 3.94886
# Velocity P-wave (km/s) = 7.07616 7.84720 7.47163
#
# Compressibility (1/GPa) = 0.01496198
#
# Stress axis : x y z
#
# Youngs Moduli (GPa) = 102.15676 71.98586 76.05437
#
# Poissons Ratio (x) = 0.36986 0.08601
# Poissons Ratio (y) = 0.52487 0.35477
# Poissons Ratio (z) = 0.11553 0.33579
#
# Static dielectric constant tensor:
#      x y z
#    x 4.069860 -0.179670 0.068250 
#    y -0.179670 4.080330 -0.026170 
#    z 0.068250 -0.026170 4.316160 
# 
# 
# High freq. dielectric constant tensor:
#      x y z
#    x 1.851080 -0.015450 0.004730 
#    y -0.015450 1.864030 -0.006840 
#    z 0.004730 -0.006840 1.872730 
# 
# From -- ./inp_files/66516.got.cif
#   From: 2010.06.25/outbox.cif.g09.slc.cpg/sg2_34_cif.got.tgz:66516.got - 2010.06.27 13:26:56.
