data_PCOD8023246
_publ_section_title
;
Structure prediction by ZEFSAII (Michael W. Deem and Ramdas Pophale) SiO2 
 PCOD8023246
Probable space group: P -1
;
_chemical_formula_sum "Si O2"
_cell_formula_units_Z 16
_cell_length_a 18.100207
_cell_length_b 9.608435
_cell_length_c 12.228498
_cell_angle_alpha 106.948788
_cell_angle_beta 142.132616
_cell_angle_gamma 45.911868
_cell_volume 760.762786
_symmetry_space_group_name_H-M "P -1"
_symmetry_group_IT_number 2
_symmetry_cell_setting 'triclinic'
loop_
_space_group_symop_operation_xyz
x,y,z
-x,-y,-z
loop_
_atom_site_type_symbol
_atom_site_label
_atom_site_fract_x
_atom_site_fract_y
_atom_site_fract_z
Si Si1 0.621995 0.804426 0.361474
Si Si2 0.804280 0.088641 0.784842
Si Si3 0.179069 0.436812 0.693252
Si Si4 0.506976 0.435797 0.339021
Si Si5 0.310142 0.325703 0.058212
Si Si6 0.504940 0.382756 0.837067
Si Si7 0.937394 0.634357 0.843758
Si Si8 0.822848 0.243484 0.285200
O O1 0.702267 0.709733 0.311190
O O2 0.495629 0.783283 0.242022
O O3 0.783644 0.674098 0.614341
O O4 0.482180 0.076814 0.264117
O O5 0.710935 0.192000 0.578691
O O6 0.622422 0.313241 0.699528
O O7 0.852106 0.876684 0.823455
O O8 0.000000 0.000000 0.000000
O O9 0.102085 0.678626 0.664786
O O10 0.000000 0.500000 0.500000
O O11 0.304559 0.285148 0.914824
O O12 0.354000 0.452850 0.148021
O O13 0.585114 0.422611 0.313054
O O14 0.110467 0.482692 0.923761
O O15 0.361535 0.532393 0.806061
O O16 0.732651 0.211734 0.088107
O O17 0.000000 0.500000 0.000000
O O18 0.000000 0.000000 0.500000
#
# Coordination Sequence:
#
# PCOD8023246 Si02
#       8
#     2   2   2   2   2   2   2   2
#     4  11  26  44  66 100 140 176 219 274 335 405
#     4  11  25  45  67  97 130 172 231 280 327 391
#     4  11  23  43  69 101 135 173 224 270 332 403
#     4  11  24  44  71  96 128 175 227 276 330 391
#     4  12  24  45  70  99 133 180 222 276 337 395
#     4  10  24  41  63  97 131 172 217 264 331 396
#     4  12  28  45  66 101 138 176 226 278 338 398
#     4  10  23  41  63  96 135 169 214 267 327 398
#
# _framework density 21.031521999999999
#
# number of rings (size 3 to 8) (size 9 to 14) (size 15 to 20)
#    0.000    1.000    5.000    0.375    5.250    3.500 
#    0.000    0.000    0.000    0.000    0.000    0.000 
#    0.000    0.000    0.000    0.000    0.000    0.000 
#
# Total GULP energy -198366.329644 kJ/mol
# GULP energy per Si atom -12397.895603 kJ/mol
# Density = 2.098365 g / cm^3
# Si number density = 21.031522 Si / 1000 Ang^3
#
#
#
# Elastic Constant Matrix: (Units=GPa)
#
#
# Indices 1 2 3 4 5 6 
#
# 1 85.2083 44.2002 57.7644 11.1214 -7.4390 37.3845
# 2 44.2002 110.1971 50.4683 5.0216 -0.2639 24.7693
# 3 57.7644 50.4683 154.2849 13.3436 -13.2465 17.6151
# 4 11.1214 5.0216 13.3436 41.0345 5.4455 2.1749
# 5 -7.4390 -0.2639 -13.2465 5.4455 39.3014 3.2380
# 6 37.3845 24.7693 17.6151 2.1749 3.2380 32.2043
#
#
#
# Elastic Compliance Matrix: (Units=1/GPa)
#
#
# Indices 1 2 3 4 5 6 
#
# 1 0.034339 -0.002574 -0.006888 -0.005962 0.007829 -0.034500
# 2 -0.002574 0.012434 -0.002643 0.000428 -0.000936 -0.005065
# 3 -0.006888 -0.002643 0.009667 -0.001433 0.001751 0.004661
# 4 -0.005962 0.000428 -0.001433 0.026848 -0.005835 0.006150
# 5 0.007829 -0.000936 0.001751 -0.005835 0.029297 -0.011878
# 6 -0.034500 -0.005065 0.004661 0.006150 -0.011878 0.073226
#
#
# Mechanical properties :
#
#
# Convention : Reuss Voigt Hill
#
# Bulk Modulus (GPa) = 31.02619 72.72843 51.87731
# Shear Modulus (GPa) = 22.64880 35.65855 29.15368
#
# Velocity S-wave (km/s) = 3.28517 4.12209 3.72720
# Velocity P-wave (km/s) = 5.40130 7.57042 6.57591
#
# Compressibility (1/GPa) = 0.03223083
#
# Stress axis : x y z
#
# Youngs Moduli (GPa) = 29.12179 80.42434 103.44648
#
# Poissons Ratio (x) = 0.20699 0.71250
# Poissons Ratio (y) = 0.07495 0.27339
# Poissons Ratio (z) = 0.20058 0.21255
#
# Static dielectric constant tensor:
#      x y z
#    x 3.734730 0.278990 -0.047060 
#    y 0.278990 3.958330 0.242820 
#    z -0.047060 0.242820 4.002970 
# 
# 
# High freq. dielectric constant tensor:
#      x y z
#    x 1.826690 0.016140 -0.003330 
#    y 0.016140 1.827880 0.011920 
#    z -0.003330 0.011920 1.835690 
# 
# From -- ./inp_files/95559.got.cif
#   From: 2010.06.25/outbox.cif.g09.slc.cpg/sg2_48_cif.got.tgz:95559.got - 2010.06.27 13:26:56.
