data_PCOD8023657
_publ_section_title
;
Structure prediction by ZEFSAII (Michael W. Deem and Ramdas Pophale) SiO2 
 PCOD8023657
Probable space group: P -1
;
_chemical_formula_sum "Si O2"
_cell_formula_units_Z 14
_cell_length_a 11.007045
_cell_length_b 7.485789
_cell_length_c 9.989252
_cell_angle_alpha 100.750459
_cell_angle_beta 124.236756
_cell_angle_gamma 90.188732
_cell_volume 662.549760
_symmetry_space_group_name_H-M "P -1"
_symmetry_group_IT_number 2
_symmetry_cell_setting 'triclinic'
loop_
_space_group_symop_operation_xyz
x,y,z
-x,-y,-z
loop_
_atom_site_type_symbol
_atom_site_label
_atom_site_fract_x
_atom_site_fract_y
_atom_site_fract_z
Si Si1 0.935420 0.147029 0.682852
Si Si2 0.497873 0.869563 0.352554
Si Si3 0.366043 0.462040 0.514090
Si Si4 0.335052 0.841424 0.673085
Si Si5 0.033565 0.436008 0.226169
Si Si6 0.149363 0.881025 0.804990
Si Si7 0.172248 0.820013 0.099447
O O1 0.002457 0.359067 0.751892
O O2 0.802096 0.111450 0.492770
O O3 0.878426 0.076279 0.786419
O O4 0.064531 0.032330 0.702113
O O5 0.613021 0.721168 0.415405
O O6 0.332987 0.758046 0.220358
O O7 0.500000 0.000000 0.500000
O O8 0.532022 0.000875 0.262538
O O9 0.500000 0.500000 0.500000
O O10 0.371996 0.636552 0.640527
O O11 0.210401 0.430142 0.333123
O O12 0.296262 0.858070 0.808099
O O13 0.958177 0.314668 0.286662
O O14 0.952576 0.355616 0.027845
O O15 0.188924 0.945245 0.992415
#
# Coordination Sequence:
#
# PCOD8023657 Si02
#       7
#     2   2   2   2   2   2   2
#     4  11  19  39  67  90 120 165 208 254 304 365
#     4  12  22  41  67  90 124 161 212 259 300 372
#     4  11  22  40  66  94 121 165 206 258 305 362
#     4  11  24  40  63  94 124 163 212 250 310 371
#     4   9  23  39  64  92 128 154 214 253 306 364
#     4  10  24  39  60  96 128 161 203 257 315 361
#     4  10  23  42  61  95 124 162 210 254 309 366
#
# _framework density 21.130489000000001
#
# number of rings (size 3 to 8) (size 9 to 14) (size 15 to 20)
#    0.857    0.571    2.857    3.000    0.000    4.000 
#    2.571    0.714    0.000    0.000    0.000    0.000 
#    0.000    0.000    0.000    0.000    0.000    0.000 
#
# Total GULP energy -173500.861748 kJ/mol
# GULP energy per Si atom -12392.918696 kJ/mol
# Density = 2.108239 g / cm^3
# Si number density = 21.130489 Si / 1000 Ang^3
#
#
#
# Elastic Constant Matrix: (Units=GPa)
#
#
# Indices 1 2 3 4 5 6 
#
# 1 114.8171 46.9294 13.4675 -1.0191 0.4569 1.5659
# 2 46.9294 115.7644 20.6157 -4.7710 5.6255 -13.1176
# 3 13.4675 20.6157 66.1230 2.3255 15.7196 0.1535
# 4 -1.0191 -4.7710 2.3255 18.7568 7.7470 6.4024
# 5 0.4569 5.6255 15.7196 7.7470 32.8390 -1.8149
# 6 1.5659 -13.1176 0.1535 6.4024 -1.8149 38.9641
#
#
#
# Elastic Compliance Matrix: (Units=1/GPa)
#
#
# Indices 1 2 3 4 5 6 
#
# 1 0.010647 -0.004398 -0.001036 -0.000227 0.001054 -0.001818
# 2 -0.004398 0.011417 -0.002510 0.002150 -0.001000 0.003630
# 3 -0.001036 -0.002510 0.018118 0.001093 -0.008567 -0.001453
# 4 -0.000227 0.002150 0.001093 0.064193 -0.016618 -0.010593
# 5 0.001054 -0.001000 -0.008567 -0.016618 0.038861 0.004196
# 6 -0.001818 0.003630 -0.001453 -0.010593 0.004196 0.028902
#
#
# Mechanical properties :
#
#
# Convention : Reuss Voigt Hill
#
# Bulk Modulus (GPa) = 41.16195 50.96995 46.06595
# Shear Modulus (GPa) = 25.49401 32.49143 28.99272
#
# Velocity S-wave (km/s) = 3.47724 3.92555 3.70818
# Velocity P-wave (km/s) = 5.97024 6.68734 6.33894
#
# Compressibility (1/GPa) = 0.02429428
#
# Stress axis : x y z
#
# Youngs Moduli (GPa) = 93.91999 87.58961 55.19245
#
# Poissons Ratio (x) = 0.38526 0.05716
# Poissons Ratio (y) = 0.41310 0.13854
# Poissons Ratio (z) = 0.09727 0.21986
#
# Static dielectric constant tensor:
#      x y z
#    x 3.789290 0.099040 0.142010 
#    y 0.099040 3.904660 -0.033500 
#    z 0.142010 -0.033500 3.708010 
# 
# 
# High freq. dielectric constant tensor:
#      x y z
#    x 1.821580 0.005780 0.009670 
#    y 0.005780 1.827850 -0.004010 
#    z 0.009670 -0.004010 1.814810 
# 
# From -- ./inp_files/376773.got.cif
#   From: 2010.06.25/outbox.cif.g09.slc.cpg/sg2_189_cif.got.tgz:376773.got - 2010.06.27 13:26:56.
