data_PCOD8023252
_publ_section_title
;
Structure prediction by ZEFSAII (Michael W. Deem and Ramdas Pophale) SiO2 
 PCOD8023252
Probable space group: P -1
;
_chemical_formula_sum "Si O2"
_cell_formula_units_Z 16
_cell_length_a 9.497951
_cell_length_b 6.765064
_cell_length_c 12.671841
_cell_angle_alpha 97.899119
_cell_angle_beta 89.380289
_cell_angle_gamma 119.114998
_cell_volume 703.109644
_symmetry_space_group_name_H-M "P -1"
_symmetry_group_IT_number 2
_symmetry_cell_setting 'triclinic'
loop_
_space_group_symop_operation_xyz
x,y,z
-x,-y,-z
loop_
_atom_site_type_symbol
_atom_site_label
_atom_site_fract_x
_atom_site_fract_y
_atom_site_fract_z
Si Si1 0.623805 0.696265 0.284851
Si Si2 0.704806 0.773361 0.527274
Si Si3 0.912442 0.949383 0.152461
Si Si4 0.843729 0.480519 0.443027
Si Si5 0.927705 0.183479 0.684354
Si Si6 0.447914 0.765641 0.688582
Si Si7 0.092377 0.381951 0.044560
Si Si8 0.665070 0.265591 0.783487
O O1 0.667445 0.797317 0.408822
O O2 0.750793 0.882863 0.215483
O O3 0.622347 0.455215 0.251165
O O4 0.440275 0.638176 0.262658
O O5 0.758325 0.580014 0.528343
O O6 0.555615 0.717916 0.599943
O O7 0.854135 0.014149 0.574783
O O8 0.050997 0.940015 0.221795
O O9 0.983698 0.207912 0.126424
O O10 0.864366 0.764849 0.046285
O O11 0.699982 0.236110 0.380033
O O12 0.000000 0.500000 0.500000
O O13 0.898897 0.628107 0.345082
O O14 0.817538 0.301028 0.715484
O O15 0.546040 0.990207 0.775650
O O16 0.261780 0.592986 0.099249
O O17 0.000000 0.500000 0.000000
#
# Coordination Sequence:
#
# PCOD8023252 Si02
#       8
#     2   2   2   2   2   2   2   2
#     4  11  24  44  68 103 143 186 221 282 346 411
#     4  10  23  41  63  98 150 187 222 273 336 410
#     4  11  25  47  76  99 139 174 234 300 349 413
#     4  11  23  36  65 101 141 191 237 275 323 405
#     4  11  23  41  66 104 137 184 236 276 341 414
#     4  10  24  44  63  98 151 185 231 271 338 413
#     4  11  26  50  76 102 129 176 239 300 361 410
#     4  11  27  41  72  98 135 185 229 286 350 414
#
# _framework density 22.756053000000001
#
# number of rings (size 3 to 8) (size 9 to 14) (size 15 to 20)
#    0.000    1.250    3.750    1.875    8.750    3.500 
#    0.000    1.250    0.000    0.000    0.000    0.000 
#    0.000    0.000    0.000    0.000    0.000    0.000 
#
# Total GULP energy -198264.707737 kJ/mol
# GULP energy per Si atom -12391.544234 kJ/mol
# Density = 2.270426 g / cm^3
# Si number density = 22.756053 Si / 1000 Ang^3
#
#
#
# Elastic Constant Matrix: (Units=GPa)
#
#
# Indices 1 2 3 4 5 6 
#
# 1 127.7936 44.9512 46.0316 12.8400 32.2068 2.5890
# 2 44.9512 117.0313 59.4756 7.2120 14.2252 4.0072
# 3 46.0316 59.4756 127.0759 23.9012 27.8377 2.1048
# 4 12.8400 7.2120 23.9012 45.1740 6.8161 4.4564
# 5 32.2068 14.2252 27.8377 6.8161 32.8889 0.4213
# 6 2.5890 4.0072 2.1048 4.4564 0.4213 34.5524
#
#
#
# Elastic Compliance Matrix: (Units=1/GPa)
#
#
# Indices 1 2 3 4 5 6 
#
# 1 0.011518 -0.002938 -0.000548 -0.001086 -0.009316 -0.000235
# 2 -0.002938 0.012062 -0.005243 0.001518 0.001796 -0.001077
# 3 -0.000548 -0.005243 0.013003 -0.004857 -0.007203 0.000571
# 4 -0.001086 0.001518 -0.004857 0.025172 -0.000660 -0.003037
# 5 -0.009316 0.001796 -0.007203 -0.000660 0.044979 0.000465
# 6 -0.000235 -0.001077 0.000571 -0.003037 0.000465 0.029435
#
#
# Mechanical properties :
#
#
# Convention : Reuss Voigt Hill
#
# Bulk Modulus (GPa) = 52.28439 74.75751 63.52095
# Shear Modulus (GPa) = 31.24952 37.28590 34.26771
#
# Velocity S-wave (km/s) = 3.70975 4.05224 3.88477
# Velocity P-wave (km/s) = 6.43238 7.40386 6.93515
#
# Compressibility (1/GPa) = 0.01912617
#
# Stress axis : x y z
#
# Youngs Moduli (GPa) = 86.82284 82.90178 76.90254
#
# Poissons Ratio (x) = 0.24356 0.04215
# Poissons Ratio (y) = 0.25508 0.40317
# Poissons Ratio (z) = 0.04759 0.43462
#
# Static dielectric constant tensor:
#      x y z
#    x 4.211970 0.067790 0.082690 
#    y 0.067790 4.235550 0.192700 
#    z 0.082690 0.192700 4.034220 
# 
# 
# High freq. dielectric constant tensor:
#      x y z
#    x 1.911810 0.008670 0.009270 
#    y 0.008670 1.900040 0.017910 
#    z 0.009270 0.017910 1.883880 
# 
# From -- ./inp_files/196789.got.cif
#   From: 2010.06.25/outbox.cif.g09.slc.cpg/sg2_99_cif.got.tgz:196789.got - 2010.06.27 13:26:56.
