data_PCOD8023704
_publ_section_title
;
Structure prediction by ZEFSAII (Michael W. Deem and Ramdas Pophale) SiO2 
 PCOD8023704
Probable space group: P -1
;
_chemical_formula_sum "Si O2"
_cell_formula_units_Z 16
_cell_length_a 18.154573
_cell_length_b 10.019565
_cell_length_c 5.219701
_cell_angle_alpha 86.044592
_cell_angle_beta 101.572782
_cell_angle_gamma 134.950921
_cell_volume 654.655862
_symmetry_space_group_name_H-M "P -1"
_symmetry_group_IT_number 2
_symmetry_cell_setting 'triclinic'
loop_
_space_group_symop_operation_xyz
x,y,z
-x,-y,-z
loop_
_atom_site_type_symbol
_atom_site_label
_atom_site_fract_x
_atom_site_fract_y
_atom_site_fract_z
Si Si1 0.041178 0.935114 0.715734
Si Si2 0.787283 0.239551 0.814058
Si Si3 0.613926 0.799073 0.216186
Si Si4 0.175639 0.405684 0.231326
Si Si5 0.459780 0.556204 0.705122
Si Si6 0.842524 0.159358 0.362680
Si Si7 0.446656 0.076026 0.477192
Si Si8 0.242162 0.345685 0.809600
O O1 0.057098 0.813809 0.592512
O O2 0.949713 0.789265 0.883619
O O3 0.155538 0.126463 0.879996
O O4 0.000000 0.000000 0.500000
O O5 0.808477 0.418316 0.737113
O O6 0.846385 0.231469 0.633541
O O7 0.659007 0.048965 0.758494
O O8 0.839209 0.265005 0.118139
O O9 0.559236 0.620558 0.407206
O O10 0.590789 0.925847 0.262729
O O11 0.739432 0.933998 0.292264
O O12 0.568048 0.700750 0.923978
O O13 0.210393 0.374082 0.516820
O O14 0.247342 0.458634 0.029668
O O15 0.460145 0.695824 0.532681
O O16 0.358746 0.430003 0.847193
O O17 0.500000 0.000000 0.500000
#
# Coordination Sequence:
#
# PCOD8023704 Si02
#       8
#     2   2   2   2   2   2   2   2
#     4  10  24  47  72 102 131 174 226 288 344 392
#     4  11  25  43  66  99 139 181 222 272 336 410
#     4  10  23  42  63  98 132 179 228 275 332 404
#     4  11  25  45  67 101 134 173 228 276 342 402
#     4  11  22  41  66  95 130 181 226 274 337 402
#     4  11  23  46  68  98 138 176 224 281 334 404
#     4  11  24  40  63  97 141 183 224 275 335 403
#     4  11  24  42  70  99 134 172 223 287 333 395
#
# _framework density 24.440321000000001
#
# number of rings (size 3 to 8) (size 9 to 14) (size 15 to 20)
#    0.000    1.250    2.500    2.250    3.500    6.500 
#    0.000    0.000    0.000    0.000    0.000    0.000 
#    0.000    0.000    0.000    0.000    0.000    0.000 
#
# Total GULP energy -198222.681423 kJ/mol
# GULP energy per Si atom -12388.917589 kJ/mol
# Density = 2.438469 g / cm^3
# Si number density = 24.440321 Si / 1000 Ang^3
#
#
#
# Elastic Constant Matrix: (Units=GPa)
#
#
# Indices 1 2 3 4 5 6 
#
# 1 110.4309 21.9112 4.7790 -2.2718 1.2828 -33.9492
# 2 21.9112 105.5371 2.5067 4.0641 2.9600 -10.8306
# 3 4.7790 2.5067 73.9789 -5.2411 -5.3643 -5.2166
# 4 -2.2718 4.0641 -5.2411 25.5323 -3.6888 -2.6512
# 5 1.2828 2.9600 -5.3643 -3.6888 22.2313 5.0690
# 6 -33.9492 -10.8306 -5.2166 -2.6512 5.0690 35.9496
#
#
#
# Elastic Compliance Matrix: (Units=1/GPa)
#
#
# Indices 1 2 3 4 5 6 
#
# 1 0.013359 -0.001464 0.000027 0.002307 -0.003102 0.012786
# 2 -0.001464 0.010102 -0.000413 -0.001942 -0.002082 0.001751
# 3 0.000027 -0.000413 0.014180 0.003691 0.003698 0.001709
# 4 0.002307 -0.001942 0.003691 0.041889 0.007002 0.004231
# 5 -0.003102 -0.002082 0.003698 0.007002 0.049659 -0.009506
# 6 0.012786 0.001751 0.001709 0.004231 -0.009506 0.042319
#
#
# Mechanical properties :
#
#
# Convention : Reuss Voigt Hill
#
# Bulk Modulus (GPa) = 29.46304 38.70455 34.08379
# Shear Modulus (GPa) = 26.80657 34.12595 30.46626
#
# Velocity S-wave (km/s) = 3.31542 3.74076 3.53449
# Velocity P-wave (km/s) = 5.17081 5.87609 5.53469
#
# Compressibility (1/GPa) = 0.03394083
#
# Stress axis : x y z
#
# Youngs Moduli (GPa) = 74.85629 98.99063 70.52316
#
# Poissons Ratio (x) = 0.14491 -0.00188
# Poissons Ratio (y) = 0.10958 0.02911
# Poissons Ratio (z) = -0.00200 0.04086
#
# Static dielectric constant tensor:
#      x y z
#    x 4.682440 0.247690 -0.228990 
#    y 0.247690 5.085820 -0.092470 
#    z -0.228990 -0.092470 3.981190 
# 
# 
# High freq. dielectric constant tensor:
#      x y z
#    x 1.989640 -0.001050 -0.016610 
#    y -0.001050 1.991870 -0.002800 
#    z -0.016610 -0.002800 1.944550 
# 
# From -- ./inp_files/83542.got.cif
#   From: 2010.06.25/outbox.cif.g09.slc.cpg/sg2_42_cif.got.tgz:83542.got - 2010.06.27 13:26:56.
