data_PCOD8023909
_publ_section_title
;
Structure prediction by ZEFSAII (Michael W. Deem and Ramdas Pophale) SiO2 
 PCOD8023909
Probable space group: P -1
;
_chemical_formula_sum "Si O2"
_cell_formula_units_Z 14
_cell_length_a 20.609301
_cell_length_b 9.284852
_cell_length_c 11.280720
_cell_angle_alpha 142.883692
_cell_angle_beta 29.994850
_cell_angle_gamma 142.295859
_cell_volume 613.942444
_symmetry_space_group_name_H-M "P -1"
_symmetry_group_IT_number 2
_symmetry_cell_setting 'triclinic'
loop_
_space_group_symop_operation_xyz
x,y,z
-x,-y,-z
loop_
_atom_site_type_symbol
_atom_site_label
_atom_site_fract_x
_atom_site_fract_y
_atom_site_fract_z
Si Si1 0.161049 0.562359 0.182125
Si Si2 0.131304 0.963074 0.204142
Si Si3 0.557134 0.369413 0.589413
Si Si4 0.550740 0.854489 0.149443
Si Si5 0.574870 0.249462 0.974907
Si Si6 0.165925 0.457113 0.846651
Si Si7 0.985027 0.888534 0.727973
O O1 0.264560 0.675509 0.200995
O O2 0.077574 0.756913 0.420858
O O3 0.066745 0.280751 0.184636
O O4 0.229749 0.540843 0.932936
O O5 0.093887 0.659583 0.052126
O O6 0.000000 0.000000 0.500000
O O7 0.138666 0.093255 0.148426
O O8 0.285698 0.092274 0.099530
O O9 0.515891 0.365989 0.792439
O O10 0.717210 0.532543 0.427282
O O11 0.524969 0.097218 0.405471
O O12 0.472025 0.519439 0.752739
O O13 0.459536 0.794279 0.137257
O O14 0.500000 0.000000 0.000000
O O15 0.064647 0.173506 0.829035
#
# Coordination Sequence:
#
# PCOD8023909 Si02
#       7
#     2   2   2   2   2   2   2
#     4  11  25  44  65 100 139 179 223 274 332 410
#     4  11  22  42  72  97 135 170 226 281 330 400
#     4  10  23  42  67  96 137 169 226 275 326 405
#     4  10  24  45  67 101 133 176 220 281 338 391
#     4  12  24  41  69  98 135 180 219 270 341 399
#     4  11  23  43  69 101 133 176 225 277 339 396
#     4  11  24  44  66  99 136 179 225 275 339 395
#
# _framework density 22.803440999999999
#
# number of rings (size 3 to 8) (size 9 to 14) (size 15 to 20)
#    0.000    1.143    1.429    4.714    2.000    3.429 
#    0.000    7.143    0.000    0.000    0.000    0.000 
#    0.000    0.000    0.000    0.000    0.000    0.000 
#
# Total GULP energy -173526.330578 kJ/mol
# GULP energy per Si atom -12394.737898 kJ/mol
# Density = 2.275154 g / cm^3
# Si number density = 22.803441 Si / 1000 Ang^3
#
#
#
# Elastic Constant Matrix: (Units=GPa)
#
#
# Indices 1 2 3 4 5 6 
#
# 1 129.6968 48.3313 42.2979 6.2916 -8.0085 -2.9658
# 2 48.3313 123.4591 43.3104 -2.6495 -11.3853 -16.4862
# 3 42.2979 43.3104 93.6820 -10.7449 -4.5074 -16.7075
# 4 6.2916 -2.6495 -10.7449 31.8705 -10.9463 -11.2552
# 5 -8.0085 -11.3853 -4.5074 -10.9463 32.7463 0.7838
# 6 -2.9658 -16.4862 -16.7075 -11.2552 0.7838 34.4218
#
#
#
# Elastic Compliance Matrix: (Units=1/GPa)
#
#
# Indices 1 2 3 4 5 6 
#
# 1 0.010704 -0.003383 -0.004969 -0.006308 -0.001228 -0.005144
# 2 -0.003383 0.011345 -0.002061 0.004253 0.004125 0.005439
# 3 -0.004969 -0.002061 0.017369 0.011924 0.004186 0.010819
# 4 -0.006308 0.004253 0.011924 0.051664 0.018279 0.023758
# 5 -0.001228 0.004125 0.004186 0.018279 0.038142 0.009010
# 6 -0.005144 0.005439 0.010819 0.023758 0.009010 0.044027
#
#
# Mechanical properties :
#
#
# Convention : Reuss Voigt Hill
#
# Bulk Modulus (GPa) = 53.78618 68.30189 61.04403
# Shear Modulus (GPa) = 24.96548 34.00094 29.48321
#
# Velocity S-wave (km/s) = 3.31238 3.86559 3.59963
# Velocity P-wave (km/s) = 6.18605 7.06691 6.64110
#
# Compressibility (1/GPa) = 0.01859214
#
# Stress axis : x y z
#
# Youngs Moduli (GPa) = 93.42339 88.14288 57.57227
#
# Poissons Ratio (x) = 0.29816 0.28608
# Poissons Ratio (y) = 0.31602 0.11868
# Poissons Ratio (z) = 0.46423 0.18171
#
# Static dielectric constant tensor:
#      x y z
#    x 3.708680 -0.586670 -0.046420 
#    y -0.586670 4.183450 0.218050 
#    z -0.046420 0.218050 4.157190 
# 
# 
# High freq. dielectric constant tensor:
#      x y z
#    x 1.895640 -0.021210 -0.003270 
#    y -0.021210 1.923140 0.015800 
#    z -0.003270 0.015800 1.898270 
# 
# From -- ./inp_files/432378.got.cif
#   From: 2010.06.25/outbox.cif.g09.slc.cpg/sg2_217_cif.got.tgz:432378.got - 2010.06.27 13:26:56.
