data_PCOD8023486
_publ_section_title
;
Structure prediction by ZEFSAII (Michael W. Deem and Ramdas Pophale) SiO2 
 PCOD8023486
Probable space group: P -1
;
_chemical_formula_sum "Si O2"
_cell_formula_units_Z 14
_cell_length_a 12.270999
_cell_length_b 5.606627
_cell_length_c 11.254134
_cell_angle_alpha 85.042818
_cell_angle_beta 124.643878
_cell_angle_gamma 89.513392
_cell_volume 633.042205
_symmetry_space_group_name_H-M "P -1"
_symmetry_group_IT_number 2
_symmetry_cell_setting 'triclinic'
loop_
_space_group_symop_operation_xyz
x,y,z
-x,-y,-z
loop_
_atom_site_type_symbol
_atom_site_label
_atom_site_fract_x
_atom_site_fract_y
_atom_site_fract_z
Si Si1 0.481304 0.511223 0.126300
Si Si2 0.200766 0.878595 0.192503
Si Si3 0.438740 0.994995 0.199552
Si Si4 0.064004 0.114879 0.647498
Si Si5 0.883707 0.464401 0.659741
Si Si6 0.295992 0.260335 0.635805
Si Si7 0.039261 0.799672 0.874383
O O1 0.403369 0.772062 0.098671
O O2 0.624081 0.510663 0.282904
O O3 0.408111 0.269733 0.123956
O O4 0.500000 0.500000 0.000000
O O5 0.346783 0.972801 0.259978
O O6 0.212378 0.688847 0.314806
O O7 0.155138 0.764060 0.044423
O O8 0.095422 0.092354 0.152660
O O9 0.596975 0.957890 0.326268
O O10 0.208596 0.192407 0.697672
O O11 0.956229 0.331215 0.600350
O O12 0.085367 0.952612 0.784731
O O13 0.000000 0.000000 0.500000
O O14 0.794001 0.685279 0.538554
O O15 0.002358 0.542497 0.814423
#
# Coordination Sequence:
#
# PCOD8023486 Si02
#       7
#     2   2   2   2   2   2   2
#     4  10  24  43  66  98 138 180 222 276 339 406
#     4  10  24  43  66  96 134 177 235 275 342 399
#     4  10  25  43  68 100 133 178 225 278 338 403
#     4  11  23  39  65 101 134 174 222 282 346 406
#     4  11  23  42  65  98 131 182 221 290 331 410
#     4  10  25  39  66  99 135 172 228 275 348 400
#     4  10  23  41  68  94 134 175 230 283 337 403
#
# _framework density 22.115428999999999
#
# number of rings (size 3 to 8) (size 9 to 14) (size 15 to 20)
#    0.857    0.857    1.429    1.286    6.000    1.714 
#    0.000    1.429    0.000    0.000    0.000    0.000 
#    0.000    0.000    0.000    0.000    0.000    0.000 
#
# Total GULP energy -173454.513019 kJ/mol
# GULP energy per Si atom -12389.608073 kJ/mol
# Density = 2.206509 g / cm^3
# Si number density = 22.115429 Si / 1000 Ang^3
#
#
#
# Elastic Constant Matrix: (Units=GPa)
#
#
# Indices 1 2 3 4 5 6 
#
# 1 152.1735 38.7344 35.8591 -12.1727 -21.9089 31.3864
# 2 38.7344 117.5876 7.7356 6.2917 -11.7979 9.9956
# 3 35.8591 7.7356 68.1091 10.4555 -8.7400 -2.7956
# 4 -12.1727 6.2917 10.4555 28.4234 -2.1804 -7.4912
# 5 -21.9089 -11.7979 -8.7400 -2.1804 22.6155 -3.3674
# 6 31.3864 9.9956 -2.7956 -7.4912 -3.3674 27.8066
#
#
#
# Elastic Compliance Matrix: (Units=1/GPa)
#
#
# Indices 1 2 3 4 5 6 
#
# 1 0.012744 -0.002334 -0.006910 0.005979 0.007285 -0.011747
# 2 -0.002334 0.009798 0.000964 -0.003707 0.002647 -0.001469
# 3 -0.006910 0.000964 0.020049 -0.008452 0.001847 0.007415
# 4 0.005979 -0.003707 -0.008452 0.043750 0.005735 0.006216
# 5 0.007285 0.002647 0.001847 0.005735 0.053784 -0.000930
# 6 -0.011747 -0.001469 0.007415 0.006216 -0.000930 0.052058
#
#
# Mechanical properties :
#
#
# Convention : Reuss Voigt Hill
#
# Bulk Modulus (GPa) = 38.41175 55.83648 47.12412
# Shear Modulus (GPa) = 22.99702 32.80519 27.90110
#
# Velocity S-wave (km/s) = 3.22819 3.85562 3.55577
# Velocity P-wave (km/s) = 5.59477 6.71741 6.18163
#
# Compressibility (1/GPa) = 0.02603370
#
# Stress axis : x y z
#
# Youngs Moduli (GPa) = 78.47021 102.05669 49.87673
#
# Poissons Ratio (x) = 0.23817 0.34463
# Poissons Ratio (y) = 0.18313 -0.04810
# Poissons Ratio (z) = 0.54219 -0.09842
#
# Static dielectric constant tensor:
#      x y z
#    x 4.262770 0.137340 -0.144650 
#    y 0.137340 4.093230 0.083080 
#    z -0.144650 0.083080 3.766910 
# 
# 
# High freq. dielectric constant tensor:
#      x y z
#    x 1.878270 0.008440 -0.014000 
#    y 0.008440 1.866430 0.003590 
#    z -0.014000 0.003590 1.855430 
# 
# From -- ./inp_files/369747.got.cif
#   From: 2010.06.25/outbox.cif.g09.slc.cpg/sg2_185_cif.got.tgz:369747.got - 2010.06.27 13:26:56.
