data_PCOD8023722
_publ_section_title
;
Structure prediction by ZEFSAII (Michael W. Deem and Ramdas Pophale) SiO2 
 PCOD8023722
Probable space group: P -1
;
_chemical_formula_sum "Si O2"
_cell_formula_units_Z 16
_cell_length_a 14.407132
_cell_length_b 11.404683
_cell_length_c 8.076362
_cell_angle_alpha 138.975671
_cell_angle_beta 113.474883
_cell_angle_gamma 82.043646
_cell_volume 769.430272
_symmetry_space_group_name_H-M "P -1"
_symmetry_group_IT_number 2
_symmetry_cell_setting 'triclinic'
loop_
_space_group_symop_operation_xyz
x,y,z
-x,-y,-z
loop_
_atom_site_type_symbol
_atom_site_label
_atom_site_fract_x
_atom_site_fract_y
_atom_site_fract_z
Si Si1 0.377099 0.934001 0.872780
Si Si2 0.298505 0.456094 0.678058
Si Si3 0.949119 0.315080 0.670981
Si Si4 0.421388 0.158205 0.452868
Si Si5 0.362379 0.823609 0.277461
Si Si6 0.784201 0.051344 0.485492
Si Si7 0.233579 0.543572 0.384036
Si Si8 0.830357 0.691134 0.249111
O O1 0.312666 0.020322 0.786070
O O2 0.339044 0.709699 0.610217
O O3 0.500000 0.000000 0.000000
O O4 0.354512 0.025669 0.125064
O O5 0.386594 0.346701 0.641900
O O6 0.244070 0.418018 0.417169
O O7 0.218240 0.409552 0.724774
O O8 0.352163 0.677321 0.964283
O O9 0.893864 0.149935 0.580662
O O10 0.859807 0.358805 0.536204
O O11 0.043245 0.259977 0.584232
O O12 0.000000 0.500000 0.000000
O O13 0.547967 0.209939 0.568628
O O14 0.397714 0.039151 0.477691
O O15 0.250706 0.796530 0.262410
O O16 0.799286 0.882691 0.424262
O O17 0.209556 0.423427 0.070239
#
# Coordination Sequence:
#
# PCOD8023722 Si02
#       8
#     2   2   2   2   2   2   2   2
#     4  11  21  40  63  89 129 174 210 261 319 373
#     4  12  23  41  65  94 131 166 216 265 316 383
#     4   9  20  40  67  91 123 166 212 267 323 376
#     4  11  23  39  60  90 129 169 216 256 313 377
#     4  11  22  40  59  88 130 170 209 263 315 372
#     4  11  21  40  67  90 128 168 214 264 319 384
#     4  10  23  42  64  94 131 167 215 268 318 380
#     4  11  23  41  65  97 125 169 217 264 325 379
#
# _framework density 20.794609000000001
#
# number of rings (size 3 to 8) (size 9 to 14) (size 15 to 20)
#    0.000    1.250    3.750    3.750    0.000    0.500 
#    2.250    1.250    0.000    7.500    0.000    0.000 
#    0.000    0.000    0.000    0.000    0.000    0.000 
#
# Total GULP energy -198308.630174 kJ/mol
# GULP energy per Si atom -12394.289386 kJ/mol
# Density = 2.074728 g / cm^3
# Si number density = 20.794609 Si / 1000 Ang^3
#
#
#
# Elastic Constant Matrix: (Units=GPa)
#
#
# Indices 1 2 3 4 5 6 
#
# 1 127.4936 49.7007 34.6264 6.6153 7.0311 -14.8695
# 2 49.7007 122.3820 24.4206 -0.8139 -1.1492 -8.9847
# 3 34.6264 24.4206 74.4714 3.5245 2.1902 -1.4619
# 4 6.6153 -0.8139 3.5245 29.7688 0.5693 -6.2476
# 5 7.0311 -1.1492 2.1902 0.5693 34.9527 1.3471
# 6 -14.8695 -8.9847 -1.4619 -6.2476 1.3471 30.3312
#
#
#
# Elastic Compliance Matrix: (Units=1/GPa)
#
#
# Indices 1 2 3 4 5 6 
#
# 1 0.010821 -0.003388 -0.003722 -0.001180 -0.002189 0.003976
# 2 -0.003388 0.010034 -0.001789 0.001533 0.001041 0.001494
# 3 -0.003722 -0.001789 0.015784 -0.001483 -0.000202 -0.001890
# 4 -0.001180 0.001533 -0.001483 0.035583 -0.000474 0.007154
# 5 -0.002189 0.001041 -0.000202 -0.000474 0.029189 -0.002169
# 6 0.003976 0.001494 -0.001890 0.007154 -0.002169 0.036840
#
#
# Mechanical properties :
#
#
# Convention : Reuss Voigt Hill
#
# Bulk Modulus (GPa) = 53.07581 60.20472 56.64027
# Shear Modulus (GPa) = 30.80182 33.38382 32.09282
#
# Velocity S-wave (km/s) = 3.85286 4.01110 3.93278
# Velocity P-wave (km/s) = 6.73587 7.10400 6.92239
#
# Compressibility (1/GPa) = 0.01884097
#
# Stress axis : x y z
#
# Youngs Moduli (GPa) = 92.41364 99.66353 63.35483
#
# Poissons Ratio (x) = 0.33769 0.23580
# Poissons Ratio (y) = 0.31313 0.11332
# Poissons Ratio (z) = 0.34396 0.17826
#
# Static dielectric constant tensor:
#      x y z
#    x 4.104640 -0.198510 0.174020 
#    y -0.198510 3.781140 -0.121350 
#    z 0.174020 -0.121350 3.803910 
# 
# 
# High freq. dielectric constant tensor:
#      x y z
#    x 1.816340 -0.006640 0.001970 
#    y -0.006640 1.815680 0.004200 
#    z 0.001970 0.004200 1.803300 
# 
# From -- ./inp_files/258810.got.cif
#   From: 2010.06.25/outbox.cif.g09.slc.cpg/sg2_130_cif.got.tgz:258810.got - 2010.06.27 13:26:56.
