data_PCOD8023446
_publ_section_title
;
Structure prediction by ZEFSAII (Michael W. Deem and Ramdas Pophale) SiO2 
 PCOD8023446
Probable space group: P -1
;
_chemical_formula_sum "Si O2"
_cell_formula_units_Z 16
_cell_length_a 11.933576
_cell_length_b 9.102151
_cell_length_c 8.825908
_cell_angle_alpha 60.576565
_cell_angle_beta 97.787174
_cell_angle_gamma 119.161944
_cell_volume 722.347213
_symmetry_space_group_name_H-M "P -1"
_symmetry_group_IT_number 2
_symmetry_cell_setting 'triclinic'
loop_
_space_group_symop_operation_xyz
x,y,z
-x,-y,-z
loop_
_atom_site_type_symbol
_atom_site_label
_atom_site_fract_x
_atom_site_fract_y
_atom_site_fract_z
Si Si1 0.516770 0.840014 0.671907
Si Si2 0.169908 0.267805 0.644274
Si Si3 0.995851 0.854471 0.761285
Si Si4 0.632156 0.416564 0.962490
Si Si5 0.854051 0.503041 0.734989
Si Si6 0.549503 0.535743 0.321752
Si Si7 0.943664 0.198793 0.865477
Si Si8 0.243336 0.154852 0.166592
O O1 0.476040 0.669805 0.633459
O O2 0.666192 0.925204 0.706532
O O3 0.500000 0.000000 0.500000
O O4 0.424145 0.763325 0.841741
O O5 0.208307 0.439795 0.444097
O O6 0.298271 0.309343 0.737362
O O7 0.061368 0.258336 0.742229
O O8 0.117129 0.065135 0.645464
O O9 0.985770 0.694913 0.718735
O O10 0.863141 0.866953 0.717149
O O11 0.003462 0.782756 0.966437
O O12 0.755389 0.423362 0.898770
O O13 0.523177 0.379412 0.837136
O O14 0.668730 0.613440 0.966435
O O15 0.886780 0.343107 0.760328
O O16 0.500000 0.500000 0.500000
O O17 0.832351 0.976913 0.926420
#
# Coordination Sequence:
#
# PCOD8023446 Si02
#       8
#     2   2   2   2   2   2   2   2
#     4  11  26  44  69  99 134 174 218 278 337 388
#     4  11  23  41  68  95 132 176 224 261 329 399
#     4  10  23  41  67  96 127 177 224 266 325 391
#     4  10  23  44  70  93 135 179 217 273 327 399
#     4  11  23  44  61 100 138 167 215 282 333 378
#     4  11  23  44  70 101 129 174 228 267 324 400
#     4  11  24  40  68  98 129 177 220 275 325 387
#     4   9  20  41  67  92 129 169 223 262 322 395
#
# _framework density 22.150013000000001
#
# number of rings (size 3 to 8) (size 9 to 14) (size 15 to 20)
#    0.000    1.500    1.250    4.125   10.500    0.000 
#    2.250    1.250    0.000    0.000    0.000    0.000 
#    0.000    0.000    0.000    0.000    0.000    0.000 
#
# Total GULP energy -198407.962408 kJ/mol
# GULP energy per Si atom -12400.497651 kJ/mol
# Density = 2.209960 g / cm^3
# Si number density = 22.150013 Si / 1000 Ang^3
#
#
#
# Elastic Constant Matrix: (Units=GPa)
#
#
# Indices 1 2 3 4 5 6 
#
# 1 88.1506 44.1075 23.3712 -4.8577 2.4713 16.4049
# 2 44.1075 94.0399 15.8969 0.8540 -3.9646 8.5971
# 3 23.3712 15.8969 118.0577 -8.6856 -3.2467 1.6863
# 4 -4.8577 0.8540 -8.6856 26.7165 -4.0320 7.3952
# 5 2.4713 -3.9646 -3.2467 -4.0320 22.5831 1.2197
# 6 16.4049 8.5971 1.6863 7.3952 1.2197 32.6005
#
#
#
# Elastic Compliance Matrix: (Units=1/GPa)
#
#
# Indices 1 2 3 4 5 6 
#
# 1 0.017190 -0.007155 -0.002066 0.004445 -0.002231 -0.007581
# 2 -0.007155 0.014206 -0.000529 -0.001518 0.002923 0.000117
# 3 -0.002066 -0.000529 0.009223 0.002951 0.001988 -0.000042
# 4 0.004445 -0.001518 0.002951 0.043868 0.008165 -0.012245
# 5 -0.002231 0.002923 0.001988 0.008165 0.046963 -0.003360
# 6 -0.007581 0.000117 -0.000042 -0.012245 -0.003360 0.037364
#
#
# Mechanical properties :
#
#
# Convention : Reuss Voigt Hill
#
# Bulk Modulus (GPa) = 47.35093 51.88883 49.61988
# Shear Modulus (GPa) = 25.59451 30.83820 28.21635
#
# Velocity S-wave (km/s) = 3.40296 3.73532 3.57301
# Velocity P-wave (km/s) = 6.07157 6.48695 6.28269
#
# Compressibility (1/GPa) = 0.02111891
#
# Stress axis : x y z
#
# Youngs Moduli (GPa) = 58.17208 70.39525 108.42372
#
# Poissons Ratio (x) = 0.50367 0.22397
# Poissons Ratio (y) = 0.41622 0.05740
# Poissons Ratio (z) = 0.12017 0.03727
#
# Static dielectric constant tensor:
#      x y z
#    x 4.041630 0.201080 0.024650 
#    y 0.201080 4.249240 0.100950 
#    z 0.024650 0.100950 3.832520 
# 
# 
# High freq. dielectric constant tensor:
#      x y z
#    x 1.866280 0.014090 -0.000820 
#    y 0.014090 1.875280 0.011900 
#    z -0.000820 0.011900 1.871110 
# 
# From -- ./inp_files/242590.got.cif
#   From: 2010.06.25/outbox.cif.g09.slc.cpg/sg2_122_cif.got.tgz:242590.got - 2010.06.27 13:26:56.
