data_PCOD8023546
_publ_section_title
;
Structure prediction by ZEFSAII (Michael W. Deem and Ramdas Pophale) SiO2 
 PCOD8023546
Probable space group: P -1
;
_chemical_formula_sum "Si O2"
_cell_formula_units_Z 16
_cell_length_a 9.180162
_cell_length_b 19.093992
_cell_length_c 14.335937
_cell_angle_alpha 22.480958
_cell_angle_beta 43.961167
_cell_angle_gamma 44.889480
_cell_volume 658.047551
_symmetry_space_group_name_H-M "P -1"
_symmetry_group_IT_number 2
_symmetry_cell_setting 'triclinic'
loop_
_space_group_symop_operation_xyz
x,y,z
-x,-y,-z
loop_
_atom_site_type_symbol
_atom_site_label
_atom_site_fract_x
_atom_site_fract_y
_atom_site_fract_z
Si Si1 0.138224 0.744803 0.656563
Si Si2 0.014509 0.958924 0.150974
Si Si3 0.518761 0.542357 0.075834
Si Si4 0.260143 0.074529 0.300116
Si Si5 0.332182 0.698723 0.425156
Si Si6 0.764543 0.656037 0.187496
Si Si7 0.078598 0.641864 0.219038
Si Si8 0.607117 0.794667 0.565211
O O1 0.249227 0.535925 0.890975
O O2 0.237392 0.783604 0.463082
O O3 0.879569 0.783925 0.734707
O O4 0.179195 0.880829 0.554775
O O5 0.849550 0.825748 0.422624
O O6 0.005548 0.147082 0.979063
O O7 0.246878 0.844916 0.204365
O O8 0.000000 0.000000 0.000000
O O9 0.334649 0.613093 0.147887
O O10 0.421873 0.371014 0.286928
O O11 0.533734 0.723467 0.785314
O O12 0.483698 0.999863 0.339993
O O13 0.272315 0.163219 0.083173
O O14 0.588012 0.671823 0.332370
O O15 0.251349 0.506586 0.678390
O O16 0.992776 0.617888 0.181998
O O17 0.000000 0.500000 0.500000
#
# Coordination Sequence:
#
# PCOD8023546 Si02
#       8
#     2   2   2   2   2   2   2   2
#     4  10  23  42  67 102 137 178 228 275 342 408
#     4  12  26  44  69 101 139 178 232 287 343 412
#     4  10  23  42  71 100 140 183 224 276 343 413
#     4  10  23  41  69  99 140 179 223 278 339 414
#     4  11  25  44  68 102 136 176 232 288 345 412
#     4  11  25  44  70  97 136 180 230 285 346 412
#     4  12  26  44  71  98 135 184 232 283 347 413
#     4  10  23  43  69 101 141 180 225 280 342 405
#
# _framework density 24.314352
#
# number of rings (size 3 to 8) (size 9 to 14) (size 15 to 20)
#    0.000    1.250    0.000    4.500   10.500    8.000 
#    0.000    0.000    0.000    0.000    0.000    0.000 
#    0.000    0.000    0.000    0.000    0.000    0.000 
#
# Total GULP energy -198279.901559 kJ/mol
# GULP energy per Si atom -12392.493847 kJ/mol
# Density = 2.425901 g / cm^3
# Si number density = 24.314352 Si / 1000 Ang^3
#
#
#
# Elastic Constant Matrix: (Units=GPa)
#
#
# Indices 1 2 3 4 5 6 
#
# 1 54.9101 24.0623 21.5886 -8.7779 22.6591 -7.6156
# 2 24.0623 111.3705 19.1025 7.6471 8.8336 -8.1668
# 3 21.5886 19.1025 122.2306 -0.3591 20.3585 -4.9534
# 4 -8.7779 7.6471 -0.3591 33.7211 -0.3498 14.2704
# 5 22.6591 8.8336 20.3585 -0.3498 49.2220 -5.6775
# 6 -7.6156 -8.1668 -4.9534 14.2704 -5.6775 31.1282
#
#
#
# Elastic Compliance Matrix: (Units=1/GPa)
#
#
# Indices 1 2 3 4 5 6 
#
# 1 0.026988 -0.005266 -0.002188 0.008491 -0.010624 -0.000958
# 2 -0.005266 0.010854 -0.000822 -0.005620 0.001265 0.004236
# 3 -0.002188 -0.000822 0.009143 -0.000511 -0.002576 0.000468
# 4 0.008491 -0.005620 -0.000511 0.041219 -0.004613 -0.019216
# 5 -0.010624 0.001265 -0.002576 -0.004613 0.026505 0.004272
# 6 -0.000958 0.004236 0.000468 -0.019216 0.004272 0.042665
#
#
# Mechanical properties :
#
#
# Convention : Reuss Voigt Hill
#
# Bulk Modulus (GPa) = 32.85914 46.44646 39.65280
# Shear Modulus (GPa) = 27.16349 37.73143 32.44746
#
# Velocity S-wave (km/s) = 3.34605 3.94358 3.65704
# Velocity P-wave (km/s) = 5.33589 6.31504 5.84600
#
# Compressibility (1/GPa) = 0.03043294
#
# Stress axis : x y z
#
# Youngs Moduli (GPa) = 37.05316 92.13194 109.37662
#
# Poissons Ratio (x) = 0.48519 0.23932
# Poissons Ratio (y) = 0.19513 0.08987
# Poissons Ratio (z) = 0.08107 0.07570
#
# Static dielectric constant tensor:
#      x y z
#    x 4.424480 -0.450460 -0.089870 
#    y -0.450460 4.793790 0.040140 
#    z -0.089870 0.040140 4.522230 
# 
# 
# High freq. dielectric constant tensor:
#      x y z
#    x 1.960370 -0.013230 0.007420 
#    y -0.013230 1.972510 -0.012730 
#    z 0.007420 -0.012730 1.971220 
# 
# From -- ./inp_files/508039.got.cif
#   From: 2010.06.25/outbox.cif.g09.slc.cpg/sg2_255_cif.got.tgz:508039.got - 2010.06.27 13:26:56.
