data_PCOD8023362
_publ_section_title
;
Structure prediction by ZEFSAII (Michael W. Deem and Ramdas Pophale) SiO2 
 PCOD8023362
Probable space group: P -1
;
_chemical_formula_sum "Si O2"
_cell_formula_units_Z 16
_cell_length_a 12.261114
_cell_length_b 9.102264
_cell_length_c 13.834658
_cell_angle_alpha 107.212707
_cell_angle_beta 60.769280
_cell_angle_gamma 55.850381
_cell_volume 684.619266
_symmetry_space_group_name_H-M "P -1"
_symmetry_group_IT_number 2
_symmetry_cell_setting 'triclinic'
loop_
_space_group_symop_operation_xyz
x,y,z
-x,-y,-z
loop_
_atom_site_type_symbol
_atom_site_label
_atom_site_fract_x
_atom_site_fract_y
_atom_site_fract_z
Si Si1 0.180913 0.263775 0.775080
Si Si2 0.029955 0.202037 0.283625
Si Si3 0.822995 0.854724 0.447612
Si Si4 0.712081 0.218974 0.093230
Si Si5 0.950760 0.284174 0.008771
Si Si6 0.180175 0.798941 0.468780
Si Si7 0.285081 0.237742 0.210031
Si Si8 0.392255 0.172981 0.365313
O O1 0.268264 0.139408 0.606568
O O2 0.109433 0.517304 0.850733
O O3 0.352579 0.052871 0.750481
O O4 0.982201 0.342644 0.903927
O O5 0.192676 0.161709 0.256230
O O6 0.961976 0.140717 0.375695
O O7 0.786511 0.544259 0.433842
O O8 0.156525 0.999619 0.096035
O O9 0.659223 0.955580 0.622562
O O10 0.094521 0.544062 0.298681
O O11 0.765929 0.088296 0.494162
O O12 0.747277 0.367581 0.099753
O O13 0.434311 0.464614 0.262504
O O14 0.820410 0.044244 0.112938
O O15 0.000000 0.000000 0.500000
O O16 0.360855 0.241167 0.278166
O O17 0.500000 0.000000 0.000000
#
# Coordination Sequence:
#
# PCOD8023362 Si02
#       8
#     2   2   2   2   2   2   2   2
#     4  11  23  40  73 103 142 179 238 296 352 405
#     4  11  25  44  71 101 137 185 240 278 360 423
#     4  11  24  44  66 106 140 180 238 288 349 418
#     4  11  25  46  67  98 143 188 230 286 354 427
#     4  10  23  41  66 104 139 183 235 284 353 424
#     4  12  26  45  69 100 146 185 237 294 350 416
#     4  11  26  44  74 100 137 186 235 289 353 415
#     4  11  23  44  71 102 142 183 235 296 348 416
#
# _framework density 23.370653999999998
#
# number of rings (size 3 to 8) (size 9 to 14) (size 15 to 20)
#    0.000    1.000    0.000    7.125    8.750    2.500 
#    2.250    4.375    0.000    0.000    0.000    0.000 
#    0.000    0.000    0.000    0.000    0.000    0.000 
#
# Total GULP energy -198276.084018 kJ/mol
# GULP energy per Si atom -12392.255251 kJ/mol
# Density = 2.331746 g / cm^3
# Si number density = 23.370654 Si / 1000 Ang^3
#
#
#
# Elastic Constant Matrix: (Units=GPa)
#
#
# Indices 1 2 3 4 5 6 
#
# 1 80.6855 42.9020 20.2154 7.4254 6.8167 3.3190
# 2 42.9020 98.7096 28.0388 -4.2720 0.2937 12.3619
# 3 20.2154 28.0388 109.7753 -6.4460 5.5162 -2.0949
# 4 7.4254 -4.2720 -6.4460 26.4336 -1.2041 -2.8499
# 5 6.8167 0.2937 5.5162 -1.2041 37.5455 4.1916
# 6 3.3190 12.3619 -2.0949 -2.8499 4.1916 55.7577
#
#
#
# Elastic Compliance Matrix: (Units=1/GPa)
#
#
# Indices 1 2 3 4 5 6 
#
# 1 0.017674 -0.007582 -0.001540 -0.006660 -0.003189 0.000470
# 2 -0.007582 0.014579 -0.002265 0.003721 0.002030 -0.002828
# 3 -0.001540 -0.002265 0.010212 0.002630 -0.001253 0.001206
# 4 -0.006660 0.003721 0.002630 0.041208 0.001933 0.001631
# 5 -0.003189 0.002030 -0.001253 0.001933 0.027699 -0.002291
# 6 0.000470 -0.002828 0.001206 0.001631 -0.002291 0.018835
#
#
# Mechanical properties :
#
#
# Convention : Reuss Voigt Hill
#
# Bulk Modulus (GPa) = 50.78441 52.38698 51.58569
# Shear Modulus (GPa) = 31.33923 37.14831 34.24377
#
# Velocity S-wave (km/s) = 3.66589 3.99121 3.83201
# Velocity P-wave (km/s) = 6.30044 6.61091 6.45754
#
# Compressibility (1/GPa) = 0.01969108
#
# Stress axis : x y z
#
# Youngs Moduli (GPa) = 56.57989 68.59357 97.92357
#
# Poissons Ratio (x) = 0.52007 0.15080
# Poissons Ratio (y) = 0.42898 0.22179
# Poissons Ratio (z) = 0.08713 0.15536
#
# Static dielectric constant tensor:
#      x y z
#    x 4.353420 0.090080 -0.092890 
#    y 0.090080 3.393480 -0.125940 
#    z -0.092890 -0.125940 4.269180 
# 
# 
# High freq. dielectric constant tensor:
#      x y z
#    x 1.927990 0.019110 -0.007770 
#    y 0.019110 1.935660 -0.004030 
#    z -0.007770 -0.004030 1.921290 
# 
# From -- ./inp_files/515902.got.cif
#   From: 2010.06.25/outbox.cif.g09.slc.cpg/sg2_258_cif.got.tgz:515902.got - 2010.06.27 13:26:56.
