data_PCOD8023276
_publ_section_title
;
Structure prediction by ZEFSAII (Michael W. Deem and Ramdas Pophale) SiO2 
 PCOD8023276
Probable space group: P -1
;
_chemical_formula_sum "Si O2"
_cell_formula_units_Z 14
_cell_length_a 14.025466
_cell_length_b 11.272586
_cell_length_c 14.803567
_cell_angle_alpha 117.285312
_cell_angle_beta 150.166952
_cell_angle_gamma 42.579738
_cell_volume 665.203852
_symmetry_space_group_name_H-M "P -1"
_symmetry_group_IT_number 2
_symmetry_cell_setting 'triclinic'
loop_
_space_group_symop_operation_xyz
x,y,z
-x,-y,-z
loop_
_atom_site_type_symbol
_atom_site_label
_atom_site_fract_x
_atom_site_fract_y
_atom_site_fract_z
Si Si1 0.568694 0.982971 0.446836
Si Si2 0.187608 0.433512 0.261772
Si Si3 0.732741 0.448473 0.455374
Si Si4 0.287533 0.865656 0.127144
Si Si5 0.370634 0.392798 0.210124
Si Si6 0.195410 0.744952 0.835735
Si Si7 0.072701 0.063335 0.503362
O O1 0.388974 0.965995 0.237092
O O2 0.922772 0.788596 0.649335
O O3 0.500000 0.000000 0.500000
O O4 0.467405 0.185841 0.410581
O O5 0.148829 0.545624 0.355799
O O6 0.232826 0.500751 0.233091
O O7 0.888009 0.507387 0.036694
O O8 0.561632 0.640813 0.317572
O O9 0.519838 0.441620 0.306840
O O10 0.016062 0.241842 0.559306
O O11 0.213400 0.852748 0.961957
O O12 0.000000 0.000000 0.000000
O O13 0.584996 0.148683 0.314409
O O14 0.138550 0.843193 0.725552
O O15 0.500000 0.500000 0.000000
O O16 0.000000 0.000000 0.500000
#
# Coordination Sequence:
#
# PCOD8023276 Si02
#       7
#     2   2   2   2   2   2   2
#     4  12  24  42  69 101 140 173 227 282 333 415
#     4  11  22  41  66  95 130 170 226 279 331 390
#     4  11  22  41  66  92 131 174 222 271 337 400
#     4  12  24  41  70 102 135 183 224 278 351 404
#     4  10  23  41  64  93 130 174 224 279 328 397
#     4  12  25  46  70 100 140 184 226 286 344 400
#     4  10  23  46  66  95 136 175 226 278 335 411
#
# _framework density 21.04618
#
# number of rings (size 3 to 8) (size 9 to 14) (size 15 to 20)
#    0.000    0.857    5.714    1.286    0.000    1.143 
#   10.286    0.000    0.000    0.000    0.000    0.000 
#    0.000    0.000    0.000    0.000    0.000    0.000 
#
# Total GULP energy -173586.481316 kJ/mol
# GULP energy per Si atom -12399.034380 kJ/mol
# Density = 2.099828 g / cm^3
# Si number density = 21.046180 Si / 1000 Ang^3
#
#
#
# Elastic Constant Matrix: (Units=GPa)
#
#
# Indices 1 2 3 4 5 6 
#
# 1 101.7261 28.7836 47.8591 19.7460 -31.0993 -4.8006
# 2 28.7836 107.6017 47.7821 21.6922 -31.7310 -6.5308
# 3 47.8591 47.7821 125.9880 17.7704 -27.3393 -0.9447
# 4 19.7460 21.6922 17.7704 50.7476 -10.1377 3.4583
# 5 -31.0993 -31.7310 -27.3393 -10.1377 63.2734 -19.5940
# 6 -4.8006 -6.5308 -0.9447 3.4583 -19.5940 56.8949
#
#
#
# Elastic Compliance Matrix: (Units=1/GPa)
#
#
# Indices 1 2 3 4 5 6 
#
# 1 0.014152 0.000619 -0.003753 -0.003462 0.006187 0.003544
# 2 0.000619 0.013486 -0.003440 -0.003833 0.006175 0.003903
# 3 -0.003753 -0.003440 0.010988 -0.000703 0.001024 -0.000134
# 4 -0.003462 -0.003833 -0.000703 0.022901 -0.001030 -0.002491
# 5 0.006187 0.006175 0.001024 -0.001030 0.025327 0.010033
# 6 0.003544 0.003903 -0.000134 -0.002491 0.010033 0.021928
#
#
# Mechanical properties :
#
#
# Convention : Reuss Voigt Hill
#
# Bulk Modulus (GPa) = 39.25015 64.90726 52.07871
# Shear Modulus (GPa) = 38.33703 48.24257 43.28980
#
# Velocity S-wave (km/s) = 4.27261 4.79291 4.54022
# Velocity P-wave (km/s) = 6.55975 7.84453 7.23073
#
# Compressibility (1/GPa) = 0.02547761
#
# Stress axis : x y z
#
# Youngs Moduli (GPa) = 70.66289 74.14933 91.00969
#
# Poissons Ratio (x) = -0.04586 0.34155
# Poissons Ratio (y) = -0.04371 0.31305
# Poissons Ratio (z) = 0.26519 0.25505
#
# Static dielectric constant tensor:
#      x y z
#    x 3.787100 -0.347260 -0.163730 
#    y -0.347260 4.349970 -0.208590 
#    z -0.163730 -0.208590 3.950340 
# 
# 
# High freq. dielectric constant tensor:
#      x y z
#    x 1.831800 -0.013980 -0.013270 
#    y -0.013980 1.827990 -0.009000 
#    z -0.013270 -0.009000 1.826960 
# 
# From -- ./inp_files/109536.got.cif
#   From: 2010.06.25/outbox.cif.g09.slc.cpg/sg2_55_cif.got.tgz:109536.got - 2010.06.27 13:26:56.
