data_PCOD8023144
_publ_section_title
;
Structure prediction by ZEFSAII (Michael W. Deem and Ramdas Pophale) SiO2 
 PCOD8023144
Probable space group: P -1
;
_chemical_formula_sum "Si O2"
_cell_formula_units_Z 16
_cell_length_a 11.705630
_cell_length_b 12.192270
_cell_length_c 12.054537
_cell_angle_alpha 109.752093
_cell_angle_beta 96.860482
_cell_angle_gamma 141.818847
_cell_volume 750.230586
_symmetry_space_group_name_H-M "P -1"
_symmetry_group_IT_number 2
_symmetry_cell_setting 'triclinic'
loop_
_space_group_symop_operation_xyz
x,y,z
-x,-y,-z
loop_
_atom_site_type_symbol
_atom_site_label
_atom_site_fract_x
_atom_site_fract_y
_atom_site_fract_z
Si Si1 0.356527 0.249965 0.394786
Si Si2 0.346869 0.059245 0.153854
Si Si3 0.243699 0.470076 0.073609
Si Si4 0.432428 0.183284 0.968035
Si Si5 0.306708 0.827927 0.751686
Si Si6 0.488923 0.188626 0.566625
Si Si7 0.820696 0.291296 0.550690
Si Si8 0.890953 0.892427 0.075381
O O1 0.500000 0.500000 0.500000
O O2 0.377646 0.205677 0.502364
O O3 0.465357 0.248329 0.325981
O O4 0.085699 0.034032 0.242668
O O5 0.430772 0.001517 0.161505
O O6 0.049617 0.785145 0.025747
O O7 0.474204 0.232449 0.120616
O O8 0.323699 0.591850 0.003844
O O9 0.400146 0.676925 0.255351
O O10 0.308946 0.390933 0.053351
O O11 0.233883 0.104562 0.888295
O O12 0.310853 0.948264 0.863734
O O13 0.225873 0.790640 0.607412
O O14 0.111667 0.566619 0.698670
O O15 0.701110 0.311485 0.565553
O O16 0.272589 0.898269 0.449205
O O17 0.000000 0.000000 0.000000
#
# Coordination Sequence:
#
# PCOD8023144 Si02
#       8
#     2   2   2   2   2   2   2   2
#     4  11  24  40  73  99 133 185 228 283 345 410
#     4  11  25  45  67 102 139 178 230 288 345 403
#     4  11  24  43  72  97 137 183 225 283 343 416
#     4  12  24  43  70  99 136 180 235 277 352 407
#     4  11  23  43  65 103 133 184 231 286 342 410
#     4  11  22  44  67 103 137 183 232 278 351 404
#     4  10  23  40  69  95 146 179 223 287 343 412
#     4  11  23  45  69  97 138 181 228 285 347 408
#
# _framework density 21.326775999999999
#
# number of rings (size 3 to 8) (size 9 to 14) (size 15 to 20)
#    0.000    1.000    5.000    2.250    1.750    2.500 
#    0.000    0.625    0.000    0.000    0.000    0.000 
#    0.000    0.000    0.000    0.000    0.000    0.000 
#
# Total GULP energy -198254.431894 kJ/mol
# GULP energy per Si atom -12390.901993 kJ/mol
# Density = 2.127824 g / cm^3
# Si number density = 21.326776 Si / 1000 Ang^3
#
#
#
# Elastic Constant Matrix: (Units=GPa)
#
#
# Indices 1 2 3 4 5 6 
#
# 1 132.1377 25.2368 35.4551 14.1181 -9.8350 -15.2564
# 2 25.2368 123.4161 39.3838 -0.2828 -0.7806 -4.8044
# 3 35.4551 39.3838 75.2092 7.1266 -10.7735 -1.4667
# 4 14.1181 -0.2828 7.1266 20.4588 -3.7096 -8.0569
# 5 -9.8350 -0.7806 -10.7735 -3.7096 29.6296 -3.0283
# 6 -15.2564 -4.8044 -1.4667 -8.0569 -3.0283 34.8182
#
#
#
# Elastic Compliance Matrix: (Units=1/GPa)
#
#
# Indices 1 2 3 4 5 6 
#
# 1 0.009537 -0.000725 -0.003443 -0.003814 0.001745 0.003203
# 2 -0.000725 0.010005 -0.005339 0.002772 -0.001433 0.001355
# 3 -0.003443 -0.005339 0.018758 -0.004145 0.004814 -0.001995
# 4 -0.003814 0.002772 -0.004145 0.059095 0.006000 0.012733
# 5 0.001745 -0.001433 0.004814 0.006000 0.037346 0.005406
# 6 0.003203 0.001355 -0.001995 0.012733 0.005406 0.033643
#
#
# Mechanical properties :
#
#
# Convention : Reuss Voigt Hill
#
# Bulk Modulus (GPa) = 51.84607 58.99048 55.41827
# Shear Modulus (GPa) = 25.79629 32.36049 29.07839
#
# Velocity S-wave (km/s) = 3.48166 3.89956 3.69652
# Velocity P-wave (km/s) = 6.36598 6.92790 6.65288
#
# Compressibility (1/GPa) = 0.01928787
#
# Stress axis : x y z
#
# Youngs Moduli (GPa) = 104.85229 99.95443 53.30933
#
# Poissons Ratio (x) = 0.07243 0.18353
# Poissons Ratio (y) = 0.07598 0.28461
# Poissons Ratio (z) = 0.36098 0.53364
#
# Static dielectric constant tensor:
#      x y z
#    x 4.106500 -0.066880 -0.207670 
#    y -0.066880 3.907940 -0.024110 
#    z -0.207670 -0.024110 3.859250 
# 
# 
# High freq. dielectric constant tensor:
#      x y z
#    x 1.846460 -0.008670 -0.015650 
#    y -0.008670 1.835960 -0.006850 
#    z -0.015650 -0.006850 1.831760 
# 
# From -- ./inp_files/399170.got.cif
#   From: 2010.06.25/outbox.cif.g09.slc.cpg/sg2_200_cif.got.tgz:399170.got - 2010.06.27 13:26:56.
