data_PCOD8023075
_publ_section_title
;
Structure prediction by ZEFSAII (Michael W. Deem and Ramdas Pophale) SiO2 
 PCOD8023075
Probable space group: P -1
;
_chemical_formula_sum "Si O2"
_cell_formula_units_Z 16
_cell_length_a 14.834145
_cell_length_b 9.244854
_cell_length_c 11.622656
_cell_angle_alpha 125.060585
_cell_angle_beta 70.846112
_cell_angle_gamma 63.495988
_cell_volume 703.845669
_symmetry_space_group_name_H-M "P -1"
_symmetry_group_IT_number 2
_symmetry_cell_setting 'triclinic'
loop_
_space_group_symop_operation_xyz
x,y,z
-x,-y,-z
loop_
_atom_site_type_symbol
_atom_site_label
_atom_site_fract_x
_atom_site_fract_y
_atom_site_fract_z
Si Si1 0.641986 0.143507 0.248752
Si Si2 0.311080 0.777853 0.244983
Si Si3 0.074609 0.063294 0.047445
Si Si4 0.174842 0.777748 0.102214
Si Si5 0.441503 0.072099 0.687851
Si Si6 0.131709 0.770860 0.440182
Si Si7 0.658179 0.878189 0.901066
Si Si8 0.742067 0.768622 0.560897
O O1 0.500000 0.500000 0.500000
O O2 0.636734 0.000183 0.283557
O O3 0.818892 0.979515 0.105671
O O4 0.622267 0.087228 0.103813
O O5 0.200340 0.896580 0.235466
O O6 0.282635 0.683170 0.319341
O O7 0.255901 0.056636 0.437059
O O8 0.500000 0.500000 0.000000
O O9 0.921840 0.407587 0.317035
O O10 0.205619 0.804116 0.973544
O O11 0.000000 0.000000 0.000000
O O12 0.297068 0.435104 0.933273
O O13 0.976158 0.025675 0.305599
O O14 0.500000 0.000000 0.500000
O O15 0.596143 0.864133 0.615858
O O16 0.198513 0.469708 0.269748
O O17 0.000000 0.000000 0.500000
O O18 0.709789 0.877991 0.755799
O O19 0.500000 0.000000 0.000000
#
# Coordination Sequence:
#
# PCOD8023075 Si02
#       8
#     2   2   2   2   2   2   2   2
#     4  12  27  48  77 109 148 200 245 301 384 441
#     4  11  22  41  68 108 141 179 234 302 365 433
#     4  12  28  49  71 104 152 192 250 310 366 443
#     4  11  23  46  70  98 146 189 235 299 370 429
#     4  12  26  50  72 102 149 201 246 299 369 452
#     4  10  23  40  67 102 144 182 229 294 366 430
#     4  12  24  45  78 109 146 190 251 310 361 444
#     4  12  25  45  73 110 146 188 250 308 367 432
#
# _framework density 22.732254000000001
#
# number of rings (size 3 to 8) (size 9 to 14) (size 15 to 20)
#    0.000    0.500    3.750    5.250    5.250    1.000 
#    4.500    1.250    0.000    0.000    0.000    0.000 
#    0.000    0.000    0.000    0.000    0.000    0.000 
#
# Total GULP energy -198335.743536 kJ/mol
# GULP energy per Si atom -12395.983971 kJ/mol
# Density = 2.268051 g / cm^3
# Si number density = 22.732254 Si / 1000 Ang^3
#
#
#
# Elastic Constant Matrix: (Units=GPa)
#
#
# Indices 1 2 3 4 5 6 
#
# 1 119.7203 41.2417 47.3585 -9.7440 -8.1631 24.5522
# 2 41.2417 116.0657 40.6965 -0.9156 -3.4863 16.6059
# 3 47.3585 40.6965 139.8466 2.3916 -6.1013 9.1443
# 4 -9.7440 -0.9156 2.3916 48.1554 2.1041 -4.1219
# 5 -8.1631 -3.4863 -6.1013 2.1041 40.4126 -3.1279
# 6 24.5522 16.6059 9.1443 -4.1219 -3.1279 42.5259
#
#
#
# Elastic Compliance Matrix: (Units=1/GPa)
#
#
# Indices 1 2 3 4 5 6 
#
# 1 0.011539 -0.002342 -0.002890 0.001966 0.001215 -0.004847
# 2 -0.002342 0.010519 -0.002111 -0.000367 -0.000046 -0.002341
# 3 -0.002890 -0.002111 0.008753 -0.001040 0.000653 0.000558
# 4 0.001966 -0.000367 -0.001040 0.021350 -0.000807 0.001242
# 5 0.001215 -0.000046 0.000653 -0.000807 0.025200 0.000951
# 6 -0.004847 -0.002341 0.000558 0.001242 0.000951 0.027298
#
#
# Mechanical properties :
#
#
# Convention : Reuss Voigt Hill
#
# Bulk Modulus (GPa) = 62.00876 70.46955 66.23915
# Shear Modulus (GPa) = 40.08977 42.64116 41.36547
#
# Velocity S-wave (km/s) = 4.20404 4.33575 4.27040
# Velocity P-wave (km/s) = 7.13459 7.49213 7.31554
#
# Compressibility (1/GPa) = 0.01612675
#
# Stress axis : x y z
#
# Youngs Moduli (GPa) = 86.65907 95.07049 114.24053
#
# Poissons Ratio (x) = 0.22261 0.33017
# Poissons Ratio (y) = 0.20292 0.24113
# Poissons Ratio (z) = 0.25045 0.20067
#
# Static dielectric constant tensor:
#      x y z
#    x 5.068270 0.660510 -0.876560 
#    y 0.660510 4.583840 -0.545040 
#    z -0.876560 -0.545040 5.271930 
# 
# 
# High freq. dielectric constant tensor:
#      x y z
#    x 1.888630 0.019860 -0.013090 
#    y 0.019860 1.904810 0.004240 
#    z -0.013090 0.004240 1.909440 
# 
# From -- ./inp_files/278978.got.cif
#   From: 2010.06.25/outbox.cif.g09.slc.cpg/sg2_140_cif.got.tgz:278978.got - 2010.06.27 13:26:56.
