data_PCOD8023991
_publ_section_title
;
Structure prediction by ZEFSAII (Michael W. Deem and Ramdas Pophale) SiO2 
 PCOD8023991
Probable space group: P -1
;
_chemical_formula_sum "Si O2"
_cell_formula_units_Z 16
_cell_length_a 8.597942
_cell_length_b 9.738341
_cell_length_c 19.191099
_cell_angle_alpha 123.117298
_cell_angle_beta 145.645949
_cell_angle_gamma 55.944640
_cell_volume 739.011838
_symmetry_space_group_name_H-M "P -1"
_symmetry_group_IT_number 2
_symmetry_cell_setting 'triclinic'
loop_
_space_group_symop_operation_xyz
x,y,z
-x,-y,-z
loop_
_atom_site_type_symbol
_atom_site_label
_atom_site_fract_x
_atom_site_fract_y
_atom_site_fract_z
Si Si1 0.679717 0.957053 0.658879
Si Si2 0.651077 0.630496 0.626058
Si Si3 0.105287 0.069109 0.950643
Si Si4 0.687597 0.616260 0.915135
Si Si5 0.683400 0.229215 0.958125
Si Si6 0.388476 0.574252 0.650315
Si Si7 0.729620 0.477043 0.156366
Si Si8 0.228279 0.230859 0.500185
O O1 0.545634 0.820555 0.612069
O O2 0.793944 0.887055 0.606431
O O3 0.946446 0.992329 0.809665
O O4 0.430354 0.124783 0.604872
O O5 0.500000 0.500000 0.500000
O O6 0.600435 0.632176 0.690690
O O7 0.977684 0.561759 0.704571
O O8 0.874570 0.173411 0.946467
O O9 0.293779 0.188816 0.021899
O O10 0.319380 0.923754 0.032792
O O11 0.517504 0.574880 0.774384
O O12 0.515057 0.585279 0.910262
O O13 0.000000 0.500000 0.000000
O O14 0.368540 0.321627 0.840022
O O15 0.796332 0.374638 0.080318
O O16 0.360263 0.386334 0.568927
O O17 0.083999 0.702956 0.565931
#
# Coordination Sequence:
#
# PCOD8023991 Si02
#       8
#     2   2   2   2   2   2   2   2
#     4  11  23  46  70 100 137 176 227 284 334 402
#     4  12  25  45  69  96 135 182 231 274 334 395
#     4  11  23  44  68 102 140 175 215 284 343 399
#     4  12  25  42  71 104 135 178 221 274 348 401
#     4  10  23  42  68  98 140 173 218 275 341 400
#     4  11  25  44  70  98 136 178 233 274 337 399
#     4  11  24  46  68  98 137 176 231 275 329 412
#     4  10  24  47  69  98 135 179 228 288 329 393
#
# _framework density 21.650531999999998
#
# number of rings (size 3 to 8) (size 9 to 14) (size 15 to 20)
#    0.000    1.000    3.750    2.250    5.250    1.000 
#    2.250    0.000    0.000    0.000    0.000    0.000 
#    0.000    0.000    0.000    0.000    0.000    0.000 
#
# Total GULP energy -198427.321430 kJ/mol
# GULP energy per Si atom -12401.707589 kJ/mol
# Density = 2.160125 g / cm^3
# Si number density = 21.650532 Si / 1000 Ang^3
#
#
#
# Elastic Constant Matrix: (Units=GPa)
#
#
# Indices 1 2 3 4 5 6 
#
# 1 82.7630 40.4318 35.8349 -1.7821 4.5535 7.6265
# 2 40.4318 162.1371 43.9312 -16.8850 15.3031 6.9907
# 3 35.8349 43.9312 92.0432 2.7578 6.5195 4.6486
# 4 -1.7821 -16.8850 2.7578 37.9417 -5.3078 -3.9171
# 5 4.5535 15.3031 6.5195 -5.3078 36.4322 2.8052
# 6 7.6265 6.9907 4.6486 -3.9171 2.8052 31.4553
#
#
#
# Elastic Compliance Matrix: (Units=1/GPa)
#
#
# Indices 1 2 3 4 5 6 
#
# 1 0.015594 -0.002539 -0.004729 -0.000302 0.000117 -0.002566
# 2 -0.002539 0.008126 -0.002836 0.003395 -0.002081 -0.000163
# 3 -0.004729 -0.002836 0.014249 -0.002736 -0.001122 -0.000570
# 4 -0.000302 0.003395 -0.002736 0.028794 0.003062 0.003036
# 5 0.000117 -0.002081 -0.001122 0.003062 0.029079 -0.001612
# 6 -0.002566 -0.000163 -0.000570 0.003036 -0.001612 0.033055
#
#
# Mechanical properties :
#
#
# Convention : Reuss Voigt Hill
#
# Bulk Modulus (GPa) = 56.30208 64.14880 60.22544
# Shear Modulus (GPa) = 32.25244 35.61555 33.93399
#
# Velocity S-wave (km/s) = 3.86383 4.06028 3.96327
# Velocity P-wave (km/s) = 6.77989 7.18851 6.98719
#
# Compressibility (1/GPa) = 0.01776133
#
# Stress axis : x y z
#
# Youngs Moduli (GPa) = 64.12629 123.05677 70.17834
#
# Poissons Ratio (x) = 0.31248 0.33187
# Poissons Ratio (y) = 0.16284 0.19903
# Poissons Ratio (z) = 0.30325 0.34900
#
# Static dielectric constant tensor:
#      x y z
#    x 4.013180 -0.007750 -0.008280 
#    y -0.007750 4.318210 -0.173560 
#    z -0.008280 -0.173560 3.945380 
# 
# 
# High freq. dielectric constant tensor:
#      x y z
#    x 1.849080 -0.001060 -0.013890 
#    y -0.001060 1.868730 -0.010010 
#    z -0.013890 -0.010010 1.846120 
# 
# From -- ./inp_files/345409.got.cif
#   From: 2010.06.25/outbox.cif.g09.slc.cpg/sg2_173_cif.got.tgz:345409.got - 2010.06.27 13:26:56.
