data_PCOD8023572
_publ_section_title
;
Structure prediction by ZEFSAII (Michael W. Deem and Ramdas Pophale) SiO2 
 PCOD8023572
Probable space group: P -1
;
_chemical_formula_sum "Si O2"
_cell_formula_units_Z 12
_cell_length_a 23.515012
_cell_length_b 12.101482
_cell_length_c 5.882873
_cell_angle_alpha 61.075952
_cell_angle_beta 64.342285
_cell_angle_gamma 21.579879
_cell_volume 538.184869
_symmetry_space_group_name_H-M "P -1"
_symmetry_group_IT_number 2
_symmetry_cell_setting 'triclinic'
loop_
_space_group_symop_operation_xyz
x,y,z
-x,-y,-z
loop_
_atom_site_type_symbol
_atom_site_label
_atom_site_fract_x
_atom_site_fract_y
_atom_site_fract_z
Si Si1 0.490110 0.227588 0.755214
Si Si2 0.617518 0.767013 0.728239
Si Si3 0.070997 0.286493 0.893089
Si Si4 0.033501 0.876891 0.313381
Si Si5 0.206261 0.883189 0.412764
Si Si6 0.770279 0.895065 0.596346
O O1 0.361017 0.514443 0.515952
O O2 0.589893 0.928551 0.793584
O O3 0.610241 0.119334 0.709607
O O4 0.402613 0.335840 0.023888
O O5 0.786372 0.479012 0.623748
O O6 0.500000 0.000000 0.500000
O O7 0.207147 0.114369 0.699436
O O8 0.920070 0.533146 0.754505
O O9 0.000000 0.500000 0.000000
O O10 0.152440 0.010099 0.120111
O O11 0.000000 0.000000 0.500000
O O12 0.935283 0.928814 0.409538
O O13 0.000000 0.000000 0.000000
O O14 0.235855 0.961286 0.405792
#
# Coordination Sequence:
#
# PCOD8023572 Si02
#       6
#     2   2   2   2   2   2
#     4  11  25  45  67 103 142 186 239 300 369 430
#     4  11  27  45  70 101 146 191 243 301 366 440
#     4   9  22  40  62 100 133 182 231 293 361 427
#     4  12  28  49  78 108 147 195 248 305 360 441
#     4  11  24  43  69 104 139 184 240 295 365 431
#     4  10  23  41  70  98 140 180 239 300 362 435
#
# _framework density 22.297169
#
# number of rings (size 3 to 8) (size 9 to 14) (size 15 to 20)
#    0.000    1.333    1.667    1.500   14.000    3.333 
#    0.000    0.000    0.000    0.000    0.000    0.000 
#    0.000    0.000    0.000    0.000    0.000    0.000 
#
# Total GULP energy -148657.808357 kJ/mol
# GULP energy per Si atom -12388.150696 kJ/mol
# Density = 2.224642 g / cm^3
# Si number density = 22.297169 Si / 1000 Ang^3
#
#
#
# Elastic Constant Matrix: (Units=GPa)
#
#
# Indices 1 2 3 4 5 6 
#
# 1 102.1282 45.6977 49.8503 9.6003 -26.7531 -28.6513
# 2 45.6977 148.9734 62.1250 -7.1500 -17.0210 -29.2173
# 3 49.8503 62.1250 165.2440 -19.4644 -11.5976 -14.4735
# 4 9.6003 -7.1500 -19.4644 44.7771 -4.0923 2.1778
# 5 -26.7531 -17.0210 -11.5976 -4.0923 40.3671 10.9480
# 6 -28.6513 -29.2173 -14.4735 2.1778 10.9480 41.3084
#
#
#
# Elastic Compliance Matrix: (Units=1/GPa)
#
#
# Indices 1 2 3 4 5 6 
#
# 1 0.016846 -0.001463 -0.004010 -0.005348 0.006756 0.007736
# 2 -0.001463 0.009197 -0.002494 0.000588 0.001086 0.004297
# 3 -0.004010 -0.002494 0.008522 0.004213 -0.000378 -0.001682
# 4 -0.005348 0.000588 0.004213 0.025714 0.001489 -0.003567
# 5 0.006756 0.001086 -0.000378 0.001489 0.030522 -0.002847
# 6 0.007736 0.004297 -0.001682 -0.003567 -0.002847 0.032967
#
#
# Mechanical properties :
#
#
# Convention : Reuss Voigt Hill
#
# Bulk Modulus (GPa) = 53.67786 81.29907 67.48846
# Shear Modulus (GPa) = 34.26709 42.53537 38.40123
#
# Velocity S-wave (km/s) = 3.92450 4.37241 4.15450
# Velocity P-wave (km/s) = 6.68294 7.87600 7.30387
#
# Compressibility (1/GPa) = 0.01862965
#
# Stress axis : x y z
#
# Youngs Moduli (GPa) = 59.36005 108.73538 117.34744
#
# Poissons Ratio (x) = 0.15905 0.47061
# Poissons Ratio (y) = 0.08683 0.29271
# Poissons Ratio (z) = 0.23806 0.27123
#
# Static dielectric constant tensor:
#      x y z
#    x 3.932870 -0.140190 -0.037580 
#    y -0.140190 3.900790 -0.570950 
#    z -0.037580 -0.570950 4.633270 
# 
# 
# High freq. dielectric constant tensor:
#      x y z
#    x 1.865260 -0.011120 -0.004150 
#    y -0.011120 1.885390 -0.003660 
#    z -0.004150 -0.003660 1.897940 
# 
# From -- ./inp_files/21442.got.cif
#   From: 2010.06.25/outbox.cif.g09.slc.cpg/sg2_11_cif.got.tgz:21442.got - 2010.06.27 13:26:56.
