data_PCOD8023017
_publ_section_title
;
Structure prediction by ZEFSAII (Michael W. Deem and Ramdas Pophale) SiO2 
 PCOD8023017
Probable space group: P -1
;
_chemical_formula_sum "Si O2"
_cell_formula_units_Z 16
_cell_length_a 7.642750
_cell_length_b 16.336855
_cell_length_c 25.797958
_cell_angle_alpha 18.788255
_cell_angle_beta 48.370182
_cell_angle_gamma 48.343932
_cell_volume 766.831067
_symmetry_space_group_name_H-M "P -1"
_symmetry_group_IT_number 2
_symmetry_cell_setting 'triclinic'
loop_
_space_group_symop_operation_xyz
x,y,z
-x,-y,-z
loop_
_atom_site_type_symbol
_atom_site_label
_atom_site_fract_x
_atom_site_fract_y
_atom_site_fract_z
Si Si1 0.415480 0.716570 0.244425
Si Si2 0.802182 0.292287 0.920924
Si Si3 0.382652 0.090602 0.184793
Si Si4 0.169506 0.202170 0.328546
Si Si5 0.244555 0.907060 0.058313
Si Si6 0.456858 0.159030 0.588081
Si Si7 0.219184 0.500491 0.043557
Si Si8 0.039294 0.934890 0.265095
O O1 0.377944 0.726886 0.183885
O O2 0.548005 0.432934 0.402462
O O3 0.168658 0.788533 0.278933
O O4 0.585612 0.915889 0.108826
O O5 0.804402 0.591830 0.754854
O O6 0.820101 0.279277 0.862683
O O7 0.573735 0.192436 0.049363
O O8 0.026992 0.094386 0.015459
O O9 0.204231 0.337661 0.091932
O O10 0.221659 0.918872 0.287103
O O11 0.505431 0.938996 0.301332
O O12 0.082641 0.371111 0.193796
O O13 0.418026 0.038526 0.360728
O O14 0.000000 0.000000 0.500000
O O15 0.182783 0.211871 0.592342
O O16 0.500000 0.500000 0.000000
O O17 0.071630 0.777473 0.900389
#
# Coordination Sequence:
#
# PCOD8023017 Si02
#       8
#     2   2   2   2   2   2   2   2
#     4  11  23  42  61  93 130 174 218 257 333 386
#     4  11  20  42  65  94 127 169 225 269 315 390
#     4  11  22  40  68  98 123 170 224 263 327 383
#     4  11  22  40  68  95 129 175 208 265 346 376
#     4  10  23  40  65  89 128 175 217 268 317 390
#     4  11  24  43  62  96 139 164 208 282 324 383
#     4  11  20  41  68  91 131 168 214 271 321 390
#     4  12  22  40  68  96 123 175 220 264 326 389
#
# _framework density 20.865091
#
# number of rings (size 3 to 8) (size 9 to 14) (size 15 to 20)
#    0.000    1.000    5.000    3.000    0.000    1.500 
#    9.000    0.625    0.000    0.000    0.000    0.000 
#    0.000    0.000    0.000    0.000    0.000    0.000 
#
# Total GULP energy -198322.868225 kJ/mol
# GULP energy per Si atom -12395.179264 kJ/mol
# Density = 2.081760 g / cm^3
# Si number density = 20.865091 Si / 1000 Ang^3
#
#
#
# Elastic Constant Matrix: (Units=GPa)
#
#
# Indices 1 2 3 4 5 6 
#
# 1 94.9182 33.8463 32.1792 2.4901 -12.2304 6.8359
# 2 33.8463 114.9192 35.8627 -11.5804 -4.6809 16.3253
# 3 32.1792 35.8627 96.8226 -6.6700 -3.8181 11.3833
# 4 2.4901 -11.5804 -6.6700 35.4237 -6.1942 -3.9845
# 5 -12.2304 -4.6809 -3.8181 -6.1942 20.2096 -0.8236
# 6 6.8359 16.3253 11.3833 -3.9845 -0.8236 28.9070
#
#
#
# Elastic Compliance Matrix: (Units=1/GPa)
#
#
# Indices 1 2 3 4 5 6 
#
# 1 0.013535 -0.002795 -0.003262 -0.001383 0.006490 -0.000344
# 2 -0.002795 0.011272 -0.002479 0.003153 0.001244 -0.004259
# 3 -0.003262 -0.002479 0.012757 0.001566 0.000234 -0.002629
# 4 -0.001383 0.003153 0.001566 0.031693 0.010008 0.002583
# 5 0.006490 0.001244 0.000234 0.010008 0.056836 0.000669
# 6 -0.000344 -0.004259 -0.002629 0.002583 0.000669 0.038491
#
#
# Mechanical properties :
#
#
# Convention : Reuss Voigt Hill
#
# Bulk Modulus (GPa) = 48.80049 56.71516 52.75782
# Shear Modulus (GPa) = 26.52707 30.55952 28.54329
#
# Velocity S-wave (km/s) = 3.56948 3.83119 3.70265
# Velocity P-wave (km/s) = 6.35827 6.84190 6.60451
#
# Compressibility (1/GPa) = 0.02049160
#
# Stress axis : x y z
#
# Youngs Moduli (GPa) = 73.88200 88.71593 78.38826
#
# Poissons Ratio (x) = 0.24792 0.25573
# Poissons Ratio (y) = 0.20647 0.19435
# Poissons Ratio (z) = 0.24103 0.21996
#
# Static dielectric constant tensor:
#      x y z
#    x 3.807700 0.020190 -0.124060 
#    y 0.020190 3.999650 -0.035230 
#    z -0.124060 -0.035230 3.809730 
# 
# 
# High freq. dielectric constant tensor:
#      x y z
#    x 1.802330 0.005920 -0.008640 
#    y 0.005920 1.836820 -0.002370 
#    z -0.008640 -0.002370 1.811790 
# 
# From -- ./inp_files/617388.got.cif
#   From: 2010.06.25/outbox.cif.g09.slc.cpg/sg2_309_cif.got.tgz:617388.got - 2010.06.27 13:26:56.
