data_PCOD8023336
_publ_section_title
;
Structure prediction by ZEFSAII (Michael W. Deem and Ramdas Pophale) SiO2 
 PCOD8023336
Probable space group: P -1
;
_chemical_formula_sum "Si O2"
_cell_formula_units_Z 14
_cell_length_a 25.977034
_cell_length_b 9.380378
_cell_length_c 8.722748
_cell_angle_alpha 132.203601
_cell_angle_beta 30.542429
_cell_angle_gamma 143.162206
_cell_volume 646.523951
_symmetry_space_group_name_H-M "P -1"
_symmetry_group_IT_number 2
_symmetry_cell_setting 'triclinic'
loop_
_space_group_symop_operation_xyz
x,y,z
-x,-y,-z
loop_
_atom_site_type_symbol
_atom_site_label
_atom_site_fract_x
_atom_site_fract_y
_atom_site_fract_z
Si Si1 0.222142 0.732709 0.986725
Si Si2 0.630661 0.733950 0.023041
Si Si3 0.430512 0.685190 0.309170
Si Si4 0.397370 0.000006 0.169739
Si Si5 0.284390 0.192408 0.806165
Si Si6 0.807688 0.498532 0.788645
Si Si7 0.946856 0.315052 0.866636
O O1 0.347209 0.772375 0.631018
O O2 0.259739 0.996202 0.113955
O O3 0.169603 0.567996 0.151116
O O4 0.115562 0.608728 0.040664
O O5 0.491265 0.655686 0.282796
O O6 0.633508 0.696343 0.169685
O O7 0.654098 0.561260 0.746632
O O8 0.548625 0.890918 0.056399
O O9 0.362914 0.157517 0.458211
O O10 0.274000 0.733180 0.275797
O O11 0.500000 0.000000 0.000000
O O12 0.260646 0.374014 0.924818
O O13 0.151734 0.947435 0.006123
O O14 0.941513 0.677974 0.495215
O O15 0.000000 0.500000 0.000000
#
# Coordination Sequence:
#
# PCOD8023336 Si02
#       7
#     2   2   2   2   2   2   2
#     4  11  25  44  70  95 133 180 217 272 335 385
#     4  10  23  41  65  96 137 171 216 262 330 399
#     4  11  24  41  67  99 136 174 217 265 329 401
#     4  12  25  41  67 103 138 174 220 271 326 399
#     4  11  26  43  71  99 132 175 221 274 337 383
#     4  12  26  44  68 100 132 175 226 275 327 391
#     4  11  24  49  70  92 131 175 227 280 331 386
#
# _framework density 21.654264999999999
#
# number of rings (size 3 to 8) (size 9 to 14) (size 15 to 20)
#    0.000    0.857    2.857    3.857    8.000    1.143 
#    0.000    0.714    0.000    0.000    0.000    0.000 
#    0.000    0.000    0.000    0.000    0.000    0.000 
#
# Total GULP energy -173692.677844 kJ/mol
# GULP energy per Si atom -12406.619846 kJ/mol
# Density = 2.160498 g / cm^3
# Si number density = 21.654265 Si / 1000 Ang^3
#
#
#
# Elastic Constant Matrix: (Units=GPa)
#
#
# Indices 1 2 3 4 5 6 
#
# 1 96.5471 15.7364 -8.7810 -3.1827 -7.4319 6.4750
# 2 15.7364 74.1029 2.8200 6.0369 1.0763 3.7411
# 3 -8.7810 2.8200 82.6950 -7.0730 4.0144 -3.9625
# 4 -3.1827 6.0369 -7.0730 29.4185 -2.0189 -4.5359
# 5 -7.4319 1.0763 4.0144 -2.0189 31.1497 0.5981
# 6 6.4750 3.7411 -3.9625 -4.5359 0.5981 38.6302
#
#
#
# Elastic Compliance Matrix: (Units=1/GPa)
#
#
# Indices 1 2 3 4 5 6 
#
# 1 0.011261 -0.002579 0.001261 0.002039 0.002771 -0.001312
# 2 -0.002579 0.014491 -0.001111 -0.003836 -0.001192 -0.001517
# 3 0.001261 -0.001111 0.012704 0.003596 -0.001096 0.001639
# 4 0.002039 -0.003836 0.003596 0.036754 0.002448 0.004676
# 5 0.002771 -0.001192 -0.001096 0.002448 0.033118 -0.000687
# 6 -0.001312 -0.001517 0.001639 0.004676 -0.000687 0.026981
#
#
# Mechanical properties :
#
#
# Convention : Reuss Voigt Hill
#
# Bulk Modulus (GPa) = 29.76479 30.32175 30.04327
# Shear Modulus (GPa) = 33.03222 36.07764 34.55493
#
# Velocity S-wave (km/s) = 3.90992 4.08619 3.99903
# Velocity P-wave (km/s) = 5.84454 6.02459 5.93524
#
# Compressibility (1/GPa) = 0.03359674
#
# Stress axis : x y z
#
# Youngs Moduli (GPa) = 88.80033 69.00752 78.71724
#
# Poissons Ratio (x) = 0.17800 -0.09924
# Poissons Ratio (y) = 0.22906 0.08745
# Poissons Ratio (z) = -0.11195 0.07666
#
# Static dielectric constant tensor:
#      x y z
#    x 4.175380 0.024280 -0.058000 
#    y 0.024280 4.040050 0.056430 
#    z -0.058000 0.056430 3.784120 
# 
# 
# High freq. dielectric constant tensor:
#      x y z
#    x 1.867000 0.002400 -0.001780 
#    y 0.002400 1.857530 0.004330 
#    z -0.001780 0.004330 1.842260 
# 
# From -- ./inp_files/241931.got.cif
#   From: 2010.06.25/outbox.cif.g09.slc.cpg/sg2_121_cif.got.tgz:241931.got - 2010.06.27 13:26:56.
