data_PCOD8023699
_publ_section_title
;
Structure prediction by ZEFSAII (Michael W. Deem and Ramdas Pophale) SiO2 
 PCOD8023699
Probable space group: P -1
;
_chemical_formula_sum "Si O2"
_cell_formula_units_Z 14
_cell_length_a 14.490307
_cell_length_b 12.406634
_cell_length_c 11.411533
_cell_angle_alpha 98.126256
_cell_angle_beta 92.776939
_cell_angle_gamma 159.089108
_cell_volume 623.154755
_symmetry_space_group_name_H-M "P -1"
_symmetry_group_IT_number 2
_symmetry_cell_setting 'triclinic'
loop_
_space_group_symop_operation_xyz
x,y,z
-x,-y,-z
loop_
_atom_site_type_symbol
_atom_site_label
_atom_site_fract_x
_atom_site_fract_y
_atom_site_fract_z
Si Si1 0.011430 0.686305 0.673952
Si Si2 0.153784 0.930081 0.265639
Si Si3 0.301413 0.215544 0.844333
Si Si4 0.845838 0.852671 0.842408
Si Si5 0.751925 0.470758 0.392510
Si Si6 0.209022 0.638418 0.994322
Si Si7 0.488930 0.043565 0.711578
O O1 0.926001 0.666085 0.556007
O O2 0.701029 0.294746 0.650166
O O3 0.209231 0.984320 0.821638
O O4 0.193136 0.786889 0.650115
O O5 0.994032 0.776496 0.355585
O O6 0.980905 0.639265 0.151711
O O7 0.111511 0.979302 0.177665
O O8 0.499612 0.282087 0.355569
O O9 0.490236 0.431748 0.768759
O O10 0.500000 0.500000 0.000000
O O11 0.988780 0.930266 0.768760
O O12 0.000000 0.000000 0.000000
O O13 0.606808 0.189395 0.315513
O O14 0.315495 0.694845 0.125803
O O15 0.000000 0.500000 0.000000
O O16 0.500000 0.000000 0.000000
#
# Coordination Sequence:
#
# PCOD8023699 Si02
#       7
#     2   2   2   2   2   2   2
#     4  12  26  43  70  97 136 183 221 271 328 385
#     4  12  24  43  69  97 137 179 211 278 338 390
#     4  10  23  42  63  96 127 160 227 284 325 377
#     4  10  23  43  66  95 126 164 222 282 331 383
#     4  12  25  46  64 101 142 179 218 259 330 419
#     4  12  23  41  64 101 139 168 221 273 335 396
#     4  12  24  42  69 101 136 176 226 268 321 399
#
# _framework density 22.466329999999999
#
# number of rings (size 3 to 8) (size 9 to 14) (size 15 to 20)
#    0.000    0.571    2.857    5.143    8.000    0.000 
#    0.000    4.286    0.000    0.000    0.000    0.000 
#    0.000    0.000    0.000    0.000    0.000    0.000 
#
# Total GULP energy -173492.738745 kJ/mol
# GULP energy per Si atom -12392.338482 kJ/mol
# Density = 2.241520 g / cm^3
# Si number density = 22.466330 Si / 1000 Ang^3
#
#
#
# Elastic Constant Matrix: (Units=GPa)
#
#
# Indices 1 2 3 4 5 6 
#
# 1 130.1373 88.0228 15.6454 -2.3786 21.1319 27.7936
# 2 88.0228 167.9901 17.3282 -16.7550 12.3116 42.1480
# 3 15.6454 17.3282 80.5210 -13.8407 16.9503 2.9671
# 4 -2.3786 -16.7550 -13.8407 28.9475 -11.5229 1.6121
# 5 21.1319 12.3116 16.9503 -11.5229 35.1412 4.1170
# 6 27.7936 42.1480 2.9671 1.6121 4.1170 56.1536
#
#
#
# Elastic Compliance Matrix: (Units=1/GPa)
#
#
# Indices 1 2 3 4 5 6 
#
# 1 0.013775 -0.007023 -0.000626 -0.006152 -0.007446 -0.000791
# 2 -0.007023 0.011607 -0.000340 0.007693 0.003510 -0.005696
# 3 -0.000626 -0.000340 0.014461 0.004697 -0.004943 0.000029
# 4 -0.006152 0.007693 0.004697 0.046913 0.014755 -0.005406
# 5 -0.007446 0.003510 -0.004943 0.014755 0.039159 -0.001983
# 6 -0.000791 -0.005696 0.000029 -0.005406 -0.001983 0.022775
#
#
# Mechanical properties :
#
#
# Convention : Reuss Voigt Hill
#
# Bulk Modulus (GPa) = 41.90258 68.96014 55.43136
# Shear Modulus (GPa) = 28.96526 41.22526 35.09526
#
# Velocity S-wave (km/s) = 3.59454 4.28831 3.95666
# Velocity P-wave (km/s) = 5.99328 7.43512 6.75279
#
# Compressibility (1/GPa) = 0.02386488
#
# Stress axis : x y z
#
# Youngs Moduli (GPa) = 72.59518 86.15806 69.15285
#
# Poissons Ratio (x) = 0.60505 0.04330
# Poissons Ratio (y) = 0.50980 0.02351
# Poissons Ratio (z) = 0.04546 0.02929
#
# Static dielectric constant tensor:
#      x y z
#    x 4.501720 0.706310 0.004590 
#    y 0.706310 4.855210 0.032600 
#    z 0.004590 0.032600 4.178340 
# 
# 
# High freq. dielectric constant tensor:
#      x y z
#    x 1.893060 0.024510 0.001460 
#    y 0.024510 1.905390 0.000440 
#    z 0.001460 0.000440 1.870780 
# 
# From -- ./inp_files/364556.got.cif
#   From: 2010.06.25/outbox.cif.g09.slc.cpg/sg2_183_cif.got.tgz:364556.got - 2010.06.27 13:26:56.
