data_PCOD8023986
_publ_section_title
;
Structure prediction by ZEFSAII (Michael W. Deem and Ramdas Pophale) SiO2 
 PCOD8023986
Probable space group: P -1
;
_chemical_formula_sum "Si O2"
_cell_formula_units_Z 16
_cell_length_a 14.456164
_cell_length_b 24.362978
_cell_length_c 5.587059
_cell_angle_alpha 88.347953
_cell_angle_beta 91.917548
_cell_angle_gamma 158.028759
_cell_volume 735.785777
_symmetry_space_group_name_H-M "P -1"
_symmetry_group_IT_number 2
_symmetry_cell_setting 'triclinic'
loop_
_space_group_symop_operation_xyz
x,y,z
-x,-y,-z
loop_
_atom_site_type_symbol
_atom_site_label
_atom_site_fract_x
_atom_site_fract_y
_atom_site_fract_z
Si Si1 0.371760 0.265981 0.391648
Si Si2 0.917533 0.074632 0.565884
Si Si3 0.782507 0.433235 0.583599
Si Si4 0.651476 0.499438 0.055826
Si Si5 0.241086 0.099270 0.072746
Si Si6 0.005187 0.410307 0.930310
Si Si7 0.459304 0.801675 0.272173
Si Si8 0.324423 0.378804 0.697903
O O1 0.545473 0.343767 0.620173
O O2 0.479438 0.379203 0.260934
O O3 0.397978 0.225358 0.239840
O O4 0.088343 0.122190 0.449269
O O5 0.066961 0.213271 0.595320
O O6 0.831521 0.000089 0.814134
O O7 0.672553 0.953354 0.405583
O O8 0.719882 0.333615 0.553679
O O9 0.895164 0.514197 0.327788
O O10 0.940812 0.524865 0.832490
O O11 0.746921 0.612568 0.123352
O O12 0.891965 0.594580 0.011249
O O13 0.472592 0.409109 0.822792
O O14 0.415921 0.180391 0.859304
O O15 0.000000 0.000000 0.000000
O O16 0.705154 0.246657 0.894217
O O17 0.500000 0.500000 0.500000
#
# Coordination Sequence:
#
# PCOD8023986 Si02
#       8
#     2   2   2   2   2   2   2   2
#     4  11  20  41  64 103 132 173 218 280 341 398
#     4  12  24  38  63 100 132 172 222 275 349 400
#     4  11  23  42  67  97 138 187 229 267 324 401
#     4  10  23  42  68  98 126 170 229 285 337 394
#     4  12  23  38  61  95 143 177 214 270 340 410
#     4  11  26  43  69  97 138 185 230 272 327 403
#     4  12  25  40  61  96 141 183 221 266 334 408
#     4  11  23  43  71  95 127 167 228 291 342 393
#
# _framework density 21.745459
#
# number of rings (size 3 to 8) (size 9 to 14) (size 15 to 20)
#    0.000    0.750    3.750    4.875    3.500    0.000 
#    0.000    0.625    0.000    1.500    0.000    0.000 
#    0.000    0.000    0.000    0.000    0.000    0.000 
#
# Total GULP energy -198270.154639 kJ/mol
# GULP energy per Si atom -12391.884665 kJ/mol
# Density = 2.169597 g / cm^3
# Si number density = 21.745459 Si / 1000 Ang^3
#
#
#
# Elastic Constant Matrix: (Units=GPa)
#
#
# Indices 1 2 3 4 5 6 
#
# 1 103.0586 48.4197 24.5471 13.8160 17.9930 13.7472
# 2 48.4197 122.0098 41.9772 38.6255 19.2790 -4.7626
# 3 24.5471 41.9772 96.9294 17.9717 17.3703 4.7463
# 4 13.8160 38.6255 17.9717 30.3568 4.8516 12.8987
# 5 17.9930 19.2790 17.3703 4.8516 37.6062 10.0091
# 6 13.7472 -4.7626 4.7463 12.8987 10.0091 44.7459
#
#
#
# Elastic Compliance Matrix: (Units=1/GPa)
#
#
# Indices 1 2 3 4 5 6 
#
# 1 0.013483 -0.006981 -0.000955 0.006206 -0.001576 -0.006221
# 2 -0.006981 0.023004 -0.001966 -0.030164 -0.007704 0.015220
# 3 -0.000955 -0.001966 0.012940 -0.004451 -0.004186 0.000931
# 4 0.006206 -0.030164 -0.004451 0.082410 0.012204 -0.031131
# 5 -0.001576 -0.007704 -0.004186 0.012204 0.034623 -0.011154
# 6 -0.006221 0.015220 0.000931 -0.031131 -0.011154 0.037250
#
#
# Mechanical properties :
#
#
# Convention : Reuss Voigt Hill
#
# Bulk Modulus (GPa) = 33.75769 61.32063 47.53916
# Shear Modulus (GPa) = 21.42357 36.34538 28.88447
#
# Velocity S-wave (km/s) = 3.14219 4.09271 3.64854
# Velocity P-wave (km/s) = 5.35931 7.11296 6.29748
#
# Compressibility (1/GPa) = 0.02962288
#
# Stress axis : x y z
#
# Youngs Moduli (GPa) = 74.16487 43.47136 77.28054
#
# Poissons Ratio (x) = 0.30346 0.07381
# Poissons Ratio (y) = 0.51773 0.15195
# Poissons Ratio (z) = 0.07083 0.08547
#
# Static dielectric constant tensor:
#      x y z
#    x 4.092310 0.253410 0.131630 
#    y 0.253410 4.041110 0.253030 
#    z 0.131630 0.253030 4.098170 
# 
# 
# High freq. dielectric constant tensor:
#      x y z
#    x 1.847990 0.016620 0.006840 
#    y 0.016620 1.843680 0.011230 
#    z 0.006840 0.011230 1.862940 
# 
# From -- ./inp_files/76787.got.cif
#   From: 2010.06.25/outbox.cif.g09.slc.cpg/sg2_39_cif.got.tgz:76787.got - 2010.06.27 13:26:56.
