data_PCOD8023570
_publ_section_title
;
Structure prediction by ZEFSAII (Michael W. Deem and Ramdas Pophale) SiO2 
 PCOD8023570
Probable space group: P -1
;
_chemical_formula_sum "Si O2"
_cell_formula_units_Z 16
_cell_length_a 12.642581
_cell_length_b 14.282067
_cell_length_c 5.737051
_cell_angle_alpha 94.289934
_cell_angle_beta 112.194018
_cell_angle_gamma 129.941185
_cell_volume 657.827351
_symmetry_space_group_name_H-M "P -1"
_symmetry_group_IT_number 2
_symmetry_cell_setting 'triclinic'
loop_
_space_group_symop_operation_xyz
x,y,z
-x,-y,-z
loop_
_atom_site_type_symbol
_atom_site_label
_atom_site_fract_x
_atom_site_fract_y
_atom_site_fract_z
Si Si1 0.537856 0.475128 0.271793
Si Si2 0.808838 0.014727 0.146713
Si Si3 0.721906 0.323610 0.258294
Si Si4 0.988972 0.417080 0.173411
Si Si5 0.492598 0.092810 0.377552
Si Si6 0.585002 0.802888 0.289362
Si Si7 0.105549 0.291880 0.268193
Si Si8 0.733296 0.786558 0.798581
O O1 0.500000 0.500000 0.500000
O O2 0.732587 0.569163 0.444958
O O3 0.413676 0.310852 0.146708
O O4 0.500000 0.500000 0.000000
O O5 0.749861 0.945774 0.337977
O O6 0.672707 0.005936 0.934458
O O7 0.833840 0.939650 0.981143
O O8 0.983961 0.172893 0.338469
O O9 0.862746 0.476223 0.501603
O O10 0.652837 0.207182 0.367708
O O11 0.807552 0.314093 0.122123
O O12 0.571183 0.300859 0.036459
O O13 0.013775 0.325946 0.076011
O O14 0.000000 0.500000 0.000000
O O15 0.485504 0.172829 0.565645
O O16 0.500000 0.000000 0.500000
O O17 0.646190 0.743886 0.459179
O O18 0.150993 0.237324 0.109415
#
# Coordination Sequence:
#
# PCOD8023570 Si02
#       8
#     2   2   2   2   2   2   2   2
#     4  10  25  48  72 108 142 193 249 303 363 444
#     4  10  24  43  69 106 145 184 241 297 368 432
#     4  10  24  44  67 101 136 189 235 301 358 435
#     4  11  26  45  68 101 144 184 237 298 369 424
#     4  10  23  41  70  97 138 187 243 293 355 434
#     4  10  23  43  74  97 140 186 240 295 368 427
#     4  11  26  45  71 106 142 188 244 303 365 445
#     4  10  24  48  71 104 142 192 237 298 368 441
#
# _framework density 24.322489999999998
#
# number of rings (size 3 to 8) (size 9 to 14) (size 15 to 20)
#    0.000    1.750    0.000    1.125   15.750    1.500 
#   15.750    0.000    0.000    0.000    0.000    0.000 
#    0.000    0.000    0.000    0.000    0.000    0.000 
#
# Total GULP energy -198276.723799 kJ/mol
# GULP energy per Si atom -12392.295237 kJ/mol
# Density = 2.426713 g / cm^3
# Si number density = 24.322490 Si / 1000 Ang^3
#
#
#
# Elastic Constant Matrix: (Units=GPa)
#
#
# Indices 1 2 3 4 5 6 
#
# 1 150.6189 66.4866 30.0596 -20.5652 13.4475 3.2573
# 2 66.4866 158.8543 27.7941 -23.1813 12.2917 27.3024
# 3 30.0596 27.7941 58.8600 -29.9269 -0.6829 5.5266
# 4 -20.5652 -23.1813 -29.9269 47.3016 2.4846 7.2981
# 5 13.4475 12.2917 -0.6829 2.4846 22.8627 -5.8024
# 6 3.2573 27.3024 5.5266 7.2981 -5.8024 48.6301
#
#
#
# Elastic Compliance Matrix: (Units=1/GPa)
#
#
# Indices 1 2 3 4 5 6 
#
# 1 0.008943 -0.003025 -0.002981 0.000562 -0.003548 0.000930
# 2 -0.003025 0.009888 -0.000117 0.004801 -0.005774 -0.006745
# 3 -0.002981 -0.000117 0.027777 0.017106 -0.000616 -0.005532
# 4 0.000562 0.004801 0.017106 0.036792 -0.009268 -0.011304
# 5 -0.003548 -0.005774 -0.000616 -0.009268 0.052771 0.011237
# 6 0.000930 -0.006745 -0.005532 -0.011304 0.011237 0.027954
#
#
# Mechanical properties :
#
#
# Convention : Reuss Voigt Hill
#
# Bulk Modulus (GPa) = 29.10244 68.55710 48.82977
# Shear Modulus (GPa) = 26.62039 40.02508 33.32273
#
# Velocity S-wave (km/s) = 3.31188 4.06100 3.70542
# Velocity P-wave (km/s) = 5.15906 7.08780 6.19890
#
# Compressibility (1/GPa) = 0.03436138
#
# Stress axis : x y z
#
# Youngs Moduli (GPa) = 111.82132 101.13156 36.00053
#
# Poissons Ratio (x) = 0.30588 0.10733
# Poissons Ratio (y) = 0.33821 0.00423
# Poissons Ratio (z) = 0.33339 0.01188
#
# Static dielectric constant tensor:
#      x y z
#    x 4.729550 -0.069350 0.477750 
#    y -0.069350 4.922150 -0.317720 
#    z 0.477750 -0.317720 4.793580 
# 
# 
# High freq. dielectric constant tensor:
#      x y z
#    x 1.972960 0.009380 0.005780 
#    y 0.009380 1.981510 -0.001280 
#    z 0.005780 -0.001280 1.945960 
# 
# From -- ./inp_files/77941.got.cif
#   From: 2010.06.25/outbox.cif.g09.slc.cpg/sg2_39_cif.got.tgz:77941.got - 2010.06.27 13:26:56.
