data_PCOD8023762
_publ_section_title
;
Structure prediction by ZEFSAII (Michael W. Deem and Ramdas Pophale) SiO2 
 PCOD8023762
Probable space group: P -1
;
_chemical_formula_sum "Si O2"
_cell_formula_units_Z 16
_cell_length_a 14.576099
_cell_length_b 11.759473
_cell_length_c 13.258711
_cell_angle_alpha 46.540543
_cell_angle_beta 27.763729
_cell_angle_gamma 40.918670
_cell_volume 692.032449
_symmetry_space_group_name_H-M "P -1"
_symmetry_group_IT_number 2
_symmetry_cell_setting 'triclinic'
loop_
_space_group_symop_operation_xyz
x,y,z
-x,-y,-z
loop_
_atom_site_type_symbol
_atom_site_label
_atom_site_fract_x
_atom_site_fract_y
_atom_site_fract_z
Si Si1 0.539726 0.939335 0.113290
Si Si2 0.354206 0.111929 0.663969
Si Si3 0.617941 0.309175 0.356989
Si Si4 0.358438 0.704533 0.363339
Si Si5 0.429953 0.297284 0.051891
Si Si6 0.010406 0.867679 0.742230
Si Si7 0.204987 0.850044 0.077850
Si Si8 0.100553 0.670792 0.110752
O O1 0.787969 0.846937 0.966681
O O2 0.401349 0.118497 0.201753
O O3 0.464370 0.786494 0.294310
O O4 0.500000 0.000000 0.000000
O O5 0.498632 0.180461 0.550336
O O6 0.141275 0.277453 0.727397
O O7 0.500000 0.000000 0.500000
O O8 0.260257 0.000100 0.885940
O O9 0.432704 0.503154 0.437023
O O10 0.804783 0.272258 0.280630
O O11 0.735080 0.294403 0.143916
O O12 0.415388 0.732022 0.178109
O O13 0.101667 0.823946 0.564755
O O14 0.571291 0.309392 0.003015
O O15 0.200183 0.465350 0.165627
O O16 0.954966 0.059175 0.726047
O O17 0.080240 0.781648 0.163673
#
# Coordination Sequence:
#
# PCOD8023762 Si02
#       8
#     2   2   2   2   2   2   2   2
#     4   9  21  41  61  89 124 173 213 257 316 374
#     4  12  24  42  70  94 134 168 216 265 324 392
#     4  11  24  40  65 100 128 169 217 268 323 381
#     4  10  23  42  65  92 134 170 215 266 317 385
#     4   9  22  41  68  94 130 171 212 269 317 384
#     4  11  23  39  65  97 129 169 216 263 321 381
#     4  11  22  42  68  97 129 173 215 265 324 385
#     4  11  22  45  67  95 133 167 213 274 328 370
#
# _framework density 23.120303
#
# number of rings (size 3 to 8) (size 9 to 14) (size 15 to 20)
#    0.000    1.500    2.500    1.875    3.500    8.000 
#    0.000    3.125    0.000    0.000    0.000    0.000 
#    0.000    0.000    0.000    0.000    0.000    0.000 
#
# Total GULP energy -198236.653869 kJ/mol
# GULP energy per Si atom -12389.790867 kJ/mol
# Density = 2.306768 g / cm^3
# Si number density = 23.120303 Si / 1000 Ang^3
#
#
#
# Elastic Constant Matrix: (Units=GPa)
#
#
# Indices 1 2 3 4 5 6 
#
# 1 84.2054 29.3451 2.2787 5.8285 -18.8824 -7.1217
# 2 29.3451 126.9498 47.4281 11.3396 -8.7441 2.8705
# 3 2.2787 47.4281 54.8704 15.6232 -13.6045 4.3701
# 4 5.8285 11.3396 15.6232 37.3690 10.5281 -8.8342
# 5 -18.8824 -8.7441 -13.6045 10.5281 30.8789 9.3750
# 6 -7.1217 2.8705 4.3701 -8.8342 9.3750 37.9322
#
#
#
# Elastic Compliance Matrix: (Units=1/GPa)
#
#
# Indices 1 2 3 4 5 6 
#
# 1 0.021215 -0.008340 0.019617 -0.019206 0.028591 -0.009185
# 2 -0.008340 0.015143 -0.019932 0.010613 -0.014959 0.005753
# 3 0.019617 -0.019932 0.065564 -0.048142 0.060297 -0.028477
# 4 -0.019206 0.010613 -0.048142 0.073181 -0.065322 0.034325
# 5 0.028591 -0.014959 0.060297 -0.065322 0.107273 -0.042173
# 6 -0.009185 0.005753 -0.028477 0.034325 -0.042173 0.045901
#
#
# Mechanical properties :
#
#
# Convention : Reuss Voigt Hill
#
# Bulk Modulus (GPa) = 11.81862 47.12549 29.47205
# Shear Modulus (GPa) = 13.37645 33.70093 23.53869
#
# Velocity S-wave (km/s) = 2.40793 3.82204 3.19422
# Velocity P-wave (km/s) = 3.58521 6.31698 5.13605
#
# Compressibility (1/GPa) = 0.08461223
#
# Stress axis : x y z
#
# Youngs Moduli (GPa) = 47.13572 66.03700 15.25227
#
# Poissons Ratio (x) = 0.55077 -0.29920
# Poissons Ratio (y) = 0.39313 0.30400
# Poissons Ratio (z) = -0.92466 1.31623
#
# Static dielectric constant tensor:
#      x y z
#    x 4.522600 0.180290 0.094740 
#    y 0.180290 4.419620 0.171030 
#    z 0.094740 0.171030 4.188030 
# 
# 
# High freq. dielectric constant tensor:
#      x y z
#    x 1.931870 0.001880 0.002830 
#    y 0.001880 1.914050 0.016420 
#    z 0.002830 0.016420 1.891430 
# 
# From -- ./inp_files/531707.got.cif
#   From: 2010.06.25/outbox.cif.g09.slc.cpg/sg2_266_cif.got.tgz:531707.got - 2010.06.27 13:26:56.
