data_PCOD8023093
_publ_section_title
;
Structure prediction by ZEFSAII (Michael W. Deem and Ramdas Pophale) SiO2 
 PCOD8023093
Probable space group: P -1
;
_chemical_formula_sum "Si O2"
_cell_formula_units_Z 12
_cell_length_a 28.981562
_cell_length_b 26.250515
_cell_length_c 9.207097
_cell_angle_alpha 150.759755
_cell_angle_beta 27.931579
_cell_angle_gamma 170.878272
_cell_volume 520.152639
_symmetry_space_group_name_H-M "P -1"
_symmetry_group_IT_number 2
_symmetry_cell_setting 'triclinic'
loop_
_space_group_symop_operation_xyz
x,y,z
-x,-y,-z
loop_
_atom_site_type_symbol
_atom_site_label
_atom_site_fract_x
_atom_site_fract_y
_atom_site_fract_z
Si Si1 0.935920 0.674643 0.153880
Si Si2 0.389941 0.652253 0.462726
Si Si3 0.115913 0.159760 0.420342
Si Si4 0.384655 0.427670 0.795913
Si Si5 0.997825 0.616141 0.345500
Si Si6 0.446021 0.826619 0.253720
O O1 0.751924 0.529870 0.445530
O O2 0.984344 0.821470 0.277979
O O3 0.722903 0.379345 0.932465
O O4 0.249893 0.934140 0.968172
O O5 0.115757 0.435251 0.605538
O O6 0.484186 0.646421 0.090485
O O7 0.673184 0.013641 0.596818
O O8 0.479633 0.507284 0.286965
O O9 0.000000 0.000000 0.500000
O O10 0.979301 0.953441 0.153102
O O11 0.500000 0.500000 0.500000
O O12 0.764573 0.399180 0.583898
O O13 0.000000 0.500000 0.000000
O O14 0.500000 0.000000 0.500000
#
# Coordination Sequence:
#
# PCOD8023093 Si02
#       6
#     2   2   2   2   2   2
#     4  12  26  45  73 107 146 189 239 298 365 421
#     4  12  26  45  73 107 146 189 239 298 365 421
#     4  10  23  40  67  99 144 182 245 282 350 426
#     4  10  23  40  67  99 144 182 245 282 350 426
#     4  12  27  47  75 104 143 187 242 299 361 433
#     4  12  27  47  75 104 143 187 242 299 361 433
#
# _framework density 23.070150000000002
#
# number of rings (size 3 to 8) (size 9 to 14) (size 15 to 20)
#    0.000    0.667    0.000    7.000   14.000    1.333 
#    0.000    0.000    0.000    0.000    0.000    0.000 
#    0.000    0.000    0.000    0.000    0.000    0.000 
#
# Total GULP energy -148732.539309 kJ/mol
# GULP energy per Si atom -12394.378276 kJ/mol
# Density = 2.301764 g / cm^3
# Si number density = 23.070150 Si / 1000 Ang^3
#
#
#
# Elastic Constant Matrix: (Units=GPa)
#
#
# Indices 1 2 3 4 5 6 
#
# 1 184.1008 49.2966 69.3612 7.5100 -44.8909 43.9346
# 2 49.2966 109.8865 42.6353 4.4997 8.2057 26.0981
# 3 69.3612 42.6353 161.3607 17.2004 -14.4230 15.1363
# 4 7.5100 4.4997 17.2004 41.4467 -2.7077 7.8095
# 5 -44.8909 8.2057 -14.4230 -2.7077 65.3757 -13.6714
# 6 43.9346 26.0981 15.1363 7.8095 -13.6714 73.9512
#
#
#
# Elastic Compliance Matrix: (Units=1/GPa)
#
#
# Indices 1 2 3 4 5 6 
#
# 1 0.009161 -0.002884 -0.002469 0.000596 0.005513 -0.002963
# 2 -0.002884 0.012300 -0.002175 0.000367 -0.004632 -0.003077
# 3 -0.002469 -0.002175 0.008084 -0.002823 0.000445 0.000960
# 4 0.000596 0.000367 -0.002823 0.025652 0.000266 -0.002566
# 5 0.005513 -0.004632 0.000445 0.000266 0.020185 0.001972
# 6 -0.002963 -0.003077 0.000960 -0.002566 0.001972 0.016808
#
#
# Mechanical properties :
#
#
# Convention : Reuss Voigt Hill
#
# Bulk Modulus (GPa) = 69.01536 86.43713 77.72625
# Shear Modulus (GPa) = 44.61303 55.75838 50.18570
#
# Velocity S-wave (km/s) = 4.40227 4.92154 4.66913
# Velocity P-wave (km/s) = 7.47130 8.35726 7.92667
#
# Compressibility (1/GPa) = 0.01448953
#
# Stress axis : x y z
#
# Youngs Moduli (GPa) = 109.15265 81.30266 123.70554
#
# Poissons Ratio (x) = 0.23451 0.30540
# Poissons Ratio (y) = 0.31484 0.26900
# Poissons Ratio (z) = 0.26947 0.17679
#
# Static dielectric constant tensor:
#      x y z
#    x 3.506560 -1.313560 0.200050 
#    y -1.313560 1.680370 0.405640 
#    z 0.200050 0.405640 4.137950 
# 
# 
# High freq. dielectric constant tensor:
#      x y z
#    x 1.929690 0.024820 -0.000940 
#    y 0.024820 1.925190 0.009780 
#    z -0.000940 0.009780 1.916570 
# 
# From -- ./inp_files/357867.got.cif
#   From: 2010.06.25/outbox.cif.g09.slc.cpg/sg2_179_cif.got.tgz:357867.got - 2010.06.27 13:26:56.
