data_PCOD8023747
_publ_section_title
;
Structure prediction by ZEFSAII (Michael W. Deem and Ramdas Pophale) SiO2 
 PCOD8023747
Probable space group: P -1
;
_chemical_formula_sum "Si O2"
_cell_formula_units_Z 12
_cell_length_a 11.702135
_cell_length_b 10.155590
_cell_length_c 5.190933
_cell_angle_alpha 78.543546
_cell_angle_beta 101.359518
_cell_angle_gamma 59.118080
_cell_volume 485.022202
_symmetry_space_group_name_H-M "P -1"
_symmetry_group_IT_number 2
_symmetry_cell_setting 'triclinic'
loop_
_space_group_symop_operation_xyz
x,y,z
-x,-y,-z
loop_
_atom_site_type_symbol
_atom_site_label
_atom_site_fract_x
_atom_site_fract_y
_atom_site_fract_z
Si Si1 0.337796 0.727216 0.882655
Si Si2 0.397625 0.823424 0.363391
Si Si3 0.044729 0.326483 0.477108
Si Si4 0.239527 0.498842 0.955069
Si Si5 0.311524 0.293904 0.562454
Si Si6 0.110940 0.030203 0.922017
O O1 0.424938 0.734418 0.683123
O O2 0.321705 0.580329 0.888379
O O3 0.184021 0.904246 0.762176
O O4 0.423110 0.695592 0.198837
O O5 0.521898 0.853498 0.359536
O O6 0.236528 0.987764 0.199631
O O7 0.209627 0.231466 0.490499
O O8 0.032945 0.217454 0.727451
O O9 0.000000 0.500000 0.500000
O O10 0.932705 0.364355 0.187775
O O11 0.288325 0.356942 0.821453
O O12 0.269932 0.437668 0.285309
O O13 0.000000 0.000000 0.000000
#
# Coordination Sequence:
#
# PCOD8023747 Si02
#       6
#     2   2   2   2   2   2
#     4  10  23  42  66 102 130 175 225 273 334 388
#     4  10  23  42  65 102 133 177 219 273 337 391
#     4  10  24  45  69 101 132 180 223 275 332 398
#     4  11  23  41  70  96 139 176 226 272 331 388
#     4  11  24  43  65  99 139 178 219 273 327 406
#     4  10  24  45  70  99 134 173 226 280 330 397
#
# _framework density 24.741136999999998
#
# number of rings (size 3 to 8) (size 9 to 14) (size 15 to 20)
#    1.000    0.667    0.000    3.500    4.667    7.333 
#    6.000    0.833    0.000    0.000    0.000    0.000 
#    0.000    0.000    0.000    0.000    0.000    0.000 
#
# Total GULP energy -148690.089005 kJ/mol
# GULP energy per Si atom -12390.840750 kJ/mol
# Density = 2.468483 g / cm^3
# Si number density = 24.741137 Si / 1000 Ang^3
#
#
#
# Elastic Constant Matrix: (Units=GPa)
#
#
# Indices 1 2 3 4 5 6 
#
# 1 164.9381 8.8277 17.9211 -10.9643 -7.4835 -26.3135
# 2 8.8277 43.2518 25.4840 -4.5215 -19.1294 3.0853
# 3 17.9211 25.4840 98.5569 8.0679 -13.0017 -6.2354
# 4 -10.9643 -4.5215 8.0679 38.7361 -1.0021 -4.5234
# 5 -7.4835 -19.1294 -13.0017 -1.0021 35.5703 -11.3048
# 6 -26.3135 3.0853 -6.2354 -4.5234 -11.3048 32.9395
#
#
#
# Elastic Compliance Matrix: (Units=1/GPa)
#
#
# Indices 1 2 3 4 5 6 
#
# 1 0.007822 0.000559 -0.000778 0.003487 0.004304 0.008005
# 2 0.000559 0.035646 -0.007365 0.006622 0.017632 0.002674
# 3 -0.000778 -0.007365 0.012789 -0.003427 0.001229 0.002441
# 4 0.003487 0.006622 -0.003427 0.029354 0.006322 0.007718
# 5 0.004304 0.017632 0.001229 0.006322 0.044949 0.018314
# 6 0.008005 0.002674 0.002441 0.007718 0.018314 0.044310
#
#
# Mechanical properties :
#
#
# Convention : Reuss Voigt Hill
#
# Bulk Modulus (GPa) = 24.33790 45.69028 35.01409
# Shear Modulus (GPa) = 24.54172 38.41679 31.47925
#
# Velocity S-wave (km/s) = 3.15292 3.94477 3.57086
# Velocity P-wave (km/s) = 4.80759 6.26544 5.58429
#
# Compressibility (1/GPa) = 0.04108819
#
# Stress axis : x y z
#
# Youngs Moduli (GPa) = 127.85063 28.05388 78.18915
#
# Poissons Ratio (x) = -0.01569 0.06084
# Poissons Ratio (y) = -0.07150 0.57590
# Poissons Ratio (z) = 0.09948 0.20663
#
# Static dielectric constant tensor:
#      x y z
#    x 5.058540 -0.284200 0.399050 
#    y -0.284200 3.955350 -0.056770 
#    z 0.399050 -0.056770 4.342030 
# 
# 
# High freq. dielectric constant tensor:
#      x y z
#    x 2.009650 -0.017140 0.010900 
#    y -0.017140 1.946310 0.002660 
#    z 0.010900 0.002660 1.982630 
# 
# From -- ./inp_files/69229.got.cif
#   From: 2010.06.25/outbox.cif.g09.slc.cpg/sg2_35_cif.got.tgz:69229.got - 2010.06.27 13:26:56.
