data_PCOD8023442
_publ_section_title
;
Structure prediction by ZEFSAII (Michael W. Deem and Ramdas Pophale) SiO2 
 PCOD8023442
Probable space group: P -1
;
_chemical_formula_sum "Si O2"
_cell_formula_units_Z 16
_cell_length_a 15.454318
_cell_length_b 5.133978
_cell_length_c 12.937811
_cell_angle_alpha 91.884983
_cell_angle_beta 131.736663
_cell_angle_gamma 67.909386
_cell_volume 673.748214
_symmetry_space_group_name_H-M "P -1"
_symmetry_group_IT_number 2
_symmetry_cell_setting 'triclinic'
loop_
_space_group_symop_operation_xyz
x,y,z
-x,-y,-z
loop_
_atom_site_type_symbol
_atom_site_label
_atom_site_fract_x
_atom_site_fract_y
_atom_site_fract_z
Si Si1 0.275362 0.932498 0.658885
Si Si2 0.257508 0.977029 0.009999
Si Si3 0.910279 0.848550 0.919268
Si Si4 0.806564 0.894990 0.614973
Si Si5 0.974237 0.634278 0.314456
Si Si6 0.421732 0.311217 0.152438
Si Si7 0.517102 0.220556 0.445000
Si Si8 0.138085 0.607426 0.625244
O O1 0.433181 0.786566 0.777620
O O2 0.231257 0.763529 0.706286
O O3 0.200947 0.916650 0.492669
O O4 0.226117 0.270803 0.652951
O O5 0.206503 0.041648 0.088551
O O6 0.362155 0.094814 0.070782
O O7 0.327225 0.631870 0.035812
O O8 0.135085 0.108659 0.836763
O O9 0.849770 0.965696 0.759181
O O10 0.000000 0.500000 0.000000
O O11 0.000000 0.000000 0.000000
O O12 0.900018 0.547251 0.662116
O O13 0.654675 0.988649 0.502422
O O14 0.920543 0.408825 0.309554
O O15 0.014572 0.770114 0.447711
O O16 0.414217 0.342160 0.271189
O O17 0.500000 0.500000 0.500000
O O18 0.500000 0.000000 0.500000
#
# Coordination Sequence:
#
# PCOD8023442 Si02
#       8
#     2   2   2   2   2   2   2   2
#     4  10  23  43  70  95 129 169 226 280 326 379
#     4  12  25  43  65  95 142 173 215 268 332 402
#     4  12  25  40  59  94 135 170 209 254 319 398
#     4  10  23  41  67  95 128 172 218 265 323 386
#     4  10  24  43  69 100 131 176 215 274 345 392
#     4  11  24  43  65  96 130 179 219 271 327 391
#     4  11  23  42  66  91 127 172 229 271 311 370
#     4  10  23  44  70  98 129 163 228 284 327 394
#
# _framework density 23.747741999999999
#
# number of rings (size 3 to 8) (size 9 to 14) (size 15 to 20)
#    0.000    1.250    1.250    3.750    1.750   12.500 
#    0.000    3.750    0.000    0.000    0.000    0.000 
#    0.000    0.000    0.000    0.000    0.000    0.000 
#
# Total GULP energy -198256.946103 kJ/mol
# GULP energy per Si atom -12391.059131 kJ/mol
# Density = 2.369369 g / cm^3
# Si number density = 23.747742 Si / 1000 Ang^3
#
#
#
# Elastic Constant Matrix: (Units=GPa)
#
#
# Indices 1 2 3 4 5 6 
#
# 1 95.5301 29.9290 20.2896 -17.8016 12.7213 5.2040
# 2 29.9290 81.6904 30.7978 -14.9996 5.2234 25.2409
# 3 20.2896 30.7978 114.6315 -23.3067 6.8120 -9.5040
# 4 -17.8016 -14.9996 -23.3067 31.1111 -5.0781 -2.1622
# 5 12.7213 5.2234 6.8120 -5.0781 31.9027 2.4713
# 6 5.2040 25.2409 -9.5040 -2.1622 2.4713 41.1134
#
#
#
# Elastic Compliance Matrix: (Units=1/GPa)
#
#
# Indices 1 2 3 4 5 6 
#
# 1 0.013115 -0.004119 0.000173 0.005111 -0.003888 0.001411
# 2 -0.004119 0.020197 -0.005289 0.002661 0.000897 -0.013015
# 3 0.000173 -0.005289 0.012120 0.006882 -0.001196 0.006461
# 4 0.005111 0.002661 0.006882 0.042032 0.002642 0.001362
# 5 -0.003888 0.000897 -0.001196 0.002642 0.033596 -0.002215
# 6 0.001411 -0.013015 0.006461 0.001362 -0.002215 0.033833
#
#
# Mechanical properties :
#
#
# Convention : Reuss Voigt Hill
#
# Bulk Modulus (GPa) = 37.08951 50.43165 43.76058
# Shear Modulus (GPa) = 27.41986 34.88113 31.15049
#
# Velocity S-wave (km/s) = 3.40167 3.83667 3.62570
# Velocity P-wave (km/s) = 5.57499 6.39604 5.99957
#
# Compressibility (1/GPa) = 0.02696180
#
# Stress axis : x y z
#
# Youngs Moduli (GPa) = 76.24854 49.51312 82.50871
#
# Poissons Ratio (x) = 0.20394 -0.01423
# Poissons Ratio (y) = 0.31406 0.43635
# Poissons Ratio (z) = -0.01315 0.26185
#
# Static dielectric constant tensor:
#      x y z
#    x 4.621590 -0.044590 -0.209660 
#    y -0.044590 3.971830 -0.289130 
#    z -0.209660 -0.289130 4.938920 
# 
# 
# High freq. dielectric constant tensor:
#      x y z
#    x 1.959510 -0.006390 0.001150 
#    y -0.006390 1.930300 -0.014610 
#    z 0.001150 -0.014610 1.951200 
# 
# From -- ./inp_files/525261.got.cif
#   From: 2010.06.25/outbox.cif.g09.slc.cpg/sg2_263_cif.got.tgz:525261.got - 2010.06.27 13:26:56.
