data_PCOD8023541
_publ_section_title
;
Structure prediction by ZEFSAII (Michael W. Deem and Ramdas Pophale) SiO2 
 PCOD8023541
Probable space group: P -1
;
_chemical_formula_sum "Si O2"
_cell_formula_units_Z 14
_cell_length_a 8.758923
_cell_length_b 17.081406
_cell_length_c 12.563907
_cell_angle_alpha 149.233912
_cell_angle_beta 127.067492
_cell_angle_gamma 43.785256
_cell_volume 664.533617
_symmetry_space_group_name_H-M "P -1"
_symmetry_group_IT_number 2
_symmetry_cell_setting 'triclinic'
loop_
_space_group_symop_operation_xyz
x,y,z
-x,-y,-z
loop_
_atom_site_type_symbol
_atom_site_label
_atom_site_fract_x
_atom_site_fract_y
_atom_site_fract_z
Si Si1 0.561037 0.406290 0.577215
Si Si2 0.438100 0.851459 0.274724
Si Si3 0.717060 0.003169 0.846133
Si Si4 0.189400 0.521242 0.048386
Si Si5 0.808461 0.267367 0.305268
Si Si6 0.415421 0.947627 0.799745
Si Si7 0.051686 0.867364 0.270093
O O1 0.673447 0.436991 0.760863
O O2 0.735285 0.347927 0.485783
O O3 0.329725 0.581109 0.661044
O O4 0.496431 0.259263 0.402403
O O5 0.348894 0.877849 0.147919
O O6 0.258326 0.856791 0.284970
O O7 0.500000 0.000000 0.500000
O O8 0.653492 0.661223 0.158590
O O9 0.513386 0.981159 0.772241
O O10 0.765360 0.104058 0.079076
O O11 0.929769 0.809375 0.688600
O O12 0.092288 0.677850 0.104340
O O13 0.000000 0.500000 0.000000
O O14 0.150599 0.058201 0.810868
O O15 0.500000 0.000000 0.000000
O O16 0.000000 0.000000 0.500000
#
# Coordination Sequence:
#
# PCOD8023541 Si02
#       7
#     2   2   2   2   2   2   2
#     4  11  23  44  69  98 141 177 230 287 346 417
#     4  12  27  47  71 101 139 186 240 296 350 417
#     4  11  23  43  68 100 136 180 231 279 351 414
#     4  12  26  45  72 104 138 186 237 290 356 419
#     4  10  23  41  69  98 134 183 225 281 344 418
#     4  12  25  43  71 104 140 180 230 287 351 416
#     4  12  26  47  73 101 142 187 237 293 352 424
#
# _framework density 21.067406999999999
#
# number of rings (size 3 to 8) (size 9 to 14) (size 15 to 20)
#    0.000    0.571    4.286    3.857    4.000    0.571 
#    0.000    0.000    0.000    0.000    0.000    0.000 
#    0.000    0.000    0.000    0.000    0.000    0.000 
#
# Total GULP energy -173678.293437 kJ/mol
# GULP energy per Si atom -12405.592388 kJ/mol
# Density = 2.101946 g / cm^3
# Si number density = 21.067407 Si / 1000 Ang^3
#
#
#
# Elastic Constant Matrix: (Units=GPa)
#
#
# Indices 1 2 3 4 5 6 
#
# 1 155.1789 35.9552 32.4077 18.6642 7.8692 -7.1545
# 2 35.9552 117.9571 37.4559 22.9251 3.1370 -5.1893
# 3 32.4077 37.4559 109.3822 12.8202 8.8654 -4.4149
# 4 18.6642 22.9251 12.8202 42.7351 0.1988 -4.2982
# 5 7.8692 3.1370 8.8654 0.1988 34.4162 5.7803
# 6 -7.1545 -5.1893 -4.4149 -4.2982 5.7803 36.0148
#
#
#
# Elastic Compliance Matrix: (Units=1/GPa)
#
#
# Indices 1 2 3 4 5 6 
#
# 1 0.007398 -0.001360 -0.001336 -0.001984 -0.001396 0.001097
# 2 -0.001360 0.010595 -0.002712 -0.004234 -0.000002 0.000419
# 3 -0.001336 -0.002712 0.010827 -0.001106 -0.002385 0.000922
# 4 -0.001984 -0.004234 -0.001106 0.027067 0.000634 0.001989
# 5 -0.001396 -0.000002 -0.002385 0.000634 0.030902 -0.005454
# 6 0.001097 0.000419 0.000922 0.001989 -0.005454 0.029270
#
#
# Mechanical properties :
#
#
# Convention : Reuss Voigt Hill
#
# Bulk Modulus (GPa) = 55.54305 66.01729 60.78017
# Shear Modulus (GPa) = 37.62908 41.07984 39.35446
#
# Velocity S-wave (km/s) = 4.23085 4.42058 4.32676
# Velocity P-wave (km/s) = 7.09143 7.58022 7.33989
#
# Compressibility (1/GPa) = 0.01800405
#
# Stress axis : x y z
#
# Youngs Moduli (GPa) = 135.16541 94.38795 92.36295
#
# Poissons Ratio (x) = 0.12835 0.12343
# Poissons Ratio (y) = 0.18380 0.25046
# Poissons Ratio (z) = 0.18063 0.25595
#
# Static dielectric constant tensor:
#      x y z
#    x 3.888270 -0.038490 -0.023740 
#    y -0.038490 4.061250 0.105470 
#    z -0.023740 0.105470 3.746250 
# 
# 
# High freq. dielectric constant tensor:
#      x y z
#    x 1.828680 -0.000160 -0.000700 
#    y -0.000160 1.840150 0.004880 
#    z -0.000700 0.004880 1.833320 
# 
# From -- ./inp_files/159068.got.cif
#   From: 2010.06.25/outbox.cif.g09.slc.cpg/sg2_80_cif.got.tgz:159068.got - 2010.06.27 13:26:56.
