data_PCOD8023803
_publ_section_title
;
Structure prediction by ZEFSAII (Michael W. Deem and Ramdas Pophale) SiO2 
 PCOD8023803
Probable space group: P -1
;
_chemical_formula_sum "Si O2"
_cell_formula_units_Z 16
_cell_length_a 17.721489
_cell_length_b 5.060916
_cell_length_c 14.849973
_cell_angle_alpha 85.624670
_cell_angle_beta 30.363302
_cell_angle_gamma 75.729191
_cell_volume 626.647388
_symmetry_space_group_name_H-M "P -1"
_symmetry_group_IT_number 2
_symmetry_cell_setting 'triclinic'
loop_
_space_group_symop_operation_xyz
x,y,z
-x,-y,-z
loop_
_atom_site_type_symbol
_atom_site_label
_atom_site_fract_x
_atom_site_fract_y
_atom_site_fract_z
Si Si1 0.881026 0.574711 0.807539
Si Si2 0.648257 0.377715 0.144351
Si Si3 0.343859 0.884603 0.230243
Si Si4 0.541770 0.244626 0.075326
Si Si5 0.306977 0.688756 0.567485
Si Si6 0.120478 0.337602 0.711305
Si Si7 0.132287 0.740009 0.918705
Si Si8 0.992439 0.044187 0.609886
O O1 0.034976 0.348130 0.704398
O O2 0.897319 0.875332 0.765801
O O3 0.715305 0.613582 0.028197
O O4 0.890813 0.381825 0.714253
O O5 0.617566 0.184633 0.100046
O O6 0.492227 0.553895 0.357105
O O7 0.780400 0.181800 0.085243
O O8 0.475053 0.583047 0.127292
O O9 0.178656 0.931798 0.449958
O O10 0.399964 0.125352 0.210165
O O11 0.329276 0.903048 0.134051
O O12 0.207952 0.562687 0.606455
O O13 0.271731 0.589509 0.706519
O O14 0.248070 0.027018 0.609824
O O15 0.974069 0.443318 0.932909
O O16 0.000000 0.000000 0.000000
O O17 0.000000 0.000000 0.500000
#
# Coordination Sequence:
#
# PCOD8023803 Si02
#       8
#     2   2   2   2   2   2   2   2
#     4  11  26  43  66 100 142 181 238 291 354 410
#     4  11  25  43  71 108 148 186 241 299 354 431
#     4  10  23  43  67  96 137 184 227 291 351 420
#     4  10  23  42  66 100 141 178 226 290 361 407
#     4  11  23  42  72 104 139 185 234 290 360 425
#     4  10  23  43  69 101 138 187 232 292 348 426
#     4   9  21  47  72 103 147 190 236 292 361 426
#     4  12  25  43  71  96 135 188 242 286 352 429
#
# _framework density 25.532696999999999
#
# number of rings (size 3 to 8) (size 9 to 14) (size 15 to 20)
#    0.000    1.500    0.000    3.375    5.250    5.000 
#    0.000   14.375    0.000    0.000    0.000    0.000 
#    0.000    0.000    0.000    0.000    0.000    0.000 
#
# Total GULP energy -198230.175475 kJ/mol
# GULP energy per Si atom -12389.385967 kJ/mol
# Density = 2.547458 g / cm^3
# Si number density = 25.532697 Si / 1000 Ang^3
#
#
#
# Elastic Constant Matrix: (Units=GPa)
#
#
# Indices 1 2 3 4 5 6 
#
# 1 117.0427 19.0193 49.9699 1.7169 -8.1658 -0.5517
# 2 19.0193 76.8590 37.1733 -11.6882 -3.9191 17.4375
# 3 49.9699 37.1733 183.1106 -14.7593 -6.7888 2.3416
# 4 1.7169 -11.6882 -14.7593 36.8567 4.9716 -4.4888
# 5 -8.1658 -3.9191 -6.7888 4.9716 18.4767 -1.1920
# 6 -0.5517 17.4375 2.3416 -4.4888 -1.1920 28.4217
#
#
#
# Elastic Compliance Matrix: (Units=1/GPa)
#
#
# Indices 1 2 3 4 5 6 
#
# 1 0.010214 -0.001779 -0.002491 -0.002415 0.003954 0.001279
# 2 -0.001779 0.017541 -0.002666 0.003299 0.000420 -0.010038
# 3 -0.002491 -0.002666 0.006850 0.002132 0.000366 0.001375
# 4 -0.002415 0.003299 0.002132 0.030447 -0.007632 0.002242
# 5 0.003954 0.000420 0.000366 -0.007632 0.058213 0.001025
# 6 0.001279 -0.010038 0.001375 0.002242 0.001025 0.041652
#
#
# Mechanical properties :
#
#
# Convention : Reuss Voigt Hill
#
# Bulk Modulus (GPa) = 48.22953 65.48194 56.85574
# Shear Modulus (GPa) = 26.92564 34.80768 30.86666
#
# Velocity S-wave (km/s) = 3.25091 3.69624 3.48071
# Velocity P-wave (km/s) = 5.74644 6.62708 6.20241
#
# Compressibility (1/GPa) = 0.02073418
#
# Stress axis : x y z
#
# Youngs Moduli (GPa) = 97.90948 57.01022 145.98941
#
# Poissons Ratio (x) = 0.10140 0.36359
# Poissons Ratio (y) = 0.17415 0.38917
# Poissons Ratio (z) = 0.24385 0.15197
#
# Static dielectric constant tensor:
#      x y z
#    x 5.084170 0.020610 -0.100320 
#    y 0.020610 4.581720 -0.694320 
#    z -0.100320 -0.694320 6.368300 
# 
# 
# High freq. dielectric constant tensor:
#      x y z
#    x 2.031270 0.004840 -0.000980 
#    y 0.004840 1.993290 -0.009030 
#    z -0.000980 -0.009030 2.040690 
# 
# From -- ./inp_files/536336.got.cif
#   From: 2010.06.25/outbox.cif.g09.slc.cpg/sg2_269_cif.got.tgz:536336.got - 2010.06.27 13:26:56.
