data_PCOD8023247
_publ_section_title
;
Structure prediction by ZEFSAII (Michael W. Deem and Ramdas Pophale) SiO2 
 PCOD8023247
Probable space group: P -1
;
_chemical_formula_sum "Si O2"
_cell_formula_units_Z 14
_cell_length_a 14.324453
_cell_length_b 6.254943
_cell_length_c 17.055614
_cell_angle_alpha 64.218595
_cell_angle_beta 31.133599
_cell_angle_gamma 54.334855
_cell_volume 634.393242
_symmetry_space_group_name_H-M "P -1"
_symmetry_group_IT_number 2
_symmetry_cell_setting 'triclinic'
loop_
_space_group_symop_operation_xyz
x,y,z
-x,-y,-z
loop_
_atom_site_type_symbol
_atom_site_label
_atom_site_fract_x
_atom_site_fract_y
_atom_site_fract_z
Si Si1 0.245196 0.343547 0.166513
Si Si2 0.546658 0.422881 0.292811
Si Si3 0.555126 0.241105 0.830362
Si Si4 0.159144 0.091730 0.902555
Si Si5 0.124356 0.733075 0.616693
Si Si6 0.912534 0.313667 0.629435
Si Si7 0.877228 0.363471 0.191851
O O1 0.172992 0.590504 0.237668
O O2 0.058459 0.335635 0.257605
O O3 0.368614 0.074136 0.170240
O O4 0.385815 0.387095 0.994739
O O5 0.538743 0.656990 0.204164
O O6 0.327491 0.496165 0.474313
O O7 0.698611 0.382401 0.260707
O O8 0.618191 0.154048 0.231406
O O9 0.736852 0.320117 0.698679
O O10 0.145509 0.342348 0.822887
O O11 0.098062 0.180616 0.022962
O O12 0.000000 0.000000 0.000000
O O13 0.141052 0.762429 0.693211
O O14 0.087741 0.010685 0.558285
O O15 0.000000 0.500000 0.500000
#
# Coordination Sequence:
#
# PCOD8023247 Si02
#       7
#     2   2   2   2   2   2   2
#     4  10  23  41  65  92 132 167 215 269 317 382
#     4  11  23  40  64  96 130 168 213 262 323 380
#     4  10  23  41  63  97 125 170 219 264 316 384
#     4   9  22  40  62  90 123 170 212 260 314 377
#     4  11  25  40  66  98 131 169 212 268 320 381
#     4  11  23  42  66  94 132 170 213 264 326 379
#     4  10  23  42  64  93 131 167 215 263 318 382
#
# _framework density 22.068328999999999
#
# number of rings (size 3 to 8) (size 9 to 14) (size 15 to 20)
#    0.000    1.714    0.000    2.571    8.000    7.429 
#    0.000    0.000    0.000    0.000    0.000    0.000 
#    0.000    0.000    0.000    0.000    0.000    0.000 
#
# Total GULP energy -173632.154389 kJ/mol
# GULP energy per Si atom -12402.296742 kJ/mol
# Density = 2.201810 g / cm^3
# Si number density = 22.068329 Si / 1000 Ang^3
#
#
#
# Elastic Constant Matrix: (Units=GPa)
#
#
# Indices 1 2 3 4 5 6 
#
# 1 80.7807 30.6126 16.4730 8.9648 8.9336 -20.9639
# 2 30.6126 93.1393 53.2043 15.9627 -3.5103 0.4737
# 3 16.4730 53.2043 119.9018 20.1052 6.9925 -11.3011
# 4 8.9648 15.9627 20.1052 47.0869 3.9063 4.3248
# 5 8.9336 -3.5103 6.9925 3.9063 30.2967 -3.1243
# 6 -20.9639 0.4737 -11.3011 4.3248 -3.1243 30.4954
#
#
#
# Elastic Compliance Matrix: (Units=1/GPa)
#
#
# Indices 1 2 3 4 5 6 
#
# 1 0.019470 -0.007863 0.003042 -0.003224 -0.005440 0.014534
# 2 -0.007863 0.018279 -0.007925 -0.001053 0.005586 -0.007905
# 3 0.003042 -0.007925 0.012960 -0.003790 -0.003577 0.007188
# 4 -0.003224 -0.001053 -0.003790 0.024685 -0.002236 -0.007334
# 5 -0.005440 0.005586 -0.003577 -0.002236 0.036256 -0.001120
# 6 0.014534 -0.007905 0.007188 -0.007334 -0.001120 0.046495
#
#
# Mechanical properties :
#
#
# Convention : Reuss Voigt Hill
#
# Bulk Modulus (GPa) = 39.65629 54.93351 47.29490
# Shear Modulus (GPa) = 26.03554 34.47793 30.25673
#
# Velocity S-wave (km/s) = 3.43850 3.95692 3.70678
# Velocity P-wave (km/s) = 5.81147 6.76925 6.30856
#
# Compressibility (1/GPa) = 0.02521668
#
# Stress axis : x y z
#
# Youngs Moduli (GPa) = 51.36140 54.70621 77.15796
#
# Poissons Ratio (x) = 0.43018 -0.23471
# Poissons Ratio (y) = 0.40388 0.61148
# Poissons Ratio (z) = -0.15624 0.43355
#
# Static dielectric constant tensor:
#      x y z
#    x 3.812070 0.048430 0.141610 
#    y 0.048430 4.201110 0.413910 
#    z 0.141610 0.413910 4.223050 
# 
# 
# High freq. dielectric constant tensor:
#      x y z
#    x 1.860940 -0.000050 0.007500 
#    y -0.000050 1.867910 0.010930 
#    z 0.007500 0.010930 1.879340 
# 
# From -- ./inp_files/28331.got.cif
#   From: 2010.06.25/outbox.cif.g09.slc.cpg/sg2_15_cif.got.tgz:28331.got - 2010.06.27 13:26:56.
