data_PCOD8023133
_publ_section_title
;
Structure prediction by ZEFSAII (Michael W. Deem and Ramdas Pophale) SiO2 
 PCOD8023133
Probable space group: P -1
;
_chemical_formula_sum "Si O2"
_cell_formula_units_Z 16
_cell_length_a 15.118410
_cell_length_b 8.639360
_cell_length_c 9.543086
_cell_angle_alpha 103.319991
_cell_angle_beta 68.917074
_cell_angle_gamma 50.541946
_cell_volume 692.101783
_symmetry_space_group_name_H-M "P -1"
_symmetry_group_IT_number 2
_symmetry_cell_setting 'triclinic'
loop_
_space_group_symop_operation_xyz
x,y,z
-x,-y,-z
loop_
_atom_site_type_symbol
_atom_site_label
_atom_site_fract_x
_atom_site_fract_y
_atom_site_fract_z
Si Si1 0.008425 0.229020 0.949248
Si Si2 0.709720 0.005433 0.582562
Si Si3 0.724546 0.729061 0.742240
Si Si4 0.451163 0.901505 0.827504
Si Si5 0.236707 0.187412 0.766497
Si Si6 0.444697 0.554880 0.705968
Si Si7 0.884679 0.071029 0.918157
Si Si8 0.958516 0.877690 0.540551
O O1 0.886349 0.526928 0.043157
O O2 0.964480 0.137202 0.857362
O O3 0.179784 0.078217 0.798207
O O4 0.995893 0.189375 0.109536
O O5 0.702782 0.926682 0.718581
O O6 0.743955 0.819606 0.412154
O O7 0.846946 0.953275 0.501221
O O8 0.553794 0.296477 0.681660
O O9 0.625258 0.727925 0.717283
O O10 0.897440 0.433117 0.589609
O O11 0.664833 0.842198 0.956187
O O12 0.444754 0.722413 0.822022
O O13 0.397895 0.000152 0.717451
O O14 0.500000 0.500000 0.500000
O O15 0.274697 0.701984 0.854081
O O16 0.865219 0.008888 0.768263
O O17 0.000000 0.000000 0.500000
#
# Coordination Sequence:
#
# PCOD8023133 Si02
#       8
#     2   2   2   2   2   2   2   2
#     4  10  23  40  69 100 138 179 239 279 353 405
#     4  12  26  43  71 104 137 183 237 290 352 413
#     4  11  28  46  71 104 139 186 238 293 347 424
#     4  11  25  47  71  98 146 186 233 288 360 413
#     4  11  23  42  70 100 137 187 227 294 347 415
#     4  12  25  47  71 103 144 186 233 292 355 421
#     4  11  24  44  68 103 141 187 233 294 342 422
#     4  12  27  46  73 102 146 186 237 288 353 422
#
# _framework density 23.117988
#
# number of rings (size 3 to 8) (size 9 to 14) (size 15 to 20)
#    0.000    0.750    2.500    3.375    7.000    7.500 
#    0.000    0.000    0.000    0.000    0.000    0.000 
#    0.000    0.000    0.000    0.000    0.000    0.000 
#
# Total GULP energy -198365.043307 kJ/mol
# GULP energy per Si atom -12397.815207 kJ/mol
# Density = 2.306537 g / cm^3
# Si number density = 23.117988 Si / 1000 Ang^3
#
#
#
# Elastic Constant Matrix: (Units=GPa)
#
#
# Indices 1 2 3 4 5 6 
#
# 1 125.7510 29.1114 23.5275 0.2500 7.1607 -9.1185
# 2 29.1114 113.2794 16.6730 6.0282 1.9564 -3.6692
# 3 23.5275 16.6730 84.6310 5.0114 7.3654 -12.5757
# 4 0.2500 6.0282 5.0114 27.2194 -2.6065 1.0946
# 5 7.1607 1.9564 7.3654 -2.6065 34.9329 -6.6896
# 6 -9.1185 -3.6692 -12.5757 1.0946 -6.6896 36.2876
#
#
#
# Elastic Compliance Matrix: (Units=1/GPa)
#
#
# Indices 1 2 3 4 5 6 
#
# 1 0.008903 -0.001989 -0.001848 0.000550 -0.001056 0.001184
# 2 -0.001989 0.009622 -0.001215 -0.001893 0.000005 0.000110
# 3 -0.001848 -0.001215 0.013445 -0.002519 -0.001847 0.003808
# 4 0.000550 -0.001893 -0.002519 0.037971 0.003069 -0.001506
# 5 -0.001056 0.000005 -0.001847 0.003069 0.030341 0.004596
# 6 0.001184 0.000110 0.003808 -0.001506 0.004596 0.030079
#
#
# Mechanical properties :
#
#
# Convention : Reuss Voigt Hill
#
# Bulk Modulus (GPa) = 45.73072 51.36503 48.54788
# Shear Modulus (GPa) = 33.84044 36.64462 35.24253
#
# Velocity S-wave (km/s) = 3.83013 3.98567 3.90867
# Velocity P-wave (km/s) = 6.27569 6.59148 6.43552
#
# Compressibility (1/GPa) = 0.02186714
#
# Stress axis : x y z
#
# Youngs Moduli (GPa) = 112.31798 103.93060 74.37849
#
# Poissons Ratio (x) = 0.20669 0.13745
# Poissons Ratio (y) = 0.22337 0.09034
# Poissons Ratio (z) = 0.20756 0.12624
#
# Static dielectric constant tensor:
#      x y z
#    x 4.335840 -0.055930 0.095630 
#    y -0.055930 4.102580 -0.042690 
#    z 0.095630 -0.042690 4.043020 
# 
# 
# High freq. dielectric constant tensor:
#      x y z
#    x 1.926080 -0.003590 0.009200 
#    y -0.003590 1.922360 -0.001750 
#    z 0.009200 -0.001750 1.901920 
# 
# From -- ./inp_files/298766.got.cif
#   From: 2010.06.25/outbox.cif.g09.slc.cpg/sg2_150_cif.got.tgz:298766.got - 2010.06.27 13:26:56.
