data_PCOD8023196
_publ_section_title
;
Structure prediction by ZEFSAII (Michael W. Deem and Ramdas Pophale) SiO2 
 PCOD8023196
Probable space group: P -1
;
_chemical_formula_sum "Si O2"
_cell_formula_units_Z 12
_cell_length_a 12.114839
_cell_length_b 10.641129
_cell_length_c 9.567545
_cell_angle_alpha 138.518087
_cell_angle_beta 128.745127
_cell_angle_gamma 71.687769
_cell_volume 607.969720
_symmetry_space_group_name_H-M "P -1"
_symmetry_group_IT_number 2
_symmetry_cell_setting 'triclinic'
loop_
_space_group_symop_operation_xyz
x,y,z
-x,-y,-z
loop_
_atom_site_type_symbol
_atom_site_label
_atom_site_fract_x
_atom_site_fract_y
_atom_site_fract_z
Si Si1 0.118845 0.675439 0.816684
Si Si2 0.940767 0.678419 0.948393
Si Si3 0.538771 0.083089 0.380065
Si Si4 0.559171 0.314037 0.865403
Si Si5 0.221358 0.009985 0.960169
Si Si6 0.833559 0.232874 0.561382
O O1 0.000000 0.500000 0.500000
O O2 0.144739 0.879198 0.922669
O O3 0.269754 0.616890 0.896323
O O4 0.068023 0.707882 0.958126
O O5 0.823618 0.789432 0.903255
O O6 0.023909 0.762327 0.228126
O O7 0.842975 0.451398 0.697243
O O8 0.542875 0.252173 0.638643
O O9 0.682823 0.145002 0.451702
O O10 0.533569 0.874321 0.274069
O O11 0.398343 0.061593 0.151052
O O12 0.500000 0.500000 0.000000
O O13 0.160735 0.900030 0.677507
#
# Coordination Sequence:
#
# PCOD8023196 Si02
#       6
#     2   2   2   2   2   2
#     4  11  22  42  64  91 124 156 209 256 293 362
#     4  11  24  41  63  91 126 162 200 253 307 357
#     4  10  23  41  61  92 124 158 206 253 295 366
#     4  10  23  41  64  90 122 163 202 251 307 356
#     4  11  24  39  66  91 121 165 205 246 307 360
#     4  11  23  43  60  90 131 157 203 252 302 365
#
# _framework density 19.737825000000001
#
# number of rings (size 3 to 8) (size 9 to 14) (size 15 to 20)
#    0.000    1.333    3.333    1.500    2.333    3.333 
#    0.000    0.000    0.000    0.000    0.000    0.000 
#    0.000    0.000    0.000    0.000    0.000    0.000 
#
# Total GULP energy -148870.252421 kJ/mol
# GULP energy per Si atom -12405.854368 kJ/mol
# Density = 1.969290 g / cm^3
# Si number density = 19.737825 Si / 1000 Ang^3
#
#
#
# Elastic Constant Matrix: (Units=GPa)
#
#
# Indices 1 2 3 4 5 6 
#
# 1 136.1547 31.4233 4.8468 48.1321 -29.8731 18.5140
# 2 31.4233 104.9818 32.2906 8.4904 -1.6594 -8.8421
# 3 4.8468 32.2906 93.7838 -8.7232 8.5110 -3.8857
# 4 48.1321 8.4904 -8.7232 50.8290 -16.3378 -1.5726
# 5 -29.8731 -1.6594 8.5110 -16.3378 57.7259 -2.1367
# 6 18.5140 -8.8421 -3.8857 -1.5726 -2.1367 35.4494
#
#
#
# Elastic Compliance Matrix: (Units=1/GPa)
#
#
# Indices 1 2 3 4 5 6 
#
# 1 0.014827 -0.003687 -0.001407 -0.012715 0.003837 -0.009150
# 2 -0.003687 0.012057 -0.003642 0.000789 -0.000633 0.004530
# 3 -0.001407 -0.003642 0.012524 0.003611 -0.001610 0.001262
# 4 -0.012715 0.000789 0.003611 0.033336 0.002673 0.008873
# 5 0.003837 -0.000633 -0.001610 0.002673 0.020248 -0.000999
# 6 -0.009150 0.004530 0.001262 0.008873 -0.000999 0.034590
#
#
# Mechanical properties :
#
#
# Convention : Reuss Voigt Hill
#
# Bulk Modulus (GPa) = 45.58778 52.44905 49.01842
# Shear Modulus (GPa) = 32.81590 46.55817 39.68703
#
# Velocity S-wave (km/s) = 4.08191 4.86205 4.48896
# Velocity P-wave (km/s) = 6.73519 7.62561 7.19419
#
# Compressibility (1/GPa) = 0.02193570
#
# Stress axis : x y z
#
# Youngs Moduli (GPa) = 67.44642 82.93874 79.84709
#
# Poissons Ratio (x) = 0.30578 0.11233
# Poissons Ratio (y) = 0.24867 0.29082
# Poissons Ratio (z) = 0.09489 0.30208
#
# Static dielectric constant tensor:
#      x y z
#    x 3.543130 0.160700 0.108870 
#    y 0.160700 3.762510 -0.171610 
#    z 0.108870 -0.171610 3.793430 
# 
# 
# High freq. dielectric constant tensor:
#      x y z
#    x 1.769890 0.007870 0.005790 
#    y 0.007870 1.778910 -0.007890 
#    z 0.005790 -0.007890 1.781870 
# 
# From -- ./inp_files/21480.got.cif
#   From: 2010.06.25/outbox.cif.g09.slc.cpg/sg2_11_cif.got.tgz:21480.got - 2010.06.27 13:26:56.
