data_PCOD8023461
_publ_section_title
;
Structure prediction by ZEFSAII (Michael W. Deem and Ramdas Pophale) SiO2 
 PCOD8023461
Probable space group: P -1
;
_chemical_formula_sum "Si O2"
_cell_formula_units_Z 14
_cell_length_a 11.205363
_cell_length_b 5.077951
_cell_length_c 13.444798
_cell_angle_alpha 87.926675
_cell_angle_beta 121.978946
_cell_angle_gamma 109.522524
_cell_volume 602.050176
_symmetry_space_group_name_H-M "P -1"
_symmetry_group_IT_number 2
_symmetry_cell_setting 'triclinic'
loop_
_space_group_symop_operation_xyz
x,y,z
-x,-y,-z
loop_
_atom_site_type_symbol
_atom_site_label
_atom_site_fract_x
_atom_site_fract_y
_atom_site_fract_z
Si Si1 0.145574 0.802860 0.193955
Si Si2 0.802440 0.669248 0.102134
Si Si3 0.654172 0.072255 0.127016
Si Si4 0.869223 0.785357 0.509355
Si Si5 0.779316 0.201045 0.561707
Si Si6 0.268912 0.419703 0.149311
Si Si7 0.409066 0.145275 0.679412
O O1 0.246128 0.769796 0.333047
O O2 0.141838 0.549827 0.120756
O O3 0.979488 0.779260 0.152978
O O4 0.227830 0.102094 0.173248
O O5 0.755730 0.903999 0.133269
O O6 0.758007 0.401698 0.158781
O O7 0.709659 0.579496 0.959622
O O8 0.610644 0.020170 0.223660
O O9 0.500000 0.000000 0.000000
O O10 0.891032 0.503076 0.560463
O O11 0.711847 0.699072 0.379561
O O12 0.864292 0.977300 0.599814
O O13 0.000000 0.000000 0.500000
O O14 0.627165 0.076940 0.427717
O O15 0.425301 0.621461 0.264677
#
# Coordination Sequence:
#
# PCOD8023461 Si02
#       7
#     2   2   2   2   2   2   2
#     4  12  27  45  73  99 138 193 233 285 338 401
#     4  12  27  46  73 102 142 176 242 284 347 407
#     4  12  26  44  74 106 138 177 224 289 357 419
#     4  10  23  41  67  98 143 177 221 279 349 409
#     4  10  25  42  65 102 136 173 238 267 350 399
#     4  12  26  47  70  98 141 185 241 284 337 406
#     4  10  28  41  74 100 145 176 226 286 355 408
#
# _framework density 23.253875000000001
#
# number of rings (size 3 to 8) (size 9 to 14) (size 15 to 20)
#    0.857    0.000    1.429    4.286    8.000    1.143 
#    0.000    0.000    0.000    0.000    0.000    0.000 
#    0.000    0.000    0.000    0.000    0.000    0.000 
#
# Total GULP energy -173505.068651 kJ/mol
# GULP energy per Si atom -12393.219189 kJ/mol
# Density = 2.320095 g / cm^3
# Si number density = 23.253875 Si / 1000 Ang^3
#
#
#
# Elastic Constant Matrix: (Units=GPa)
#
#
# Indices 1 2 3 4 5 6 
#
# 1 57.4626 1.1697 7.6209 -3.9711 12.7722 -2.7256
# 2 1.1697 125.3783 20.4708 -7.8778 -4.7205 -4.6593
# 3 7.6209 20.4708 67.2483 -10.6973 -3.2305 -3.0056
# 4 -3.9711 -7.8778 -10.6973 27.4699 6.2988 1.0196
# 5 12.7722 -4.7205 -3.2305 6.2988 31.4993 2.4364
# 6 -2.7256 -4.6593 -3.0056 1.0196 2.4364 34.1768
#
#
#
# Elastic Compliance Matrix: (Units=1/GPa)
#
#
# Indices 1 2 3 4 5 6 
#
# 1 0.020131 0.000128 -0.002007 0.004236 -0.009350 0.001987
# 2 0.000128 0.008495 -0.002312 0.001375 0.000641 0.000878
# 3 -0.002007 -0.002312 0.016728 0.005288 0.001066 0.000762
# 4 0.004236 0.001375 0.005288 0.041591 -0.009318 0.000414
# 5 -0.009350 0.000641 0.001066 -0.009318 0.037838 -0.002984
# 6 0.001987 0.000878 0.000762 0.000414 -0.002984 0.029805
#
#
# Mechanical properties :
#
#
# Convention : Reuss Voigt Hill
#
# Bulk Modulus (GPa) = 27.04681 34.29020 30.66850
# Shear Modulus (GPa) = 28.52352 33.35105 30.93729
#
# Velocity S-wave (km/s) = 3.50610 3.79121 3.65144
# Velocity P-wave (km/s) = 5.29591 5.82601 5.56728
#
# Compressibility (1/GPa) = 0.03697294
#
# Stress axis : x y z
#
# Youngs Moduli (GPa) = 49.67366 117.71241 59.78036
#
# Poissons Ratio (x) = -0.01504 0.11997
# Poissons Ratio (y) = -0.00635 0.13820
# Poissons Ratio (z) = 0.09969 0.27212
#
# Static dielectric constant tensor:
#      x y z
#    x 4.182740 -0.135640 -0.097700 
#    y -0.135640 4.235940 -0.069240 
#    z -0.097700 -0.069240 4.587330 
# 
# 
# High freq. dielectric constant tensor:
#      x y z
#    x 1.912430 0.001040 -0.007640 
#    y 0.001040 1.930850 -0.000380 
#    z -0.007640 -0.000380 1.926430 
# 
# From -- ./inp_files/511001.got.cif
#   From: 2010.06.25/outbox.cif.g09.slc.cpg/sg2_256_cif.got.tgz:511001.got - 2010.06.27 13:26:56.
