data_PCOD8023094
_publ_section_title
;
Structure prediction by ZEFSAII (Michael W. Deem and Ramdas Pophale) SiO2 
 PCOD8023094
Probable space group: P -1
;
_chemical_formula_sum "Si O2"
_cell_formula_units_Z 16
_cell_length_a 5.171913
_cell_length_b 11.461707
_cell_length_c 13.655947
_cell_angle_alpha 72.856946
_cell_angle_beta 98.990483
_cell_angle_gamma 115.609702
_cell_volume 697.160093
_symmetry_space_group_name_H-M "P -1"
_symmetry_group_IT_number 2
_symmetry_cell_setting 'triclinic'
loop_
_space_group_symop_operation_xyz
x,y,z
-x,-y,-z
loop_
_atom_site_type_symbol
_atom_site_label
_atom_site_fract_x
_atom_site_fract_y
_atom_site_fract_z
Si Si1 0.955924 0.917758 0.662908
Si Si2 0.773917 0.363999 0.475774
Si Si3 0.742582 0.187088 0.145247
Si Si4 0.507069 0.530411 0.107345
Si Si5 0.135153 0.696878 0.085406
Si Si6 0.582355 0.316357 0.266719
Si Si7 0.885382 0.800871 0.481254
Si Si8 0.258166 0.974670 0.069993
O O1 0.614127 0.838321 0.678180
O O2 0.014673 0.851329 0.584315
O O3 0.110158 0.899815 0.773608
O O4 0.070283 0.075675 0.617143
O O5 0.776013 0.388744 0.353025
O O6 0.447147 0.307989 0.511217
O O7 0.000000 0.500000 0.500000
O O8 0.906775 0.259496 0.537404
O O9 0.770617 0.310703 0.186097
O O10 0.405270 0.085032 0.135758
O O11 0.905004 0.253274 0.038064
O O12 0.371645 0.634084 0.106572
O O13 0.385822 0.395245 0.200007
O O14 0.843538 0.588779 0.138016
O O15 0.500000 0.500000 0.000000
O O16 0.191969 0.820871 0.133630
O O17 0.500000 0.000000 0.000000
O O18 0.000000 0.000000 0.000000
#
# Coordination Sequence:
#
# PCOD8023094 Si02
#       8
#     2   2   2   2   2   2   2   2
#     4  10  23  40  68 100 126 164 224 283 327 386
#     4  11  24  47  69  97 136 177 210 268 341 406
#     4  11  22  40  68  92 130 173 227 276 326 392
#     4  12  24  40  64  94 132 176 222 271 318 390
#     4  11  24  42  61  91 134 175 218 271 326 387
#     4  11  25  40  68  97 132 174 229 273 331 395
#     4  10  23  43  71  96 132 164 216 275 336 391
#     4  10  23  41  63  88 125 174 214 271 338 380
#
# _framework density 22.950254000000001
#
# number of rings (size 3 to 8) (size 9 to 14) (size 15 to 20)
#    0.000    1.250    2.500    3.000    7.000    1.500 
#    4.500    0.000    0.000    0.000    0.000    0.000 
#    0.000    0.000    0.000    0.000    0.000    0.000 
#
# Total GULP energy -198229.464329 kJ/mol
# GULP energy per Si atom -12389.341521 kJ/mol
# Density = 2.289802 g / cm^3
# Si number density = 22.950254 Si / 1000 Ang^3
#
#
#
# Elastic Constant Matrix: (Units=GPa)
#
#
# Indices 1 2 3 4 5 6 
#
# 1 109.2292 25.7047 16.3168 -0.7727 20.6978 -5.3578
# 2 25.7047 109.2035 34.8040 -0.7409 9.5772 -2.2702
# 3 16.3168 34.8040 97.3678 -3.6683 14.6139 1.8420
# 4 -0.7727 -0.7409 -3.6683 37.3891 3.0131 4.3226
# 5 20.6978 9.5772 14.6139 3.0131 26.2016 -1.3455
# 6 -5.3578 -2.2702 1.8420 4.3226 -1.3455 40.6081
#
#
#
# Elastic Compliance Matrix: (Units=1/GPa)
#
#
# Indices 1 2 3 4 5 6 
#
# 1 0.011209 -0.001906 0.000045 0.000743 -0.008216 0.001019
# 2 -0.001906 0.010762 -0.003479 -0.000191 -0.000440 0.000514
# 3 0.000045 -0.003479 0.012494 0.001773 -0.005995 -0.001143
# 4 0.000743 -0.000191 0.001773 0.027680 -0.004848 -0.003100
# 5 -0.008216 -0.000440 -0.005995 -0.004848 0.048784 0.001296
# 6 0.001019 0.000514 -0.001143 -0.003100 0.001296 0.025214
#
#
# Mechanical properties :
#
#
# Convention : Reuss Voigt Hill
#
# Bulk Modulus (GPa) = 42.04098 52.16127 47.10113
# Shear Modulus (GPa) = 32.30971 36.77143 34.54057
#
# Velocity S-wave (km/s) = 3.75616 4.00712 3.88367
# Velocity P-wave (km/s) = 6.09670 6.64730 6.37794
#
# Compressibility (1/GPa) = 0.02378631
#
# Stress axis : x y z
#
# Youngs Moduli (GPa) = 89.21452 92.91589 80.03534
#
# Poissons Ratio (x) = 0.17709 -0.00357
# Poissons Ratio (y) = 0.17003 0.27841
# Poissons Ratio (z) = -0.00398 0.32321
#
# Static dielectric constant tensor:
#      x y z
#    x 3.552010 -1.984810 -0.420830 
#    y -1.984810 -4.478160 -2.039640 
#    z -0.420830 -2.039640 3.614770 
# 
# 
# High freq. dielectric constant tensor:
#      x y z
#    x 1.906800 0.002060 0.008300 
#    y 0.002060 1.919400 -0.007540 
#    z 0.008300 -0.007540 1.888090 
# 
# From -- ./inp_files/482795.got.cif
#   From: 2010.06.25/outbox.cif.g09.slc.cpg/sg2_242_cif.got.tgz:482795.got - 2010.06.27 13:26:56.
