data_PCOD8023453
_publ_section_title
;
Structure prediction by ZEFSAII (Michael W. Deem and Ramdas Pophale) SiO2 
 PCOD8023453
Probable space group: P -1
;
_chemical_formula_sum "Si O2"
_cell_formula_units_Z 16
_cell_length_a 18.395717
_cell_length_b 9.307519
_cell_length_c 12.509751
_cell_angle_alpha 129.321810
_cell_angle_beta 26.881778
_cell_angle_gamma 130.097539
_cell_volume 729.898145
_symmetry_space_group_name_H-M "P -1"
_symmetry_group_IT_number 2
_symmetry_cell_setting 'triclinic'
loop_
_space_group_symop_operation_xyz
x,y,z
-x,-y,-z
loop_
_atom_site_type_symbol
_atom_site_label
_atom_site_fract_x
_atom_site_fract_y
_atom_site_fract_z
Si Si1 0.352696 0.525161 0.277646
Si Si2 0.847633 0.876446 0.048468
Si Si3 0.651762 0.419455 0.308451
Si Si4 0.129819 0.187659 0.776940
Si Si5 0.841248 0.199444 0.822041
Si Si6 0.500261 0.216165 0.615226
Si Si7 0.176205 0.158792 0.461527
Si Si8 0.021812 0.549720 0.617477
O O1 0.423563 0.718091 0.339947
O O2 0.296509 0.348776 0.349286
O O3 0.208880 0.557138 0.405500
O O4 0.500000 0.500000 0.000000
O O5 0.797258 0.889476 0.246292
O O6 0.690794 0.772894 0.136690
O O7 0.983382 0.751361 0.794183
O O8 0.932277 0.090880 0.995451
O O9 0.500000 0.500000 0.500000
O O10 0.823101 0.582523 0.165549
O O11 0.610849 0.350492 0.448372
O O12 0.686679 0.240864 0.111220
O O13 0.203777 0.134714 0.541715
O O14 0.984697 0.162090 0.694858
O O15 0.899851 0.383939 0.761002
O O16 0.777551 0.018164 0.743971
O O17 0.500000 0.000000 0.500000
O O18 0.000000 0.500000 0.500000
#
# Coordination Sequence:
#
# PCOD8023453 Si02
#       8
#     2   2   2   2   2   2   2   2
#     4  11  26  43  67 100 139 178 232 289 350 413
#     4  11  25  43  70  98 141 179 237 280 344 422
#     4  12  24  45  70 100 141 178 231 287 355 412
#     4  11  23  43  70  98 133 184 233 284 335 429
#     4  10  23  41  67  97 131 179 222 283 342 420
#     4  12  28  44  69 105 143 182 226 297 356 401
#     4  10  23  43  66  98 134 178 232 277 348 415
#     4  11  22  43  70  97 136 183 229 280 347 418
#
# _framework density 21.920866
#
# number of rings (size 3 to 8) (size 9 to 14) (size 15 to 20)
#    0.000    1.000    3.750    1.500    7.000    1.500 
#    0.000    0.625    0.000    0.000    0.000    0.000 
#    0.000    0.000    0.000    0.000    0.000    0.000 
#
# Total GULP energy -198349.099481 kJ/mol
# GULP energy per Si atom -12396.818718 kJ/mol
# Density = 2.187097 g / cm^3
# Si number density = 21.920866 Si / 1000 Ang^3
#
#
#
# Elastic Constant Matrix: (Units=GPa)
#
#
# Indices 1 2 3 4 5 6 
#
# 1 131.9326 49.2145 59.7173 -2.4776 19.6248 15.9975
# 2 49.2145 130.5186 47.6854 -3.1137 6.4021 16.2323
# 3 59.7173 47.6854 128.9497 10.0016 4.9367 5.7627
# 4 -2.4776 -3.1137 10.0016 41.6373 4.1413 5.5244
# 5 19.6248 6.4021 4.9367 4.1413 31.5627 4.1551
# 6 15.9975 16.2323 5.7627 5.5244 4.1551 35.5324
#
#
#
# Elastic Compliance Matrix: (Units=1/GPa)
#
#
# Indices 1 2 3 4 5 6 
#
# 1 0.011732 -0.001993 -0.004522 0.002685 -0.006095 -0.003343
# 2 -0.001993 0.009876 -0.002706 0.001737 -0.000117 -0.003432
# 3 -0.004522 -0.002706 0.010971 -0.003534 0.001868 0.001824
# 4 0.002685 0.001737 -0.003534 0.026244 -0.004253 -0.005012
# 5 -0.006095 -0.000117 0.001868 -0.004253 0.035900 -0.001042
# 6 -0.003343 -0.003432 0.001824 -0.005012 -0.001042 0.031822
#
#
# Mechanical properties :
#
#
# Convention : Reuss Voigt Hill
#
# Bulk Modulus (GPa) = 70.73438 78.29283 74.51360
# Shear Modulus (GPa) = 33.40065 37.39870 35.39967
#
# Velocity S-wave (km/s) = 3.90768 4.13495 4.02292
# Velocity P-wave (km/s) = 7.25935 7.65446 7.45952
#
# Compressibility (1/GPa) = 0.01413740
#
# Stress axis : x y z
#
# Youngs Moduli (GPa) = 85.23515 101.25691 91.15109
#
# Poissons Ratio (x) = 0.20181 0.41216
# Poissons Ratio (y) = 0.16988 0.24665
# Poissons Ratio (z) = 0.38541 0.27400
#
# Static dielectric constant tensor:
#      x y z
#    x 4.665940 0.476790 -0.733480 
#    y 0.476790 4.669630 -0.639390 
#    z -0.733480 -0.639390 4.637280 
# 
# 
# High freq. dielectric constant tensor:
#      x y z
#    x 1.864460 0.007110 0.018710 
#    y 0.007110 1.878890 -0.007620 
#    z 0.018710 -0.007620 1.851570 
# 
# From -- ./inp_files/462406.got.cif
#   From: 2010.06.25/outbox.cif.g09.slc.cpg/sg2_232_cif.got.tgz:462406.got - 2010.06.27 13:26:56.
