data_PCOD8023753
_publ_section_title
;
Structure prediction by ZEFSAII (Michael W. Deem and Ramdas Pophale) SiO2 
 PCOD8023753
Probable space group: P -1
;
_chemical_formula_sum "Si O2"
_cell_formula_units_Z 16
_cell_length_a 12.052949
_cell_length_b 14.351049
_cell_length_c 14.469787
_cell_angle_alpha 35.022982
_cell_angle_beta 139.815418
_cell_angle_gamma 114.117835
_cell_volume 751.011165
_symmetry_space_group_name_H-M "P -1"
_symmetry_group_IT_number 2
_symmetry_cell_setting 'triclinic'
loop_
_space_group_symop_operation_xyz
x,y,z
-x,-y,-z
loop_
_atom_site_type_symbol
_atom_site_label
_atom_site_fract_x
_atom_site_fract_y
_atom_site_fract_z
Si Si1 0.792263 0.207350 0.729456
Si Si2 0.174726 0.539549 0.594798
Si Si3 0.856573 0.527832 0.095531
Si Si4 0.708073 0.603440 0.575891
Si Si5 0.482219 0.203084 0.193149
Si Si6 0.261356 0.774639 0.103551
Si Si7 0.615356 0.773760 0.571465
Si Si8 0.123879 0.797114 0.521186
O O1 0.778848 0.394145 0.525033
O O2 0.793458 0.227020 0.823387
O O3 0.599020 0.207772 0.569420
O O4 0.000000 0.000000 0.000000
O O5 0.086510 0.718617 0.466999
O O6 0.000000 0.500000 0.500000
O O7 0.390552 0.337871 0.933001
O O8 0.846160 0.342082 0.261284
O O9 0.098534 0.455121 0.320400
O O10 0.706361 0.710723 0.921841
O O11 0.789778 0.596047 0.892646
O O12 0.488773 0.738827 0.268052
O O13 0.729252 0.408222 0.788468
O O14 0.701545 0.725928 0.560604
O O15 0.666269 0.210654 0.348713
O O16 0.577855 0.977859 0.412546
O O17 0.082284 0.978882 0.772988
#
# Coordination Sequence:
#
# PCOD8023753 Si02
#       8
#     2   2   2   2   2   2   2   2
#     4  11  21  36  66  95 127 164 215 266 323 379
#     4  11  23  38  61 101 138 160 208 270 329 381
#     4  11  23  39  67  92 130 168 216 264 328 381
#     4  10  24  43  62  92 127 176 221 264 314 394
#     4  11  24  41  67 100 134 167 212 276 328 375
#     4  10  23  42  65  89 134 172 214 266 326 379
#     4  11  23  42  65  96 126 172 223 264 318 390
#     4  11  23  42  64  99 136 167 213 275 326 381
#
# _framework density 21.304611000000001
#
# number of rings (size 3 to 8) (size 9 to 14) (size 15 to 20)
#    0.000    1.250    1.250    5.250    7.000    0.500 
#    0.000    6.250    0.000    0.000    0.000    0.000 
#    0.000    0.000    0.000    0.000    0.000    0.000 
#
# Total GULP energy -198472.787352 kJ/mol
# GULP energy per Si atom -12404.549210 kJ/mol
# Density = 2.125612 g / cm^3
# Si number density = 21.304611 Si / 1000 Ang^3
#
#
#
# Elastic Constant Matrix: (Units=GPa)
#
#
# Indices 1 2 3 4 5 6 
#
# 1 93.2730 43.6805 36.3458 2.6761 20.0667 18.5851
# 2 43.6805 121.3666 32.2192 -2.5064 12.0291 14.0189
# 3 36.3458 32.2192 119.8060 -2.9606 12.1855 5.9433
# 4 2.6761 -2.5064 -2.9606 28.7502 6.6236 3.6671
# 5 20.0667 12.0291 12.1855 6.6236 39.7356 2.5006
# 6 18.5851 14.0189 5.9433 3.6671 2.5006 25.3410
#
#
#
# Elastic Compliance Matrix: (Units=1/GPa)
#
#
# Indices 1 2 3 4 5 6 
#
# 1 0.016606 -0.003546 -0.003034 0.000330 -0.005873 -0.008974
# 2 -0.003546 0.010369 -0.001422 0.001696 -0.001009 -0.002948
# 3 -0.003034 -0.001422 0.009785 0.001386 -0.001310 0.000645
# 4 0.000330 0.001696 0.001386 0.037440 -0.006954 -0.006237
# 5 -0.005873 -0.001009 -0.001310 -0.006954 0.029795 0.003239
# 6 -0.008974 -0.002948 0.000645 -0.006237 0.003239 0.048106
#
#
# Mechanical properties :
#
#
# Convention : Reuss Voigt Hill
#
# Bulk Modulus (GPa) = 48.17628 62.10407 55.14018
# Shear Modulus (GPa) = 28.56797 33.57870 31.07334
#
# Velocity S-wave (km/s) = 3.66584 3.97435 3.82321
# Velocity P-wave (km/s) = 6.37025 7.09045 6.73997
#
# Compressibility (1/GPa) = 0.02075710
#
# Stress axis : x y z
#
# Youngs Moduli (GPa) = 60.21953 96.44400 102.19751
#
# Poissons Ratio (x) = 0.34197 0.31002
# Poissons Ratio (y) = 0.21352 0.14532
# Poissons Ratio (z) = 0.18268 0.13714
#
# Static dielectric constant tensor:
#      x y z
#    x 3.904600 0.040050 0.092210 
#    y 0.040050 3.797210 -0.021870 
#    z 0.092210 -0.021870 4.075710 
# 
# 
# High freq. dielectric constant tensor:
#      x y z
#    x 1.823140 0.008970 0.009280 
#    y 0.008970 1.840560 0.002410 
#    z 0.009280 0.002410 1.846780 
# 
# From -- ./inp_files/244109.got.cif
#   From: 2010.06.25/outbox.cif.g09.slc.cpg/sg2_123_cif.got.tgz:244109.got - 2010.06.27 13:26:56.
