data_PCOD8023585
_publ_section_title
;
Structure prediction by ZEFSAII (Michael W. Deem and Ramdas Pophale) SiO2 
 PCOD8023585
Probable space group: P -1
;
_chemical_formula_sum "Si O2"
_cell_formula_units_Z 16
_cell_length_a 8.484491
_cell_length_b 9.728335
_cell_length_c 15.834361
_cell_angle_alpha 70.786527
_cell_angle_beta 143.989792
_cell_angle_gamma 111.688845
_cell_volume 712.917506
_symmetry_space_group_name_H-M "P -1"
_symmetry_group_IT_number 2
_symmetry_cell_setting 'triclinic'
loop_
_space_group_symop_operation_xyz
x,y,z
-x,-y,-z
loop_
_atom_site_type_symbol
_atom_site_label
_atom_site_fract_x
_atom_site_fract_y
_atom_site_fract_z
Si Si1 0.344687 0.891903 0.884175
Si Si2 0.706859 0.146470 0.794525
Si Si3 0.698435 0.828238 0.895661
Si Si4 0.602618 0.539613 0.829668
Si Si5 0.130506 0.080454 0.625101
Si Si6 0.039221 0.366852 0.602078
Si Si7 0.988918 0.412791 0.143252
Si Si8 0.739130 0.406613 0.631565
O O1 0.570745 0.846255 0.928755
O O2 0.169374 0.753965 0.884602
O O3 0.121055 0.962493 0.720620
O O4 0.500000 0.000000 0.000000
O O5 0.449480 0.155523 0.740436
O O6 0.658505 0.246115 0.673483
O O7 0.700359 0.972185 0.807556
O O8 0.993822 0.204638 0.954247
O O9 0.516433 0.691124 0.795493
O O10 0.355780 0.401096 0.758640
O O11 0.713012 0.571958 0.775048
O O12 0.830921 0.508111 0.997679
O O13 0.968042 0.209260 0.555243
O O14 0.000000 0.000000 0.500000
O O15 0.000000 0.500000 0.500000
O O16 0.840282 0.364536 0.594138
O O17 0.022317 0.488441 0.234406
O O18 0.500000 0.500000 0.500000
#
# Coordination Sequence:
#
# PCOD8023585 Si02
#       8
#     2   2   2   2   2   2   2   2
#     4  11  26  42  70 102 142 182 238 290 354 418
#     4  10  23  43  70  97 140 179 233 284 357 413
#     4  10  23  41  71 101 139 185 225 299 352 419
#     4  11  24  43  70 105 141 178 237 290 360 410
#     4  11  27  48  70 102 146 189 230 292 360 425
#     4  12  28  46  75  99 141 189 240 287 357 426
#     4  11  25  41  70 103 139 182 230 298 349 420
#     4  12  26  46  71 104 141 185 235 298 349 424
#
# _framework density 22.442990000000002
#
# number of rings (size 3 to 8) (size 9 to 14) (size 15 to 20)
#    0.000    1.000    1.250    3.750   17.500    1.000 
#    0.000    0.625    0.000    0.000    0.000    0.000 
#    0.000    0.000    0.000    0.000    0.000    0.000 
#
# Total GULP energy -198346.539400 kJ/mol
# GULP energy per Si atom -12396.658713 kJ/mol
# Density = 2.239191 g / cm^3
# Si number density = 22.442990 Si / 1000 Ang^3
#
#
#
# Elastic Constant Matrix: (Units=GPa)
#
#
# Indices 1 2 3 4 5 6 
#
# 1 116.4523 56.9144 33.1766 -6.9950 -0.1791 -11.1770
# 2 56.9144 147.9611 45.2758 -9.7865 -17.3642 -9.7736
# 3 33.1766 45.2758 96.9479 -12.9094 -9.2711 -12.3535
# 4 -6.9950 -9.7865 -12.9094 42.9860 1.8191 -10.0647
# 5 -0.1791 -17.3642 -9.2711 1.8191 33.7942 1.6456
# 6 -11.1770 -9.7736 -12.3535 -10.0647 1.6456 47.0887
#
#
#
# Elastic Compliance Matrix: (Units=1/GPa)
#
#
# Indices 1 2 3 4 5 6 
#
# 1 0.011238 -0.003860 -0.001971 0.000847 -0.002589 0.001621
# 2 -0.003860 0.009604 -0.002628 0.000685 0.004138 0.000390
# 3 -0.001971 -0.002628 0.013310 0.003748 0.001933 0.003212
# 4 0.000847 0.000685 0.003748 0.026330 -0.000372 0.006967
# 5 -0.002589 0.004138 0.001933 -0.000372 0.032276 -0.000456
# 6 0.001621 0.000390 0.003212 0.006967 -0.000456 0.024050
#
#
# Mechanical properties :
#
#
# Convention : Reuss Voigt Hill
#
# Bulk Modulus (GPa) = 58.02673 70.23277 64.12975
# Shear Modulus (GPa) = 35.84994 39.84008 37.84501
#
# Velocity S-wave (km/s) = 4.00106 4.21785 4.11088
# Velocity P-wave (km/s) = 6.87429 7.42173 7.15325
#
# Compressibility (1/GPa) = 0.01723344
#
# Stress axis : x y z
#
# Youngs Moduli (GPa) = 88.98437 104.12169 75.13272
#
# Poissons Ratio (x) = 0.40195 0.14811
# Poissons Ratio (y) = 0.34351 0.19742
# Poissons Ratio (z) = 0.17541 0.27359
#
# Static dielectric constant tensor:
#      x y z
#    x 4.043980 -0.112350 0.170460 
#    y -0.112350 4.129680 0.064690 
#    z 0.170460 0.064690 4.595210 
# 
# 
# High freq. dielectric constant tensor:
#      x y z
#    x 1.879600 -0.000580 0.000170 
#    y -0.000580 1.903850 -0.010070 
#    z 0.000170 -0.010070 1.882900 
# 
# From -- ./inp_files/494775.got.cif
#   From: 2010.06.25/outbox.cif.g09.slc.cpg/sg2_248_cif.got.tgz:494775.got - 2010.06.27 13:26:56.
