data_PCOD8023345
_publ_section_title
;
Structure prediction by ZEFSAII (Michael W. Deem and Ramdas Pophale) SiO2 
 PCOD8023345
Probable space group: P -1
;
_chemical_formula_sum "Si O2"
_cell_formula_units_Z 16
_cell_length_a 11.768337
_cell_length_b 11.345271
_cell_length_c 5.408489
_cell_angle_alpha 100.379241
_cell_angle_beta 92.448256
_cell_angle_gamma 97.509601
_cell_volume 702.578401
_symmetry_space_group_name_H-M "P -1"
_symmetry_group_IT_number 2
_symmetry_cell_setting 'triclinic'
loop_
_space_group_symop_operation_xyz
x,y,z
-x,-y,-z
loop_
_atom_site_type_symbol
_atom_site_label
_atom_site_fract_x
_atom_site_fract_y
_atom_site_fract_z
Si Si1 0.961463 0.279506 0.832653
Si Si2 0.684630 0.986075 0.112811
Si Si3 0.263584 0.549006 0.466821
Si Si4 0.258070 0.805677 0.465253
Si Si5 0.905618 0.883506 0.959976
Si Si6 0.546772 0.156495 0.847545
Si Si7 0.602813 0.427395 0.030092
Si Si8 0.050392 0.344605 0.359493
O O1 0.832173 0.205079 0.776688
O O2 0.058433 0.189063 0.821590
O O3 0.984463 0.360208 0.616863
O O4 0.969172 0.359701 0.116275
O O5 0.762752 0.077839 0.335746
O O6 0.774864 0.911033 0.962323
O O7 0.587869 0.894173 0.213702
O O8 0.617141 0.060934 0.947826
O O9 0.231501 0.682418 0.575703
O O10 0.319704 0.557325 0.202232
O O11 0.156248 0.447922 0.394279
O O12 0.337590 0.513419 0.692672
O O13 0.392616 0.823700 0.406474
O O14 0.913249 0.791219 0.695217
O O15 0.000000 0.000000 0.000000
O O16 0.558754 0.286192 0.033613
O O17 0.500000 0.500000 0.000000
#
# Coordination Sequence:
#
# PCOD8023345 Si02
#       8
#     2   2   2   2   2   2   2   2
#     4  10  24  41  68  99 137 174 227 273 343 394
#     4  11  22  42  67  93 140 174 228 280 331 410
#     4  11  24  43  69  95 138 173 226 278 340 403
#     4  11  23  41  68  95 138 180 221 281 337 401
#     4  10  23  41  65  98 134 178 221 277 336 397
#     4  10  24  41  64 101 130 178 230 273 344 399
#     4  11  24  44  69  97 133 181 227 281 336 396
#     4  10  24  43  63 103 131 174 231 273 338 401
#
# _framework density 22.773258999999999
#
# number of rings (size 3 to 8) (size 9 to 14) (size 15 to 20)
#    0.750    0.750    1.250    3.000    3.500    4.000 
#    0.000    0.000    0.000    0.000    0.000    0.000 
#    0.000    0.000    0.000    0.000    0.000    0.000 
#
# Total GULP energy -198229.558533 kJ/mol
# GULP energy per Si atom -12389.347408 kJ/mol
# Density = 2.272143 g / cm^3
# Si number density = 22.773259 Si / 1000 Ang^3
#
#
#
# Elastic Constant Matrix: (Units=GPa)
#
#
# Indices 1 2 3 4 5 6 
#
# 1 104.6792 32.5382 24.0074 -6.0047 9.7436 12.1836
# 2 32.5382 93.4409 26.9574 6.4381 -2.7084 24.7855
# 3 24.0074 26.9574 130.4176 -4.9257 16.8568 17.6738
# 4 -6.0047 6.4381 -4.9257 31.9193 3.5557 2.3529
# 5 9.7436 -2.7084 16.8568 3.5557 36.2327 -1.8069
# 6 12.1836 24.7855 17.6738 2.3529 -1.8069 42.9734
#
#
#
# Elastic Compliance Matrix: (Units=1/GPa)
#
#
# Indices 1 2 3 4 5 6 
#
# 1 0.011544 -0.003883 -0.000592 0.003336 -0.003502 -0.001119
# 2 -0.003883 0.014633 -0.002031 -0.003893 0.003158 -0.006158
# 3 -0.000592 -0.002031 0.009276 0.002459 -0.004689 -0.002808
# 4 0.003336 -0.003893 0.002459 0.033895 -0.005749 -0.001809
# 5 -0.003502 0.003158 -0.004689 -0.005749 0.031660 0.002746
# 6 -0.001119 -0.006158 -0.002808 -0.001809 0.002746 0.028508
#
#
# Mechanical properties :
#
#
# Convention : Reuss Voigt Hill
#
# Bulk Modulus (GPa) = 44.56129 55.06040 49.81085
# Shear Modulus (GPa) = 33.33154 38.56073 35.94613
#
# Velocity S-wave (km/s) = 3.82989 4.11937 3.97726
# Velocity P-wave (km/s) = 6.25837 6.84513 6.55832
#
# Compressibility (1/GPa) = 0.02244100
#
# Stress axis : x y z
#
# Youngs Moduli (GPa) = 86.62878 68.33771 107.80712
#
# Poissons Ratio (x) = 0.26538 0.06380
# Poissons Ratio (y) = 0.33641 0.21891
# Poissons Ratio (z) = 0.05127 0.13876
#
# Static dielectric constant tensor:
#      x y z
#    x 5.574930 0.368240 0.299960 
#    y 0.368240 4.382900 0.242360 
#    z 0.299960 0.242360 4.501140 
# 
# 
# High freq. dielectric constant tensor:
#      x y z
#    x 1.897870 0.010650 0.002810 
#    y 0.010650 1.906920 0.002570 
#    z 0.002810 0.002570 1.889930 
# 
# From -- ./inp_files/70578.got.cif
#   From: 2010.06.25/outbox.cif.g09.slc.cpg/sg2_36_cif.got.tgz:70578.got - 2010.06.27 13:26:56.
