data_PCOD8023011
_publ_section_title
;
Structure prediction by ZEFSAII (Michael W. Deem and Ramdas Pophale) SiO2 
 PCOD8023011
Probable space group: P -1
;
_chemical_formula_sum "Si O2"
_cell_formula_units_Z 14
_cell_length_a 8.931550
_cell_length_b 15.007985
_cell_length_c 8.885885
_cell_angle_alpha 98.077197
_cell_angle_beta 114.873283
_cell_angle_gamma 35.585384
_cell_volume 581.196710
_symmetry_space_group_name_H-M "P -1"
_symmetry_group_IT_number 2
_symmetry_cell_setting 'triclinic'
loop_
_space_group_symop_operation_xyz
x,y,z
-x,-y,-z
loop_
_atom_site_type_symbol
_atom_site_label
_atom_site_fract_x
_atom_site_fract_y
_atom_site_fract_z
Si Si1 0.256395 0.672929 0.030958
Si Si2 0.729107 0.909852 0.439924
Si Si3 0.544015 0.186509 0.340673
Si Si4 0.999065 0.378026 0.987469
Si Si5 0.285713 0.741777 0.769404
Si Si6 0.437219 0.341890 0.622504
Si Si7 0.840799 0.674888 0.292283
O O1 0.972646 0.739146 0.972964
O O2 0.359250 0.670547 0.230378
O O3 0.500000 0.500000 0.000000
O O4 0.170890 0.792595 0.906794
O O5 0.697296 0.836767 0.307716
O O6 0.079962 0.760689 0.604714
O O7 0.500000 0.000000 0.500000
O O8 0.640837 0.038967 0.339964
O O9 0.758790 0.140821 0.300890
O O10 0.594073 0.206999 0.531096
O O11 0.181388 0.356488 0.181057
O O12 0.641936 0.557834 0.861900
O O13 0.162981 0.326345 0.889123
O O14 0.354715 0.318442 0.725396
O O15 0.166417 0.518324 0.469848
#
# Coordination Sequence:
#
# PCOD8023011 Si02
#       7
#     2   2   2   2   2   2   2
#     4  10  23  40  65 102 141 173 229 291 346 399
#     4  12  26  47  69 104 149 192 225 294 363 420
#     4  12  25  45  73 106 147 182 237 290 361 418
#     4  11  24  43  74 107 138 186 238 297 348 412
#     4  11  24  44  72 100 143 185 239 288 349 419
#     4  11  24  41  72 107 136 185 241 290 341 421
#     4  11  24  41  73 100 145 180 243 282 355 413
#
# _framework density 24.088228999999998
#
# number of rings (size 3 to 8) (size 9 to 14) (size 15 to 20)
#    0.000    0.857    2.857    4.286   10.000    1.714 
#    0.000    0.714    0.000    0.000    0.000    0.000 
#    0.000    0.000    0.000    0.000    0.000    0.000 
#
# Total GULP energy -173491.348925 kJ/mol
# GULP energy per Si atom -12392.239209 kJ/mol
# Density = 2.403340 g / cm^3
# Si number density = 24.088229 Si / 1000 Ang^3
#
#
#
# Elastic Constant Matrix: (Units=GPa)
#
#
# Indices 1 2 3 4 5 6 
#
# 1 77.7653 -51.0392 19.0713 10.7018 -44.8518 -10.2190
# 2 -51.0392 25.1031 -7.2095 8.6104 -15.4280 0.6651
# 3 19.0713 -7.2095 102.6769 25.5429 -3.8337 -13.4048
# 4 10.7018 8.6104 25.5429 24.7412 2.4148 7.9866
# 5 -44.8518 -15.4280 -3.8337 2.4148 55.6801 -8.7673
# 6 -10.2190 0.6651 -13.4048 7.9866 -8.7673 22.3977
#
#
#
# Elastic Compliance Matrix: (Units=1/GPa)
#
#
# Indices 1 2 3 4 5 6 
#
# 1 -0.000491 -0.011551 -0.006160 0.014907 -0.006464 -0.011414
# 2 -0.011551 0.000388 -0.005734 0.018826 -0.013681 -0.020782
# 3 -0.006160 -0.005734 0.015119 -0.013870 -0.003325 0.010053
# 4 0.014907 0.018826 -0.013870 0.044820 0.012239 -0.013250
# 5 -0.006464 -0.013681 -0.003325 0.012239 0.007248 -0.006061
# 6 -0.011414 -0.020782 0.010053 -0.013250 -0.006061 0.048426
#
#
# Mechanical properties :
#
#
# Convention : Reuss Voigt Hill
#
# Bulk Modulus (GPa) = -31.37244 14.13227 -8.62009
# Shear Modulus (GPa) = 32.94325 36.87865 34.91095
#
# Velocity S-wave (km/s) = 3.70213 3.91702 3.81109
# Velocity P-wave (km/s) = 2.28519 5.13196 3.97235
#
# Compressibility (1/GPa) = -0.03187511
#
# Stress axis : x y z
#
# Youngs Moduli (GPa) = -2035.79539 2577.83838 66.14016
#
# Poissons Ratio (x) = 29.77763 0.40741
# Poissons Ratio (y) = -23.51628 0.37928
# Poissons Ratio (z) = -12.54005 14.78246
#
# Static dielectric constant tensor:
#      x y z
#    x 5.475420 0.370680 -0.319320 
#    y 0.370680 4.009580 -0.129830 
#    z -0.319320 -0.129830 4.543500 
# 
# 
# High freq. dielectric constant tensor:
#      x y z
#    x 1.989820 0.019190 -0.004560 
#    y 0.019190 1.914730 -0.003450 
#    z -0.004560 -0.003450 1.961020 
# 
# From -- ./inp_files/207134.got.cif
#   From: 2010.06.25/outbox.cif.g09.slc.cpg/sg2_104_cif.got.tgz:207134.got - 2010.06.27 13:26:56.
