data_PCOD8023581
_publ_section_title
;
Structure prediction by ZEFSAII (Michael W. Deem and Ramdas Pophale) SiO2 
 PCOD8023581
Probable space group: P -1
;
_chemical_formula_sum "Si O2"
_cell_formula_units_Z 12
_cell_length_a 8.603718
_cell_length_b 14.364525
_cell_length_c 7.093069
_cell_angle_alpha 101.689342
_cell_angle_beta 85.002658
_cell_angle_gamma 44.012717
_cell_volume 560.454397
_symmetry_space_group_name_H-M "P -1"
_symmetry_group_IT_number 2
_symmetry_cell_setting 'triclinic'
loop_
_space_group_symop_operation_xyz
x,y,z
-x,-y,-z
loop_
_atom_site_type_symbol
_atom_site_label
_atom_site_fract_x
_atom_site_fract_y
_atom_site_fract_z
Si Si1 0.904511 0.028842 0.724769
Si Si2 0.607353 0.538157 0.884807
Si Si3 0.366305 0.279033 0.848603
Si Si4 0.741964 0.825386 0.892206
Si Si5 0.929792 0.628517 0.447989
Si Si6 0.120143 0.800959 0.901321
O O1 0.635770 0.119922 0.764007
O O2 0.942556 0.105009 0.875302
O O3 0.000000 0.000000 0.500000
O O4 0.049909 0.877102 0.740488
O O5 0.845860 0.416591 0.684424
O O6 0.402641 0.656106 0.803174
O O7 0.500000 0.500000 0.000000
O O8 0.657866 0.598876 0.051973
O O9 0.254004 0.314741 0.671985
O O10 0.244935 0.274202 0.022662
O O11 0.790213 0.767933 0.651057
O O12 0.967174 0.777025 0.933665
O O13 0.500000 0.000000 0.000000
O O14 0.000000 0.500000 0.500000
#
# Coordination Sequence:
#
# PCOD8023581 Si02
#       6
#     2   2   2   2   2   2
#     4  10  23  41  70  99 139 188 232 293 357 417
#     4  11  25  48  74 104 146 187 237 302 350 430
#     4  11  25  46  70 105 144 181 243 303 347 426
#     4  12  26  47  73 106 145 186 240 300 352 423
#     4  12  28  45  77 104 144 200 233 286 372 424
#     4  10  24  43  68 101 142 178 236 297 351 415
#
# _framework density 21.411199
#
# number of rings (size 3 to 8) (size 9 to 14) (size 15 to 20)
#    0.000    1.000    3.333    1.500    7.000    5.333 
#    0.000    0.000    0.000    0.000    0.000    0.000 
#    0.000    0.000    0.000    0.000    0.000    0.000 
#
# Total GULP energy -148761.505213 kJ/mol
# GULP energy per Si atom -12396.792101 kJ/mol
# Density = 2.136247 g / cm^3
# Si number density = 21.411199 Si / 1000 Ang^3
#
#
#
# Elastic Constant Matrix: (Units=GPa)
#
#
# Indices 1 2 3 4 5 6 
#
# 1 163.4890 50.6973 73.3028 -8.5277 1.4005 1.5748
# 2 50.6973 113.6747 73.9683 -6.7225 9.2112 -5.1860
# 3 73.3028 73.9683 152.3636 -9.8129 -11.8184 -8.7558
# 4 -8.5277 -6.7225 -9.8129 37.8552 0.4547 -0.7167
# 5 1.4005 9.2112 -11.8184 0.4547 27.9491 -14.2182
# 6 1.5748 -5.1860 -8.7558 -0.7167 -14.2182 38.0294
#
#
#
# Elastic Compliance Matrix: (Units=1/GPa)
#
#
# Indices 1 2 3 4 5 6 
#
# 1 0.008212 -0.001051 -0.003761 0.000677 -0.002898 -0.002420
# 2 -0.001051 0.014922 -0.007661 0.000482 -0.009815 -0.003346
# 3 -0.003761 -0.007661 0.013467 0.001267 0.011762 0.006633
# 4 0.000677 0.000482 0.001267 0.026997 0.000408 0.000991
# 5 -0.002898 -0.009815 0.011762 0.000408 0.055430 0.022221
# 6 -0.002420 -0.003346 0.006633 0.000991 0.022221 0.035793
#
#
# Mechanical properties :
#
#
# Convention : Reuss Voigt Hill
#
# Bulk Modulus (GPa) = 85.79782 91.71824 88.75803
# Shear Modulus (GPa) = 27.22530 36.20401 31.71466
#
# Velocity S-wave (km/s) = 3.56974 4.11651 3.85284
# Velocity P-wave (km/s) = 7.55971 8.09467 7.83176
#
# Compressibility (1/GPa) = 0.01165531
#
# Stress axis : x y z
#
# Youngs Moduli (GPa) = 121.76956 67.01525 74.25507
#
# Poissons Ratio (x) = 0.07042 0.27927
# Poissons Ratio (y) = 0.12796 0.56888
# Poissons Ratio (z) = 0.45797 0.51342
#
# Static dielectric constant tensor:
#      x y z
#    x 4.551050 -0.002090 -0.019230 
#    y -0.002090 4.135720 -0.032640 
#    z -0.019230 -0.032640 3.794330 
# 
# 
# High freq. dielectric constant tensor:
#      x y z
#    x 1.859920 -0.008290 -0.000160 
#    y -0.008290 1.849780 -0.007690 
#    z -0.000160 -0.007690 1.839840 
# 
# From -- ./inp_files/21693.got.cif
#   From: 2010.06.25/outbox.cif.g09.slc.cpg/sg2_11_cif.got.tgz:21693.got - 2010.06.27 13:26:56.
