data_PCOD8023125
_publ_section_title
;
Structure prediction by ZEFSAII (Michael W. Deem and Ramdas Pophale) SiO2 
 PCOD8023125
Probable space group: P -1
;
_chemical_formula_sum "Si O2"
_cell_formula_units_Z 14
_cell_length_a 5.147036
_cell_length_b 8.679710
_cell_length_c 30.916495
_cell_angle_alpha 27.828644
_cell_angle_beta 93.077000
_cell_angle_gamma 100.826707
_cell_volume 613.965019
_symmetry_space_group_name_H-M "P -1"
_symmetry_group_IT_number 2
_symmetry_cell_setting 'triclinic'
loop_
_space_group_symop_operation_xyz
x,y,z
-x,-y,-z
loop_
_atom_site_type_symbol
_atom_site_label
_atom_site_fract_x
_atom_site_fract_y
_atom_site_fract_z
Si Si1 0.204588 0.322547 0.024417
Si Si2 0.610121 0.353122 0.335116
Si Si3 0.283128 0.582031 0.508259
Si Si4 0.842328 0.437046 0.762613
Si Si5 0.755345 0.603257 0.814160
Si Si6 0.241995 0.516078 0.878572
Si Si7 0.191598 0.218278 0.688251
O O1 0.115776 0.927689 0.135834
O O2 0.500000 0.500000 0.000000
O O3 0.215439 0.354720 0.965344
O O4 0.000000 0.500000 0.000000
O O5 0.428135 0.605767 0.258360
O O6 0.744985 0.469082 0.354578
O O7 0.864933 0.348366 0.308042
O O8 0.387887 0.978288 0.426487
O O9 0.500000 0.500000 0.500000
O O10 0.272850 0.355354 0.607023
O O11 0.000000 0.500000 0.500000
O O12 0.776005 0.634192 0.755009
O O13 0.946518 0.371523 0.889141
O O14 0.456063 0.402253 0.878700
O O15 0.868783 0.992785 0.739003
O O16 0.343153 0.938421 0.773968
#
# Coordination Sequence:
#
# PCOD8023125 Si02
#       7
#     2   2   2   2   2   2   2
#     4  12  25  43  68 103 141 181 228 282 341 400
#     4  12  26  44  71 104 137 183 228 282 344 403
#     4  12  27  46  72 102 138 180 229 281 345 412
#     4  12  26  45  70 102 141 182 232 280 338 409
#     4  10  23  41  67  96 140 178 224 279 344 392
#     4  10  23  40  68  97 137 180 225 274 345 394
#     4  10  25  43  71  99 142 171 231 282 346 400
#
# _framework density 22.802602
#
# number of rings (size 3 to 8) (size 9 to 14) (size 15 to 20)
#    0.857    0.000    0.000    7.286    8.000    1.143 
#    0.000    2.857    0.000    0.000    0.000    0.000 
#    0.000    0.000    0.000    0.000    0.000    0.000 
#
# Total GULP energy -173493.050838 kJ/mol
# GULP energy per Si atom -12392.360774 kJ/mol
# Density = 2.275070 g / cm^3
# Si number density = 22.802602 Si / 1000 Ang^3
#
#
#
# Elastic Constant Matrix: (Units=GPa)
#
#
# Indices 1 2 3 4 5 6 
#
# 1 149.9392 28.0027 17.7458 5.3032 -14.6681 -16.4660
# 2 28.0027 96.1416 14.7583 -2.3465 -0.5237 3.1361
# 3 17.7458 14.7583 72.7254 8.7071 2.9328 -1.6656
# 4 5.3032 -2.3465 8.7071 39.3770 -1.1910 -5.9155
# 5 -14.6681 -0.5237 2.9328 -1.1910 29.0288 2.6001
# 6 -16.4660 3.1361 -1.6656 -5.9155 2.6001 35.4773
#
#
#
# Elastic Compliance Matrix: (Units=1/GPa)
#
#
# Indices 1 2 3 4 5 6 
#
# 1 0.008038 -0.002201 -0.001563 -0.000221 0.003854 0.003533
# 2 -0.002201 0.011426 -0.001938 0.001105 -0.000495 -0.001902
# 3 -0.001563 -0.001938 0.015018 -0.003334 -0.002459 -0.000225
# 4 -0.000221 0.001105 -0.003334 0.026867 0.000985 0.004051
# 5 0.003854 -0.000495 -0.002459 0.000985 0.036749 -0.000812
# 6 0.003533 -0.001902 -0.000225 0.004051 -0.000812 0.030719
#
#
# Mechanical properties :
#
#
# Convention : Reuss Voigt Hill
#
# Bulk Modulus (GPa) = 43.32831 48.86887 46.09859
# Shear Modulus (GPa) = 33.80364 37.99657 35.90011
#
# Velocity S-wave (km/s) = 3.85443 4.08649 3.97216
# Velocity P-wave (km/s) = 6.23310 6.61390 6.42632
#
# Compressibility (1/GPa) = 0.02307960
#
# Stress axis : x y z
#
# Youngs Moduli (GPa) = 124.40577 87.51853 66.58645
#
# Poissons Ratio (x) = 0.19263 0.10406
# Poissons Ratio (y) = 0.27381 0.12902
# Poissons Ratio (z) = 0.19443 0.16958
#
# Static dielectric constant tensor:
#      x y z
#    x 4.189020 0.144720 -0.061240 
#    y 0.144720 4.012540 0.018940 
#    z -0.061240 0.018940 4.121280 
# 
# 
# High freq. dielectric constant tensor:
#      x y z
#    x 1.908930 0.007790 -0.003270 
#    y 0.007790 1.902510 0.006450 
#    z -0.003270 0.006450 1.902120 
# 
# From -- ./inp_files/621636.got.cif
#   From: 2010.06.25/outbox.cif.g09.slc.cpg/sg2_311_cif.got.tgz:621636.got - 2010.06.27 13:26:56.
