data_PCOD8023676
_publ_section_title
;
Structure prediction by ZEFSAII (Michael W. Deem and Ramdas Pophale) SiO2 
 PCOD8023676
Probable space group: P -1
;
_chemical_formula_sum "Si O2"
_cell_formula_units_Z 16
_cell_length_a 12.644490
_cell_length_b 19.264765
_cell_length_c 9.532389
_cell_angle_alpha 41.913851
_cell_angle_beta 56.682560
_cell_angle_gamma 28.817915
_cell_volume 708.632525
_symmetry_space_group_name_H-M "P -1"
_symmetry_group_IT_number 2
_symmetry_cell_setting 'triclinic'
loop_
_space_group_symop_operation_xyz
x,y,z
-x,-y,-z
loop_
_atom_site_type_symbol
_atom_site_label
_atom_site_fract_x
_atom_site_fract_y
_atom_site_fract_z
Si Si1 0.771653 0.280245 0.756773
Si Si2 0.534382 0.280404 0.118828
Si Si3 0.764103 0.097259 0.527389
Si Si4 0.324957 0.074065 0.132773
Si Si5 0.057411 0.512607 0.089239
Si Si6 0.460671 0.674834 0.379884
Si Si7 0.365501 0.126830 0.545852
Si Si8 0.714810 0.040145 0.105986
O O1 0.707739 0.446366 0.545052
O O2 0.730381 0.262865 0.657414
O O3 0.610180 0.334748 0.906916
O O4 0.033391 0.081911 0.912972
O O5 0.624219 0.211470 0.314336
O O6 0.257829 0.462580 0.023194
O O7 0.637841 0.108647 0.220534
O O8 0.606036 0.262596 0.506781
O O9 0.801949 0.949794 0.773286
O O10 0.000000 0.000000 0.500000
O O11 0.460809 0.940125 0.371633
O O12 0.158596 0.283618 0.984405
O O13 0.500000 0.000000 0.000000
O O14 0.147876 0.351986 0.352095
O O15 0.000000 0.500000 0.000000
O O16 0.473654 0.775546 0.135824
O O17 0.500000 0.000000 0.500000
O O18 0.268578 0.091038 0.747211
#
# Coordination Sequence:
#
# PCOD8023676 Si02
#       8
#     2   2   2   2   2   2   2   2
#     4  10  23  42  70 102 135 180 240 294 351 428
#     4  11  23  44  69 105 144 179 246 295 354 441
#     4  12  25  45  72 103 151 192 235 297 376 428
#     4  12  28  49  72 106 154 195 246 305 375 444
#     4  12  26  47  79 106 139 197 249 307 364 427
#     4  10  23  42  63 101 139 181 230 285 358 432
#     4  12  23  46  72 109 138 186 249 308 356 441
#     4  11  21  42  70  99 139 178 232 296 360 417
#
# _framework density 22.578700000000001
#
# number of rings (size 3 to 8) (size 9 to 14) (size 15 to 20)
#    0.000    0.750    3.750    3.750    1.750    7.000 
#    4.500    0.000    0.000    0.000    0.000    0.000 
#    0.000    0.000    0.000    0.000    0.000    0.000 
#
# Total GULP energy -198244.434164 kJ/mol
# GULP energy per Si atom -12390.277135 kJ/mol
# Density = 2.252731 g / cm^3
# Si number density = 22.578700 Si / 1000 Ang^3
#
#
#
# Elastic Constant Matrix: (Units=GPa)
#
#
# Indices 1 2 3 4 5 6 
#
# 1 97.5870 47.3535 47.5518 6.6112 -2.1444 2.0397
# 2 47.3535 120.1293 47.6939 -5.7311 6.9579 17.2925
# 3 47.5518 47.6939 126.5399 -11.9437 1.3210 14.6018
# 4 6.6112 -5.7311 -11.9437 44.7078 7.1303 -3.1128
# 5 -2.1444 6.9579 1.3210 7.1303 45.5484 0.0768
# 6 2.0397 17.2925 14.6018 -3.1128 0.0768 35.4115
#
#
#
# Elastic Compliance Matrix: (Units=1/GPa)
#
#
# Indices 1 2 3 4 5 6 
#
# 1 0.015157 -0.004913 -0.004621 -0.004254 0.002259 0.003053
# 2 -0.004913 0.011897 -0.001918 0.001782 -0.002264 -0.004574
# 3 -0.004621 -0.001918 0.011034 0.003293 -0.000755 -0.003056
# 4 -0.004254 0.001782 0.003293 0.024830 -0.004455 0.000209
# 5 0.002259 -0.002264 -0.000755 -0.004455 0.023125 0.000845
# 6 0.003053 -0.004574 -0.003056 0.000209 0.000845 0.031574
#
#
# Mechanical properties :
#
#
# Convention : Reuss Voigt Hill
#
# Bulk Modulus (GPa) = 65.86558 69.93939 67.90249
# Shear Modulus (GPa) = 34.34468 38.57735 36.46102
#
# Velocity S-wave (km/s) = 3.90437 4.13797 4.02287
# Velocity P-wave (km/s) = 7.03991 7.33986 7.19145
#
# Compressibility (1/GPa) = 0.01518244
#
# Stress axis : x y z
#
# Youngs Moduli (GPa) = 65.97497 84.05273 90.63271
#
# Poissons Ratio (x) = 0.41297 0.41885
# Poissons Ratio (y) = 0.32415 0.17385
# Poissons Ratio (z) = 0.30490 0.16123
#
# Static dielectric constant tensor:
#      x y z
#    x 4.117630 0.167780 0.004920 
#    y 0.167780 3.918990 -0.125690 
#    z 0.004920 -0.125690 4.149010 
# 
# 
# High freq. dielectric constant tensor:
#      x y z
#    x 1.903000 0.004290 -0.008760 
#    y 0.004290 1.874970 -0.004020 
#    z -0.008760 -0.004020 1.903990 
# 
# From -- ./inp_files/278988.got.cif
#   From: 2010.06.25/outbox.cif.g09.slc.cpg/sg2_140_cif.got.tgz:278988.got - 2010.06.27 13:26:56.
