data_PCOD8023949
_publ_section_title
;
Structure prediction by ZEFSAII (Michael W. Deem and Ramdas Pophale) SiO2 
 PCOD8023949
Probable space group: P -1
;
_chemical_formula_sum "Si O2"
_cell_formula_units_Z 16
_cell_length_a 14.400130
_cell_length_b 5.119154
_cell_length_c 15.165063
_cell_angle_alpha 62.470902
_cell_angle_beta 45.887611
_cell_angle_gamma 62.019784
_cell_volume 692.409596
_symmetry_space_group_name_H-M "P -1"
_symmetry_group_IT_number 2
_symmetry_cell_setting 'triclinic'
loop_
_space_group_symop_operation_xyz
x,y,z
-x,-y,-z
loop_
_atom_site_type_symbol
_atom_site_label
_atom_site_fract_x
_atom_site_fract_y
_atom_site_fract_z
Si Si1 0.005207 0.822880 0.278477
Si Si2 0.471663 0.391024 0.904446
Si Si3 0.350397 0.798820 0.776203
Si Si4 0.705122 0.528610 0.837724
Si Si5 0.916440 0.204424 0.448921
Si Si6 0.533470 0.667807 0.367750
Si Si7 0.937646 0.208829 0.086856
Si Si8 0.345186 0.913649 0.319004
O O1 0.165566 0.741340 0.190307
O O2 0.959515 0.510688 0.350331
O O3 0.934489 0.005366 0.379900
O O4 0.961353 0.032910 0.190394
O O5 0.395108 0.709170 0.861237
O O6 0.592667 0.391824 0.888941
O O7 0.532588 0.168930 0.819076
O O8 0.355849 0.305042 0.055600
O O9 0.452603 0.591787 0.674621
O O10 0.216925 0.707916 0.847600
O O11 0.348851 0.158762 0.713907
O O12 0.742483 0.763013 0.706294
O O13 0.761806 0.294062 0.568921
O O14 0.000000 0.000000 0.500000
O O15 0.500000 0.500000 0.500000
O O16 0.410272 0.929428 0.370577
O O17 0.000000 0.500000 0.000000
O O18 0.000000 0.000000 0.000000
#
# Coordination Sequence:
#
# PCOD8023949 Si02
#       8
#     2   2   2   2   2   2   2   2
#     4  12  28  45  74 108 140 195 240 291 366 427
#     4  10  23  42  68 103 130 186 225 303 351 418
#     4  11  24  45  69  98 139 172 240 279 356 410
#     4  11  22  43  68 100 142 174 241 288 359 424
#     4  12  26  45  71 103 150 189 235 292 352 443
#     4  11  25  42  68 101 133 185 224 291 344 416
#     4  12  27  50  74 102 143 190 242 301 353 423
#     4  11  24  41  69  98 146 178 238 282 367 412
#
# _framework density 23.107710000000001
#
# number of rings (size 3 to 8) (size 9 to 14) (size 15 to 20)
#    0.000    0.750    2.500    4.125    5.250    0.000 
#    2.250    0.000    0.000    0.000    0.000    0.000 
#    0.000    0.000    0.000    0.000    0.000    0.000 
#
# Total GULP energy -198228.776978 kJ/mol
# GULP energy per Si atom -12389.298561 kJ/mol
# Density = 2.305512 g / cm^3
# Si number density = 23.107710 Si / 1000 Ang^3
#
#
#
# Elastic Constant Matrix: (Units=GPa)
#
#
# Indices 1 2 3 4 5 6 
#
# 1 81.8477 22.7886 38.7723 2.4347 -3.0584 -6.8844
# 2 22.7886 80.6592 36.9597 -11.1180 -0.8646 7.0205
# 3 38.7723 36.9597 117.0483 -11.2926 8.9727 -7.7442
# 4 2.4347 -11.1180 -11.2926 39.9607 8.5408 -1.7419
# 5 -3.0584 -0.8646 8.9727 8.5408 41.1960 -2.2127
# 6 -6.8844 7.0205 -7.7442 -1.7419 -2.2127 41.4288
#
#
#
# Elastic Compliance Matrix: (Units=1/GPa)
#
#
# Indices 1 2 3 4 5 6 
#
# 1 0.015669 -0.002939 -0.004696 -0.003643 0.003000 0.002231
# 2 -0.002939 0.015825 -0.003964 0.003277 0.000095 -0.003768
# 3 -0.004696 -0.003964 0.012108 0.003483 -0.003678 0.002105
# 4 -0.003643 0.003277 0.003483 0.028627 -0.006878 0.000326
# 5 0.003000 0.000095 -0.003678 -0.006878 0.026776 0.000936
# 6 0.002231 -0.003768 0.002105 0.000326 0.000936 0.025604
#
#
# Mechanical properties :
#
#
# Convention : Reuss Voigt Hill
#
# Bulk Modulus (GPa) = 49.01080 52.95515 50.98297
# Shear Modulus (GPa) = 32.33965 36.58607 34.46286
#
# Velocity S-wave (km/s) = 3.74507 3.98337 3.86606
# Velocity P-wave (km/s) = 6.32112 6.64249 6.48380
#
# Compressibility (1/GPa) = 0.02040367
#
# Stress axis : x y z
#
# Youngs Moduli (GPa) = 63.82069 63.18976 82.59081
#
# Poissons Ratio (x) = 0.18574 0.38785
# Poissons Ratio (y) = 0.18759 0.32738
# Poissons Ratio (z) = 0.29970 0.25048
#
# Static dielectric constant tensor:
#      x y z
#    x 4.379530 0.657150 0.622050 
#    y 0.657150 3.912330 -0.579270 
#    z 0.622050 -0.579270 4.096770 
# 
# 
# High freq. dielectric constant tensor:
#      x y z
#    x 1.924830 -0.009070 0.008920 
#    y -0.009070 1.906590 -0.006130 
#    z 0.008920 -0.006130 1.926810 
# 
# From -- ./inp_files/511266.got.cif
#   From: 2010.06.25/outbox.cif.g09.slc.cpg/sg2_256_cif.got.tgz:511266.got - 2010.06.27 13:26:56.
