data_PCOD8023421
_publ_section_title
;
Structure prediction by ZEFSAII (Michael W. Deem and Ramdas Pophale) SiO2 
 PCOD8023421
Probable space group: P -1
;
_chemical_formula_sum "Si O2"
_cell_formula_units_Z 14
_cell_length_a 26.784229
_cell_length_b 13.576004
_cell_length_c 5.152769
_cell_angle_alpha 127.701882
_cell_angle_beta 55.618569
_cell_angle_gamma 156.441360
_cell_volume 592.466243
_symmetry_space_group_name_H-M "P -1"
_symmetry_group_IT_number 2
_symmetry_cell_setting 'triclinic'
loop_
_space_group_symop_operation_xyz
x,y,z
-x,-y,-z
loop_
_atom_site_type_symbol
_atom_site_label
_atom_site_fract_x
_atom_site_fract_y
_atom_site_fract_z
Si Si1 0.482468 0.819747 0.773615
Si Si2 0.614488 0.303097 0.634130
Si Si3 0.138735 0.199306 0.449927
Si Si4 0.825929 0.894716 0.302365
Si Si5 0.637210 0.764485 0.640782
Si Si6 0.303975 0.980918 0.602866
Si Si7 0.026245 0.466014 0.621356
O O1 0.419650 0.660590 0.435255
O O2 0.610824 0.978275 0.687936
O O3 0.385114 0.618260 0.971357
O O4 0.500000 0.000000 0.000000
O O5 0.753049 0.501401 0.463554
O O6 0.500000 0.000000 0.500000
O O7 0.155261 0.181495 0.665646
O O8 0.000000 0.000000 0.500000
O O9 0.172883 0.152866 0.071657
O O10 0.946234 0.198645 0.450131
O O11 0.700106 0.745845 0.496033
O O12 0.500000 0.500000 0.500000
O O13 0.716867 0.965721 0.495467
O O14 0.637253 0.847454 0.037576
O O15 0.169833 0.680931 0.570188
O O16 0.000000 0.500000 0.500000
O O17 0.000000 0.500000 0.000000
#
# Coordination Sequence:
#
# PCOD8023421 Si02
#       7
#     2   2   2   2   2   2   2
#     4  10  23  41  67 103 137 176 228 294 355 416
#     4  10  23  44  70  96 142 181 237 293 355 426
#     4  12  28  47  73 107 147 192 240 297 371 441
#     4  12  26  46  75 104 147 191 238 306 362 430
#     4  12  27  44  70 106 139 186 246 292 367 427
#     4  12  24  44  72 103 139 189 240 298 358 428
#     4  12  23  46  71 102 143 188 249 301 354 429
#
# _framework density 23.630037000000002
#
# number of rings (size 3 to 8) (size 9 to 14) (size 15 to 20)
#    0.000    0.571    2.857    4.286    6.000    4.571 
#    0.000    0.000    0.000    0.000    0.000    0.000 
#    0.000    0.000    0.000    0.000    0.000    0.000 
#
# Total GULP energy -173459.189912 kJ/mol
# GULP energy per Si atom -12389.942137 kJ/mol
# Density = 2.357625 g / cm^3
# Si number density = 23.630037 Si / 1000 Ang^3
#
#
#
# Elastic Constant Matrix: (Units=GPa)
#
#
# Indices 1 2 3 4 5 6 
#
# 1 122.5283 42.4213 45.7751 -19.4661 18.1397 16.0815
# 2 42.4213 167.0984 13.6880 -23.7515 -4.6151 14.8762
# 3 45.7751 13.6880 105.4471 -18.6041 26.4432 -7.5275
# 4 -19.4661 -23.7515 -18.6041 45.0115 0.2203 -6.2801
# 5 18.1397 -4.6151 26.4432 0.2203 52.4565 -12.7612
# 6 16.0815 14.8762 -7.5275 -6.2801 -12.7612 41.3480
#
#
#
# Elastic Compliance Matrix: (Units=1/GPa)
#
#
# Indices 1 2 3 4 5 6 
#
# 1 0.011924 -0.002070 -0.004120 0.001612 -0.003574 -0.005501
# 2 -0.002070 0.006998 0.000148 0.002720 0.001012 -0.000961
# 3 -0.004120 0.000148 0.013381 0.004301 -0.004538 0.003238
# 4 0.001612 0.002720 0.004301 0.026498 -0.001966 0.002595
# 5 -0.003574 0.001012 -0.004538 -0.001966 0.024499 0.007462
# 6 -0.005501 -0.000961 0.003238 0.002595 0.007462 0.029957
#
#
# Mechanical properties :
#
#
# Convention : Reuss Voigt Hill
#
# Bulk Modulus (GPa) = 49.45865 66.53805 57.99835
# Shear Modulus (GPa) = 37.85576 47.30915 42.58246
#
# Velocity S-wave (km/s) = 4.00686 4.47931 4.24966
# Velocity P-wave (km/s) = 6.51018 7.41429 6.97690
#
# Compressibility (1/GPa) = 0.02021891
#
# Stress axis : x y z
#
# Youngs Moduli (GPa) = 83.86305 142.90125 74.73527
#
# Poissons Ratio (x) = 0.29574 0.30790
# Poissons Ratio (y) = 0.17356 -0.01102
# Poissons Ratio (z) = 0.34550 -0.02108
#
# Static dielectric constant tensor:
#      x y z
#    x 13.217680 -2.322070 12.528410 
#    y -2.322070 5.334790 -3.248470 
#    z 12.528410 -3.248470 20.675790 
# 
# 
# High freq. dielectric constant tensor:
#      x y z
#    x 1.931890 0.003520 0.032510 
#    y 0.003520 1.966450 -0.007740 
#    z 0.032510 -0.007740 1.944840 
# 
# From -- ./inp_files/128619.got.cif
#   From: 2010.06.25/outbox.cif.g09.slc.cpg/sg2_65_cif.got.tgz:128619.got - 2010.06.27 13:26:56.
