data_PCOD8023015
_publ_section_title
;
Structure prediction by ZEFSAII (Michael W. Deem and Ramdas Pophale) SiO2 
 PCOD8023015
Probable space group: P -1
;
_chemical_formula_sum "Si O2"
_cell_formula_units_Z 12
_cell_length_a 10.756360
_cell_length_b 17.804399
_cell_length_c 8.999109
_cell_angle_alpha 37.061823
_cell_angle_beta 27.334219
_cell_angle_gamma 40.795227
_cell_volume 469.656298
_symmetry_space_group_name_H-M "P -1"
_symmetry_group_IT_number 2
_symmetry_cell_setting 'triclinic'
loop_
_space_group_symop_operation_xyz
x,y,z
-x,-y,-z
loop_
_atom_site_type_symbol
_atom_site_label
_atom_site_fract_x
_atom_site_fract_y
_atom_site_fract_z
Si Si1 0.724967 0.013214 0.860957
Si Si2 0.565532 0.530577 0.182222
Si Si3 0.005475 0.317928 0.408234
Si Si4 0.526171 0.351818 0.254464
Si Si5 0.429774 0.274492 0.786156
Si Si6 0.876775 0.775385 0.270502
O O1 0.646679 0.151692 0.801946
O O2 0.747359 0.911476 0.129387
O O3 0.000000 0.000000 0.500000
O O4 0.500000 0.000000 0.000000
O O5 0.513748 0.496305 0.112177
O O6 0.545584 0.403521 0.499101
O O7 0.322906 0.643127 0.312317
O O8 0.863114 0.562677 0.856059
O O9 0.075664 0.206936 0.632005
O O10 0.138614 0.272885 0.179774
O O11 0.388911 0.273149 0.652875
O O12 0.339476 0.324608 0.354620
O O13 0.841995 0.287475 0.008102
#
# Coordination Sequence:
#
# PCOD8023015 Si02
#       6
#     2   2   2   2   2   2
#     4  12  22  42  67  88 121 158 210 254 293 370
#     4  10  23  41  64  89 125 167 205 242 304 367
#     4  12  25  39  64  91 134 153 202 259 306 360
#     4  10  23  40  65  89 123 159 216 235 306 367
#     4  10  24  42  66  92 119 170 205 245 306 368
#     4  12  23  42  61  99 118 163 202 261 307 346
#
# _framework density 25.550598999999998
#
# number of rings (size 3 to 8) (size 9 to 14) (size 15 to 20)
#    1.000    0.000    3.333    3.000    0.000    8.667 
#    0.000    0.000    0.000    6.000    0.000    0.000 
#    0.000    0.000    0.000    0.000    0.000    0.000 
#
# Total GULP energy -148784.067001 kJ/mol
# GULP energy per Si atom -12398.672250 kJ/mol
# Density = 2.549244 g / cm^3
# Si number density = 25.550599 Si / 1000 Ang^3
#
#
#
# Elastic Constant Matrix: (Units=GPa)
#
#
# Indices 1 2 3 4 5 6 
#
# 1 51.4941 0.1906 13.1613 4.4783 -0.3852 -13.8646
# 2 0.1906 124.4890 17.6227 0.0787 -2.2669 -5.4952
# 3 13.1613 17.6227 87.8052 13.1053 -0.0657 -0.1002
# 4 4.4783 0.0787 13.1053 49.6627 -4.9722 9.2456
# 5 -0.3852 -2.2669 -0.0657 -4.9722 38.4878 9.0862
# 6 -13.8646 -5.4952 -0.1002 9.2456 9.0862 23.6000
#
#
#
# Elastic Compliance Matrix: (Units=1/GPa)
#
#
# Indices 1 2 3 4 5 6 
#
# 1 0.026016 0.001206 -0.003278 -0.005660 -0.005060 0.019716
# 2 0.001206 0.008412 -0.001840 -0.000175 -0.000178 0.002797
# 3 -0.003278 -0.001840 0.012676 -0.002867 -0.000233 -0.001087
# 4 -0.005660 -0.000175 -0.002867 0.025045 0.006905 -0.015848
# 5 -0.005060 -0.000178 -0.000233 0.006905 0.030979 -0.017648
# 6 0.019716 0.002797 -0.001087 -0.015848 -0.017648 0.067606
#
#
# Mechanical properties :
#
#
# Convention : Reuss Voigt Hill
#
# Bulk Modulus (GPa) = 25.45832 36.19304 30.82568
# Shear Modulus (GPa) = 26.08909 37.87102 31.98005
#
# Velocity S-wave (km/s) = 3.19889 3.85411 3.54169
# Velocity P-wave (km/s) = 4.86101 5.83108 5.36800
#
# Compressibility (1/GPa) = 0.03927990
#
# Stress axis : x y z
#
# Youngs Moduli (GPa) = 38.43772 118.88139 78.88900
#
# Poissons Ratio (x) = -0.14337 0.25861
# Poissons Ratio (y) = -0.04636 0.14514
# Poissons Ratio (z) = 0.12600 0.21872
#
# Static dielectric constant tensor:
#      x y z
#    x 4.679800 -0.066050 0.488890 
#    y -0.066050 4.615570 -0.273900 
#    z 0.488890 -0.273900 4.805610 
# 
# 
# High freq. dielectric constant tensor:
#      x y z
#    x 2.034300 -0.018130 0.025430 
#    y -0.018130 2.006850 -0.007950 
#    z 0.025430 -0.007950 2.041150 
# 
# From -- ./inp_files/458002.got.cif
#   From: 2010.06.25/outbox.cif.g09.slc.cpg/sg2_230_cif.got.tgz:458002.got - 2010.06.27 13:26:56.
