data_PCOD8023455
_publ_section_title
;
Structure prediction by ZEFSAII (Michael W. Deem and Ramdas Pophale) SiO2 
 PCOD8023455
Probable space group: P -1
;
_chemical_formula_sum "Si O2"
_cell_formula_units_Z 16
_cell_length_a 15.146690
_cell_length_b 23.865504
_cell_length_c 5.240573
_cell_angle_alpha 98.594744
_cell_angle_beta 100.456576
_cell_angle_gamma 21.689087
_cell_volume 687.517701
_symmetry_space_group_name_H-M "P -1"
_symmetry_group_IT_number 2
_symmetry_cell_setting 'triclinic'
loop_
_space_group_symop_operation_xyz
x,y,z
-x,-y,-z
loop_
_atom_site_type_symbol
_atom_site_label
_atom_site_fract_x
_atom_site_fract_y
_atom_site_fract_z
Si Si1 0.406131 0.118199 0.065305
Si Si2 0.708594 0.328353 0.734450
Si Si3 0.244489 0.991727 0.829727
Si Si4 0.267477 0.866096 0.514842
Si Si5 0.175782 0.303024 0.555491
Si Si6 0.436834 0.462394 0.192321
Si Si7 0.578976 0.731152 0.204451
Si Si8 0.722075 0.561884 0.797291
O O1 0.645160 0.012873 0.194586
O O2 0.222499 0.236078 0.286612
O O3 0.284029 0.210902 0.804794
O O4 0.500000 0.000000 0.000000
O O5 0.639581 0.337597 0.437977
O O6 0.710563 0.394319 0.728024
O O7 0.531579 0.411310 0.919694
O O8 0.965909 0.160736 0.864841
O O9 0.263804 0.936509 0.571676
O O10 0.391304 0.880652 0.063828
O O11 0.416485 0.774648 0.268013
O O12 0.435023 0.738005 0.723177
O O13 0.000000 0.000000 0.500000
O O14 0.274618 0.309495 0.568048
O O15 0.887540 0.474618 0.573917
O O16 0.251588 0.517992 0.142279
O O17 0.779801 0.578733 0.040849
#
# Coordination Sequence:
#
# PCOD8023455 Si02
#       8
#     2   2   2   2   2   2   2   2
#     4  11  25  46  71 104 136 181 231 285 343 414
#     4  10  23  43  68  90 139 178 221 284 344 409
#     4  10  23  41  67  97 133 181 222 287 344 405
#     4  11  24  41  68 100 137 183 231 283 346 409
#     4  11  25  47  70 101 139 179 232 283 348 409
#     4  10  24  43  62 101 130 177 230 276 343 407
#     4  10  24  44  65 101 137 183 231 282 349 408
#     4  11  26  40  70 102 138 182 232 290 335 416
#
# _framework density 23.272127999999999
#
# number of rings (size 3 to 8) (size 9 to 14) (size 15 to 20)
#    0.000    1.500    1.250    1.500   10.500    1.500 
#    4.500    0.000    0.000    0.000    0.000    0.000 
#    0.000    0.000    0.000    0.000    0.000    0.000 
#
# Total GULP energy -198216.718353 kJ/mol
# GULP energy per Si atom -12388.544897 kJ/mol
# Density = 2.321916 g / cm^3
# Si number density = 23.272128 Si / 1000 Ang^3
#
#
#
# Elastic Constant Matrix: (Units=GPa)
#
#
# Indices 1 2 3 4 5 6 
#
# 1 145.3739 35.6654 35.8095 15.5844 9.3615 -1.0835
# 2 35.6654 76.1123 12.4807 21.9711 13.0741 -11.3907
# 3 35.8095 12.4807 100.1712 21.7745 1.1311 3.2696
# 4 15.5844 21.9711 21.7745 25.5537 -5.0168 4.3265
# 5 9.3615 13.0741 1.1311 -5.0168 32.4598 11.9258
# 6 -1.0835 -11.3907 3.2696 4.3265 11.9258 30.4443
#
#
#
# Elastic Compliance Matrix: (Units=1/GPa)
#
#
# Indices 1 2 3 4 5 6 
#
# 1 0.008401 -0.003336 -0.002514 -0.000247 -0.000927 -0.000281
# 2 -0.003336 0.039919 0.006560 -0.051031 -0.036307 0.035587
# 3 -0.002514 0.006560 0.013990 -0.018640 -0.007681 0.006520
# 4 -0.000247 -0.051031 -0.018640 0.120979 0.061411 -0.058349
# 5 -0.000927 -0.036307 -0.007681 0.061411 0.074016 -0.050513
# 6 -0.000281 0.035587 0.006520 -0.058349 -0.050513 0.073531
#
#
# Mechanical properties :
#
#
# Convention : Reuss Voigt Hill
#
# Bulk Modulus (GPa) = 15.69110 54.39653 35.04381
# Shear Modulus (GPa) = 14.25889 33.53835 23.89862
#
# Velocity S-wave (km/s) = 2.47797 3.80035 3.20804
# Velocity P-wave (km/s) = 3.86577 6.53313 5.36777
#
# Compressibility (1/GPa) = 0.06373041
#
# Stress axis : x y z
#
# Youngs Moduli (GPa) = 119.04006 25.05054 71.47950
#
# Poissons Ratio (x) = 0.08356 0.17970
# Poissons Ratio (y) = 0.39707 -0.46890
# Poissons Ratio (z) = 0.29927 -0.16433
#
# Static dielectric constant tensor:
#      x y z
#    x 4.368780 0.057240 0.134810 
#    y 0.057240 4.239950 0.144300 
#    z 0.134810 0.144300 4.154600 
# 
# 
# High freq. dielectric constant tensor:
#      x y z
#    x 1.927970 0.006230 0.001470 
#    y 0.006230 1.919670 0.006890 
#    z 0.001470 0.006890 1.916850 
# 
# From -- ./inp_files/101062.got.cif
#   From: 2010.06.25/outbox.cif.g09.slc.cpg/sg2_51_cif.got.tgz:101062.got - 2010.06.27 13:26:56.
