data_PCOD8023793
_publ_section_title
;
Structure prediction by ZEFSAII (Michael W. Deem and Ramdas Pophale) SiO2 
 PCOD8023793
Probable space group: P -1
;
_chemical_formula_sum "Si O2"
_cell_formula_units_Z 14
_cell_length_a 20.683543
_cell_length_b 9.235151
_cell_length_c 15.142718
_cell_angle_alpha 51.857397
_cell_angle_beta 33.152702
_cell_angle_gamma 28.014477
_cell_volume 654.605121
_symmetry_space_group_name_H-M "P -1"
_symmetry_group_IT_number 2
_symmetry_cell_setting 'triclinic'
loop_
_space_group_symop_operation_xyz
x,y,z
-x,-y,-z
loop_
_atom_site_type_symbol
_atom_site_label
_atom_site_fract_x
_atom_site_fract_y
_atom_site_fract_z
Si Si1 0.776639 0.217246 0.934758
Si Si2 0.994494 0.222897 0.437964
Si Si3 0.633000 0.118983 0.734259
Si Si4 0.374373 0.586105 0.695689
Si Si5 0.328230 0.322184 0.224029
Si Si6 0.966510 0.267186 0.013863
Si Si7 0.780153 0.880661 0.937693
O O1 0.843780 0.291187 0.762178
O O2 0.972788 0.890703 0.899011
O O3 0.585355 0.575631 0.071577
O O4 0.684215 0.163651 0.006566
O O5 0.752710 0.607079 0.609026
O O6 0.164594 0.049952 0.386133
O O7 0.036871 0.273906 0.279328
O O8 0.000000 0.000000 0.500000
O O9 0.580079 0.292538 0.638261
O O10 0.689613 0.830874 0.760386
O O11 0.500000 0.500000 0.500000
O O12 0.258161 0.541857 0.830635
O O13 0.173660 0.978677 0.816415
O O14 0.583122 0.059063 0.035348
O O15 0.901659 0.567150 0.977235
#
# Coordination Sequence:
#
# PCOD8023793 Si02
#       7
#     2   2   2   2   2   2   2
#     4  11  23  43  68  96 135 173 215 275 328 389
#     4  12  26  42  66 101 133 175 220 272 337 388
#     4  11  24  43  66 101 129 173 227 269 332 390
#     4  10  23  42  65  97 134 172 216 277 323 389
#     4  12  24  43  69  98 132 174 222 276 326 391
#     4  10  24  42  67  96 131 174 223 262 332 393
#     4  12  24  45  68  97 138 175 217 275 328 397
#
# _framework density 21.386939000000002
#
# number of rings (size 3 to 8) (size 9 to 14) (size 15 to 20)
#    0.000    0.857    4.286    2.571    4.000    0.000 
#    0.000    0.000    0.000    6.000    0.000    0.000 
#    0.000    0.000    0.000    0.000    0.000    0.000 
#
# Total GULP energy -173562.347390 kJ/mol
# GULP energy per Si atom -12397.310528 kJ/mol
# Density = 2.133826 g / cm^3
# Si number density = 21.386939 Si / 1000 Ang^3
#
#
#
# Elastic Constant Matrix: (Units=GPa)
#
#
# Indices 1 2 3 4 5 6 
#
# 1 115.1621 50.4458 19.4730 -9.0174 -3.4522 21.5618
# 2 50.4458 131.6196 30.8021 -16.6716 1.1011 13.2499
# 3 19.4730 30.8021 81.7005 -8.4828 9.4610 -0.2059
# 4 -9.0174 -16.6716 -8.4828 19.4514 0.3033 2.1892
# 5 -3.4522 1.1011 9.4610 0.3033 30.9999 -7.2919
# 6 21.5618 13.2499 -0.2059 2.1892 -7.2919 37.8706
#
#
#
# Elastic Compliance Matrix: (Units=1/GPa)
#
#
# Indices 1 2 3 4 5 6 
#
# 1 0.011585 -0.003243 -0.001337 0.002622 0.000488 -0.005526
# 2 -0.003243 0.010499 -0.002424 0.006712 -0.000612 -0.002346
# 3 -0.001337 -0.002424 0.014343 0.003553 -0.004322 0.000649
# 4 0.002622 0.006712 0.003553 0.060885 -0.003512 -0.008018
# 5 0.000488 -0.000612 -0.004322 -0.003512 0.035314 0.006916
# 6 -0.005526 -0.002346 0.000649 -0.008018 0.006916 0.032172
#
#
# Mechanical properties :
#
#
# Convention : Reuss Voigt Hill
#
# Bulk Modulus (GPa) = 44.60142 58.88045 51.74093
# Shear Modulus (GPa) = 26.84166 32.84846 29.84506
#
# Velocity S-wave (km/s) = 3.54651 3.92332 3.73967
# Velocity P-wave (km/s) = 6.13760 6.93643 6.54921
#
# Compressibility (1/GPa) = 0.02242081
#
# Stress axis : x y z
#
# Youngs Moduli (GPa) = 86.32210 95.24567 69.71981
#
# Poissons Ratio (x) = 0.30886 0.09319
# Poissons Ratio (y) = 0.27992 0.16897
# Poissons Ratio (z) = 0.11538 0.23083
#
# Static dielectric constant tensor:
#      x y z
#    x 4.024110 -0.072670 0.199850 
#    y -0.072670 4.010860 -0.039600 
#    z 0.199850 -0.039600 3.950820 
# 
# 
# High freq. dielectric constant tensor:
#      x y z
#    x 1.847620 0.007300 0.010530 
#    y 0.007300 1.841060 -0.006460 
#    z 0.010530 -0.006460 1.838980 
# 
# From -- ./inp_files/187561.got.cif
#   From: 2010.06.25/outbox.cif.g09.slc.cpg/sg2_94_cif.got.tgz:187561.got - 2010.06.27 13:26:56.
