data_PCOD8023028
_publ_section_title
;
Structure prediction by ZEFSAII (Michael W. Deem and Ramdas Pophale) SiO2 
 PCOD8023028
Probable space group: P -1
;
_chemical_formula_sum "Si O2"
_cell_formula_units_Z 16
_cell_length_a 8.803602
_cell_length_b 8.746580
_cell_length_c 13.949340
_cell_angle_alpha 102.063842
_cell_angle_beta 132.520166
_cell_angle_gamma 91.571185
_cell_volume 752.686649
_symmetry_space_group_name_H-M "P -1"
_symmetry_group_IT_number 2
_symmetry_cell_setting 'triclinic'
loop_
_space_group_symop_operation_xyz
x,y,z
-x,-y,-z
loop_
_atom_site_type_symbol
_atom_site_label
_atom_site_fract_x
_atom_site_fract_y
_atom_site_fract_z
Si Si1 0.221226 0.861790 0.824651
Si Si2 0.896476 0.662003 0.100600
Si Si3 0.585543 0.801530 0.100991
Si Si4 0.785325 0.398512 0.354349
Si Si5 0.551477 0.418424 0.816085
Si Si6 0.472823 0.275624 0.375356
Si Si7 0.307754 0.587759 0.328248
Si Si8 0.070300 0.011445 0.140947
O O1 0.124601 0.716793 0.693924
O O2 0.274298 0.019079 0.799356
O O3 0.428163 0.817681 0.950645
O O4 0.064686 0.884302 0.845259
O O5 0.727450 0.682256 0.110930
O O6 0.057075 0.572603 0.209371
O O7 0.030002 0.830887 0.138980
O O8 0.767997 0.553170 0.946562
O O9 0.468443 0.729161 0.138265
O O10 0.654609 0.507843 0.256105
O O11 0.637897 0.301205 0.361866
O O12 0.000000 0.500000 0.500000
O O13 0.570976 0.346765 0.709727
O O14 0.335472 0.409478 0.337399
O O15 0.597847 0.286318 0.530739
O O16 0.316944 0.100282 0.271008
O O17 0.000000 0.000000 0.000000
#
# Coordination Sequence:
#
# PCOD8023028 Si02
#       8
#     2   2   2   2   2   2   2   2
#     4  10  24  42  65  97 131 169 219 264 332 383
#     4  11  23  41  62 101 129 166 225 270 325 381
#     4  10  23  40  65  95 131 167 212 278 321 386
#     4  11  25  43  68  95 130 174 220 267 323 393
#     4  11  23  40  65 101 129 166 226 270 322 386
#     4  10  25  44  64  94 130 174 221 261 328 392
#     4  10  24  41  64  92 132 169 219 268 324 383
#     4  11  25  41  68  95 132 173 218 269 324 390
#
# _framework density 21.257183999999999
#
# number of rings (size 3 to 8) (size 9 to 14) (size 15 to 20)
#    0.000    1.500    1.250    2.250   14.000    0.500 
#    0.000    0.625    0.000    0.000    0.000    0.000 
#    0.000    0.000    0.000    0.000    0.000    0.000 
#
# Total GULP energy -198429.148024 kJ/mol
# GULP energy per Si atom -12401.821752 kJ/mol
# Density = 2.120880 g / cm^3
# Si number density = 21.257184 Si / 1000 Ang^3
#
#
#
# Elastic Constant Matrix: (Units=GPa)
#
#
# Indices 1 2 3 4 5 6 
#
# 1 103.7572 46.3709 40.7361 2.9030 -4.6296 0.0339
# 2 46.3709 63.4487 42.5150 0.0038 -4.3277 4.0860
# 3 40.7361 42.5150 141.0621 7.7200 2.7633 -2.0727
# 4 2.9030 0.0038 7.7200 32.1012 -2.0710 4.8147
# 5 -4.6296 -4.3277 2.7633 -2.0710 43.5403 1.3111
# 6 0.0339 4.0860 -2.0727 4.8147 1.3111 40.7252
#
#
#
# Elastic Compliance Matrix: (Units=1/GPa)
#
#
# Indices 1 2 3 4 5 6 
#
# 1 0.014576 -0.009909 -0.001155 -0.001160 0.000552 0.001043
# 2 -0.009909 0.027097 -0.005557 0.002884 0.002232 -0.003406
# 3 -0.001155 -0.005557 0.009278 -0.002422 -0.001420 0.001363
# 4 -0.001160 0.002884 -0.002422 0.032617 0.001999 -0.004332
# 5 0.000552 0.002232 -0.001420 0.001999 0.023472 -0.001289
# 6 0.001043 -0.003406 0.001363 -0.004332 -0.001289 0.025519
#
#
# Mechanical properties :
#
#
# Convention : Reuss Voigt Hill
#
# Bulk Modulus (GPa) = 56.46433 63.05687 59.76060
# Shear Modulus (GPa) = 29.11980 35.18306 32.15143
#
# Velocity S-wave (km/s) = 3.70521 4.07272 3.89330
# Velocity P-wave (km/s) = 6.70260 7.20030 6.95590
#
# Compressibility (1/GPa) = 0.01771030
#
# Stress axis : x y z
#
# Youngs Moduli (GPa) = 68.60407 36.90384 107.78266
#
# Poissons Ratio (x) = 0.36566 0.12449
# Poissons Ratio (y) = 0.67976 0.59897
# Poissons Ratio (z) = 0.07924 0.20508
#
# Static dielectric constant tensor:
#      x y z
#    x 3.905340 -0.069990 -0.046070 
#    y -0.069990 3.908910 0.036170 
#    z -0.046070 0.036170 3.850100 
# 
# 
# High freq. dielectric constant tensor:
#      x y z
#    x 1.842380 -0.003160 -0.002190 
#    y -0.003160 1.827830 0.002020 
#    z -0.002190 0.002020 1.832210 
# 
# From -- ./inp_files/495547.got.cif
#   From: 2010.06.25/outbox.cif.g09.slc.cpg/sg2_248_cif.got.tgz:495547.got - 2010.06.27 13:26:56.
