data_PCOD8023761
_publ_section_title
;
Structure prediction by ZEFSAII (Michael W. Deem and Ramdas Pophale) SiO2 
 PCOD8023761
Probable space group: P -1
;
_chemical_formula_sum "Si O2"
_cell_formula_units_Z 14
_cell_length_a 29.751756
_cell_length_b 11.588963
_cell_length_c 15.202122
_cell_angle_alpha 29.234002
_cell_angle_beta 18.276038
_cell_angle_gamma 20.989430
_cell_volume 584.240808
_symmetry_space_group_name_H-M "P -1"
_symmetry_group_IT_number 2
_symmetry_cell_setting 'triclinic'
loop_
_space_group_symop_operation_xyz
x,y,z
-x,-y,-z
loop_
_atom_site_type_symbol
_atom_site_label
_atom_site_fract_x
_atom_site_fract_y
_atom_site_fract_z
Si Si1 0.615872 0.718752 0.262007
Si Si2 0.328405 0.176916 0.628701
Si Si3 0.648443 0.165112 0.571504
Si Si4 0.462018 0.920898 0.991735
Si Si5 0.974728 0.733920 0.120280
Si Si6 0.953650 0.894583 0.862828
Si Si7 0.118394 0.694261 0.418428
O O1 0.540070 0.536503 0.503607
O O2 0.436544 0.063121 0.409826
O O3 0.678663 0.811944 0.000668
O O4 0.795846 0.472614 0.157406
O O5 0.182146 0.562351 0.651238
O O6 0.500000 0.000000 0.500000
O O7 0.190859 0.097513 0.937295
O O8 0.538440 0.071311 0.795919
O O9 0.865239 0.938228 0.276633
O O10 0.657586 0.108986 0.697787
O O11 0.642649 0.569372 0.846484
O O12 0.955680 0.480164 0.304096
O O13 0.894126 0.961029 0.032294
O O14 0.937186 0.176132 0.665834
O O15 0.000000 0.000000 0.500000
#
# Coordination Sequence:
#
# PCOD8023761 Si02
#       7
#     2   2   2   2   2   2   2
#     4  12  23  41  66  97 134 170 223 277 326 397
#     4  11  22  41  69 100 128 172 224 268 329 401
#     4  10  23  42  65  92 131 177 221 269 339 384
#     4  10  23  42  66  97 127 171 228 273 321 402
#     4  11  25  42  64  99 133 174 221 274 329 395
#     4  11  23  44  70  92 141 174 210 281 332 385
#     4  11  23  42  66  94 129 177 216 267 338 386
#
# _framework density 23.962720999999998
#
# number of rings (size 3 to 8) (size 9 to 14) (size 15 to 20)
#    0.000    1.143    1.429    6.000    0.000    5.143 
#    2.571    1.429    0.000    0.000    0.000    0.000 
#    0.000    0.000    0.000    0.000    0.000    0.000 
#
# Total GULP energy -173484.578136 kJ/mol
# GULP energy per Si atom -12391.755581 kJ/mol
# Density = 2.390818 g / cm^3
# Si number density = 23.962721 Si / 1000 Ang^3
#
#
#
# Elastic Constant Matrix: (Units=GPa)
#
#
# Indices 1 2 3 4 5 6 
#
# 1 88.0386 48.2237 44.3172 5.1097 27.0423 -17.1700
# 2 48.2237 93.2227 36.1557 1.7397 29.3212 -11.7658
# 3 44.3172 36.1557 90.7050 11.2682 30.2398 -4.1021
# 4 5.1097 1.7397 11.2682 35.9572 -16.7484 12.0777
# 5 27.0423 29.3212 30.2398 -16.7484 47.7585 6.2848
# 6 -17.1700 -11.7658 -4.1021 12.0777 6.2848 43.3879
#
#
#
# Elastic Compliance Matrix: (Units=1/GPa)
#
#
# Indices 1 2 3 4 5 6 
#
# 1 0.023464 -0.003833 -0.001355 -0.016058 -0.017700 0.015152
# 2 -0.003833 0.017988 0.001034 -0.010019 -0.014133 0.008295
# 3 -0.001355 0.001034 0.021797 -0.020739 -0.022365 0.010817
# 4 -0.016058 -0.010019 -0.020739 0.080220 0.062081 -0.042355
# 5 -0.017700 -0.014133 -0.022365 0.062081 0.081095 -0.041979
# 6 0.015152 0.008295 0.010817 -0.042355 -0.041979 0.050187
#
#
# Mechanical properties :
#
#
# Convention : Reuss Voigt Hill
#
# Bulk Modulus (GPa) = 18.20159 58.81772 38.50966
# Shear Modulus (GPa) = 16.59077 34.97202 25.78140
#
# Velocity S-wave (km/s) = 2.63412 3.82440 3.28364
# Velocity P-wave (km/s) = 4.10655 6.64080 5.52105
#
# Compressibility (1/GPa) = 0.05494026
#
# Stress axis : x y z
#
# Youngs Moduli (GPa) = 42.61772 55.59280 45.87887
#
# Poissons Ratio (x) = 0.21310 0.06219
# Poissons Ratio (y) = 0.16336 -0.04745
# Poissons Ratio (z) = 0.05776 -0.05750
#
# Static dielectric constant tensor:
#      x y z
#    x 4.634520 -0.037150 0.353810 
#    y -0.037150 4.530970 -0.014720 
#    z 0.353810 -0.014720 4.413730 
# 
# 
# High freq. dielectric constant tensor:
#      x y z
#    x 1.941430 -0.002250 0.026230 
#    y -0.002250 1.956820 0.003300 
#    z 0.026230 0.003300 1.945320 
# 
# From -- ./inp_files/458360.got.cif
#   From: 2010.06.25/outbox.cif.g09.slc.cpg/sg2_230_cif.got.tgz:458360.got - 2010.06.27 13:26:56.
