data_PCOD8023714
_publ_section_title
;
Structure prediction by ZEFSAII (Michael W. Deem and Ramdas Pophale) SiO2 
 PCOD8023714
Probable space group: P -1
;
_chemical_formula_sum "Si O2"
_cell_formula_units_Z 12
_cell_length_a 16.897563
_cell_length_b 7.513929
_cell_length_c 7.846455
_cell_angle_alpha 36.127228
_cell_angle_beta 123.727793
_cell_angle_gamma 102.416236
_cell_volume 429.576904
_symmetry_space_group_name_H-M "P -1"
_symmetry_group_IT_number 2
_symmetry_cell_setting 'triclinic'
loop_
_space_group_symop_operation_xyz
x,y,z
-x,-y,-z
loop_
_atom_site_type_symbol
_atom_site_label
_atom_site_fract_x
_atom_site_fract_y
_atom_site_fract_z
Si Si1 0.174638 0.621032 0.462603
Si Si2 0.078503 0.019879 0.714846
Si Si3 0.476087 0.309011 0.362654
Si Si4 0.119256 0.338730 0.924102
Si Si5 0.603720 0.708829 0.186769
Si Si6 0.272553 0.559705 0.122637
O O1 0.157107 0.345281 0.767327
O O2 0.300979 0.468252 0.698820
O O3 0.106900 0.731493 0.119127
O O4 0.135039 0.960190 0.271913
O O5 0.009659 0.401684 0.415344
O O6 0.000000 0.000000 0.500000
O O7 0.192431 0.939922 0.816003
O O8 0.524579 0.549727 0.171312
O O9 0.347211 0.550884 0.060103
O O10 0.500000 0.000000 0.500000
O O11 0.539156 0.118405 0.759512
O O12 0.193188 0.408593 0.090831
O O13 0.645558 0.679655 0.450250
#
# Coordination Sequence:
#
# PCOD8023714 Si02
#       6
#     2   2   2   2   2   2
#     4  11  22  41  66  93 125 163 206 253 304 365
#     4   9  21  42  64  93 127 164 205 253 309 365
#     4  12  24  42  65  92 123 163 208 255 306 366
#     4  11  23  42  65  93 124 164 207 253 304 365
#     4  11  24  41  63  93 126 163 204 253 309 365
#     4  10  23  42  64  92 127 163 205 255 309 366
#
# _framework density 27.934462
#
# number of rings (size 3 to 8) (size 9 to 14) (size 15 to 20)
#    0.000    1.333    0.000    5.500    0.000    2.667 
#    0.000   23.333    0.000    0.000    0.000    0.000 
#    0.000    0.000    0.000    0.000    0.000    0.000 
#
# Total GULP energy -148769.339695 kJ/mol
# GULP energy per Si atom -12397.444975 kJ/mol
# Density = 2.787088 g / cm^3
# Si number density = 27.934462 Si / 1000 Ang^3
#
#
#
# Elastic Constant Matrix: (Units=GPa)
#
#
# Indices 1 2 3 4 5 6 
#
# 1 124.6240 26.2619 28.3905 -10.9351 40.2462 -23.8577
# 2 26.2619 72.5678 -4.1188 19.9047 7.4406 -11.2293
# 3 28.3905 -4.1188 79.5422 -6.1769 18.9929 -1.8402
# 4 -10.9351 19.9047 -6.1769 36.2143 -0.8635 6.4289
# 5 40.2462 7.4406 18.9929 -0.8635 48.1212 -19.1076
# 6 -23.8577 -11.2293 -1.8402 6.4289 -19.1076 42.6560
#
#
#
# Elastic Compliance Matrix: (Units=1/GPa)
#
#
# Indices 1 2 3 4 5 6 
#
# 1 0.013373 -0.005665 -0.002437 0.006354 -0.008851 0.000961
# 2 -0.005665 0.020159 0.001424 -0.013468 0.003037 0.005590
# 3 -0.002437 0.001424 0.014781 0.001387 -0.005124 -0.002855
# 4 0.006354 -0.013468 0.001387 0.038554 -0.006529 -0.008667
# 5 -0.008851 0.003037 -0.005124 -0.006529 0.034391 0.012017
# 6 0.000961 0.005590 -0.002855 -0.008667 0.012017 0.032018
#
#
# Mechanical properties :
#
#
# Convention : Reuss Voigt Hill
#
# Bulk Modulus (GPa) = 28.60668 41.97790 35.29229
# Shear Modulus (GPa) = 28.04515 40.47831 34.26173
#
# Velocity S-wave (km/s) = 3.17197 3.81076 3.50595
# Velocity P-wave (km/s) = 4.86601 5.86707 5.38983
#
# Compressibility (1/GPa) = 0.03495687
#
# Stress axis : x y z
#
# Youngs Moduli (GPa) = 74.77777 49.60623 67.65498
#
# Poissons Ratio (x) = 0.28100 0.16490
# Poissons Ratio (y) = 0.42359 -0.09635
# Poissons Ratio (z) = 0.18226 -0.07065
#
# Static dielectric constant tensor:
#      x y z
#    x 5.421550 -0.434830 0.590360 
#    y -0.434830 5.090080 0.121980 
#    z 0.590360 0.121980 5.447540 
# 
# 
# High freq. dielectric constant tensor:
#      x y z
#    x 2.136340 -0.012250 0.029650 
#    y -0.012250 2.143870 0.019530 
#    z 0.029650 0.019530 2.129570 
# 
# From -- ./inp_files/30245.got.cif
#   From: 2010.06.25/outbox.cif.g09.slc.cpg/sg2_16_cif.got.tgz:30245.got - 2010.06.27 13:26:56.
