data_PCOD8023124
_publ_section_title
;
Structure prediction by ZEFSAII (Michael W. Deem and Ramdas Pophale) SiO2 
 PCOD8023124
Probable space group: P -1
;
_chemical_formula_sum "Si O2"
_cell_formula_units_Z 16
_cell_length_a 12.358747
_cell_length_b 8.780358
_cell_length_c 15.216607
_cell_angle_alpha 150.081922
_cell_angle_beta 70.079914
_cell_angle_gamma 101.500215
_cell_volume 757.911517
_symmetry_space_group_name_H-M "P -1"
_symmetry_group_IT_number 2
_symmetry_cell_setting 'triclinic'
loop_
_space_group_symop_operation_xyz
x,y,z
-x,-y,-z
loop_
_atom_site_type_symbol
_atom_site_label
_atom_site_fract_x
_atom_site_fract_y
_atom_site_fract_z
Si Si1 0.774753 0.841514 0.845198
Si Si2 0.241409 0.493798 0.138605
Si Si3 0.640623 0.937037 0.597251
Si Si4 0.718899 0.535578 0.540471
Si Si5 0.039875 0.745406 0.742902
Si Si6 0.748533 0.566910 0.220489
Si Si7 0.995979 0.439854 0.149875
Si Si8 0.632000 0.908571 0.254996
O O1 0.748191 0.746832 0.903779
O O2 0.700805 0.681919 0.716305
O O3 0.913220 0.730150 0.730737
O O4 0.737613 0.212377 0.030526
O O5 0.104346 0.618716 0.210302
O O6 0.286989 0.795467 0.306802
O O7 0.316615 0.322421 0.952540
O O8 0.663492 0.803011 0.621482
O O9 0.680831 0.668439 0.380375
O O10 0.504762 0.088683 0.699106
O O11 0.858436 0.425481 0.434300
O O12 0.651017 0.256056 0.407450
O O13 0.059250 0.576740 0.747090
O O14 0.054226 0.099383 0.927130
O O15 0.691523 0.786262 0.268259
O O16 0.885564 0.602858 0.202723
#
# Coordination Sequence:
#
# PCOD8023124 Si02
#       8
#     2   2   2   2   2   2   2   2
#     4  10  23  40  68  97 130 163 206 263 325 381
#     4  11  23  44  66  95 131 165 211 264 319 375
#     4  12  26  44  65  92 129 172 218 261 309 375
#     4  12  22  43  64  96 124 174 214 258 314 376
#     4   9  17  37  65  95 130 161 206 255 321 380
#     4  11  23  44  66  95 131 165 211 264 319 375
#     4   9  18  38  68  97 124 164 200 265 324 377
#     4  12  26  44  65  92 129 172 218 261 309 375
#
# _framework density 21.110644000000001
#
# number of rings (size 3 to 8) (size 9 to 14) (size 15 to 20)
#    0.000    1.250    2.500    4.500    0.000    1.000 
#    4.500    1.875    0.000    0.000    0.000    0.000 
#    0.000    0.000    0.000    0.000    0.000    0.000 
#
# Total GULP energy -198470.033520 kJ/mol
# GULP energy per Si atom -12404.377095 kJ/mol
# Density = 2.106259 g / cm^3
# Si number density = 21.110644 Si / 1000 Ang^3
#
#
#
# Elastic Constant Matrix: (Units=GPa)
#
#
# Indices 1 2 3 4 5 6 
#
# 1 128.3101 43.2250 41.5098 1.5044 -18.6693 -3.0207
# 2 43.2250 69.5848 10.1982 8.3636 -5.1920 -11.9567
# 3 41.5098 10.1982 94.7334 -13.6968 2.3238 16.0691
# 4 1.5044 8.3636 -13.6968 29.9913 0.1926 10.8786
# 5 -18.6693 -5.1920 2.3238 0.1926 38.2853 6.5871
# 6 -3.0207 -11.9567 16.0691 10.8786 6.5871 54.1766
#
#
#
# Elastic Compliance Matrix: (Units=1/GPa)
#
#
# Indices 1 2 3 4 5 6 
#
# 1 0.012407 -0.006289 -0.005181 -0.001439 0.005439 0.000468
# 2 -0.006289 0.020630 -0.001812 -0.008663 -0.001256 0.006632
# 3 -0.005181 -0.001812 0.015845 0.010634 -0.002546 -0.007214
# 4 -0.001439 -0.008663 0.010634 0.045885 -0.000288 -0.014325
# 5 0.005439 -0.001256 -0.002546 -0.000288 0.029224 -0.002714
# 6 0.000468 0.006632 -0.007214 -0.014325 -0.002714 0.025294
#
#
# Mechanical properties :
#
#
# Convention : Reuss Voigt Hill
#
# Bulk Modulus (GPa) = 44.80342 53.61047 49.20694
# Shear Modulus (GPa) = 27.27944 37.67031 32.47488
#
# Velocity S-wave (km/s) = 3.59864 4.22883 3.92639
# Velocity P-wave (km/s) = 6.20775 7.02097 6.62685
#
# Compressibility (1/GPa) = 0.02231972
#
# Stress axis : x y z
#
# Youngs Moduli (GPa) = 80.59734 48.47311 63.11271
#
# Poissons Ratio (x) = 0.30484 0.32696
# Poissons Ratio (y) = 0.50686 0.11435
# Poissons Ratio (z) = 0.41754 0.08783
#
# Static dielectric constant tensor:
#      x y z
#    x 3.937130 -0.003740 0.025290 
#    y -0.003740 3.666490 -0.007490 
#    z 0.025290 -0.007490 3.731800 
# 
# 
# High freq. dielectric constant tensor:
#      x y z
#    x 1.835810 -0.003790 0.003980 
#    y -0.003790 1.820850 -0.003970 
#    z 0.003980 -0.003970 1.830080 
# 
# From -- ./inp_files/190395.got.cif
#   From: 2010.06.25/outbox.cif.g09.slc.cpg/sg2_96_cif.got.tgz:190395.got - 2010.06.27 13:26:56.
