data_PCOD8023005
_publ_section_title
;
Structure prediction by ZEFSAII (Michael W. Deem and Ramdas Pophale) SiO2 
 PCOD8023005
Probable space group: P -1
;
_chemical_formula_sum "Si O2"
_cell_formula_units_Z 16
_cell_length_a 9.314913
_cell_length_b 14.273414
_cell_length_c 9.409981
_cell_angle_alpha 72.062621
_cell_angle_beta 104.390139
_cell_angle_gamma 141.377525
_cell_volume 742.901555
_symmetry_space_group_name_H-M "P -1"
_symmetry_group_IT_number 2
_symmetry_cell_setting 'triclinic'
loop_
_space_group_symop_operation_xyz
x,y,z
-x,-y,-z
loop_
_atom_site_type_symbol
_atom_site_label
_atom_site_fract_x
_atom_site_fract_y
_atom_site_fract_z
Si Si1 0.021160 0.969040 0.360473
Si Si2 0.516121 0.690752 0.383566
Si Si3 0.690781 0.179274 0.285895
Si Si4 0.759880 0.128851 0.620933
Si Si5 0.761151 0.427729 0.124327
Si Si6 0.116295 0.621076 0.347964
Si Si7 0.376655 0.309453 0.270443
Si Si8 0.197157 0.424986 0.206134
O O1 0.122703 0.909740 0.396560
O O2 0.760650 0.834378 0.295970
O O3 0.193584 0.133954 0.250593
O O4 0.000000 0.000000 0.500000
O O5 0.385624 0.728193 0.356170
O O6 0.571149 0.670720 0.558635
O O7 0.350497 0.532595 0.329754
O O8 0.686442 0.169350 0.461003
O O9 0.640066 0.260630 0.172150
O O10 0.935291 0.263264 0.255289
O O11 0.460539 0.002698 0.269312
O O12 0.924259 0.281865 0.685482
O O13 0.609925 0.422399 0.186298
O O14 0.007929 0.537006 0.209065
O O15 0.795535 0.483416 0.948283
O O16 0.000000 0.500000 0.500000
O O17 0.286887 0.371571 0.182234
#
# Coordination Sequence:
#
# PCOD8023005 Si02
#       8
#     2   2   2   2   2   2   2   2
#     4  10  23  40  64  99 133 166 218 278 327 377
#     4  11  23  40  68 100 131 168 225 279 321 387
#     4  11  22  40  67  92 128 174 219 269 331 381
#     4  11  23  40  68  99 128 169 221 278 324 384
#     4  12  24  45  65  96 140 176 217 271 334 397
#     4  12  23  40  68  99 129 169 222 274 323 389
#     4  11  23  43  67  95 133 178 222 269 323 396
#     4  12  26  42  67  99 138 176 216 273 336 388
#
# _framework density 21.537174
#
# number of rings (size 3 to 8) (size 9 to 14) (size 15 to 20)
#    0.000    0.750    5.000    2.625    8.750    0.000 
#    0.000    2.500    0.000    0.000    0.000    0.000 
#    0.000    0.000    0.000    0.000    0.000    0.000 
#
# Total GULP energy -198273.709918 kJ/mol
# GULP energy per Si atom -12392.106870 kJ/mol
# Density = 2.148815 g / cm^3
# Si number density = 21.537174 Si / 1000 Ang^3
#
#
#
# Elastic Constant Matrix: (Units=GPa)
#
#
# Indices 1 2 3 4 5 6 
#
# 1 108.2171 58.3640 11.2477 -4.2247 12.6797 4.0337
# 2 58.3640 125.4114 36.0053 -12.9654 -0.1533 7.7600
# 3 11.2477 36.0053 77.4325 -13.4510 7.4068 5.2414
# 4 -4.2247 -12.9654 -13.4510 23.6933 -3.1131 2.4334
# 5 12.6797 -0.1533 7.4068 -3.1131 23.4044 -4.0291
# 6 4.0337 7.7600 5.2414 2.4334 -4.0291 48.2110
#
#
#
# Elastic Compliance Matrix: (Units=1/GPa)
#
#
# Indices 1 2 3 4 5 6 
#
# 1 0.013836 -0.007086 0.001921 -0.001345 -0.008478 -0.000867
# 2 -0.007086 0.013143 -0.004905 0.003989 0.005888 -0.000699
# 3 0.001921 -0.004905 0.016760 0.006613 -0.005845 -0.002016
# 4 -0.001345 0.003989 0.006613 0.048848 0.004586 -0.003331
# 5 -0.008478 0.005888 -0.005845 0.004586 0.050575 0.004392
# 6 -0.000867 -0.000699 -0.002016 -0.003331 0.004392 0.021681
#
#
# Mechanical properties :
#
#
# Convention : Reuss Voigt Hill
#
# Bulk Modulus (GPa) = 42.37428 58.03277 50.20353
# Shear Modulus (GPa) = 25.92702 32.75801 29.34252
#
# Velocity S-wave (km/s) = 3.47338 3.90423 3.69509
# Velocity P-wave (km/s) = 5.98360 6.87953 6.44715
#
# Compressibility (1/GPa) = 0.02359922
#
# Stress axis : x y z
#
# Youngs Moduli (GPa) = 72.27488 76.08836 59.66501
#
# Poissons Ratio (x) = 0.53919 -0.11464
# Poissons Ratio (y) = 0.51217 0.29264
# Poissons Ratio (z) = -0.13886 0.37320
#
# Static dielectric constant tensor:
#      x y z
#    x 4.179200 0.248880 0.155240 
#    y 0.248880 4.399340 -0.099170 
#    z 0.155240 -0.099170 3.536480 
# 
# 
# High freq. dielectric constant tensor:
#      x y z
#    x 1.862780 0.007160 0.002970 
#    y 0.007160 1.858900 -0.013460 
#    z 0.002970 -0.013460 1.800070 
# 
# From -- ./inp_files/205315.got.cif
#   From: 2010.06.25/outbox.cif.g09.slc.cpg/sg2_103_cif.got.tgz:205315.got - 2010.06.27 13:26:56.
