data_PCOD8023812
_publ_section_title
;
Structure prediction by ZEFSAII (Michael W. Deem and Ramdas Pophale) SiO2 
 PCOD8023812
Probable space group: P -1
;
_chemical_formula_sum "Si O2"
_cell_formula_units_Z 14
_cell_length_a 14.477294
_cell_length_b 8.378888
_cell_length_c 10.750747
_cell_angle_alpha 62.834158
_cell_angle_beta 31.341159
_cell_angle_gamma 76.488786
_cell_volume 568.011897
_symmetry_space_group_name_H-M "P -1"
_symmetry_group_IT_number 2
_symmetry_cell_setting 'triclinic'
loop_
_space_group_symop_operation_xyz
x,y,z
-x,-y,-z
loop_
_atom_site_type_symbol
_atom_site_label
_atom_site_fract_x
_atom_site_fract_y
_atom_site_fract_z
Si Si1 0.061345 0.872861 0.805550
Si Si2 0.189043 0.509758 0.215245
Si Si3 0.036710 0.812167 0.569627
Si Si4 0.653823 0.632142 0.443997
Si Si5 0.626018 0.125105 0.019195
Si Si6 0.601750 0.263110 0.488540
Si Si7 0.688970 0.727253 0.645782
O O1 0.052513 0.796230 0.703165
O O2 0.219594 0.806943 0.719855
O O3 0.111087 0.102622 0.667987
O O4 0.857202 0.791553 0.131737
O O5 0.306143 0.433072 0.207102
O O6 0.000000 0.500000 0.500000
O O7 0.140713 0.378465 0.194462
O O8 0.300181 0.736885 0.992543
O O9 0.229374 0.813744 0.283085
O O10 0.000000 0.000000 0.500000
O O11 0.664360 0.431886 0.456644
O O12 0.477062 0.673143 0.568965
O O13 0.607404 0.621335 0.647596
O O14 0.433633 0.157814 0.188654
O O15 0.578714 0.906094 0.188962
#
# Coordination Sequence:
#
# PCOD8023812 Si02
#       7
#     2   2   2   2   2   2   2
#     4  11  24  45  70 101 136 181 225 284 336 410
#     4  10  23  42  66 104 136 179 220 275 348 405
#     4  11  22  43  70 101 138 175 226 275 346 405
#     4  11  25  47  69  98 138 179 233 281 334 410
#     4  10  24  43  67 100 138 173 225 285 335 406
#     4  10  25  45  67 102 131 185 230 276 349 389
#     4  11  24  44  67 103 137 178 224 278 348 400
#
# _framework density 24.647369999999999
#
# number of rings (size 3 to 8) (size 9 to 14) (size 15 to 20)
#    0.000    1.429    1.429    2.143    6.000    8.000 
#    7.714    0.000    0.000    0.000    0.000    0.000 
#    0.000    0.000    0.000    0.000    0.000    0.000 
#
# Total GULP energy -173550.592105 kJ/mol
# GULP energy per Si atom -12396.470865 kJ/mol
# Density = 2.459127 g / cm^3
# Si number density = 24.647370 Si / 1000 Ang^3
#
#
#
# Elastic Constant Matrix: (Units=GPa)
#
#
# Indices 1 2 3 4 5 6 
#
# 1 107.9212 14.1356 10.9251 10.4027 -7.0323 15.0891
# 2 14.1356 64.3557 1.0121 -9.4062 1.1487 5.6070
# 3 10.9251 1.0121 72.7483 4.5738 -2.9983 -1.6472
# 4 10.4027 -9.4062 4.5738 47.2431 1.7720 -7.8355
# 5 -7.0323 1.1487 -2.9983 1.7720 28.1768 4.6363
# 6 15.0891 5.6070 -1.6472 -7.8355 4.6363 38.8958
#
#
#
# Elastic Compliance Matrix: (Units=1/GPa)
#
#
# Indices 1 2 3 4 5 6 
#
# 1 0.011090 -0.002589 -0.001349 -0.003836 0.003829 -0.005215
# 2 -0.002589 0.016747 -0.000162 0.003903 -0.001518 -0.000449
# 3 -0.001349 -0.000162 0.014078 -0.001005 0.001098 0.000809
# 4 -0.003836 0.003903 -0.001005 0.024051 -0.003752 0.006175
# 5 0.003829 -0.001518 0.001098 -0.003752 0.037930 -0.006497
# 6 -0.005215 -0.000449 0.000809 0.006175 -0.006497 0.029850
#
#
# Mechanical properties :
#
#
# Convention : Reuss Voigt Hill
#
# Bulk Modulus (GPa) = 29.66121 33.01900 31.34010
# Shear Modulus (GPa) = 32.64066 37.45997 35.05031
#
# Velocity S-wave (km/s) = 3.64305 3.90274 3.77513
# Velocity P-wave (km/s) = 5.45491 5.80811 5.63428
#
# Compressibility (1/GPa) = 0.03371407
#
# Stress axis : x y z
#
# Youngs Moduli (GPa) = 90.17063 59.71382 71.03486
#
# Poissons Ratio (x) = 0.15462 0.09580
# Poissons Ratio (y) = 0.23348 0.01152
# Poissons Ratio (z) = 0.12160 0.00969
#
# Static dielectric constant tensor:
#      x y z
#    x 4.453900 0.349600 -0.568950 
#    y 0.349600 4.786900 -0.279760 
#    z -0.568950 -0.279760 4.735640 
# 
# 
# High freq. dielectric constant tensor:
#      x y z
#    x 1.962230 0.006580 -0.023020 
#    y 0.006580 1.997750 -0.009380 
#    z -0.023020 -0.009380 1.992750 
# 
# From -- ./inp_files/299168.got.cif
#   From: 2010.06.25/outbox.cif.g09.slc.cpg/sg2_150_cif.got.tgz:299168.got - 2010.06.27 13:26:56.
