data_PCOD8023427
_publ_section_title
;
Structure prediction by ZEFSAII (Michael W. Deem and Ramdas Pophale) SiO2 
 PCOD8023427
Probable space group: P -1
;
_chemical_formula_sum "Si O2"
_cell_formula_units_Z 14
_cell_length_a 21.064777
_cell_length_b 9.200826
_cell_length_c 8.409760
_cell_angle_alpha 66.748768
_cell_angle_beta 125.331731
_cell_angle_gamma 148.105062
_cell_volume 684.843131
_symmetry_space_group_name_H-M "P -1"
_symmetry_group_IT_number 2
_symmetry_cell_setting 'triclinic'
loop_
_space_group_symop_operation_xyz
x,y,z
-x,-y,-z
loop_
_atom_site_type_symbol
_atom_site_label
_atom_site_fract_x
_atom_site_fract_y
_atom_site_fract_z
Si Si1 0.947809 0.792157 0.151628
Si Si2 0.845258 0.174144 0.900890
Si Si3 0.239480 0.810214 0.931486
Si Si4 0.633239 0.798399 0.481017
Si Si5 0.795694 0.771546 0.156133
Si Si6 0.183980 0.025353 0.579703
Si Si7 0.514129 0.839196 0.074335
O O1 0.835213 0.484742 0.047150
O O2 0.878486 0.757177 0.221618
O O3 0.068922 0.883109 0.348686
O O4 0.000000 0.000000 0.000000
O O5 0.771571 0.059226 0.673181
O O6 0.746099 0.104854 0.904784
O O7 0.000000 0.500000 0.000000
O O8 0.859720 0.017182 0.037264
O O9 0.155507 0.803931 0.711877
O O10 0.397000 0.054304 0.997959
O O11 0.500000 0.500000 0.500000
O O12 0.673361 0.750623 0.411863
O O13 0.592731 0.904338 0.314745
O O14 0.810588 0.828619 0.341384
O O15 0.633671 0.491471 0.007157
O O16 0.500000 0.000000 0.000000
#
# Coordination Sequence:
#
# PCOD8023427 Si02
#       7
#     2   2   2   2   2   2   2
#     4  12  23  41  64  96 133 166 210 276 330 373
#     4  11  23  43  67  99 131 168 220 271 321 384
#     4  10  23  41  67  89 127 171 216 261 321 392
#     4  11  23  41  70  93 129 172 221 267 321 381
#     4  11  23  41  67  93 132 170 216 267 323 393
#     4  10  24  40  65  93 123 173 220 258 325 390
#     4  11  23  43  64  93 131 173 214 267 326 385
#
# _framework density 20.442637000000001
#
# number of rings (size 3 to 8) (size 9 to 14) (size 15 to 20)
#    0.000    1.143    2.857    3.429    2.000    5.143 
#    5.143    0.714    0.000    0.000    0.000    0.000 
#    0.000    0.000    0.000    0.000    0.000    0.000 
#
# Total GULP energy -173544.765172 kJ/mol
# GULP energy per Si atom -12396.054655 kJ/mol
# Density = 2.039611 g / cm^3
# Si number density = 20.442637 Si / 1000 Ang^3
#
#
#
# Elastic Constant Matrix: (Units=GPa)
#
#
# Indices 1 2 3 4 5 6 
#
# 1 140.0405 27.3419 36.4112 -12.7815 3.6449 5.7359
# 2 27.3419 99.0088 30.3830 4.0820 2.0747 6.5374
# 3 36.4112 30.3830 88.7317 1.7607 0.8566 6.4612
# 4 -12.7815 4.0820 1.7607 28.3624 1.4891 2.2431
# 5 3.6449 2.0747 0.8566 1.4891 31.6686 -0.6085
# 6 5.7359 6.5374 6.4612 2.2431 -0.6085 34.5547
#
#
#
# Elastic Compliance Matrix: (Units=1/GPa)
#
#
# Indices 1 2 3 4 5 6 
#
# 1 0.008712 -0.001574 -0.003050 0.004467 -0.001044 -0.000886
# 2 -0.001574 0.011700 -0.003226 -0.002074 -0.000424 -0.001222
# 3 -0.003050 -0.003226 0.013755 -0.001671 0.000243 -0.001343
# 4 0.004467 -0.002074 -0.001671 0.037988 -0.002168 -0.002541
# 5 -0.001044 -0.000424 0.000243 -0.002168 0.031838 0.000910
# 6 -0.000886 -0.001222 -0.001343 -0.002541 0.000910 0.029750
#
#
# Mechanical properties :
#
#
# Convention : Reuss Voigt Hill
#
# Bulk Modulus (GPa) = 54.15155 57.33925 55.74540
# Shear Modulus (GPa) = 32.13397 34.49346 33.31371
#
# Velocity S-wave (km/s) = 3.96903 4.11217 4.04123
# Velocity P-wave (km/s) = 6.89575 7.11732 7.00741
#
# Compressibility (1/GPa) = 0.01846669
#
# Stress axis : x y z
#
# Youngs Moduli (GPa) = 114.78018 85.47165 72.70148
#
# Poissons Ratio (x) = 0.13450 0.22176
# Poissons Ratio (y) = 0.18063 0.23455
# Poissons Ratio (z) = 0.35011 0.27575
#
# Static dielectric constant tensor:
#      x y z
#    x 4.052350 0.203920 -0.005360 
#    y 0.203920 3.431610 -0.352020 
#    z -0.005360 -0.352020 3.480580 
# 
# 
# High freq. dielectric constant tensor:
#      x y z
#    x 1.823390 0.009910 0.002420 
#    y 0.009910 1.798270 -0.005440 
#    z 0.002420 -0.005440 1.790160 
# 
# From -- ./inp_files/157129.got.cif
#   From: 2010.06.25/outbox.cif.g09.slc.cpg/sg2_79_cif.got.tgz:157129.got - 2010.06.27 13:26:56.
