data_PCOD8023203
_publ_section_title
;
Structure prediction by ZEFSAII (Michael W. Deem and Ramdas Pophale) SiO2 
 PCOD8023203
Probable space group: P -1
;
_chemical_formula_sum "Si O2"
_cell_formula_units_Z 16
_cell_length_a 5.307857
_cell_length_b 17.958784
_cell_length_c 23.938763
_cell_angle_alpha 21.645146
_cell_angle_beta 105.162245
_cell_angle_gamma 94.529736
_cell_volume 720.909519
_symmetry_space_group_name_H-M "P -1"
_symmetry_group_IT_number 2
_symmetry_cell_setting 'triclinic'
loop_
_space_group_symop_operation_xyz
x,y,z
-x,-y,-z
loop_
_atom_site_type_symbol
_atom_site_label
_atom_site_fract_x
_atom_site_fract_y
_atom_site_fract_z
Si Si1 0.359941 0.184520 0.783567
Si Si2 0.109213 0.920891 0.353787
Si Si3 0.899420 0.797207 0.943470
Si Si4 0.797003 0.072070 0.520528
Si Si5 0.437469 0.511099 0.365508
Si Si6 0.886734 0.717916 0.680603
Si Si7 0.951954 0.095743 0.009037
Si Si8 0.708217 0.778095 0.369108
O O1 0.314849 0.407437 0.661052
O O2 0.179417 0.252699 0.667071
O O3 0.239481 0.040911 0.913163
O O4 0.709545 0.058353 0.879179
O O5 0.075355 0.007495 0.354659
O O6 0.439020 0.720965 0.501939
O O7 0.921758 0.791058 0.419116
O O8 0.009895 0.136741 0.156442
O O9 0.105096 0.800552 0.003975
O O10 0.575263 0.977870 0.814820
O O11 0.923857 0.548848 0.111392
O O12 0.445367 0.221506 0.397532
O O13 0.950209 0.217245 0.403895
O O14 0.890832 0.843488 0.650315
O O15 0.337248 0.442701 0.465575
O O16 0.166879 0.702006 0.183408
#
# Coordination Sequence:
#
# PCOD8023203 Si02
#       8
#     2   2   2   2   2   2   2   2
#     4  11  24  44  62  88 129 165 216 265 316 369
#     4  11  24  40  63  93 130 166 213 254 315 376
#     4  10  23  41  62  92 128 169 206 259 315 373
#     4  10  24  43  69  99 129 160 208 260 306 381
#     4  11  25  39  64  91 121 174 212 267 314 368
#     4  10  23  45  70  98 126 165 206 255 317 367
#     4  11  24  41  63  93 122 163 216 269 312 369
#     4  10  24  41  59  93 127 171 212 259 311 377
#
# _framework density 22.194185000000001
#
# number of rings (size 3 to 8) (size 9 to 14) (size 15 to 20)
#    0.000    1.500    1.250    1.875   10.500    2.000 
#    0.000    0.625    0.000    0.000    0.000    0.000 
#    0.000    0.000    0.000    0.000    0.000    0.000 
#
# Total GULP energy -198382.450732 kJ/mol
# GULP energy per Si atom -12398.903171 kJ/mol
# Density = 2.214367 g / cm^3
# Si number density = 22.194185 Si / 1000 Ang^3
#
#
#
# Elastic Constant Matrix: (Units=GPa)
#
#
# Indices 1 2 3 4 5 6 
#
# 1 102.5130 19.0859 32.9451 0.5475 -17.5971 1.9593
# 2 19.0859 127.1217 55.3830 12.9441 -5.1159 -3.2653
# 3 32.9451 55.3830 136.8660 -3.3286 -27.4048 -5.8034
# 4 0.5475 12.9441 -3.3286 30.7666 8.0356 -4.9950
# 5 -17.5971 -5.1159 -27.4048 8.0356 21.6581 6.2628
# 6 1.9593 -3.2653 -5.8034 -4.9950 6.2628 24.1764
#
#
#
# Elastic Compliance Matrix: (Units=1/GPa)
#
#
# Indices 1 2 3 4 5 6 
#
# 1 0.012269 -0.000877 -0.000495 -0.003895 0.012074 -0.005164
# 2 -0.000877 0.010309 -0.004571 -0.004108 -0.002592 0.000189
# 3 -0.000495 -0.004571 0.012116 -0.000845 0.014635 -0.001635
# 4 -0.003895 -0.004108 -0.000845 0.043382 -0.025688 0.015175
# 5 0.012074 -0.002592 0.014635 -0.025688 0.091150 -0.026735
# 6 -0.005164 0.000189 -0.001635 0.015175 -0.026735 0.051475
#
#
# Mechanical properties :
#
#
# Convention : Reuss Voigt Hill
#
# Bulk Modulus (GPa) = 43.84376 64.59210 54.21793
# Shear Modulus (GPa) = 20.81699 32.59268 26.70484
#
# Velocity S-wave (km/s) = 3.06592 3.83629 3.47253
# Velocity P-wave (km/s) = 5.68600 6.98492 6.36866
#
# Compressibility (1/GPa) = 0.02280826
#
# Stress axis : x y z
#
# Youngs Moduli (GPa) = 81.50548 97.00731 82.53721
#
# Poissons Ratio (x) = 0.08505 0.04083
# Poissons Ratio (y) = 0.07146 0.37729
# Poissons Ratio (z) = 0.04032 0.44344
#
# Static dielectric constant tensor:
#      x y z
#    x 3.970940 0.016240 -0.047910 
#    y 0.016240 4.093840 0.086230 
#    z -0.047910 0.086230 3.950720 
# 
# 
# High freq. dielectric constant tensor:
#      x y z
#    x 1.874880 0.000650 -0.005400 
#    y 0.000650 1.875760 0.005360 
#    z -0.005400 0.005360 1.876290 
# 
# From -- ./inp_files/44520.got.cif
#   From: 2010.06.25/outbox.cif.g09.slc.cpg/sg2_23_cif.got.tgz:44520.got - 2010.06.27 13:26:56.
