data_PCOD8023526
_publ_section_title
;
Structure prediction by ZEFSAII (Michael W. Deem and Ramdas Pophale) SiO2 
 PCOD8023526
Probable space group: P -1
;
_chemical_formula_sum "Si O2"
_cell_formula_units_Z 16
_cell_length_a 20.363342
_cell_length_b 8.813556
_cell_length_c 8.827322
_cell_angle_alpha 102.770525
_cell_angle_beta 128.223878
_cell_angle_gamma 117.533829
_cell_volume 756.742361
_symmetry_space_group_name_H-M "P -1"
_symmetry_group_IT_number 2
_symmetry_cell_setting 'triclinic'
loop_
_space_group_symop_operation_xyz
x,y,z
-x,-y,-z
loop_
_atom_site_type_symbol
_atom_site_label
_atom_site_fract_x
_atom_site_fract_y
_atom_site_fract_z
Si Si1 0.818151 0.851433 0.115805
Si Si2 0.516449 0.972552 0.765786
Si Si3 0.864543 0.357735 0.844249
Si Si4 0.536619 0.303190 0.662548
Si Si5 0.854278 0.823816 0.690435
Si Si6 0.996158 0.832569 0.280258
Si Si7 0.296797 0.704461 0.637703
Si Si8 0.282463 0.125160 0.298258
O O1 0.900864 0.844411 0.137885
O O2 0.927711 0.085427 0.435949
O O3 0.690278 0.583037 0.954385
O O4 0.766340 0.915883 0.951451
O O5 0.510553 0.131733 0.711284
O O6 0.499801 0.812203 0.583268
O O7 0.404817 0.793076 0.695189
O O8 0.652173 0.152079 0.097375
O O9 0.776479 0.265705 0.550711
O O10 0.799531 0.136431 0.809540
O O11 0.000000 0.500000 0.000000
O O12 0.891476 0.544209 0.030771
O O13 0.439894 0.309068 0.563110
O O14 0.796888 0.573806 0.508056
O O15 0.747466 0.759778 0.628198
O O16 0.880146 0.971727 0.616186
O O17 0.000000 0.000000 0.000000
#
# Coordination Sequence:
#
# PCOD8023526 Si02
#       8
#     2   2   2   2   2   2   2   2
#     4  11  25  43  66  95 128 170 218 260 319 385
#     4  10  23  41  69  93 125 173 215 260 319 383
#     4  12  23  41  65  94 134 163 210 272 318 372
#     4  11  23  44  65  95 135 167 209 274 324 378
#     4  12  21  42  69  91 127 172 212 260 320 381
#     4  11  24  43  67  94 126 174 218 257 315 389
#     4  11  22  42  68  95 122 172 222 255 313 392
#     4  12  24  41  67  97 128 172 211 268 330 373
#
# _framework density 21.143260000000001
#
# number of rings (size 3 to 8) (size 9 to 14) (size 15 to 20)
#    0.000    0.750    5.000    2.625    1.750    1.500 
#    0.000    3.750    0.000    0.000    0.000    0.000 
#    0.000    0.000    0.000    0.000    0.000    0.000 
#
# Total GULP energy -198351.211463 kJ/mol
# GULP energy per Si atom -12396.950716 kJ/mol
# Density = 2.109514 g / cm^3
# Si number density = 21.143260 Si / 1000 Ang^3
#
#
#
# Elastic Constant Matrix: (Units=GPa)
#
#
# Indices 1 2 3 4 5 6 
#
# 1 77.2673 -9.3939 28.6065 -13.1742 11.3855 3.0982
# 2 -9.3939 83.6982 18.2846 -5.5727 -2.2744 0.7232
# 3 28.6065 18.2846 115.7339 -6.7465 1.3398 -6.8556
# 4 -13.1742 -5.5727 -6.7465 28.7821 0.3033 8.7746
# 5 11.3855 -2.2744 1.3398 0.3033 33.3283 0.3018
# 6 3.0982 0.7232 -6.8556 8.7746 0.3018 26.2807
#
#
#
# Elastic Compliance Matrix: (Units=1/GPa)
#
#
# Indices 1 2 3 4 5 6 
#
# 1 0.017943 0.003615 -0.004760 0.009899 -0.005721 -0.006696
# 2 0.003615 0.013308 -0.002913 0.004479 -0.000223 -0.003045
# 3 -0.004760 -0.002913 0.010407 -0.001484 0.000988 0.003840
# 4 0.009899 0.004479 -0.001484 0.044899 -0.003274 -0.016631
# 5 -0.005721 -0.000223 0.000988 -0.003274 0.031919 0.001665
# 6 -0.006696 -0.003045 0.003840 -0.016631 0.001665 0.045459
#
#
# Mechanical properties :
#
#
# Convention : Reuss Voigt Hill
#
# Bulk Modulus (GPa) = 29.81221 39.07710 34.44465
# Shear Modulus (GPa) = 27.28807 33.62502 30.45655
#
# Velocity S-wave (km/s) = 3.59643 3.99224 3.79949
# Velocity P-wave (km/s) = 5.60147 6.30657 5.96445
#
# Compressibility (1/GPa) = 0.03354331
#
# Stress axis : x y z
#
# Youngs Moduli (GPa) = 55.73218 75.14137 96.09239
#
# Poissons Ratio (x) = -0.27164 0.45736
# Poissons Ratio (y) = -0.20148 0.27990
# Poissons Ratio (z) = 0.26526 0.21887
#
# Static dielectric constant tensor:
#      x y z
#    x 3.743890 0.020790 0.115730 
#    y 0.020790 3.545350 -0.348050 
#    z 0.115730 -0.348050 3.540880 
# 
# 
# High freq. dielectric constant tensor:
#      x y z
#    x 1.823070 0.010580 0.008160 
#    y 0.010580 1.839660 -0.002620 
#    z 0.008160 -0.002620 1.834520 
# 
# From -- ./inp_files/176516.got.cif
#   From: 2010.06.25/outbox.cif.g09.slc.cpg/sg2_89_cif.got.tgz:176516.got - 2010.06.27 13:26:56.
