data_PCOD8023418
_publ_section_title
;
Structure prediction by ZEFSAII (Michael W. Deem and Ramdas Pophale) SiO2 
 PCOD8023418
Probable space group: P -1
;
_chemical_formula_sum "Si O2"
_cell_formula_units_Z 14
_cell_length_a 14.565466
_cell_length_b 12.801667
_cell_length_c 10.621998
_cell_angle_alpha 145.374938
_cell_angle_beta 106.800547
_cell_angle_gamma 47.272643
_cell_volume 631.620850
_symmetry_space_group_name_H-M "P -1"
_symmetry_group_IT_number 2
_symmetry_cell_setting 'triclinic'
loop_
_space_group_symop_operation_xyz
x,y,z
-x,-y,-z
loop_
_atom_site_type_symbol
_atom_site_label
_atom_site_fract_x
_atom_site_fract_y
_atom_site_fract_z
Si Si1 0.864514 0.423521 0.611345
Si Si2 0.433455 0.385177 0.717322
Si Si3 0.587022 0.181185 0.836722
Si Si4 0.941747 0.512004 0.261884
Si Si5 0.923864 0.189471 0.784993
Si Si6 0.369539 0.240340 0.914145
Si Si7 0.859529 0.357924 0.271325
O O1 0.780711 0.521614 0.539359
O O2 0.922533 0.543511 0.756502
O O3 0.724867 0.599121 0.832491
O O4 0.023460 0.042959 0.318968
O O5 0.454639 0.375224 0.864897
O O6 0.268550 0.525499 0.764471
O O7 0.585378 0.042518 0.373742
O O8 0.420265 0.614063 0.886921
O O9 0.537814 0.100180 0.839501
O O10 0.762423 0.878857 0.541874
O O11 0.943328 0.410287 0.298144
O O12 0.986789 0.292821 0.954922
O O13 0.732855 0.515396 0.001361
O O14 0.000000 0.000000 0.500000
O O15 0.000000 0.000000 0.000000
#
# Coordination Sequence:
#
# PCOD8023418 Si02
#       7
#     2   2   2   2   2   2   2
#     4  11  27  42  67 100 136 179 219 269 332 398
#     4  11  24  42  68  99 132 175 225 274 327 393
#     4  11  24  41  73  99 128 172 227 276 332 386
#     4  12  23  44  72  97 130 177 224 273 329 394
#     4  10  23  41  66  99 138 167 216 275 333 383
#     4  11  23  44  65  98 139 171 217 279 332 382
#     4  12  24  45  69  95 136 176 224 272 327 398
#
# _framework density 22.165196000000002
#
# number of rings (size 3 to 8) (size 9 to 14) (size 15 to 20)
#    0.000    0.857    4.286    2.571    4.000    5.143 
#    0.000    0.714    0.000    0.000    0.000    0.000 
#    0.000    0.000    0.000    0.000    0.000    0.000 
#
# Total GULP energy -173478.445690 kJ/mol
# GULP energy per Si atom -12391.317549 kJ/mol
# Density = 2.211475 g / cm^3
# Si number density = 22.165196 Si / 1000 Ang^3
#
#
#
# Elastic Constant Matrix: (Units=GPa)
#
#
# Indices 1 2 3 4 5 6 
#
# 1 120.7658 21.3889 43.2841 -16.8936 10.8989 -5.6357
# 2 21.3889 63.0141 19.8013 -6.4268 2.7091 4.8071
# 3 43.2841 19.8013 137.4127 -7.4973 23.7374 -2.6472
# 4 -16.8936 -6.4268 -7.4973 30.0465 3.0627 3.9488
# 5 10.8989 2.7091 23.7374 3.0627 40.7090 1.2312
# 6 -5.6357 4.8071 -2.6472 3.9488 1.2312 26.3904
#
#
#
# Elastic Compliance Matrix: (Units=1/GPa)
#
#
# Indices 1 2 3 4 5 6 
#
# 1 0.010444 -0.002387 -0.002367 0.004704 -0.001666 0.001802
# 2 -0.002387 0.017829 -0.001843 0.002534 0.000468 -0.004343
# 3 -0.002367 -0.001843 0.009164 0.000930 -0.004682 0.000829
# 4 0.004704 0.002534 0.000930 0.037808 -0.004670 -0.004803
# 5 -0.001666 0.000468 -0.004682 -0.004670 0.028107 -0.001523
# 6 0.001802 -0.004343 0.000829 -0.004803 -0.001523 0.039941
#
#
# Mechanical properties :
#
#
# Convention : Reuss Voigt Hill
#
# Bulk Modulus (GPa) = 41.25107 54.46014 47.85560
# Shear Modulus (GPa) = 30.38244 35.21039 32.79641
#
# Velocity S-wave (km/s) = 3.70635 3.98998 3.85078
# Velocity P-wave (km/s) = 6.08006 6.77126 6.43495
#
# Compressibility (1/GPa) = 0.02424180
#
# Stress axis : x y z
#
# Youngs Moduli (GPa) = 95.74894 56.08912 109.12231
#
# Poissons Ratio (x) = 0.13391 0.25826
# Poissons Ratio (y) = 0.22859 0.20116
# Poissons Ratio (z) = 0.22661 0.10340
#
# Static dielectric constant tensor:
#      x y z
#    x 4.022090 0.261460 0.224170 
#    y 0.261460 4.499410 0.020510 
#    z 0.224170 0.020510 4.270940 
# 
# 
# High freq. dielectric constant tensor:
#      x y z
#    x 1.861100 0.006870 0.015540 
#    y 0.006870 1.861720 0.003700 
#    z 0.015540 0.003700 1.890730 
# 
# From -- ./inp_files/396889.got.cif
#   From: 2010.06.25/outbox.cif.g09.slc.cpg/sg2_199_cif.got.tgz:396889.got - 2010.06.27 13:26:56.
