data_PCOD8023833
_publ_section_title
;
Structure prediction by ZEFSAII (Michael W. Deem and Ramdas Pophale) SiO2 
 PCOD8023833
Probable space group: P -1
;
_chemical_formula_sum "Si O2"
_cell_formula_units_Z 16
_cell_length_a 17.967886
_cell_length_b 9.115505
_cell_length_c 17.940921
_cell_angle_alpha 149.458722
_cell_angle_beta 30.218297
_cell_angle_gamma 142.623046
_cell_volume 736.774314
_symmetry_space_group_name_H-M "P -1"
_symmetry_group_IT_number 2
_symmetry_cell_setting 'triclinic'
loop_
_space_group_symop_operation_xyz
x,y,z
-x,-y,-z
loop_
_atom_site_type_symbol
_atom_site_label
_atom_site_fract_x
_atom_site_fract_y
_atom_site_fract_z
Si Si1 0.430276 0.279529 0.187196
Si Si2 0.871538 0.548950 0.228239
Si Si3 0.082108 0.115241 0.817486
Si Si4 0.835718 0.559566 0.777398
Si Si5 0.655891 0.002458 0.196621
Si Si6 0.846288 0.941735 0.564888
Si Si7 0.398648 0.567377 0.186455
Si Si8 0.639238 0.846727 0.301565
O O1 0.285577 0.237517 0.347927
O O2 0.387519 0.348103 0.170007
O O3 0.568624 0.507139 0.202387
O O4 0.500000 0.000000 0.000000
O O5 0.901110 0.765294 0.228158
O O6 0.709072 0.330601 0.261990
O O7 0.869174 0.746649 0.388833
O O8 0.992306 0.329907 0.035166
O O9 0.242205 0.114643 0.716867
O O10 0.000362 0.770770 0.731187
O O11 0.774354 0.452870 0.700516
O O12 0.817152 0.264356 0.712276
O O13 0.721258 0.756791 0.989453
O O14 0.473928 0.896128 0.297171
O O15 0.718896 0.996553 0.223697
O O16 0.000000 0.000000 0.500000
O O17 0.500000 0.500000 0.000000
O O18 0.500000 0.000000 0.500000
#
# Coordination Sequence:
#
# PCOD8023833 Si02
#       8
#     2   2   2   2   2   2   2   2
#     4  11  25  43  69 101 137 182 227 281 346 405
#     4  10  24  44  66 102 137 177 234 282 350 402
#     4  10  25  44  70  97 135 190 226 283 344 419
#     4  10  23  42  66  95 134 183 222 275 351 401
#     4   9  20  41  68  94 127 177 222 276 337 411
#     4  12  28  42  66 103 142 175 230 293 340 408
#     4   9  19  40  69  98 133 175 230 272 333 418
#     4  11  24  41  65  94 129 173 233 276 340 402
#
# _framework density 21.716284999999999
#
# number of rings (size 3 to 8) (size 9 to 14) (size 15 to 20)
#    0.000    1.750    0.000    3.000    8.750    7.500 
#    0.000    1.875    0.000    0.000    0.000    0.000 
#    0.000    0.000    0.000    0.000    0.000    0.000 
#
# Total GULP energy -198231.245694 kJ/mol
# GULP energy per Si atom -12389.452856 kJ/mol
# Density = 2.166686 g / cm^3
# Si number density = 21.716285 Si / 1000 Ang^3
#
#
#
# Elastic Constant Matrix: (Units=GPa)
#
#
# Indices 1 2 3 4 5 6 
#
# 1 138.6911 54.1929 27.4889 -7.8900 -2.8405 16.4259
# 2 54.1929 134.6650 38.0880 0.0548 8.6253 -3.2745
# 3 27.4889 38.0880 48.0023 1.5310 16.6123 11.7587
# 4 -7.8900 0.0548 1.5310 33.0930 -0.5514 4.1571
# 5 -2.8405 8.6253 16.6123 -0.5514 31.7045 -8.0738
# 6 16.4259 -3.2745 11.7587 4.1571 -8.0738 38.0625
#
#
#
# Elastic Compliance Matrix: (Units=1/GPa)
#
#
# Indices 1 2 3 4 5 6 
#
# 1 0.009723 -0.003257 -0.003204 0.002923 0.002661 -0.003241
# 2 -0.003257 0.011477 -0.009910 -0.001070 0.003360 0.006284
# 3 -0.003204 -0.009910 0.043727 -0.000901 -0.025158 -0.018217
# 4 0.002923 -0.001070 -0.000901 0.031521 0.000447 -0.004423
# 5 0.002661 0.003360 -0.025158 0.000447 0.048419 0.017134
# 6 -0.003241 0.006284 -0.018217 -0.004423 0.017134 0.037957
#
#
# Mechanical properties :
#
#
# Convention : Reuss Voigt Hill
#
# Bulk Modulus (GPa) = 31.06876 62.32200 46.69538
# Shear Modulus (GPa) = 22.09514 34.01123 28.05319
#
# Velocity S-wave (km/s) = 3.19320 3.96177 3.59807
# Velocity P-wave (km/s) = 5.28518 7.04898 6.22982
#
# Compressibility (1/GPa) = 0.03218668
#
# Stress axis : x y z
#
# Youngs Moduli (GPa) = 102.85374 87.12826 22.86896
#
# Poissons Ratio (x) = 0.28377 0.07327
# Poissons Ratio (y) = 0.33499 0.22662
# Poissons Ratio (z) = 0.32952 0.86340
#
# Static dielectric constant tensor:
#      x y z
#    x 3.693670 1.058020 0.039880 
#    y 1.058020 3.655100 0.072440 
#    z 0.039880 0.072440 3.821150 
# 
# 
# High freq. dielectric constant tensor:
#      x y z
#    x 1.860580 0.006890 0.013060 
#    y 0.006890 1.873180 0.002310 
#    z 0.013060 0.002310 1.843540 
# 
# From -- ./inp_files/390377.got.cif
#   From: 2010.06.25/outbox.cif.g09.slc.cpg/sg2_196_cif.got.tgz:390377.got - 2010.06.27 13:26:56.
