data_PCOD8023596
_publ_section_title
;
Structure prediction by ZEFSAII (Michael W. Deem and Ramdas Pophale) SiO2 
 PCOD8023596
Probable space group: P -1
;
_chemical_formula_sum "Si O2"
_cell_formula_units_Z 16
_cell_length_a 14.555340
_cell_length_b 9.093665
_cell_length_c 11.383000
_cell_angle_alpha 128.108739
_cell_angle_beta 136.297451
_cell_angle_gamma 74.144909
_cell_volume 776.526216
_symmetry_space_group_name_H-M "P -1"
_symmetry_group_IT_number 2
_symmetry_cell_setting 'triclinic'
loop_
_space_group_symop_operation_xyz
x,y,z
-x,-y,-z
loop_
_atom_site_type_symbol
_atom_site_label
_atom_site_fract_x
_atom_site_fract_y
_atom_site_fract_z
Si Si1 0.153132 0.378903 0.668694
Si Si2 0.661270 0.532735 0.884428
Si Si3 0.636412 0.939755 0.076598
Si Si4 0.422100 0.149527 0.538801
Si Si5 0.267421 0.050622 0.568706
Si Si6 0.133720 0.641382 0.127800
Si Si7 0.874687 0.084574 0.948492
Si Si8 0.153841 0.757141 0.746311
O O1 0.178014 0.197244 0.532627
O O2 0.210595 0.576178 0.740894
O O3 0.985690 0.324172 0.502354
O O4 0.231853 0.415505 0.882973
O O5 0.514332 0.368287 0.697099
O O6 0.744658 0.462478 0.822754
O O7 0.615354 0.721400 0.896865
O O8 0.706972 0.949412 0.271252
O O9 0.730426 0.090772 0.147124
O O10 0.500000 0.000000 0.000000
O O11 0.406935 0.133263 0.658577
O O12 0.500000 0.000000 0.500000
O O13 0.269514 0.083970 0.304417
O O14 0.183305 0.829373 0.349254
O O15 0.101680 0.714483 0.005719
O O16 0.000000 0.500000 0.000000
O O17 0.873635 0.138002 0.109649
O O18 0.000000 0.000000 0.000000
#
# Coordination Sequence:
#
# PCOD8023596 Si02
#       8
#     2   2   2   2   2   2   2   2
#     4  10  23  41  71  93 129 177 221 269 331 402
#     4  11  24  45  67  99 127 188 223 273 341 398
#     4  11  29  42  63  98 141 173 221 279 342 395
#     4  11  21  43  73  94 131 175 235 274 319 411
#     4  10  24  43  66  96 127 177 223 265 334 397
#     4  11  24  42  70  98 134 170 227 273 335 405
#     4  11  24  44  70 102 134 177 224 284 338 391
#     4  11  23  43  67  98 138 170 222 276 338 400
#
# _framework density 20.604585
#
# number of rings (size 3 to 8) (size 9 to 14) (size 15 to 20)
#    0.000    1.250    3.750    1.500   10.500    2.000 
#    2.250    1.250    0.000    0.000    0.000    0.000 
#    0.000    0.000    0.000    0.000    0.000    0.000 
#
# Total GULP energy -198363.156183 kJ/mol
# GULP energy per Si atom -12397.697261 kJ/mol
# Density = 2.055769 g / cm^3
# Si number density = 20.604585 Si / 1000 Ang^3
#
#
#
# Elastic Constant Matrix: (Units=GPa)
#
#
# Indices 1 2 3 4 5 6 
#
# 1 140.2714 75.1559 49.5318 22.1192 15.3876 1.8585
# 2 75.1559 147.5548 47.4207 29.8198 11.3250 -18.1360
# 3 49.5318 47.4207 106.2066 18.4131 13.0868 1.7908
# 4 22.1192 29.8198 18.4131 42.5824 3.7678 2.4016
# 5 15.3876 11.3250 13.0868 3.7678 35.4971 10.3727
# 6 1.8585 -18.1360 1.7908 2.4016 10.3727 48.0709
#
#
#
# Elastic Compliance Matrix: (Units=1/GPa)
#
#
# Indices 1 2 3 4 5 6 
#
# 1 0.010866 -0.004541 -0.002613 -0.001092 -0.001711 -0.001612
# 2 -0.004541 0.011547 -0.002019 -0.004976 -0.001987 0.005284
# 3 -0.002613 -0.002019 0.012228 -0.002281 -0.002344 -0.000497
# 4 -0.001092 -0.004976 -0.002281 0.028637 0.000845 -0.003363
# 5 -0.001711 -0.001987 -0.002344 0.000845 0.032561 -0.007664
# 6 -0.001612 0.005284 -0.000497 -0.003363 -0.007664 0.024699
#
#
# Mechanical properties :
#
#
# Convention : Reuss Voigt Hill
#
# Bulk Modulus (GPa) = 61.36770 82.02773 71.69772
# Shear Modulus (GPa) = 34.64627 40.02505 37.33566
#
# Velocity S-wave (km/s) = 4.10504 4.41220 4.26139
# Velocity P-wave (km/s) = 7.23302 8.11502 7.68668
#
# Compressibility (1/GPa) = 0.01629522
#
# Stress axis : x y z
#
# Youngs Moduli (GPa) = 92.03131 86.60532 81.77690
#
# Poissons Ratio (x) = 0.39326 0.21365
# Poissons Ratio (y) = 0.41790 0.16513
# Poissons Ratio (z) = 0.24045 0.17488
#
# Static dielectric constant tensor:
#      x y z
#    x 3.826600 -0.240570 -0.213620 
#    y -0.240570 3.959430 0.270690 
#    z -0.213620 0.270690 3.131730 
# 
# 
# High freq. dielectric constant tensor:
#      x y z
#    x 1.815440 -0.011680 -0.003420 
#    y -0.011680 1.814770 0.013400 
#    z -0.003420 0.013400 1.806240 
# 
# From -- ./inp_files/271643.got.cif
#   From: 2010.06.25/outbox.cif.g09.slc.cpg/sg2_136_cif.got.tgz:271643.got - 2010.06.27 13:26:56.
