data_PCOD8023473
_publ_section_title
;
Structure prediction by ZEFSAII (Michael W. Deem and Ramdas Pophale) SiO2 
 PCOD8023473
Probable space group: P -1
;
_chemical_formula_sum "Si O2"
_cell_formula_units_Z 14
_cell_length_a 11.900859
_cell_length_b 14.040314
_cell_length_c 10.875644
_cell_angle_alpha 147.407971
_cell_angle_beta 127.269273
_cell_angle_gamma 39.897626
_cell_volume 623.459878
_symmetry_space_group_name_H-M "P -1"
_symmetry_group_IT_number 2
_symmetry_cell_setting 'triclinic'
loop_
_space_group_symop_operation_xyz
x,y,z
-x,-y,-z
loop_
_atom_site_type_symbol
_atom_site_label
_atom_site_fract_x
_atom_site_fract_y
_atom_site_fract_z
Si Si1 0.554378 0.733173 0.661241
Si Si2 0.599240 0.075440 0.981137
Si Si3 0.391290 0.532504 0.230032
Si Si4 0.109244 0.671050 0.995131
Si Si5 0.076301 0.875125 0.541494
Si Si6 0.026029 0.181027 0.174638
Si Si7 0.960846 0.411290 0.633023
O O1 0.416911 0.824349 0.784314
O O2 0.530584 0.589904 0.392499
O O3 0.750697 0.586999 0.686671
O O4 0.517257 0.940607 0.786816
O O5 0.488395 0.272834 0.024068
O O6 0.796337 0.916989 0.889825
O O7 0.271628 0.658480 0.408034
O O8 0.282835 0.612262 0.116486
O O9 0.134456 0.640560 0.830648
O O10 0.050675 0.528243 0.859523
O O11 0.947100 0.935966 0.182581
O O12 0.976224 0.784051 0.439569
O O13 0.000000 0.000000 0.500000
O O14 0.025687 0.309590 0.430281
O O15 0.000000 0.000000 0.000000
#
# Coordination Sequence:
#
# PCOD8023473 Si02
#       7
#     2   2   2   2   2   2   2
#     4  11  24  41  73 100 139 178 234 287 344 403
#     4  11  24  44  69 105 137 181 233 287 341 414
#     4  11  24  41  69 100 141 172 223 293 352 389
#     4  11  25  44  67 104 138 182 232 282 342 416
#     4  10  23  41  68 103 138 173 230 287 342 402
#     4  12  24  45  75  99 139 187 237 279 337 419
#     4  12  24  44  75  99 136 191 232 281 340 416
#
# _framework density 22.455333
#
# number of rings (size 3 to 8) (size 9 to 14) (size 15 to 20)
#    0.000    0.857    4.286    2.571    2.000    4.571 
#    0.000    3.571    0.000    0.000    0.000    0.000 
#    0.000    0.000    0.000    0.000    0.000    0.000 
#
# Total GULP energy -173496.249962 kJ/mol
# GULP energy per Si atom -12392.589283 kJ/mol
# Density = 2.240422 g / cm^3
# Si number density = 22.455333 Si / 1000 Ang^3
#
#
#
# Elastic Constant Matrix: (Units=GPa)
#
#
# Indices 1 2 3 4 5 6 
#
# 1 88.7511 24.0615 31.0526 -2.4686 7.8016 21.7528
# 2 24.0615 88.3464 36.9557 -5.0491 13.0650 23.2750
# 3 31.0526 36.9557 92.5964 10.0645 26.0772 13.1135
# 4 -2.4686 -5.0491 10.0645 34.2037 0.2379 5.5961
# 5 7.8016 13.0650 26.0772 0.2379 39.8746 10.8769
# 6 21.7528 23.2750 13.1135 5.5961 10.8769 37.0951
#
#
#
# Elastic Compliance Matrix: (Units=1/GPa)
#
#
# Indices 1 2 3 4 5 6 
#
# 1 0.014935 0.000077 -0.005007 0.003917 0.002592 -0.008387
# 2 0.000077 0.016569 -0.006272 0.005836 0.001203 -0.009457
# 3 -0.005007 -0.006272 0.017905 -0.007228 -0.009866 0.004525
# 4 0.003917 0.005836 -0.007228 0.034092 0.004539 -0.009878
# 5 0.002592 0.001203 -0.009866 0.004539 0.033106 -0.009179
# 6 -0.008387 -0.009457 0.004525 -0.009878 -0.009179 0.040392
#
#
# Mechanical properties :
#
#
# Convention : Reuss Voigt Hill
#
# Bulk Modulus (GPa) = 37.03076 50.42594 43.72835
# Shear Modulus (GPa) = 26.53838 34.07629 30.30734
#
# Velocity S-wave (km/s) = 3.44150 3.89975 3.67777
# Velocity P-wave (km/s) = 5.68494 6.54082 6.12784
#
# Compressibility (1/GPa) = 0.02700458
#
# Stress axis : x y z
#
# Youngs Moduli (GPa) = 66.95527 60.35372 55.84918
#
# Poissons Ratio (x) = -0.00465 0.27965
# Poissons Ratio (y) = -0.00516 0.35031
# Poissons Ratio (z) = 0.33526 0.37856
#
# Static dielectric constant tensor:
#      x y z
#    x 4.132920 0.172400 -0.207790 
#    y 0.172400 3.899660 0.287990 
#    z -0.207790 0.287990 5.002170 
# 
# 
# High freq. dielectric constant tensor:
#      x y z
#    x 1.878220 0.016030 0.009110 
#    y 0.016030 1.874000 0.012660 
#    z 0.009110 0.012660 1.896720 
# 
# From -- ./inp_files/433545.got.cif
#   From: 2010.06.25/outbox.cif.g09.slc.cpg/sg2_217_cif.got.tgz:433545.got - 2010.06.27 13:26:56.
