data_PCOD8023916
_publ_section_title
;
Structure prediction by ZEFSAII (Michael W. Deem and Ramdas Pophale) SiO2 
 PCOD8023916
Probable space group: P -1
;
_chemical_formula_sum "Si O2"
_cell_formula_units_Z 16
_cell_length_a 14.839090
_cell_length_b 11.691660
_cell_length_c 15.060430
_cell_angle_alpha 119.462688
_cell_angle_beta 37.940793
_cell_angle_gamma 149.362108
_cell_volume 657.497039
_symmetry_space_group_name_H-M "P -1"
_symmetry_group_IT_number 2
_symmetry_cell_setting 'triclinic'
loop_
_space_group_symop_operation_xyz
x,y,z
-x,-y,-z
loop_
_atom_site_type_symbol
_atom_site_label
_atom_site_fract_x
_atom_site_fract_y
_atom_site_fract_z
Si Si1 0.443578 0.094126 0.739025
Si Si2 0.192121 0.368448 0.844935
Si Si3 0.283739 0.707443 0.621175
Si Si4 0.377973 0.477298 0.000836
Si Si5 0.289842 0.153084 0.738964
Si Si6 0.104426 0.778502 0.153180
Si Si7 0.747960 0.873406 0.706298
Si Si8 0.268319 0.684936 0.220514
O O1 0.427446 0.965318 0.628004
O O2 0.474840 0.259127 0.726541
O O3 0.712493 0.282750 0.675132
O O4 0.121740 0.841508 0.943809
O O5 0.329711 0.333401 0.747159
O O6 0.456208 0.676379 0.793301
O O7 0.127558 0.331327 0.776768
O O8 0.566993 0.827466 0.441575
O O9 0.054031 0.483853 0.794915
O O10 0.071998 0.534307 0.629268
O O11 0.637980 0.691679 0.803662
O O12 0.500000 0.500000 0.000000
O O13 0.288192 0.550212 0.128039
O O14 0.074281 0.163686 0.079822
O O15 0.121508 0.885998 0.266974
O O16 0.445442 0.015365 0.937937
O O17 0.000000 0.000000 0.500000
#
# Coordination Sequence:
#
# PCOD8023916 Si02
#       8
#     2   2   2   2   2   2   2   2
#     4  11  23  43  70  98 133 180 232 275 340 410
#     4  11  24  44  72 101 132 182 229 285 341 415
#     4  12  25  44  66 100 142 181 220 289 338 411
#     4  11  23  43  69  99 141 182 226 287 348 409
#     4  12  24  43  69  99 143 176 223 286 351 398
#     4  10  24  45  67  98 139 178 231 282 346 404
#     4  11  23  41  67  99 136 175 229 283 340 408
#     4  10  23  42  67  97 133 181 227 277 341 410
#
# _framework density 24.334710999999999
#
# number of rings (size 3 to 8) (size 9 to 14) (size 15 to 20)
#    0.000    1.000    2.500    4.875    1.750    6.500 
#    0.000    0.000    0.000    0.000    0.000    0.000 
#    0.000    0.000    0.000    0.000    0.000    0.000 
#
# Total GULP energy -198399.676986 kJ/mol
# GULP energy per Si atom -12399.979812 kJ/mol
# Density = 2.427932 g / cm^3
# Si number density = 24.334711 Si / 1000 Ang^3
#
#
#
# Elastic Constant Matrix: (Units=GPa)
#
#
# Indices 1 2 3 4 5 6 
#
# 1 111.4664 52.3094 32.9697 -2.1803 -7.5768 22.2814
# 2 52.3094 76.0994 4.4724 3.8473 5.3376 24.2900
# 3 32.9697 4.4724 68.0941 -1.1756 -6.9757 12.9159
# 4 -2.1803 3.8473 -1.1756 35.4914 -3.5451 9.0990
# 5 -7.5768 5.3376 -6.9757 -3.5451 21.2467 6.9189
# 6 22.2814 24.2900 12.9159 9.0990 6.9189 36.9858
#
#
#
# Elastic Compliance Matrix: (Units=1/GPa)
#
#
# Indices 1 2 3 4 5 6 
#
# 1 0.017488 -0.011337 -0.006056 0.003919 0.008925 -0.003609
# 2 -0.011337 0.024096 0.005101 -0.001281 -0.005568 -0.009419
# 3 -0.006056 0.005101 0.019510 0.002441 0.006058 -0.008248
# 4 0.003919 -0.001281 0.002441 0.033142 0.012223 -0.012812
# 5 0.008925 -0.005568 0.006058 0.012223 0.061661 -0.018378
# 6 -0.003609 -0.009419 -0.008248 -0.012812 -0.018378 0.044868
#
#
# Mechanical properties :
#
#
# Convention : Reuss Voigt Hill
#
# Bulk Modulus (GPa) = 27.39101 48.35144 37.87123
# Shear Modulus (GPa) = 21.05106 29.80533 25.42820
#
# Velocity S-wave (km/s) = 2.94439 3.50352 3.23605
# Velocity P-wave (km/s) = 4.77908 6.02318 5.43683
#
# Compressibility (1/GPa) = 0.03650833
#
# Stress axis : x y z
#
# Youngs Moduli (GPa) = 57.18364 41.50135 51.25574
#
# Poissons Ratio (x) = 0.47050 0.31041
# Poissons Ratio (y) = 0.64829 -0.26144
# Poissons Ratio (z) = 0.34631 -0.21168
#
# Static dielectric constant tensor:
#      x y z
#    x 11.696780 3.611460 0.024640 
#    y 3.611460 6.261740 -0.205160 
#    z 0.024640 -0.205160 4.363540 
# 
# 
# High freq. dielectric constant tensor:
#      x y z
#    x 1.969290 0.006800 0.006850 
#    y 0.006800 1.963130 -0.005930 
#    z 0.006850 -0.005930 1.975160 
# 
# From -- ./inp_files/532606.got.cif
#   From: 2010.06.25/outbox.cif.g09.slc.cpg/sg2_267_cif.got.tgz:532606.got - 2010.06.27 13:26:56.
