data_PCOD8023142
_publ_section_title
;
Structure prediction by ZEFSAII (Michael W. Deem and Ramdas Pophale) SiO2 
 PCOD8023142
Probable space group: P -1
;
_chemical_formula_sum "Si O2"
_cell_formula_units_Z 16
_cell_length_a 11.860783
_cell_length_b 5.188710
_cell_length_c 24.704924
_cell_angle_alpha 107.965548
_cell_angle_beta 147.253518
_cell_angle_gamma 58.835441
_cell_volume 676.803502
_symmetry_space_group_name_H-M "P -1"
_symmetry_group_IT_number 2
_symmetry_cell_setting 'triclinic'
loop_
_space_group_symop_operation_xyz
x,y,z
-x,-y,-z
loop_
_atom_site_type_symbol
_atom_site_label
_atom_site_fract_x
_atom_site_fract_y
_atom_site_fract_z
Si Si1 0.569593 0.421897 0.933047
Si Si2 0.980242 0.028377 0.429957
Si Si3 0.510992 0.614034 0.291780
Si Si4 0.999886 0.471124 0.776909
Si Si5 0.263906 0.183784 0.760074
Si Si6 0.767205 0.094354 0.094703
Si Si7 0.748136 0.524286 0.909521
Si Si8 0.502306 0.221422 0.363396
O O1 0.340370 0.450494 0.808269
O O2 0.470353 0.730142 0.951097
O O3 0.771934 0.373079 0.968680
O O4 0.681022 0.122080 0.999372
O O5 0.773926 0.383338 0.355908
O O6 0.899957 0.794160 0.355716
O O7 0.000000 0.000000 0.500000
O O8 0.247408 0.934083 0.511200
O O9 0.296647 0.662408 0.168518
O O10 0.486841 0.478561 0.331023
O O11 0.484873 0.951932 0.306617
O O12 0.110433 0.230931 0.755814
O O13 0.071099 0.739535 0.823352
O O14 0.710981 0.627961 0.669039
O O15 0.085999 0.269661 0.854201
O O16 0.519618 0.869067 0.841659
O O17 0.000000 0.500000 0.000000
#
# Coordination Sequence:
#
# PCOD8023142 Si02
#       8
#     2   2   2   2   2   2   2   2
#     4  10  23  40  69  94 136 181 227 270 340 400
#     4   9  21  43  70  96 132 177 226 276 341 403
#     4  10  24  43  67  95 138 175 223 275 336 400
#     4  11  23  42  68  99 137 175 226 281 333 397
#     4  10  23  43  65 100 134 176 225 281 339 398
#     4  10  23  41  68  97 137 182 221 272 333 411
#     4  11  25  41  66  99 136 179 223 280 334 404
#     4  11  23  43  67  98 129 179 224 279 334 396
#
# _framework density 23.640540999999999
#
# number of rings (size 3 to 8) (size 9 to 14) (size 15 to 20)
#    0.000    1.750    1.250    1.125    8.750    3.500 
#    2.250    0.000    0.000    6.000    0.000    0.000 
#    0.000    0.000    0.000    0.000    0.000    0.000 
#
# Total GULP energy -198324.410332 kJ/mol
# GULP energy per Si atom -12395.275646 kJ/mol
# Density = 2.358673 g / cm^3
# Si number density = 23.640541 Si / 1000 Ang^3
#
#
#
# Elastic Constant Matrix: (Units=GPa)
#
#
# Indices 1 2 3 4 5 6 
#
# 1 134.7800 21.1706 67.6896 -0.5537 21.7583 -7.1900
# 2 21.1706 56.8305 27.2841 4.7363 7.2913 2.1013
# 3 67.6896 27.2841 156.4727 14.9472 17.4975 -21.1238
# 4 -0.5537 4.7363 14.9472 34.5750 -11.2454 1.0194
# 5 21.7583 7.2913 17.4975 -11.2454 44.2835 -9.0287
# 6 -7.1900 2.1013 -21.1238 1.0194 -9.0287 29.8431
#
#
#
# Elastic Compliance Matrix: (Units=1/GPa)
#
#
# Indices 1 2 3 4 5 6 
#
# 1 0.010128 -0.001471 -0.004065 0.001150 -0.003103 -0.001312
# 2 -0.001471 0.020335 -0.002987 -0.002357 -0.003008 -0.004730
# 3 -0.004065 -0.002987 0.010102 -0.004673 -0.001445 0.006104
# 4 0.001150 -0.002357 -0.004673 0.034655 0.010278 -0.000939
# 5 -0.003103 -0.003008 -0.001445 0.010278 0.029194 0.006923
# 6 -0.001312 -0.004730 0.006104 -0.000939 0.006923 0.039973
#
#
# Mechanical properties :
#
#
# Convention : Reuss Voigt Hill
#
# Bulk Modulus (GPa) = 42.51495 64.48575 53.50035
# Shear Modulus (GPa) = 29.53851 37.20292 33.37071
#
# Velocity S-wave (km/s) = 3.53864 3.97128 3.76119
# Velocity P-wave (km/s) = 5.89228 6.95449 6.44530
#
# Compressibility (1/GPa) = 0.02352114
#
# Stress axis : x y z
#
# Youngs Moduli (GPa) = 98.74023 49.17591 98.98981
#
# Poissons Ratio (x) = 0.07231 0.40236
# Poissons Ratio (y) = 0.14520 0.29565
# Poissons Ratio (z) = 0.40135 0.14687
#
# Static dielectric constant tensor:
#      x y z
#    x 4.336230 -0.177940 0.265160 
#    y -0.177940 4.086500 0.015170 
#    z 0.265160 0.015170 4.791290 
# 
# 
# High freq. dielectric constant tensor:
#      x y z
#    x 1.932610 -0.005100 0.013290 
#    y -0.005100 1.925880 0.008820 
#    z 0.013290 0.008820 1.935940 
# 
# From -- ./inp_files/609224.got.cif
#   From: 2010.06.25/outbox.cif.g09.slc.cpg/sg2_305_cif.got.tgz:609224.got - 2010.06.27 13:26:56.
