data_PCOD8023698
_publ_section_title
;
Structure prediction by ZEFSAII (Michael W. Deem and Ramdas Pophale) SiO2 
 PCOD8023698
Probable space group: P -1
;
_chemical_formula_sum "Si O2"
_cell_formula_units_Z 16
_cell_length_a 6.926601
_cell_length_b 18.221478
_cell_length_c 21.454224
_cell_angle_alpha 17.224813
_cell_angle_beta 71.108447
_cell_angle_gamma 71.270078
_cell_volume 757.966850
_symmetry_space_group_name_H-M "P -1"
_symmetry_group_IT_number 2
_symmetry_cell_setting 'triclinic'
loop_
_space_group_symop_operation_xyz
x,y,z
-x,-y,-z
loop_
_atom_site_type_symbol
_atom_site_label
_atom_site_fract_x
_atom_site_fract_y
_atom_site_fract_z
Si Si1 0.579012 0.223660 0.728779
Si Si2 0.679700 0.114714 0.671959
Si Si3 0.609228 0.591514 0.618375
Si Si4 0.669371 0.783602 0.647579
Si Si5 0.112024 0.060656 0.620560
Si Si6 0.039838 0.501504 0.067849
Si Si7 0.778454 0.126445 0.914316
Si Si8 0.391033 0.440540 0.883592
O O1 0.500000 0.500000 0.500000
O O2 0.699991 0.114956 0.744238
O O3 0.740132 0.208202 0.780765
O O4 0.384753 0.065160 0.891435
O O5 0.512058 0.324975 0.498758
O O6 0.892206 0.179463 0.565506
O O7 0.609485 0.851915 0.867440
O O8 0.766228 0.366684 0.765617
O O9 0.443186 0.500869 0.758182
O O10 0.723225 0.824589 0.444326
O O11 0.785559 0.706136 0.762513
O O12 0.561483 0.543625 0.827634
O O13 0.500000 0.000000 0.500000
O O14 0.839935 0.872873 0.509627
O O15 0.117353 0.765323 0.868421
O O16 0.831478 0.436665 0.177154
O O17 0.000000 0.500000 0.000000
O O18 0.000000 0.000000 0.000000
#
# Coordination Sequence:
#
# PCOD8023698 Si02
#       8
#     2   2   2   2   2   2   2   2
#     4  11  24  44  66  96 129 172 217 262 318 378
#     4  11  22  42  67  92 130 169 214 268 316 374
#     4  11  22  42  65  92 130 171 211 264 321 376
#     4  11  24  43  67  95 130 169 211 261 318 387
#     4  10  25  40  64 100 125 168 216 262 319 381
#     4  11  24  43  67  96 127 167 214 264 318 380
#     4  11  26  43  65  96 133 171 216 264 319 382
#     4  10  23  42  63  94 131 165 210 265 321 377
#
# _framework density 21.109102
#
# number of rings (size 3 to 8) (size 9 to 14) (size 15 to 20)
#    0.000    1.250    2.500    2.250    1.750    9.500 
#    9.000    0.000    0.000    0.000    0.000    0.000 
#    0.000    0.000    0.000    0.000    0.000    0.000 
#
# Total GULP energy -198470.325647 kJ/mol
# GULP energy per Si atom -12404.395353 kJ/mol
# Density = 2.106106 g / cm^3
# Si number density = 21.109102 Si / 1000 Ang^3
#
#
#
# Elastic Constant Matrix: (Units=GPa)
#
#
# Indices 1 2 3 4 5 6 
#
# 1 115.9592 65.4782 56.5141 16.2226 24.1939 -10.7519
# 2 65.4782 147.6236 43.8401 12.1828 14.0561 -8.7337
# 3 56.5141 43.8401 81.8409 10.1506 15.1419 -8.5996
# 4 16.2226 12.1828 10.1506 31.1310 -5.4546 4.4714
# 5 24.1939 14.0561 15.1419 -5.4546 43.0357 3.9972
# 6 -10.7519 -8.7337 -8.5996 4.4714 3.9972 35.5673
#
#
#
# Elastic Compliance Matrix: (Units=1/GPa)
#
#
# Indices 1 2 3 4 5 6 
#
# 1 0.017198 -0.004022 -0.007110 -0.006914 -0.007116 0.004161
# 2 -0.004022 0.009295 -0.001931 -0.001075 -0.000303 0.000769
# 3 -0.007110 -0.001931 0.019289 -0.002697 -0.002750 0.002688
# 4 -0.006914 -0.001075 -0.002697 0.040321 0.011164 -0.009330
# 5 -0.007116 -0.000303 -0.002750 0.011164 0.030435 -0.007714
# 6 0.004161 0.000769 0.002688 -0.009330 -0.007714 0.032252
#
#
# Mechanical properties :
#
#
# Convention : Reuss Voigt Hill
#
# Bulk Modulus (GPa) = 50.87905 75.23204 63.05555
# Shear Modulus (GPa) = 27.55315 33.91955 30.73635
#
# Velocity S-wave (km/s) = 3.61678 4.01293 3.81999
# Velocity P-wave (km/s) = 6.44955 7.56230 7.02798
#
# Compressibility (1/GPa) = 0.01965445
#
# Stress axis : x y z
#
# Youngs Moduli (GPa) = 58.14719 107.58919 51.84400
#
# Poissons Ratio (x) = 0.43276 0.36859
# Poissons Ratio (y) = 0.23389 0.10012
# Poissons Ratio (z) = 0.41341 0.20778
#
# Static dielectric constant tensor:
#      x y z
#    x 3.743220 0.011170 -0.184770 
#    y 0.011170 3.972760 0.032580 
#    z -0.184770 0.032580 3.890620 
# 
# 
# High freq. dielectric constant tensor:
#      x y z
#    x 1.824310 -0.000500 -0.008380 
#    y -0.000500 1.837440 0.000120 
#    z -0.008380 0.000120 1.838240 
# 
# From -- ./inp_files/47692.got.cif
#   From: 2010.06.25/outbox.cif.g09.slc.cpg/sg2_24_cif.got.tgz:47692.got - 2010.06.27 13:26:56.
