data_PCOD8023515
_publ_section_title
;
Structure prediction by ZEFSAII (Michael W. Deem and Ramdas Pophale) SiO2 
 PCOD8023515
Probable space group: P -1
;
_chemical_formula_sum "Si O2"
_cell_formula_units_Z 14
_cell_length_a 13.111790
_cell_length_b 9.743582
_cell_length_c 23.415745
_cell_angle_alpha 147.264229
_cell_angle_beta 153.890306
_cell_angle_gamma 50.496033
_cell_volume 616.191358
_symmetry_space_group_name_H-M "P -1"
_symmetry_group_IT_number 2
_symmetry_cell_setting 'triclinic'
loop_
_space_group_symop_operation_xyz
x,y,z
-x,-y,-z
loop_
_atom_site_type_symbol
_atom_site_label
_atom_site_fract_x
_atom_site_fract_y
_atom_site_fract_z
Si Si1 0.255298 0.853610 0.961748
Si Si2 0.050600 0.828374 0.074846
Si Si3 0.039181 0.001410 0.376444
Si Si4 0.252491 0.646965 0.007860
Si Si5 0.284766 0.779213 0.756772
Si Si6 0.715316 0.547838 0.251829
Si Si7 0.417862 0.779187 0.330197
O O1 0.361470 0.841991 0.074106
O O2 0.180491 0.548776 0.784934
O O3 0.996385 0.894086 0.850355
O O4 0.483999 0.142748 0.146068
O O5 0.296976 0.898349 0.263686
O O6 0.123599 0.785476 0.032601
O O7 0.786539 0.543430 0.864537
O O8 0.046659 0.158020 0.495606
O O9 0.323402 0.219297 0.565545
O O10 0.791699 0.961974 0.197705
O O11 0.987408 0.675441 0.244664
O O12 0.487864 0.626252 0.150398
O O13 0.381012 0.733210 0.851445
O O14 0.000000 0.500000 0.500000
O O15 0.500000 0.000000 0.500000
#
# Coordination Sequence:
#
# PCOD8023515 Si02
#       7
#     2   2   2   2   2   2   2
#     4  12  26  44  68 102 138 180 220 275 347 395
#     4  11  25  44  69  97 139 177 223 277 336 394
#     4  11  23  43  68 104 132 174 228 279 333 395
#     4  12  25  46  67  97 143 181 220 274 335 410
#     4  10  23  41  69 101 131 168 226 285 326 394
#     4  11  24  44  70  96 139 173 226 278 331 396
#     4  11  23  41  73 102 130 177 229 276 333 399
#
# _framework density 22.720213999999999
#
# number of rings (size 3 to 8) (size 9 to 14) (size 15 to 20)
#    0.000    0.857    4.286    3.000    4.000    0.571 
#    2.571    0.714    0.000    0.000    0.000    0.000 
#    0.000    0.000    0.000    0.000    0.000    0.000 
#
# Total GULP energy -173570.410095 kJ/mol
# GULP energy per Si atom -12397.886435 kJ/mol
# Density = 2.266850 g / cm^3
# Si number density = 22.720214 Si / 1000 Ang^3
#
#
#
# Elastic Constant Matrix: (Units=GPa)
#
#
# Indices 1 2 3 4 5 6 
#
# 1 153.1708 66.4762 41.1209 -15.7254 -11.5270 -7.1083
# 2 66.4762 110.6996 21.7549 -31.1317 2.3525 -4.2199
# 3 41.1209 21.7549 56.6522 -13.3732 -13.0183 -0.1581
# 4 -15.7254 -31.1317 -13.3732 35.4232 -2.7024 -2.8465
# 5 -11.5270 2.3525 -13.0183 -2.7024 26.6262 2.3044
# 6 -7.1083 -4.2199 -0.1581 -2.8465 2.3044 52.4348
#
#
#
# Elastic Compliance Matrix: (Units=1/GPa)
#
#
# Indices 1 2 3 4 5 6 
#
# 1 0.010506 -0.005930 -0.005420 -0.002375 0.002120 0.000709
# 2 -0.005930 0.015813 0.000243 0.011239 -0.002809 0.001203
# 3 -0.005420 0.000243 0.026086 0.008463 0.011304 -0.000674
# 4 -0.002375 0.011239 0.008463 0.040915 0.006048 0.002563
# 5 0.002120 -0.002809 0.011304 0.006048 0.044998 -0.001554
# 6 0.000709 0.001203 -0.000674 0.002563 -0.001554 0.019470
#
#
# Mechanical properties :
#
#
# Convention : Reuss Voigt Hill
#
# Bulk Modulus (GPa) = 33.12320 64.35851 48.74085
# Shear Modulus (GPa) = 26.30675 35.64155 30.97415
#
# Velocity S-wave (km/s) = 3.40642 3.96500 3.69628
# Velocity P-wave (km/s) = 5.48471 7.02493 6.30205
#
# Compressibility (1/GPa) = 0.03019032
#
# Stress axis : x y z
#
# Youngs Moduli (GPa) = 95.18552 63.24011 38.33456
#
# Poissons Ratio (x) = 0.37499 0.20778
# Poissons Ratio (y) = 0.56441 -0.00930
# Poissons Ratio (z) = 0.51592 -0.01534
#
# Static dielectric constant tensor:
#      x y z
#    x 4.298180 -0.180580 -0.087180 
#    y -0.180580 4.570640 -0.074250 
#    z -0.087180 -0.074250 4.009810 
# 
# 
# High freq. dielectric constant tensor:
#      x y z
#    x 1.894310 -0.006100 -0.012150 
#    y -0.006100 1.910430 -0.007050 
#    z -0.012150 -0.007050 1.894200 
# 
# From -- ./inp_files/346272.got.cif
#   From: 2010.06.25/outbox.cif.g09.slc.cpg/sg2_174_cif.got.tgz:346272.got - 2010.06.27 13:26:56.
