data_PCOD8023351
_publ_section_title
;
Structure prediction by ZEFSAII (Michael W. Deem and Ramdas Pophale) SiO2 
 PCOD8023351
Probable space group: P -1
;
_chemical_formula_sum "Si O2"
_cell_formula_units_Z 16
_cell_length_a 9.407089
_cell_length_b 11.264150
_cell_length_c 26.033910
_cell_angle_alpha 22.021863
_cell_angle_beta 129.014437
_cell_angle_gamma 132.709904
_cell_volume 760.054185
_symmetry_space_group_name_H-M "P -1"
_symmetry_group_IT_number 2
_symmetry_cell_setting 'triclinic'
loop_
_space_group_symop_operation_xyz
x,y,z
-x,-y,-z
loop_
_atom_site_type_symbol
_atom_site_label
_atom_site_fract_x
_atom_site_fract_y
_atom_site_fract_z
Si Si1 0.986263 0.145672 0.381872
Si Si2 0.270304 0.820533 0.017443
Si Si3 0.296008 0.289606 0.309013
Si Si4 0.003796 0.146580 0.886033
Si Si5 0.647207 0.882507 0.183686
Si Si6 0.643891 0.722190 0.404565
Si Si7 0.213871 0.566071 0.538769
Si Si8 0.559462 0.888512 0.865982
O O1 0.191088 0.268023 0.349182
O O2 0.909375 0.454162 0.250272
O O3 0.844996 0.892894 0.411166
O O4 0.000000 0.000000 0.500000
O O5 0.230736 0.827599 0.944387
O O6 0.200678 0.451654 0.176292
O O7 0.153026 0.037427 0.929628
O O8 0.500000 0.000000 0.000000
O O9 0.511008 0.543860 0.261484
O O10 0.305380 0.927614 0.440700
O O11 0.791441 0.046423 0.852131
O O12 0.000000 0.000000 0.000000
O O13 0.798914 0.753704 0.300472
O O14 0.514195 0.037539 0.125122
O O15 0.500000 0.500000 0.500000
O O16 0.660547 0.456416 0.472771
O O17 0.550024 0.983328 0.254931
O O18 0.000000 0.500000 0.500000
O O19 0.500000 0.500000 0.000000
#
# Coordination Sequence:
#
# PCOD8023351 Si02
#       8
#     2   2   2   2   2   2   2   2
#     4  12  25  41  72 101 129 175 233 276 330 408
#     4  10  23  41  66 100 130 163 220 279 326 388
#     4  11  22  44  68  95 132 174 225 273 332 393
#     4  12  22  42  70  97 133 179 227 277 329 396
#     4  10  23  43  65  99 133 171 225 275 327 400
#     4  11  26  44  63  98 140 171 223 280 339 397
#     4  11  24  41  67  92 136 178 213 274 337 393
#     4  11  24  42  68  96 136 181 218 278 341 393
#
# _framework density 21.051129
#
# number of rings (size 3 to 8) (size 9 to 14) (size 15 to 20)
#    0.000    1.000    3.750    2.625    3.500    4.000 
#    0.000    1.250    0.000    0.000    0.000    0.000 
#    0.000    0.000    0.000    0.000    0.000    0.000 
#
# Total GULP energy -198319.526683 kJ/mol
# GULP energy per Si atom -12394.970418 kJ/mol
# Density = 2.100322 g / cm^3
# Si number density = 21.051129 Si / 1000 Ang^3
#
#
#
# Elastic Constant Matrix: (Units=GPa)
#
#
# Indices 1 2 3 4 5 6 
#
# 1 136.8711 24.2536 73.8592 15.3668 -2.5828 -16.2759
# 2 24.2536 74.7090 23.9251 8.7258 4.6903 -8.2952
# 3 73.8592 23.9251 133.1965 8.7694 -1.5595 -23.4750
# 4 15.3668 8.7258 8.7694 41.4354 -10.3967 3.0251
# 5 -2.5828 4.6903 -1.5595 -10.3967 48.0626 4.6314
# 6 -16.2759 -8.2952 -23.4750 3.0251 4.6314 30.5182
#
#
#
# Elastic Compliance Matrix: (Units=1/GPa)
#
#
# Indices 1 2 3 4 5 6 
#
# 1 0.010938 -0.001306 -0.005352 -0.002830 -0.000232 0.001678
# 2 -0.001306 0.015112 -0.001241 -0.003323 -0.002611 0.003182
# 3 -0.005352 -0.001241 0.011815 -0.000835 -0.000548 0.006063
# 4 -0.002830 -0.003323 -0.000835 0.028304 0.006934 -0.006912
# 5 -0.000232 -0.002611 -0.000548 0.006934 0.023055 -0.005441
# 6 0.001678 0.003182 0.006063 -0.006912 -0.005441 0.040701
#
#
# Mechanical properties :
#
#
# Convention : Reuss Voigt Hill
#
# Bulk Modulus (GPa) = 45.31450 65.42806 55.37128
# Shear Modulus (GPa) = 32.66276 38.85247 35.75762
#
# Velocity S-wave (km/s) = 3.94330 4.30073 4.12589
# Velocity P-wave (km/s) = 6.50426 7.47059 7.00411
#
# Compressibility (1/GPa) = 0.02206799
#
# Stress axis : x y z
#
# Youngs Moduli (GPa) = 91.42275 66.17251 84.63642
#
# Poissons Ratio (x) = 0.08641 0.45293
# Poissons Ratio (y) = 0.11938 0.10507
# Poissons Ratio (z) = 0.48925 0.08215
#
# Static dielectric constant tensor:
#      x y z
#    x 4.025990 -0.201940 -0.353310 
#    y -0.201940 3.922390 0.178110 
#    z -0.353310 0.178110 4.549680 
# 
# 
# High freq. dielectric constant tensor:
#      x y z
#    x 1.832160 -0.007580 0.002740 
#    y -0.007580 1.818930 0.011440 
#    z 0.002740 0.011440 1.843900 
# 
# From -- ./inp_files/186703.got.cif
#   From: 2010.06.25/outbox.cif.g09.slc.cpg/sg2_94_cif.got.tgz:186703.got - 2010.06.27 13:26:56.
