data_PCOD8023801
_publ_section_title
;
Structure prediction by ZEFSAII (Michael W. Deem and Ramdas Pophale) SiO2 
 PCOD8023801
Probable space group: P -1
;
_chemical_formula_sum "Si O2"
_cell_formula_units_Z 16
_cell_length_a 16.627357
_cell_length_b 10.047629
_cell_length_c 5.083900
_cell_angle_alpha 113.696644
_cell_angle_beta 68.223562
_cell_angle_gamma 130.437419
_cell_volume 584.482357
_symmetry_space_group_name_H-M "P -1"
_symmetry_group_IT_number 2
_symmetry_cell_setting 'triclinic'
loop_
_space_group_symop_operation_xyz
x,y,z
-x,-y,-z
loop_
_atom_site_type_symbol
_atom_site_label
_atom_site_fract_x
_atom_site_fract_y
_atom_site_fract_z
Si Si1 0.034881 0.817082 0.678767
Si Si2 0.705849 0.867687 0.919192
Si Si3 0.661111 0.562065 0.424944
Si Si4 0.835419 0.793304 0.011785
Si Si5 0.526735 0.798052 0.431767
Si Si6 0.747497 0.368456 0.288296
Si Si7 0.614927 0.177871 0.776850
Si Si8 0.119904 0.752379 0.038805
O O1 0.039109 0.722621 0.338323
O O2 0.100755 0.033092 0.729336
O O3 0.078592 0.760894 0.814475
O O4 0.909928 0.729216 0.805878
O O5 0.643751 0.712165 0.654540
O O6 0.758673 0.067921 0.904030
O O7 0.809421 0.868429 0.854567
O O8 0.633962 0.822206 0.227985
O O9 0.719939 0.622150 0.118937
O O10 0.542625 0.377385 0.439350
O O11 0.745641 0.542142 0.479466
O O12 0.465573 0.783341 0.224976
O O13 0.554454 0.963600 0.714345
O O14 0.709074 0.247138 0.501374
O O15 0.659661 0.271658 0.079268
O O16 0.861218 0.405334 0.102009
#
# Coordination Sequence:
#
# PCOD8023801 Si02
#       8
#     2   2   2   2   2   2   2   2
#     4  10  23  43  73  95 132 167 233 274 335 394
#     4  11  23  43  66  98 139 174 227 271 331 406
#     4  11  25  42  63  99 141 178 214 281 339 393
#     4  10  24  41  66  99 131 178 214 284 339 393
#     4  10  23  42  66 100 135 183 224 273 322 399
#     4  11  24  44  71  96 138 175 225 276 331 392
#     4  10  23  44  66  98 136 181 226 268 323 394
#     4  11  22  43  72 102 120 177 228 281 319 405
#
# _framework density 27.374649000000002
#
# number of rings (size 3 to 8) (size 9 to 14) (size 15 to 20)
#    0.000    1.500    2.500    1.125    7.000    6.500 
#    4.500    1.250    0.000    0.000    0.000    0.000 
#    0.000    0.000    0.000    0.000    0.000    0.000 
#
# Total GULP energy -198289.637497 kJ/mol
# GULP energy per Si atom -12393.102344 kJ/mol
# Density = 2.731234 g / cm^3
# Si number density = 27.374649 Si / 1000 Ang^3
#
#
#
# Elastic Constant Matrix: (Units=GPa)
#
#
# Indices 1 2 3 4 5 6 
#
# 1 73.2628 -11.6055 6.2517 3.5520 -21.6566 1.3283
# 2 -11.6055 75.6353 30.6890 -10.0043 -0.2833 -1.5412
# 3 6.2517 30.6890 93.4997 -8.1660 -17.6657 3.5397
# 4 3.5520 -10.0043 -8.1660 21.3445 -10.2662 -6.1812
# 5 -21.6566 -0.2833 -17.6657 -10.2662 48.5735 2.4248
# 6 1.3283 -1.5412 3.5397 -6.1812 2.4248 21.6485
#
#
#
# Elastic Compliance Matrix: (Units=1/GPa)
#
#
# Indices 1 2 3 4 5 6 
#
# 1 0.016319 0.002924 -0.000418 0.001837 0.007582 -0.001049
# 2 0.002924 0.016714 -0.005064 0.006883 0.000829 0.003711
# 3 -0.000418 -0.005064 0.014103 0.005556 0.006175 -0.001746
# 4 0.001837 0.006883 0.005556 0.064043 0.015617 0.016005
# 5 0.007582 0.000829 0.006175 0.015617 0.029532 -0.000265
# 6 -0.001049 0.003711 -0.001746 0.016005 -0.000265 0.051406
#
#
# Mechanical properties :
#
#
# Convention : Reuss Voigt Hill
#
# Bulk Modulus (GPa) = 23.79840 32.56315 28.18078
# Shear Modulus (GPa) = 23.66964 32.78415 28.22690
#
# Velocity S-wave (km/s) = 2.94369 3.46440 3.21461
# Velocity P-wave (km/s) = 4.50180 5.28432 4.90868
#
# Compressibility (1/GPa) = 0.04201962
#
# Stress axis : x y z
#
# Youngs Moduli (GPa) = 61.27656 59.83039 70.90521
#
# Poissons Ratio (x) = -0.17493 0.02965
# Poissons Ratio (y) = -0.17916 0.35908
# Poissons Ratio (z) = 0.02562 0.30299
#
# Static dielectric constant tensor:
#      x y z
#    x 4.738730 -0.170950 -0.344080 
#    y -0.170950 5.181200 0.164680 
#    z -0.344080 0.164680 4.717430 
# 
# 
# High freq. dielectric constant tensor:
#      x y z
#    x 2.099790 -0.009180 -0.022270 
#    y -0.009180 2.096280 0.003710 
#    z -0.022270 0.003710 2.103360 
# 
# From -- ./inp_files/109817.got.cif
#   From: 2010.06.25/outbox.cif.g09.slc.cpg/sg2_55_cif.got.tgz:109817.got - 2010.06.27 13:26:56.
