data_PCOD8023161
_publ_section_title
;
Structure prediction by ZEFSAII (Michael W. Deem and Ramdas Pophale) SiO2 
 PCOD8023161
Probable space group: P -1
;
_chemical_formula_sum "Si O2"
_cell_formula_units_Z 14
_cell_length_a 20.897816
_cell_length_b 9.475615
_cell_length_c 25.629209
_cell_angle_alpha 42.507922
_cell_angle_beta 165.667545
_cell_angle_gamma 144.287220
_cell_volume 688.978945
_symmetry_space_group_name_H-M "P -1"
_symmetry_group_IT_number 2
_symmetry_cell_setting 'triclinic'
loop_
_space_group_symop_operation_xyz
x,y,z
-x,-y,-z
loop_
_atom_site_type_symbol
_atom_site_label
_atom_site_fract_x
_atom_site_fract_y
_atom_site_fract_z
Si Si1 0.065288 0.317782 0.070723
Si Si2 0.699245 0.500337 0.351159
Si Si3 0.043921 0.440506 0.721585
Si Si4 0.387999 0.200860 0.091311
Si Si5 0.350121 0.701503 0.452324
Si Si6 0.636402 0.094527 0.215002
Si Si7 0.168448 0.496870 0.986950
O O1 0.394673 0.362869 0.334973
O O2 0.066106 0.356772 0.999355
O O3 0.780396 0.028484 0.937745
O O4 0.000000 0.500000 0.000000
O O5 0.794401 0.336375 0.504159
O O6 0.993357 0.804153 0.510055
O O7 0.665602 0.442767 0.278418
O O8 0.361388 0.419943 0.126929
O O9 0.884254 0.466445 0.639531
O O10 0.135737 0.245746 0.856685
O O11 0.355462 0.727066 0.873620
O O12 0.530804 0.143654 0.172352
O O13 0.155065 0.603216 0.271306
O O14 0.500000 0.000000 0.500000
O O15 0.395217 0.802603 0.088552
#
# Coordination Sequence:
#
# PCOD8023161 Si02
#       7
#     2   2   2   2   2   2   2
#     4  12  26  44  68  99 137 170 221 277 336 389
#     4  10  23  40  71  96 127 178 220 270 325 393
#     4  10  23  41  68  95 129 174 228 264 324 393
#     4  12  22  45  66  98 133 174 221 273 327 395
#     4  12  25  45  70  98 133 177 226 270 326 400
#     4  10  24  43  64  98 140 165 220 273 334 388
#     4  12  24  45  67  99 132 175 216 278 331 389
#
# _framework density 20.319925000000001
#
# number of rings (size 3 to 8) (size 9 to 14) (size 15 to 20)
#    0.857    0.000    5.714    1.286    2.000    2.286 
#    5.143    0.000    0.000    0.000    0.000    0.000 
#    0.000    0.000    0.000    0.000    0.000    0.000 
#
# Total GULP energy -173513.050305 kJ/mol
# GULP energy per Si atom -12393.789308 kJ/mol
# Density = 2.027368 g / cm^3
# Si number density = 20.319925 Si / 1000 Ang^3
#
#
#
# Elastic Constant Matrix: (Units=GPa)
#
#
# Indices 1 2 3 4 5 6 
#
# 1 113.6310 53.1211 56.0141 0.3106 -0.5240 10.5070
# 2 53.1211 112.7206 39.6934 4.4281 -5.9535 7.9099
# 3 56.0141 39.6934 132.3977 -9.9681 -17.8256 -5.1085
# 4 0.3106 4.4281 -9.9681 36.5413 -1.9214 5.4730
# 5 -0.5240 -5.9535 -17.8256 -1.9214 34.8605 3.5729
# 6 10.5070 7.9099 -5.1085 5.4730 3.5729 40.5948
#
#
#
# Elastic Compliance Matrix: (Units=1/GPa)
#
#
# Indices 1 2 3 4 5 6 
#
# 1 0.013648 -0.004616 -0.004931 -0.000614 -0.002839 -0.002921
# 2 -0.004616 0.011818 -0.001599 -0.001588 0.001167 -0.001198
# 3 -0.004931 -0.001599 0.011161 0.003248 0.005325 0.002086
# 4 -0.000614 -0.001588 0.003248 0.029126 0.003328 -0.003343
# 5 -0.002839 0.001167 0.005325 0.003328 0.031962 -0.002084
# 6 -0.002921 -0.001198 0.002086 -0.003343 -0.002084 0.026520
#
#
# Mechanical properties :
#
#
# Convention : Reuss Voigt Hill
#
# Bulk Modulus (GPa) = 69.76474 72.93406 71.34940
# Shear Modulus (GPa) = 33.04593 36.39403 34.71998
#
# Velocity S-wave (km/s) = 4.03709 4.23667 4.13809
# Velocity P-wave (km/s) = 7.49257 7.73972 7.61715
#
# Compressibility (1/GPa) = 0.01433389
#
# Stress axis : x y z
#
# Youngs Moduli (GPa) = 73.27098 84.61681 89.60103
#
# Poissons Ratio (x) = 0.39060 0.44185
# Poissons Ratio (y) = 0.33823 0.14326
# Poissons Ratio (z) = 0.36132 0.13529
#
# Static dielectric constant tensor:
#      x y z
#    x 3.862430 0.177840 0.107570 
#    y 0.177840 3.638770 -0.027330 
#    z 0.107570 -0.027330 3.747350 
# 
# 
# High freq. dielectric constant tensor:
#      x y z
#    x 1.811060 0.013590 0.004760 
#    y 0.013590 1.780970 -0.002310 
#    z 0.004760 -0.002310 1.795910 
# 
# From -- ./inp_files/599465.got.cif
#   From: 2010.06.25/outbox.cif.g09.slc.cpg/sg2_300_cif.got.tgz:599465.got - 2010.06.27 13:26:56.
