data_PCOD8023945
_publ_section_title
;
Structure prediction by ZEFSAII (Michael W. Deem and Ramdas Pophale) SiO2 
 PCOD8023945
Probable space group: P -1
;
_chemical_formula_sum "Si O2"
_cell_formula_units_Z 16
_cell_length_a 9.367525
_cell_length_b 9.139212
_cell_length_c 13.109051
_cell_angle_alpha 47.575410
_cell_angle_beta 101.071167
_cell_angle_gamma 78.273555
_cell_volume 722.156626
_symmetry_space_group_name_H-M "P -1"
_symmetry_group_IT_number 2
_symmetry_cell_setting 'triclinic'
loop_
_space_group_symop_operation_xyz
x,y,z
-x,-y,-z
loop_
_atom_site_type_symbol
_atom_site_label
_atom_site_fract_x
_atom_site_fract_y
_atom_site_fract_z
Si Si1 0.492304 0.546743 0.646701
Si Si2 0.703054 0.202972 0.679894
Si Si3 0.652913 0.774475 0.665168
Si Si4 0.004069 0.316797 0.667562
Si Si5 0.364076 0.182667 0.128079
Si Si6 0.055499 0.317585 0.371261
Si Si7 0.724705 0.400582 0.214393
Si Si8 0.729410 0.009962 0.270285
O O1 0.562067 0.334355 0.682337
O O2 0.367292 0.757026 0.463686
O O3 0.646056 0.579857 0.688362
O O4 0.403786 0.523183 0.747009
O O5 0.848174 0.269936 0.669234
O O6 0.747430 0.946808 0.830513
O O7 0.641173 0.720423 0.805934
O O8 0.832153 0.753658 0.680630
O O9 0.500000 0.000000 0.500000
O O10 0.015402 0.420076 0.730024
O O11 0.000000 0.500000 0.500000
O O12 0.159034 0.077182 0.775923
O O13 0.556856 0.018827 0.211448
O O14 0.288550 0.378702 0.944235
O O15 0.905309 0.264525 0.352272
O O16 0.176733 0.167165 0.546254
O O17 0.697510 0.252316 0.193184
#
# Coordination Sequence:
#
# PCOD8023945 Si02
#       8
#     2   2   2   2   2   2   2   2
#     4  11  22  41  71  98 136 181 235 277 332 411
#     4  11  24  42  70 103 134 181 233 280 334 408
#     4  12  21  42  70  99 133 179 231 282 331 407
#     4  10  23  42  68 102 135 172 228 289 336 396
#     4  12  27  44  69 103 143 182 226 285 349 404
#     4  11  23  43  70  99 133 181 233 283 337 404
#     4  12  27  45  67 105 142 183 225 285 351 402
#     4  11  23  43  70  98 137 183 230 281 338 407
#
# _framework density 22.155857000000001
#
# number of rings (size 3 to 8) (size 9 to 14) (size 15 to 20)
#    0.000    0.750    5.000    2.250    8.750    1.000 
#    0.000    0.625    0.000    0.000    0.000    0.000 
#    0.000    0.000    0.000    0.000    0.000    0.000 
#
# Total GULP energy -198293.082781 kJ/mol
# GULP energy per Si atom -12393.317674 kJ/mol
# Density = 2.210543 g / cm^3
# Si number density = 22.155857 Si / 1000 Ang^3
#
#
#
# Elastic Constant Matrix: (Units=GPa)
#
#
# Indices 1 2 3 4 5 6 
#
# 1 123.8363 30.2886 13.0600 -9.1893 -6.3818 -2.3677
# 2 30.2886 95.8620 21.8864 -7.9343 -14.8389 -13.4540
# 3 13.0600 21.8864 76.4507 -7.1805 -19.9629 -4.2973
# 4 -9.1893 -7.9343 -7.1805 18.9654 4.7733 -5.5381
# 5 -6.3818 -14.8389 -19.9629 4.7733 32.3345 -2.4562
# 6 -2.3677 -13.4540 -4.2973 -5.5381 -2.4562 47.5544
#
#
#
# Elastic Compliance Matrix: (Units=1/GPa)
#
#
# Indices 1 2 3 4 5 6 
#
# 1 0.008963 -0.002459 -0.000573 0.003158 -0.000175 0.000058
# 2 -0.002459 0.013137 -0.001633 0.003808 0.004285 0.004112
# 3 -0.000573 -0.001633 0.016404 0.003559 0.008881 0.001865
# 4 0.003158 0.003808 0.003559 0.060598 -0.003738 0.008421
# 5 -0.000175 0.004285 0.008881 -0.003738 0.039167 0.003594
# 6 0.000058 0.004112 0.001865 0.008421 0.003594 0.023529
#
#
# Mechanical properties :
#
#
# Convention : Reuss Voigt Hill
#
# Bulk Modulus (GPa) = 34.27657 47.40212 40.83934
# Shear Modulus (GPa) = 27.64663 35.16511 31.40587
#
# Velocity S-wave (km/s) = 3.53629 3.98825 3.76905
# Velocity P-wave (km/s) = 5.67257 6.53066 6.11668
#
# Compressibility (1/GPa) = 0.02917445
#
# Stress axis : x y z
#
# Youngs Moduli (GPa) = 111.56410 76.12078 60.96099
#
# Poissons Ratio (x) = 0.18717 0.03494
# Poissons Ratio (y) = 0.27432 0.09955
# Poissons Ratio (z) = 0.06394 0.12431
#
# Static dielectric constant tensor:
#      x y z
#    x 4.188470 -0.195470 -0.000590 
#    y -0.195470 4.558690 -0.066800 
#    z -0.000590 -0.066800 3.583210 
# 
# 
# High freq. dielectric constant tensor:
#      x y z
#    x 1.884220 -0.004390 -0.006910 
#    y -0.004390 1.891500 -0.000990 
#    z -0.006910 -0.000990 1.828580 
# 
# From -- ./inp_files/280301.got.cif
#   From: 2010.06.25/outbox.cif.g09.slc.cpg/sg2_141_cif.got.tgz:280301.got - 2010.06.27 13:26:56.
