data_PCOD8023941
_publ_section_title
;
Structure prediction by ZEFSAII (Michael W. Deem and Ramdas Pophale) SiO2 
 PCOD8023941
Probable space group: P -1
;
_chemical_formula_sum "Si O2"
_cell_formula_units_Z 16
_cell_length_a 14.414272
_cell_length_b 8.751427
_cell_length_c 8.977918
_cell_angle_alpha 131.497270
_cell_angle_beta 98.905050
_cell_angle_gamma 107.871615
_cell_volume 698.032416
_symmetry_space_group_name_H-M "P -1"
_symmetry_group_IT_number 2
_symmetry_cell_setting 'triclinic'
loop_
_space_group_symop_operation_xyz
x,y,z
-x,-y,-z
loop_
_atom_site_type_symbol
_atom_site_label
_atom_site_fract_x
_atom_site_fract_y
_atom_site_fract_z
Si Si1 0.476128 0.048542 0.188074
Si Si2 0.797377 0.230004 0.478963
Si Si3 0.667305 0.470817 0.676005
Si Si4 0.738264 0.008920 0.010463
Si Si5 0.818690 0.838319 0.354393
Si Si6 0.582077 0.407802 0.942063
Si Si7 0.016416 0.701752 0.812579
Si Si8 0.995902 0.981859 0.239889
O O1 0.571879 0.326420 0.433998
O O2 0.356687 0.019807 0.141221
O O3 0.479160 0.865522 0.186299
O O4 0.500000 0.000000 0.000000
O O5 0.755512 0.391410 0.641815
O O6 0.929242 0.410008 0.581073
O O7 0.790234 0.045292 0.482015
O O8 0.722527 0.074399 0.217008
O O9 0.736385 0.760308 0.848735
O O10 0.603014 0.401560 0.770266
O O11 0.856431 0.228616 0.115202
O O12 0.894013 0.868036 0.532237
O O13 0.700506 0.577603 0.167968
O O14 0.881245 0.860049 0.228302
O O15 0.500000 0.500000 0.000000
O O16 0.994428 0.829565 0.755775
O O17 0.994689 0.767607 0.013759
#
# Coordination Sequence:
#
# PCOD8023941 Si02
#       8
#     2   2   2   2   2   2   2   2
#     4  12  27  46  74 106 136 183 241 288 352 422
#     4  12  24  43  74 102 144 186 233 281 356 412
#     4  12  25  49  73  98 145 187 229 293 354 413
#     4  12  25  45  71 107 142 181 234 294 342 417
#     4  11  24  43  68 103 141 187 231 290 341 419
#     4  12  26  47  73 103 143 182 236 291 352 414
#     4  11  23  41  69 105 140 187 229 287 350 406
#     4  10  23  42  68 101 142 186 234 283 346 414
#
# _framework density 22.921572000000001
#
# number of rings (size 3 to 8) (size 9 to 14) (size 15 to 20)
#    0.000    0.500    3.750    4.875    1.750    4.500 
#    0.000    0.000    0.000    0.000    0.000    0.000 
#    0.000    0.000    0.000    0.000    0.000    0.000 
#
# Total GULP energy -198512.549745 kJ/mol
# GULP energy per Si atom -12407.034359 kJ/mol
# Density = 2.286940 g / cm^3
# Si number density = 22.921572 Si / 1000 Ang^3
#
#
#
# Elastic Constant Matrix: (Units=GPa)
#
#
# Indices 1 2 3 4 5 6 
#
# 1 122.0252 11.0645 31.5378 -8.6332 -2.3324 0.0859
# 2 11.0645 51.1125 18.8025 -2.3926 -4.7617 7.8657
# 3 31.5378 18.8025 110.0296 -0.1624 6.0616 13.4816
# 4 -8.6332 -2.3926 -0.1624 36.2941 0.2727 1.0563
# 5 -2.3324 -4.7617 6.0616 0.2727 44.1379 3.9573
# 6 0.0859 7.8657 13.4816 1.0563 3.9573 28.5982
#
#
#
# Elastic Compliance Matrix: (Units=1/GPa)
#
#
# Indices 1 2 3 4 5 6 
#
# 1 0.009126 -0.001065 -0.002629 0.002045 0.000595 0.001347
# 2 -0.001065 0.022050 -0.003008 0.001312 0.003188 -0.005133
# 3 -0.002629 -0.003008 0.010943 -0.000644 -0.001596 -0.004079
# 4 0.002045 0.001312 -0.000644 0.028154 0.000266 -0.001140
# 5 0.000595 0.003188 -0.001596 0.000266 0.023554 -0.003395
# 6 0.001347 -0.005133 -0.004079 -0.001140 -0.003395 0.038810
#
#
# Mechanical properties :
#
#
# Convention : Reuss Voigt Hill
#
# Bulk Modulus (GPa) = 34.82276 45.10857 39.96566
# Shear Modulus (GPa) = 32.13162 36.59018 34.36090
#
# Velocity S-wave (km/s) = 3.74813 3.99973 3.87597
# Velocity P-wave (km/s) = 5.82722 6.40724 6.12410
#
# Compressibility (1/GPa) = 0.02871685
#
# Stress axis : x y z
#
# Youngs Moduli (GPa) = 109.57621 45.35165 91.38585
#
# Poissons Ratio (x) = 0.04828 0.24022
# Poissons Ratio (y) = 0.11666 0.27485
# Poissons Ratio (z) = 0.28804 0.13640
#
# Static dielectric constant tensor:
#      x y z
#    x 4.393700 0.018070 0.063240 
#    y 0.018070 4.005230 0.026430 
#    z 0.063240 0.026430 4.388770 
# 
# 
# High freq. dielectric constant tensor:
#      x y z
#    x 1.919430 0.003930 0.006480 
#    y 0.003930 1.889920 0.004100 
#    z 0.006480 0.004100 1.922710 
# 
# From -- ./inp_files/299747.got.cif
#   From: 2010.06.25/outbox.cif.g09.slc.cpg/sg2_150_cif.got.tgz:299747.got - 2010.06.27 13:26:56.
