data_PCOD8023498
_publ_section_title
;
Structure prediction by ZEFSAII (Michael W. Deem and Ramdas Pophale) SiO2 
 PCOD8023498
Probable space group: P -1
;
_chemical_formula_sum "Si O2"
_cell_formula_units_Z 16
_cell_length_a 8.859240
_cell_length_b 12.976779
_cell_length_c 9.067858
_cell_angle_alpha 113.485342
_cell_angle_beta 113.341830
_cell_angle_gamma 107.058669
_cell_volume 741.192618
_symmetry_space_group_name_H-M "P -1"
_symmetry_group_IT_number 2
_symmetry_cell_setting 'triclinic'
loop_
_space_group_symop_operation_xyz
x,y,z
-x,-y,-z
loop_
_atom_site_type_symbol
_atom_site_label
_atom_site_fract_x
_atom_site_fract_y
_atom_site_fract_z
Si Si1 0.989691 0.614819 0.143542
Si Si2 0.237954 0.963590 0.754479
Si Si3 0.445207 0.300801 0.393383
Si Si4 0.251831 0.421063 0.220860
Si Si5 0.610525 0.210548 0.165407
Si Si6 0.100157 0.040580 0.221958
Si Si7 0.062024 0.552760 0.716056
Si Si8 0.273787 0.915965 0.406946
O O1 0.934321 0.564420 0.261146
O O2 0.191952 0.758211 0.294269
O O3 0.816902 0.619890 0.998653
O O4 0.000000 0.500000 0.000000
O O5 0.268123 0.853863 0.777045
O O6 0.250242 0.965791 0.584473
O O7 0.397699 0.106391 0.962963
O O8 0.027755 0.933166 0.700660
O O9 0.306687 0.318368 0.238949
O O10 0.564243 0.427938 0.617220
O O11 0.595885 0.282545 0.346141
O O12 0.312640 0.174345 0.371613
O O13 0.078088 0.405693 0.244291
O O14 0.723155 0.314462 0.135709
O O15 0.142740 0.932869 0.244159
O O16 0.000000 0.000000 0.000000
O O17 0.000000 0.500000 0.500000
O O18 0.500000 0.000000 0.500000
#
# Coordination Sequence:
#
# PCOD8023498 Si02
#       8
#     2   2   2   2   2   2   2   2
#     4  10  25  43  66  99 137 176 227 282 340 419
#     4  11  26  44  69 102 142 182 234 289 356 416
#     4  11  22  42  69 102 137 179 234 286 347 421
#     4  10  23  41  68  96 139 180 228 282 351 415
#     4  11  23  41  70 102 134 179 238 290 345 421
#     4  12  25  45  74  99 144 187 232 293 351 416
#     4  11  21  39  69  92 136 177 229 282 345 409
#     4  12  28  45  74 106 142 186 234 293 353 417
#
# _framework density 21.586829999999999
#
# number of rings (size 3 to 8) (size 9 to 14) (size 15 to 20)
#    0.000    1.000    2.500    3.375   10.500    0.000 
#    0.000    0.625    0.000    0.000    0.000    0.000 
#    0.000    0.000    0.000    0.000    0.000    0.000 
#
# Total GULP energy -198430.121419 kJ/mol
# GULP energy per Si atom -12401.882589 kJ/mol
# Density = 2.153770 g / cm^3
# Si number density = 21.586830 Si / 1000 Ang^3
#
#
#
# Elastic Constant Matrix: (Units=GPa)
#
#
# Indices 1 2 3 4 5 6 
#
# 1 120.5712 50.5204 17.2074 -4.8360 2.3742 12.6741
# 2 50.5204 153.6281 44.4992 1.5844 7.3687 19.4162
# 3 17.2074 44.4992 84.4412 -19.1056 -0.5992 5.4260
# 4 -4.8360 1.5844 -19.1056 38.6398 2.1302 -0.4545
# 5 2.3742 7.3687 -0.5992 2.1302 31.4667 1.1965
# 6 12.6741 19.4162 5.4260 -0.4545 1.1965 37.0540
#
#
#
# Elastic Compliance Matrix: (Units=1/GPa)
#
#
# Indices 1 2 3 4 5 6 
#
# 1 0.009794 -0.003012 0.000006 0.001335 -0.000057 -0.001755
# 2 -0.003012 0.009426 -0.004866 -0.003111 -0.001741 -0.003179
# 3 0.000006 -0.004866 0.016249 0.008189 0.000885 0.000240
# 4 0.001335 -0.003111 0.008189 0.030299 -0.001282 0.000388
# 5 -0.000057 -0.001741 0.000885 -0.001282 0.032305 -0.000256
# 6 -0.001755 -0.003179 0.000240 0.000388 -0.000256 0.029231
#
#
# Mechanical properties :
#
#
# Convention : Reuss Voigt Hill
#
# Bulk Modulus (GPa) = 50.69475 64.78827 57.74151
# Shear Modulus (GPa) = 33.41715 37.85967 35.63841
#
# Velocity S-wave (km/s) = 3.93878 4.19242 4.06758
# Velocity P-wave (km/s) = 6.64984 7.31527 6.99048
#
# Compressibility (1/GPa) = 0.01972591
#
# Stress axis : x y z
#
# Youngs Moduli (GPa) = 102.10277 106.08582 61.54142
#
# Poissons Ratio (x) = 0.31949 -0.00034
# Poissons Ratio (y) = 0.30750 0.29944
# Poissons Ratio (z) = -0.00057 0.51619
#
# Static dielectric constant tensor:
#      x y z
#    x 3.864440 0.269080 0.079570 
#    y 0.269080 5.402070 -0.507380 
#    z 0.079570 -0.507380 4.255940 
# 
# 
# High freq. dielectric constant tensor:
#      x y z
#    x 1.836410 0.002290 0.009640 
#    y 0.002290 1.864780 0.004310 
#    z 0.009640 0.004310 1.854910 
# 
# From -- ./inp_files/189469.got.cif
#   From: 2010.06.25/outbox.cif.g09.slc.cpg/sg2_95_cif.got.tgz:189469.got - 2010.06.27 13:26:56.
