data_PCOD8023924
_publ_section_title
;
Structure prediction by ZEFSAII (Michael W. Deem and Ramdas Pophale) SiO2 
 PCOD8023924
Probable space group: P -1
;
_chemical_formula_sum "Si O2"
_cell_formula_units_Z 16
_cell_length_a 7.027624
_cell_length_b 8.419142
_cell_length_c 15.931887
_cell_angle_alpha 120.991374
_cell_angle_beta 71.558540
_cell_angle_gamma 123.908907
_cell_volume 670.076624
_symmetry_space_group_name_H-M "P -1"
_symmetry_group_IT_number 2
_symmetry_cell_setting 'triclinic'
loop_
_space_group_symop_operation_xyz
x,y,z
-x,-y,-z
loop_
_atom_site_type_symbol
_atom_site_label
_atom_site_fract_x
_atom_site_fract_y
_atom_site_fract_z
Si Si1 0.258830 0.239069 0.115079
Si Si2 0.235616 0.078461 0.896797
Si Si3 0.650316 0.288574 0.189220
Si Si4 0.146581 0.258055 0.509317
Si Si5 0.001678 0.762169 0.287282
Si Si6 0.208612 0.982069 0.638061
Si Si7 0.569120 0.266224 0.381991
Si Si8 0.583758 0.292286 0.758992
O O1 0.472719 0.232631 0.124038
O O2 0.259547 0.456334 0.200646
O O3 0.276871 0.236105 0.011164
O O4 0.029877 0.037462 0.126687
O O5 0.391573 0.221400 0.838591
O O6 0.273467 0.888307 0.873451
O O7 0.861811 0.523609 0.206886
O O8 0.536328 0.286956 0.293776
O O9 0.092214 0.210319 0.601425
O O10 0.314616 0.162489 0.431502
O O11 0.274254 0.504682 0.535998
O O12 0.899390 0.153268 0.467450
O O13 0.969008 0.934489 0.282338
O O14 0.267146 0.823148 0.271126
O O15 0.455181 0.204406 0.662032
O O16 0.278976 0.853317 0.659922
#
# Coordination Sequence:
#
# PCOD8023924 Si02
#       8
#     2   2   2   2   2   2   2   2
#     4  11  25  47  73 102 138 178 230 287 350 408
#     4  11  25  46  73 102 138 177 232 287 344 418
#     4  11  22  45  69  99 138 183 222 285 347 402
#     4  10  24  43  63 100 136 181 232 284 337 400
#     4  11  25  43  66  99 145 176 228 285 337 413
#     4  12  23  41  66  96 134 187 226 277 345 394
#     4  10  23  42  67  98 140 176 237 283 330 412
#     4  12  25  44  70 105 140 181 227 284 345 418
#
# _framework density 23.877867999999999
#
# number of rings (size 3 to 8) (size 9 to 14) (size 15 to 20)
#    0.000    1.000    3.750    2.250    1.750    2.000 
#    2.250    0.625    0.000    0.000    0.000    0.000 
#    0.000    0.000    0.000    0.000    0.000    0.000 
#
# Total GULP energy -198255.247996 kJ/mol
# GULP energy per Si atom -12390.953000 kJ/mol
# Density = 2.382352 g / cm^3
# Si number density = 23.877868 Si / 1000 Ang^3
#
#
#
# Elastic Constant Matrix: (Units=GPa)
#
#
# Indices 1 2 3 4 5 6 
#
# 1 140.2239 18.5476 35.1598 8.2883 21.8091 14.5455
# 2 18.5476 58.3333 27.9521 1.1834 9.2829 10.6485
# 3 35.1598 27.9521 80.2668 21.6031 15.4167 20.1335
# 4 8.2883 1.1834 21.6031 32.9181 8.2946 -6.7309
# 5 21.8091 9.2829 15.4167 8.2946 41.3752 9.3839
# 6 14.5455 10.6485 20.1335 -6.7309 9.3839 41.7210
#
#
#
# Elastic Compliance Matrix: (Units=1/GPa)
#
#
# Indices 1 2 3 4 5 6 
#
# 1 0.008467 -0.000742 -0.002784 0.000397 -0.003194 -0.000637
# 2 -0.000742 0.021578 -0.008221 0.005477 -0.002523 0.000170
# 3 -0.002784 -0.008221 0.023908 -0.017109 0.000401 -0.011319
# 4 0.000397 0.005477 -0.017109 0.046620 -0.008050 0.016052
# 5 -0.003194 -0.002523 0.000401 -0.008050 0.029319 -0.006329
# 6 -0.000637 0.000170 -0.011319 0.016052 -0.006329 0.033622
#
#
# Mechanical properties :
#
#
# Convention : Reuss Voigt Hill
#
# Bulk Modulus (GPa) = 32.83191 49.12699 40.97945
# Shear Modulus (GPa) = 25.36002 36.34716 30.85359
#
# Velocity S-wave (km/s) = 3.26248 3.90579 3.59854
# Velocity P-wave (km/s) = 5.28881 6.39993 5.87072
#
# Compressibility (1/GPa) = 0.03045817
#
# Stress axis : x y z
#
# Youngs Moduli (GPa) = 118.10479 46.34433 41.82743
#
# Poissons Ratio (x) = 0.03437 0.11646
# Poissons Ratio (y) = 0.08758 0.34388
# Poissons Ratio (z) = 0.32883 0.38101
#
# Static dielectric constant tensor:
#      x y z
#    x 4.401500 0.084440 0.095980 
#    y 0.084440 4.247150 0.517840 
#    z 0.095980 0.517840 4.327040 
# 
# 
# High freq. dielectric constant tensor:
#      x y z
#    x 1.960750 0.003940 0.008320 
#    y 0.003940 1.941420 0.041460 
#    z 0.008320 0.041460 1.944150 
# 
# From -- ./inp_files/340094.got.cif
#   From: 2010.06.25/outbox.cif.g09.slc.cpg/sg2_171_cif.got.tgz:340094.got - 2010.06.27 13:26:56.
