data_PCOD8023258
_publ_section_title
;
Structure prediction by ZEFSAII (Michael W. Deem and Ramdas Pophale) SiO2 
 PCOD8023258
Probable space group: P -1
;
_chemical_formula_sum "Si O2"
_cell_formula_units_Z 12
_cell_length_a 11.017199
_cell_length_b 10.826260
_cell_length_c 10.276821
_cell_angle_alpha 42.691990
_cell_angle_beta 35.327474
_cell_angle_gamma 42.163395
_cell_volume 448.184808
_symmetry_space_group_name_H-M "P -1"
_symmetry_group_IT_number 2
_symmetry_cell_setting 'triclinic'
loop_
_space_group_symop_operation_xyz
x,y,z
-x,-y,-z
loop_
_atom_site_type_symbol
_atom_site_label
_atom_site_fract_x
_atom_site_fract_y
_atom_site_fract_z
Si Si1 0.152733 0.626458 0.290005
Si Si2 0.981003 0.848771 0.520395
Si Si3 0.571326 0.275498 0.223666
Si Si4 0.535369 0.989201 0.679472
Si Si5 0.251715 0.529583 0.730274
Si Si6 0.880207 0.817132 0.941427
O O1 0.039662 0.801563 0.353062
O O2 0.397296 0.493513 0.236908
O O3 0.000000 0.500000 0.500000
O O4 0.194881 0.718847 0.044298
O O5 0.093111 0.653187 0.656256
O O6 0.706345 0.921537 0.704870
O O7 0.088043 0.023644 0.314831
O O8 0.612160 0.149804 0.415799
O O9 0.445144 0.187867 0.295342
O O10 0.271107 0.081715 0.882114
O O11 0.500000 0.500000 0.500000
O O12 0.242260 0.315363 0.918923
O O13 0.141145 0.660131 0.856999
#
# Coordination Sequence:
#
# PCOD8023258 Si02
#       6
#     2   2   2   2   2   2
#     4  11  22  42  66 102 144 192 235 283 345 420
#     4  12  25  43  72 106 138 187 236 290 354 420
#     4  10  23  41  63  99 145 187 235 281 338 416
#     4  11  23  42  67 102 141 185 236 283 346 423
#     4  11  27  49  72 102 139 180 241 301 358 420
#     4  11  25  47  71 104 136 186 235 296 359 416
#
# _framework density 26.774668999999999
#
# number of rings (size 3 to 8) (size 9 to 14) (size 15 to 20)
#    0.000    1.000    3.333    2.500    0.000    7.333 
#    0.000    0.000    0.000    0.000    0.000    0.000 
#    0.000    0.000    0.000    0.000    0.000    0.000 
#
# Total GULP energy -148682.999531 kJ/mol
# GULP energy per Si atom -12390.249961 kJ/mol
# Density = 2.671373 g / cm^3
# Si number density = 26.774669 Si / 1000 Ang^3
#
#
#
# Elastic Constant Matrix: (Units=GPa)
#
#
# Indices 1 2 3 4 5 6 
#
# 1 55.4906 13.9721 24.6427 3.0456 -6.1915 -16.4339
# 2 13.9721 105.9802 34.9957 23.6301 -2.7722 -4.9643
# 3 24.6427 34.9957 202.7884 1.1921 -2.9658 -10.1532
# 4 3.0456 23.6301 1.1921 65.5691 -2.2132 -4.2302
# 5 -6.1915 -2.7722 -2.9658 -2.2132 41.4801 -0.5266
# 6 -16.4339 -4.9643 -10.1532 -4.2302 -0.5266 31.5981
#
#
#
# Elastic Compliance Matrix: (Units=1/GPa)
#
#
# Indices 1 2 3 4 5 6 
#
# 1 0.022984 -0.001915 -0.001857 0.000490 0.003338 0.011177
# 2 -0.001915 0.011098 -0.001673 -0.003896 0.000124 -0.000310
# 3 -0.001857 -0.001673 0.005473 0.000631 0.000044 0.000615
# 4 0.000490 -0.003896 0.000631 0.016783 0.000780 0.002105
# 5 0.003338 0.000124 0.000044 0.000780 0.024688 0.002286
# 6 0.011177 -0.000310 0.000615 0.002105 0.002286 0.037930
#
#
# Mechanical properties :
#
#
# Convention : Reuss Voigt Hill
#
# Bulk Modulus (GPa) = 34.88657 56.83112 45.85885
# Shear Modulus (GPa) = 35.86742 47.10604 41.48673
#
# Velocity S-wave (km/s) = 3.66403 4.19901 3.94061
# Velocity P-wave (km/s) = 5.56400 6.69184 6.15381
#
# Compressibility (1/GPa) = 0.02866432
#
# Stress axis : x y z
#
# Youngs Moduli (GPa) = 43.50899 90.10470 182.70205
#
# Poissons Ratio (x) = 0.17258 0.33925
# Poissons Ratio (y) = 0.08334 0.30571
# Poissons Ratio (z) = 0.08079 0.15077
#
# Static dielectric constant tensor:
#      x y z
#    x 4.520540 0.384860 0.160080 
#    y 0.384860 5.586850 0.276870 
#    z 0.160080 0.276870 5.397170 
# 
# 
# High freq. dielectric constant tensor:
#      x y z
#    x 2.037290 0.020320 0.001150 
#    y 0.020320 2.099550 0.005030 
#    z 0.001150 0.005030 2.112650 
# 
# From -- ./inp_files/89420.got.cif
#   From: 2010.06.25/outbox.cif.g09.slc.cpg/sg2_45_cif.got.tgz:89420.got - 2010.06.27 13:26:56.
