data_PCOD8023263
_publ_section_title
;
Structure prediction by ZEFSAII (Michael W. Deem and Ramdas Pophale) SiO2 
 PCOD8023263
Probable space group: P -1
;
_chemical_formula_sum "Si O2"
_cell_formula_units_Z 14
_cell_length_a 14.997283
_cell_length_b 5.153918
_cell_length_c 23.380581
_cell_angle_alpha 112.734300
_cell_angle_beta 158.906084
_cell_angle_gamma 68.485006
_cell_volume 599.769847
_symmetry_space_group_name_H-M "P -1"
_symmetry_group_IT_number 2
_symmetry_cell_setting 'triclinic'
loop_
_space_group_symop_operation_xyz
x,y,z
-x,-y,-z
loop_
_atom_site_type_symbol
_atom_site_label
_atom_site_fract_x
_atom_site_fract_y
_atom_site_fract_z
Si Si1 0.259118 0.353853 0.913110
Si Si2 0.388503 0.945571 0.339423
Si Si3 0.835080 0.236447 0.393101
Si Si4 0.447894 0.131059 0.894063
Si Si5 0.389791 0.529221 0.212862
Si Si6 0.076108 0.276364 0.100938
Si Si7 0.728604 0.305696 0.637363
O O1 0.275478 0.302116 0.850346
O O2 0.979760 0.418690 0.770469
O O3 0.422299 0.632812 0.048451
O O4 0.342168 0.062994 0.967624
O O5 0.465684 0.828382 0.312321
O O6 0.240645 0.741038 0.278807
O O7 0.195083 0.210591 0.230085
O O8 0.643979 0.015929 0.531025
O O9 0.620122 0.340818 0.315640
O O10 0.000000 0.500000 0.500000
O O11 0.721790 0.089913 0.258101
O O12 0.000000 0.000000 0.500000
O O13 0.278917 0.407707 0.193637
O O14 0.187480 0.545039 0.041131
O O15 0.000000 0.000000 0.000000
O O16 0.500000 0.500000 0.500000
#
# Coordination Sequence:
#
# PCOD8023263 Si02
#       7
#     2   2   2   2   2   2   2
#     4  10  24  47  76  99 140 185 239 300 346 417
#     4  10  23  41  64 105 141 184 235 289 370 425
#     4  12  29  47  73 110 144 189 238 299 362 435
#     4  10  24  49  73 104 132 189 244 289 353 417
#     4  10  23  44  68 101 138 189 230 294 362 431
#     4   9  20  41  68  96 134 184 231 282 354 427
#     4  11  25  41  66 107 139 184 234 297 361 421
#
# _framework density 23.342288
#
# number of rings (size 3 to 8) (size 9 to 14) (size 15 to 20)
#    0.000    1.714    0.000    1.714   10.000    5.714 
#    2.571    0.000    0.000    0.000    0.000    0.000 
#    0.000    0.000    0.000    0.000    0.000    0.000 
#
# Total GULP energy -173466.881751 kJ/mol
# GULP energy per Si atom -12390.491554 kJ/mol
# Density = 2.328916 g / cm^3
# Si number density = 23.342288 Si / 1000 Ang^3
#
#
#
# Elastic Constant Matrix: (Units=GPa)
#
#
# Indices 1 2 3 4 5 6 
#
# 1 87.0478 45.8133 76.9976 -15.2894 -5.5562 -7.4270
# 2 45.8133 110.0298 49.4475 -13.6272 13.0926 8.9237
# 3 76.9976 49.4475 142.6474 -8.1284 4.8144 -11.7251
# 4 -15.2894 -13.6272 -8.1284 52.7451 -4.2782 -7.3693
# 5 -5.5562 13.0926 4.8144 -4.2782 43.4472 -3.5061
# 6 -7.4270 8.9237 -11.7251 -7.3693 -3.5061 42.1925
#
#
#
# Elastic Compliance Matrix: (Units=1/GPa)
#
#
# Indices 1 2 3 4 5 6 
#
# 1 0.027639 -0.006620 -0.012192 0.005687 0.007805 0.004519
# 2 -0.006620 0.013453 -0.001292 0.000280 -0.005113 -0.004746
# 3 -0.012192 -0.001292 0.014162 -0.001697 -0.002782 0.001535
# 4 0.005687 0.000280 -0.001697 0.021309 0.003290 0.004466
# 5 0.007805 -0.005113 -0.002782 0.003290 0.026548 0.004463
# 6 0.004519 -0.004746 0.001535 0.004466 0.004463 0.027077
#
#
# Mechanical properties :
#
#
# Convention : Reuss Voigt Hill
#
# Bulk Modulus (GPa) = 66.45683 76.02686 71.24185
# Shear Modulus (GPa) = 28.50419 38.84139 33.67279
#
# Velocity S-wave (km/s) = 3.49827 4.08363 3.80223
# Velocity P-wave (km/s) = 6.69698 7.40783 7.06135
#
# Compressibility (1/GPa) = 0.01504736
#
# Stress axis : x y z
#
# Youngs Moduli (GPa) = 36.18054 74.33146 70.60902
#
# Poissons Ratio (x) = 0.49207 0.86087
# Poissons Ratio (y) = 0.23951 0.09121
# Poissons Ratio (z) = 0.44112 0.09602
#
# Static dielectric constant tensor:
#      x y z
#    x 4.105140 0.069700 -0.322020 
#    y 0.069700 4.671510 0.303620 
#    z -0.322020 0.303620 4.881210 
# 
# 
# High freq. dielectric constant tensor:
#      x y z
#    x 1.912150 -0.002160 -0.015350 
#    y -0.002160 1.954160 0.014760 
#    z -0.015350 0.014760 1.923920 
# 
# From -- ./inp_files/611197.got.cif
#   From: 2010.06.25/outbox.cif.g09.slc.cpg/sg2_306_cif.got.tgz:611197.got - 2010.06.27 13:26:56.
