data_PCOD8023504
_publ_section_title
;
Structure prediction by ZEFSAII (Michael W. Deem and Ramdas Pophale) SiO2 
 PCOD8023504
Probable space group: P -1
;
_chemical_formula_sum "Si O2"
_cell_formula_units_Z 16
_cell_length_a 11.612358
_cell_length_b 11.514134
_cell_length_c 8.906367
_cell_angle_alpha 121.636075
_cell_angle_beta 126.901309
_cell_angle_gamma 90.029713
_cell_volume 718.483611
_symmetry_space_group_name_H-M "P -1"
_symmetry_group_IT_number 2
_symmetry_cell_setting 'triclinic'
loop_
_space_group_symop_operation_xyz
x,y,z
-x,-y,-z
loop_
_atom_site_type_symbol
_atom_site_label
_atom_site_fract_x
_atom_site_fract_y
_atom_site_fract_z
Si Si1 0.511569 0.760841 0.437468
Si Si2 0.291131 0.953650 0.016149
Si Si3 0.495441 0.202079 0.885734
Si Si4 0.241983 0.550239 0.284971
Si Si5 0.998007 0.334978 0.735192
Si Si6 0.020728 0.348254 0.422871
Si Si7 0.651944 0.525852 0.389250
Si Si8 0.828809 0.001269 0.361534
O O1 0.477323 0.802905 0.273987
O O2 0.350448 0.701995 0.374372
O O3 0.549893 0.617805 0.357448
O O4 0.653421 0.912917 0.725736
O O5 0.429126 0.900971 0.048920
O O6 0.139037 0.801756 0.859729
O O7 0.244357 0.019346 0.877071
O O8 0.304624 0.129893 0.727109
O O9 0.581868 0.376752 0.127904
O O10 0.095846 0.562422 0.265304
O O11 0.353815 0.523753 0.475810
O O12 0.157622 0.402423 0.009809
O O13 0.057739 0.325649 0.608657
O O14 0.866475 0.166343 0.571364
O O15 0.165526 0.359617 0.439910
O O16 0.000000 0.500000 0.500000
O O17 0.000000 0.000000 0.500000
#
# Coordination Sequence:
#
# PCOD8023504 Si02
#       8
#     2   2   2   2   2   2   2   2
#     4  12  28  41  68 105 139 174 226 288 342 393
#     4  11  25  46  72  97 139 181 228 279 334 414
#     4  12  25  47  71  97 137 188 230 274 335 415
#     4  11  23  42  67  97 138 177 226 273 344 399
#     4  10  23  41  68  98 130 179 226 280 326 417
#     4  11  21  44  71 100 130 180 231 270 340 406
#     4  12  25  42  71  99 139 180 223 285 338 404
#     4  11  26  43  70  99 137 176 230 278 344 397
#
# _framework density 22.269123
#
# number of rings (size 3 to 8) (size 9 to 14) (size 15 to 20)
#    0.000    0.750    2.500    4.500    7.000    1.500 
#    0.000    0.000    0.000    0.000    0.000    0.000 
#    0.000    0.000    0.000    0.000    0.000    0.000 
#
# Total GULP energy -198459.933763 kJ/mol
# GULP energy per Si atom -12403.745860 kJ/mol
# Density = 2.221844 g / cm^3
# Si number density = 22.269123 Si / 1000 Ang^3
#
#
#
# Elastic Constant Matrix: (Units=GPa)
#
#
# Indices 1 2 3 4 5 6 
#
# 1 92.8415 29.7676 31.4618 -4.4582 12.3821 13.2051
# 2 29.7676 81.4285 43.2198 -3.9228 -4.6314 4.5926
# 3 31.4618 43.2198 166.0998 10.5045 -14.1027 13.0193
# 4 -4.4582 -3.9228 10.5045 39.4908 -0.9397 4.8689
# 5 12.3821 -4.6314 -14.1027 -0.9397 36.6638 7.0399
# 6 13.2051 4.5926 13.0193 4.8689 7.0399 47.1227
#
#
#
# Elastic Compliance Matrix: (Units=1/GPa)
#
#
# Indices 1 2 3 4 5 6 
#
# 1 0.013911 -0.004139 -0.001957 0.001836 -0.005480 -0.002325
# 2 -0.004139 0.015743 -0.003253 0.002015 0.002189 -0.000011
# 3 -0.001957 -0.003253 0.007806 -0.002344 0.003494 -0.001571
# 4 0.001836 0.002015 -0.002344 0.026699 -0.000042 -0.002816
# 5 -0.005480 0.002189 0.003494 -0.000042 0.031582 -0.004357
# 6 -0.002325 -0.000011 -0.001571 -0.002816 -0.004357 0.023250
#
#
# Mechanical properties :
#
#
# Convention : Reuss Voigt Hill
#
# Bulk Modulus (GPa) = 53.30134 61.02978 57.16556
# Shear Modulus (GPa) = 34.73629 40.38350 37.55989
#
# Velocity S-wave (km/s) = 3.95377 4.26306 4.11132
# Velocity P-wave (km/s) = 6.69553 7.19004 6.94718
#
# Compressibility (1/GPa) = 0.01876126
#
# Stress axis : x y z
#
# Youngs Moduli (GPa) = 71.88528 63.52228 128.11179
#
# Poissons Ratio (x) = 0.26290 0.25074
# Poissons Ratio (y) = 0.29751 0.41676
# Poissons Ratio (z) = 0.14070 0.20664
#
# Static dielectric constant tensor:
#      x y z
#    x 4.012470 0.156350 0.093300 
#    y 0.156350 4.220940 0.152230 
#    z 0.093300 0.152230 4.197500 
# 
# 
# High freq. dielectric constant tensor:
#      x y z
#    x 1.871970 0.006150 0.004510 
#    y 0.006150 1.878210 0.005450 
#    z 0.004510 0.005450 1.890750 
# 
# From -- ./inp_files/263214.got.cif
#   From: 2010.06.25/outbox.cif.g09.slc.cpg/sg2_132_cif.got.tgz:263214.got - 2010.06.27 13:26:56.
