data_PCOD8023620
_publ_section_title
;
Structure prediction by ZEFSAII (Michael W. Deem and Ramdas Pophale) SiO2 
 PCOD8023620
Probable space group: P -1
;
_chemical_formula_sum "Si O2"
_cell_formula_units_Z 12
_cell_length_a 9.371994
_cell_length_b 14.832767
_cell_length_c 15.346198
_cell_angle_alpha 30.433291
_cell_angle_beta 149.711287
_cell_angle_gamma 141.781941
_cell_volume 537.895038
_symmetry_space_group_name_H-M "P -1"
_symmetry_group_IT_number 2
_symmetry_cell_setting 'triclinic'
loop_
_space_group_symop_operation_xyz
x,y,z
-x,-y,-z
loop_
_atom_site_type_symbol
_atom_site_label
_atom_site_fract_x
_atom_site_fract_y
_atom_site_fract_z
Si Si1 0.419706 0.261538 0.210957
Si Si2 0.334785 0.225605 0.863513
Si Si3 0.276048 0.065175 0.649111
Si Si4 0.570909 0.462360 0.468801
Si Si5 0.937642 0.071516 0.633506
Si Si6 0.807939 0.596525 0.188444
O O1 0.711135 0.199837 0.382823
O O2 0.513299 0.452303 0.149029
O O3 0.239773 0.130131 0.294893
O O4 0.213108 0.264282 0.016729
O O5 0.526491 0.383317 0.774278
O O6 0.174782 0.310494 0.786487
O O7 0.079292 0.112782 0.767740
O O8 0.526656 0.089304 0.120123
O O9 0.437088 0.259455 0.537970
O O10 0.191452 0.094763 0.678927
O O11 0.000000 0.000000 0.500000
O O12 0.500000 0.500000 0.500000
O O13 0.912078 0.493874 0.606224
#
# Coordination Sequence:
#
# PCOD8023620 Si02
#       6
#     2   2   2   2   2   2
#     4  10  23  41  72  95 142 175 227 283 341 399
#     4  12  26  45  73 102 138 185 229 280 348 405
#     4  12  28  46  68 103 142 179 234 284 344 407
#     4  12  26  46  74 101 141 181 228 285 343 410
#     4  11  23  44  67 103 136 181 229 280 343 407
#     4  11  24  45  68 105 134 181 231 278 342 409
#
# _framework density 22.309186
#
# number of rings (size 3 to 8) (size 9 to 14) (size 15 to 20)
#    0.000    0.667    3.333    3.000    4.667    6.000 
#    0.000    0.000    0.000    0.000    0.000    0.000 
#    0.000    0.000    0.000    0.000    0.000    0.000 
#
# Total GULP energy -148813.900776 kJ/mol
# GULP energy per Si atom -12401.158398 kJ/mol
# Density = 2.225841 g / cm^3
# Si number density = 22.309186 Si / 1000 Ang^3
#
#
#
# Elastic Constant Matrix: (Units=GPa)
#
#
# Indices 1 2 3 4 5 6 
#
# 1 78.0318 27.8174 1.3814 0.8853 9.9333 -10.2386
# 2 27.8174 126.2621 34.4511 -10.6229 -15.2301 6.5037
# 3 1.3814 34.4511 103.7617 -7.8332 -1.2151 -1.2872
# 4 0.8853 -10.6229 -7.8332 40.1649 0.1343 -11.9139
# 5 9.9333 -15.2301 -1.2151 0.1343 24.0127 1.2424
# 6 -10.2386 6.5037 -1.2872 -11.9139 1.2424 37.2844
#
#
#
# Elastic Compliance Matrix: (Units=1/GPa)
#
#
# Indices 1 2 3 4 5 6 
#
# 1 0.017088 -0.005850 0.001685 0.000290 -0.011018 0.006231
# 2 -0.005850 0.011691 -0.003628 0.001397 0.009832 -0.003652
# 3 0.001685 -0.003628 0.010950 0.001778 -0.002564 0.002127
# 4 0.000290 0.001397 0.001778 0.028252 0.000237 0.008917
# 5 -0.011018 0.009832 -0.002564 0.000237 0.052644 -0.006508
# 6 0.006231 -0.003652 0.002127 0.008917 -0.006508 0.032309
#
#
# Mechanical properties :
#
#
# Convention : Reuss Voigt Hill
#
# Bulk Modulus (GPa) = 41.42172 48.37282 44.89727
# Shear Modulus (GPa) = 28.31791 36.58610 32.45200
#
# Velocity S-wave (km/s) = 3.56664 4.05403 3.81812
# Velocity P-wave (km/s) = 5.96395 6.60633 6.29334
#
# Compressibility (1/GPa) = 0.02414193
#
# Stress axis : x y z
#
# Youngs Moduli (GPa) = 58.52159 85.53925 91.32129
#
# Poissons Ratio (x) = 0.50040 -0.15388
# Poissons Ratio (y) = 0.34235 0.33134
# Poissons Ratio (z) = -0.09861 0.31037
#
# Static dielectric constant tensor:
#      x y z
#    x 3.860270 0.125470 -0.083040 
#    y 0.125470 4.178230 -0.208010 
#    z -0.083040 -0.208010 4.207650 
# 
# 
# High freq. dielectric constant tensor:
#      x y z
#    x 1.867310 0.002540 -0.006750 
#    y 0.002540 1.893230 -0.011290 
#    z -0.006750 -0.011290 1.887990 
# 
# From -- ./inp_files/145101.got.cif
#   From: 2010.06.25/outbox.cif.g09.slc.cpg/sg2_73_cif.got.tgz:145101.got - 2010.06.27 13:26:56.
