data_PCOD8023831
_publ_section_title
;
Structure prediction by ZEFSAII (Michael W. Deem and Ramdas Pophale) SiO2 
 PCOD8023831
Probable space group: P -1
;
_chemical_formula_sum "Si O2"
_cell_formula_units_Z 14
_cell_length_a 14.093732
_cell_length_b 14.335227
_cell_length_c 8.877239
_cell_angle_alpha 75.291206
_cell_angle_beta 147.336755
_cell_angle_gamma 129.000747
_cell_volume 566.578221
_symmetry_space_group_name_H-M "P -1"
_symmetry_group_IT_number 2
_symmetry_cell_setting 'triclinic'
loop_
_space_group_symop_operation_xyz
x,y,z
-x,-y,-z
loop_
_atom_site_type_symbol
_atom_site_label
_atom_site_fract_x
_atom_site_fract_y
_atom_site_fract_z
Si Si1 0.750874 0.667147 0.349272
Si Si2 0.522736 0.748890 0.888723
Si Si3 0.202253 0.343103 0.245146
Si Si4 0.948753 0.389142 0.278842
Si Si5 0.297033 0.733356 0.297486
Si Si6 0.154915 0.971166 0.257781
Si Si7 0.444357 0.089071 0.894961
O O1 0.708771 0.665301 0.472487
O O2 0.022854 0.714713 0.674257
O O3 0.500000 0.500000 0.000000
O O4 0.781179 0.784532 0.257608
O O5 0.467202 0.739067 0.640798
O O6 0.230672 0.569611 0.639569
O O7 0.614876 0.893172 0.024235
O O8 0.500000 0.500000 0.500000
O O9 0.968528 0.327103 0.953451
O O10 0.056416 0.206815 0.991351
O O11 0.838578 0.388739 0.972679
O O12 0.704190 0.277816 0.124137
O O13 0.539394 0.908708 0.472054
O O14 0.187411 0.991331 0.473285
O O15 0.000000 0.000000 0.000000
O O16 0.500000 0.000000 0.000000
#
# Coordination Sequence:
#
# PCOD8023831 Si02
#       7
#     2   2   2   2   2   2   2
#     4   9  21  39  61  93 124 157 206 268 314 363
#     4  11  21  38  66  96 123 165 214 266 316 372
#     4  11  24  44  68  92 125 173 216 256 315 386
#     4   9  21  41  63  88 128 168 212 259 315 382
#     4  10  23  42  66  95 129 168 210 261 322 382
#     4  11  25  44  64  92 131 170 211 260 318 383
#     4  11  24  40  60  92 129 169 210 262 319 376
#
# _framework density 24.709735999999999
#
# number of rings (size 3 to 8) (size 9 to 14) (size 15 to 20)
#    0.000    1.714    0.000    3.000    0.000   14.857 
#    0.000    2.143    0.000    0.000    0.000    0.000 
#    0.000    0.000    0.000    0.000    0.000    0.000 
#
# Total GULP energy -173432.718548 kJ/mol
# GULP energy per Si atom -12388.051325 kJ/mol
# Density = 2.465350 g / cm^3
# Si number density = 24.709736 Si / 1000 Ang^3
#
#
#
# Elastic Constant Matrix: (Units=GPa)
#
#
# Indices 1 2 3 4 5 6 
#
# 1 76.9190 29.7986 35.9991 1.2241 -16.4196 -7.6086
# 2 29.7986 82.7887 42.8074 -5.8444 -12.0997 -16.7455
# 3 35.9991 42.8074 123.4838 -13.6320 -20.3519 2.5507
# 4 1.2241 -5.8444 -13.6320 63.3340 5.8676 -3.1506
# 5 -16.4196 -12.0997 -20.3519 5.8676 39.4093 3.4368
# 6 -7.6086 -16.7455 2.5507 -3.1506 3.4368 40.2644
#
#
#
# Elastic Compliance Matrix: (Units=1/GPa)
#
#
# Indices 1 2 3 4 5 6 
#
# 1 0.017024 -0.003679 -0.003168 -0.001695 0.004460 0.001374
# 2 -0.003679 0.017507 -0.004948 0.000915 0.000547 0.006924
# 3 -0.003168 -0.004948 0.011511 0.001613 0.003173 -0.003530
# 4 -0.001695 0.000915 0.001613 0.016527 -0.002178 0.001437
# 5 0.004460 0.000547 0.003173 -0.002178 0.029523 -0.001821
# 6 0.001374 0.006924 -0.003530 0.001437 -0.001821 0.028467
#
#
# Mechanical properties :
#
#
# Convention : Reuss Voigt Hill
#
# Bulk Modulus (GPa) = 44.54223 55.60019 50.07121
# Shear Modulus (GPa) = 32.97449 40.24063 36.60756
#
# Velocity S-wave (km/s) = 3.65701 4.03989 3.85321
# Velocity P-wave (km/s) = 5.99140 6.65666 6.33277
#
# Compressibility (1/GPa) = 0.02245060
#
# Stress axis : x y z
#
# Youngs Moduli (GPa) = 58.74204 57.12035 86.87271
#
# Poissons Ratio (x) = 0.21017 0.27520
# Poissons Ratio (y) = 0.21613 0.42987
# Poissons Ratio (z) = 0.18609 0.28265
#
# Static dielectric constant tensor:
#      x y z
#    x 4.353270 -0.183200 0.133160 
#    y -0.183200 3.493140 -0.278220 
#    z 0.133160 -0.278220 5.037140 
# 
# 
# High freq. dielectric constant tensor:
#      x y z
#    x 1.974860 -0.000140 -0.014810 
#    y -0.000140 1.974380 0.001060 
#    z -0.014810 0.001060 2.003370 
# 
# From -- ./inp_files/306397.got.cif
#   From: 2010.06.25/outbox.cif.g09.slc.cpg/sg2_154_cif.got.tgz:306397.got - 2010.06.27 13:26:56.
