data_PCOD8023118
_publ_section_title
;
Structure prediction by ZEFSAII (Michael W. Deem and Ramdas Pophale) SiO2 
 PCOD8023118
Probable space group: P -1
;
_chemical_formula_sum "Si O2"
_cell_formula_units_Z 16
_cell_length_a 20.277340
_cell_length_b 8.974914
_cell_length_c 19.013336
_cell_angle_alpha 42.172193
_cell_angle_beta 21.721185
_cell_angle_gamma 55.676793
_cell_volume 743.720452
_symmetry_space_group_name_H-M "P -1"
_symmetry_group_IT_number 2
_symmetry_cell_setting 'triclinic'
loop_
_space_group_symop_operation_xyz
x,y,z
-x,-y,-z
loop_
_atom_site_type_symbol
_atom_site_label
_atom_site_fract_x
_atom_site_fract_y
_atom_site_fract_z
Si Si1 0.019949 0.439116 0.707976
Si Si2 0.698091 0.622819 0.309970
Si Si3 0.755149 0.016012 0.638308
Si Si4 0.320588 0.887637 0.464421
Si Si5 0.711351 0.012967 0.267883
Si Si6 0.069062 0.329567 0.412514
Si Si7 0.135210 0.035277 0.717701
Si Si8 0.669775 0.221145 0.910478
O O1 0.905071 0.466698 0.744049
O O2 0.176425 0.723656 0.479580
O O3 0.162259 0.317966 0.587971
O O4 0.850182 0.262563 0.995400
O O5 0.500000 0.500000 0.500000
O O6 0.754606 0.409484 0.350154
O O7 0.655753 0.750394 0.374813
O O8 0.901655 0.837408 0.993042
O O9 0.815821 0.082277 0.472359
O O10 0.866532 0.870240 0.610925
O O11 0.506317 0.829538 0.955055
O O12 0.298444 0.013943 0.513702
O O13 0.561040 0.033955 0.150896
O O14 0.500000 0.000000 0.500000
O O15 0.837437 0.032098 0.206202
O O16 0.216017 0.485109 0.278274
O O17 0.834277 0.163225 0.730619
#
# Coordination Sequence:
#
# PCOD8023118 Si02
#       8
#     2   2   2   2   2   2   2   2
#     4  11  25  43  66  96 135 170 220 271 341 393
#     4  11  23  40  67  98 135 172 229 271 323 405
#     4  10  23  44  67  97 136 170 224 276 328 403
#     4  10  23  40  68  96 129 177 220 269 332 391
#     4  11  25  44  64  98 136 177 218 274 332 401
#     4  11  23  43  70  98 131 173 222 282 333 396
#     4  11  24  42  69  94 136 180 215 275 336 392
#     4   9  25  41  68  96 134 165 232 268 335 391
#
# _framework density 21.513459000000001
#
# number of rings (size 3 to 8) (size 9 to 14) (size 15 to 20)
#    0.750    0.750    0.000    4.875    8.750    2.500 
#    0.000    0.000    0.000    0.000    0.000    0.000 
#    0.000    0.000    0.000    0.000    0.000    0.000 
#
# Total GULP energy -198350.825420 kJ/mol
# GULP energy per Si atom -12396.926589 kJ/mol
# Density = 2.146449 g / cm^3
# Si number density = 21.513459 Si / 1000 Ang^3
#
#
#
# Elastic Constant Matrix: (Units=GPa)
#
#
# Indices 1 2 3 4 5 6 
#
# 1 90.2152 42.2374 42.1584 -2.6107 -8.3364 -3.9136
# 2 42.2374 172.8454 66.7439 -3.0679 0.0375 -5.5433
# 3 42.1584 66.7439 112.9495 8.9933 -10.4539 4.7029
# 4 -2.6107 -3.0679 8.9933 26.7532 1.9986 0.4568
# 5 -8.3364 0.0375 -10.4539 1.9986 33.2919 -0.9346
# 6 -3.9136 -5.5433 4.7029 0.4568 -0.9346 34.5717
#
#
#
# Elastic Compliance Matrix: (Units=1/GPa)
#
#
# Indices 1 2 3 4 5 6 
#
# 1 0.014291 -0.001673 -0.004433 0.002503 0.002094 0.001976
# 2 -0.001673 0.008059 -0.004581 0.002420 -0.001966 0.001641
# 3 -0.004433 -0.004581 0.014146 -0.005932 0.003609 -0.002985
# 4 0.002503 0.002420 -0.005932 0.040151 -0.003625 0.000850
# 5 0.002094 -0.001966 0.003609 -0.003625 0.031924 0.000342
# 6 0.001976 0.001641 -0.002985 0.000850 0.000342 0.029816
#
#
# Mechanical properties :
#
#
# Convention : Reuss Voigt Hill
#
# Bulk Modulus (GPa) = 66.12940 75.36549 70.74745
# Shear Modulus (GPa) = 30.33933 33.91472 32.12702
#
# Velocity S-wave (km/s) = 3.75940 3.97475 3.86857
# Velocity P-wave (km/s) = 7.04624 7.49484 7.27400
#
# Compressibility (1/GPa) = 0.01512187
#
# Stress axis : x y z
#
# Youngs Moduli (GPa) = 69.97282 124.08197 70.69246
#
# Poissons Ratio (x) = 0.20759 0.31341
# Poissons Ratio (y) = 0.11706 0.32383
# Poissons Ratio (z) = 0.31022 0.56839
#
# Static dielectric constant tensor:
#      x y z
#    x 3.869870 0.013420 -0.051470 
#    y 0.013420 3.854490 -0.008380 
#    z -0.051470 -0.008380 3.782550 
# 
# 
# High freq. dielectric constant tensor:
#      x y z
#    x 1.841820 0.003440 -0.006150 
#    y 0.003440 1.849090 -0.002330 
#    z -0.006150 -0.002330 1.841070 
# 
# From -- ./inp_files/601104.got.cif
#   From: 2010.06.25/outbox.cif.g09.slc.cpg/sg2_301_cif.got.tgz:601104.got - 2010.06.27 13:26:56.
