data_PCOD8023880
_publ_section_title
;
Structure prediction by ZEFSAII (Michael W. Deem and Ramdas Pophale) SiO2 
 PCOD8023880
Probable space group: P -1
;
_chemical_formula_sum "Si O2"
_cell_formula_units_Z 16
_cell_length_a 25.391701
_cell_length_b 24.634981
_cell_length_c 13.939198
_cell_angle_alpha 21.001467
_cell_angle_beta 19.705440
_cell_angle_gamma 19.961899
_cell_volume 909.482308
_symmetry_space_group_name_H-M "P -1"
_symmetry_group_IT_number 2
_symmetry_cell_setting 'triclinic'
loop_
_space_group_symop_operation_xyz
x,y,z
-x,-y,-z
loop_
_atom_site_type_symbol
_atom_site_label
_atom_site_fract_x
_atom_site_fract_y
_atom_site_fract_z
Si Si1 0.465589 0.489287 0.307237
Si Si2 0.087086 0.545332 0.915096
Si Si3 0.270763 0.783377 0.016453
Si Si4 0.794912 0.447530 0.916582
Si Si5 0.952333 0.515235 0.709350
Si Si6 0.076140 0.238959 0.339022
Si Si7 0.957098 0.843009 0.151423
Si Si8 0.722813 0.152277 0.313767
O O1 0.276602 0.541057 0.594551
O O2 0.439104 0.623586 0.045076
O O3 0.558169 0.295265 0.423737
O O4 0.589244 0.504893 0.151355
O O5 0.938248 0.699390 0.848904
O O6 0.012099 0.588593 0.080854
O O7 0.121888 0.357014 0.133333
O O8 0.116553 0.734194 0.343367
O O9 0.335111 0.819818 0.744431
O O10 0.198131 0.955192 0.926038
O O11 0.809698 0.488977 0.933615
O O12 0.861136 0.554167 0.557098
O O13 0.928948 0.238254 0.009061
O O14 0.871708 0.723088 0.527823
O O15 0.235463 0.038104 0.407628
O O16 0.098470 0.830696 0.010489
#
# Coordination Sequence:
#
# PCOD8023880 Si02
#       8
#     2   2   2   2   2   2   2   2
#     4  10  21  31  45  75 103 123 156 210 242 272
#     4  10  19  32  50  72 104 128 156 195 241 294
#     4  10  17  29  50  74  96 130 164 196 237 282
#     4   8  18  33  53  75  89 124 169 206 231 280
#     4   9  16  33  58  70  90 130 167 192 243 286
#     4   9  19  31  48  73  99 135 161 185 235 298
#     4   8  15  29  52  72  91 121 166 201 227 284
#     4  10  17  30  49  70 100 130 163 194 233 287
#
# _framework density 17.592426
#
# number of rings (size 3 to 8) (size 9 to 14) (size 15 to 20)
#    0.750    2.000    0.000    3.375    0.000    1.000 
#    2.250    0.625    0.000   12.000    0.000    0.000 
#    0.000    0.000    0.000    0.000    0.000    0.000 
#
# Total GULP energy -198276.622773 kJ/mol
# GULP energy per Si atom -12392.288923 kJ/mol
# Density = 1.755238 g / cm^3
# Si number density = 17.592426 Si / 1000 Ang^3
#
#
#
# Elastic Constant Matrix: (Units=GPa)
#
#
# Indices 1 2 3 4 5 6 
#
# 1 115.0756 23.6068 43.9014 -11.2623 7.0950 -1.1689
# 2 23.6068 54.5846 14.8388 -17.7846 3.8590 -6.9918
# 3 43.9014 14.8388 54.0044 -12.0693 0.6819 -1.0082
# 4 -11.2623 -17.7846 -12.0693 25.2176 -1.5999 1.4563
# 5 7.0950 3.8590 0.6819 -1.5999 30.8129 -1.2206
# 6 -1.1689 -6.9918 -1.0082 1.4563 -1.2206 13.1301
#
#
#
# Elastic Compliance Matrix: (Units=1/GPa)
#
#
# Indices 1 2 3 4 5 6 
#
# 1 0.013276 -0.003468 -0.010161 -0.001453 -0.002533 -0.001520
# 2 -0.003468 0.026975 -0.000693 0.016368 -0.001236 0.012072
# 3 -0.010161 -0.000693 0.028944 0.008960 0.002258 0.000165
# 4 -0.001453 0.016368 0.008960 0.054714 0.001058 0.003304
# 5 -0.002533 -0.001236 0.002258 0.001058 0.033287 0.002267
# 6 -0.001520 0.012072 0.000165 0.003304 0.002267 0.082311
#
#
# Mechanical properties :
#
#
# Convention : Reuss Voigt Hill
#
# Bulk Modulus (GPa) = 24.66040 43.15095 33.90567
# Shear Modulus (GPa) = 17.75127 23.25328 20.50228
#
# Velocity S-wave (km/s) = 3.17997 3.63957 3.41750
# Velocity P-wave (km/s) = 5.24700 6.49949 5.90654
#
# Compressibility (1/GPa) = 0.04055084
#
# Stress axis : x y z
#
# Youngs Moduli (GPa) = 75.32183 37.07090 34.54899
#
# Poissons Ratio (x) = 0.12858 0.35104
# Poissons Ratio (y) = 0.26125 0.02396
# Poissons Ratio (z) = 0.76532 0.02571
#
# Static dielectric constant tensor:
#      x y z
#    x 3.167090 -0.020040 -0.060960 
#    y -0.020040 3.083140 -0.193610 
#    z -0.060960 -0.193610 3.152610 
# 
# 
# High freq. dielectric constant tensor:
#      x y z
#    x 1.671620 0.000910 -0.006990 
#    y 0.000910 1.653750 -0.012950 
#    z -0.006990 -0.012950 1.665630 
# 
# From -- ./inp_files/305033.got.cif
#   From: 2010.06.25/outbox.cif.g09.slc.cpg/sg2_153_cif.got.tgz:305033.got - 2010.06.27 13:26:56.
