data_PCOD8023513
_publ_section_title
;
Structure prediction by ZEFSAII (Michael W. Deem and Ramdas Pophale) SiO2 
 PCOD8023513
Probable space group: P -1
;
_chemical_formula_sum "Si O2"
_cell_formula_units_Z 14
_cell_length_a 12.348526
_cell_length_b 9.083831
_cell_length_c 19.711802
_cell_angle_alpha 134.609067
_cell_angle_beta 150.637264
_cell_angle_gamma 36.226140
_cell_volume 640.725144
_symmetry_space_group_name_H-M "P -1"
_symmetry_group_IT_number 2
_symmetry_cell_setting 'triclinic'
loop_
_space_group_symop_operation_xyz
x,y,z
-x,-y,-z
loop_
_atom_site_type_symbol
_atom_site_label
_atom_site_fract_x
_atom_site_fract_y
_atom_site_fract_z
Si Si1 0.439879 0.608138 0.927376
Si Si2 0.415473 0.368865 0.562550
Si Si3 0.861496 0.587405 0.379722
Si Si4 0.978798 0.770956 0.900003
Si Si5 0.429397 0.999175 0.353970
Si Si6 0.730496 0.596327 0.808321
Si Si7 0.287197 0.125558 0.984211
O O1 0.257198 0.560958 0.764515
O O2 0.288921 0.902687 0.949292
O O3 0.500000 0.500000 0.000000
O O4 0.732782 0.483558 0.013184
O O5 0.541540 0.223067 0.655697
O O6 0.499845 0.556311 0.649146
O O7 0.093484 0.543411 0.442112
O O8 0.521393 0.153361 0.494456
O O9 0.618700 0.874557 0.350418
O O10 0.000000 0.500000 0.500000
O O11 0.767137 0.766758 0.831767
O O12 0.870708 0.811940 0.776661
O O13 0.000000 0.000000 0.000000
O O14 0.992445 0.318521 0.859437
O O15 0.646525 0.728594 0.878678
O O16 0.500000 0.000000 0.000000
#
# Coordination Sequence:
#
# PCOD8023513 Si02
#       7
#     2   2   2   2   2   2   2
#     4  12  25  43  74 105 140 178 236 290 346 412
#     4  10  24  43  68  99 133 183 232 274 347 417
#     4  10  23  41  69 100 132 184 229 279 334 416
#     4  12  24  44  70 102 140 176 230 293 350 401
#     4  10  23  42  70  97 135 183 228 281 340 418
#     4  11  27  43  68 102 140 181 226 292 346 411
#     4  11  26  44  66 102 139 181 228 282 351 410
#
# _framework density 21.850242000000001
#
# number of rings (size 3 to 8) (size 9 to 14) (size 15 to 20)
#    0.000    1.143    2.857    1.714   16.000    0.571 
#    0.000    0.714    0.000    0.000    0.000    0.000 
#    0.000    0.000    0.000    0.000    0.000    0.000 
#
# Total GULP energy -173528.795797 kJ/mol
# GULP energy per Si atom -12394.913985 kJ/mol
# Density = 2.180051 g / cm^3
# Si number density = 21.850242 Si / 1000 Ang^3
#
#
#
# Elastic Constant Matrix: (Units=GPa)
#
#
# Indices 1 2 3 4 5 6 
#
# 1 97.4902 44.4009 41.5776 15.7393 13.4564 -2.1386
# 2 44.4009 122.2307 46.7653 12.0735 8.8950 -6.4856
# 3 41.5776 46.7653 140.4690 9.5603 9.2369 6.4207
# 4 15.7393 12.0735 9.5603 35.5872 5.1584 -1.8541
# 5 13.4564 8.8950 9.2369 5.1584 38.0951 2.4618
# 6 -2.1386 -6.4856 6.4207 -1.8541 2.4618 38.1436
#
#
#
# Elastic Compliance Matrix: (Units=1/GPa)
#
#
# Indices 1 2 3 4 5 6 
#
# 1 0.013978 -0.003468 -0.002551 -0.003848 -0.003029 0.000632
# 2 -0.003468 0.010668 -0.002493 -0.001220 -0.000627 0.002020
# 3 -0.002551 -0.002493 0.008859 -0.000444 -0.000472 -0.002049
# 4 -0.003848 -0.001220 -0.000444 0.030766 -0.002499 0.001308
# 5 -0.003029 -0.000627 -0.000472 -0.002499 0.028057 -0.002129
# 6 0.000632 0.002020 -0.002049 0.001308 -0.002129 0.027142
#
#
# Mechanical properties :
#
#
# Convention : Reuss Voigt Hill
#
# Bulk Modulus (GPa) = 60.67318 69.51972 65.09645
# Shear Modulus (GPa) = 35.21472 37.52825 36.37148
#
# Velocity S-wave (km/s) = 4.01888 4.14879 4.08435
# Velocity P-wave (km/s) = 7.02589 7.40510 7.21799
#
# Compressibility (1/GPa) = 0.01648175
#
# Stress axis : x y z
#
# Youngs Moduli (GPa) = 71.54234 93.73713 112.87883
#
# Poissons Ratio (x) = 0.32503 0.28792
# Poissons Ratio (y) = 0.24807 0.28145
# Poissons Ratio (z) = 0.18248 0.23373
#
# Static dielectric constant tensor:
#      x y z
#    x 4.103420 -0.397920 0.157520 
#    y -0.397920 4.347500 -0.256720 
#    z 0.157520 -0.256720 4.098690 
# 
# 
# High freq. dielectric constant tensor:
#      x y z
#    x 1.852350 -0.020200 -0.000220 
#    y -0.020200 1.862490 -0.000490 
#    z -0.000220 -0.000490 1.862250 
# 
# From -- ./inp_files/566972.got.cif
#   From: 2010.06.25/outbox.cif.g09.slc.cpg/sg2_284_cif.got.tgz:566972.got - 2010.06.27 13:26:56.
