data_PCOD8023403
_publ_section_title
;
Structure prediction by ZEFSAII (Michael W. Deem and Ramdas Pophale) SiO2 
 PCOD8023403
Probable space group: P -1
;
_chemical_formula_sum "Si O2"
_cell_formula_units_Z 14
_cell_length_a 21.958048
_cell_length_b 10.036658
_cell_length_c 6.874522
_cell_angle_alpha 130.590074
_cell_angle_beta 50.345023
_cell_angle_gamma 149.010864
_cell_volume 579.708514
_symmetry_space_group_name_H-M "P -1"
_symmetry_group_IT_number 2
_symmetry_cell_setting 'triclinic'
loop_
_space_group_symop_operation_xyz
x,y,z
-x,-y,-z
loop_
_atom_site_type_symbol
_atom_site_label
_atom_site_fract_x
_atom_site_fract_y
_atom_site_fract_z
Si Si1 0.596483 0.528174 0.022585
Si Si2 0.842338 0.908742 0.655771
Si Si3 0.617568 0.308775 0.100093
Si Si4 0.124842 0.723916 0.346278
Si Si5 0.480906 0.218751 0.614221
Si Si6 0.906078 0.621743 0.242456
Si Si7 0.242314 0.721803 0.420877
O O1 0.719826 0.758627 0.869584
O O2 0.505286 0.244139 0.819435
O O3 0.619362 0.491592 0.151312
O O4 0.527410 0.593385 0.251847
O O5 0.847377 0.712236 0.395315
O O6 0.854619 0.049943 0.571954
O O7 0.948755 0.123587 0.799579
O O8 0.602953 0.342226 0.385669
O O9 0.739405 0.409220 0.892206
O O10 0.500000 0.000000 0.000000
O O11 0.223485 0.856888 0.444878
O O12 0.000000 0.500000 0.500000
O O13 0.134227 0.590538 0.033562
O O14 0.358012 0.920334 0.515471
O O15 0.869776 0.500372 0.419953
#
# Coordination Sequence:
#
# PCOD8023403 Si02
#       7
#     2   2   2   2   2   2   2
#     4  11  23  44  68 101 138 184 228 283 355 407
#     4  11  25  47  75 104 144 187 229 291 353 414
#     4  10  23  41  66  97 134 179 232 280 334 412
#     4  12  27  45  72 107 140 187 233 285 354 417
#     4  10  25  42  70  99 137 182 232 288 342 412
#     4  11  25  49  72 105 144 184 234 288 354 420
#     4  11  24  46  71 102 140 183 231 288 350 415
#
# _framework density 24.150068999999998
#
# number of rings (size 3 to 8) (size 9 to 14) (size 15 to 20)
#    0.000    1.143    2.857    1.714    4.000   10.857 
#    0.000    0.000    0.000    0.000    0.000    0.000 
#    0.000    0.000    0.000    0.000    0.000    0.000 
#
# Total GULP energy -173522.919575 kJ/mol
# GULP energy per Si atom -12394.494255 kJ/mol
# Density = 2.409510 g / cm^3
# Si number density = 24.150069 Si / 1000 Ang^3
#
#
#
# Elastic Constant Matrix: (Units=GPa)
#
#
# Indices 1 2 3 4 5 6 
#
# 1 85.6124 18.8716 8.5427 3.6919 -3.3450 -16.9390
# 2 18.8716 68.2850 20.5534 -9.4619 0.4394 -13.9213
# 3 8.5427 20.5534 95.9046 -5.1915 -26.9716 -6.6331
# 4 3.6919 -9.4619 -5.1915 25.8974 3.3260 -4.4163
# 5 -3.3450 0.4394 -26.9716 3.3260 21.2302 -2.9122
# 6 -16.9390 -13.9213 -6.6331 -4.4163 -2.9122 48.3429
#
#
#
# Elastic Compliance Matrix: (Units=1/GPa)
#
#
# Indices 1 2 3 4 5 6 
#
# 1 0.013440 -0.003659 0.000902 -0.002985 0.004324 0.003767
# 2 -0.003659 0.019297 -0.005602 0.008223 -0.008870 0.003723
# 3 0.000902 -0.005602 0.018497 -0.001144 0.024293 0.002600
# 4 -0.002985 0.008223 -0.001144 0.043674 -0.008297 0.004655
# 5 0.004324 -0.008870 0.024293 -0.008297 0.081011 0.006416
# 6 0.003767 0.003723 0.002600 0.004655 0.006416 0.024246
#
#
# Mechanical properties :
#
#
# Convention : Reuss Voigt Hill
#
# Bulk Modulus (GPa) = 28.97131 38.41527 33.69329
# Shear Modulus (GPa) = 21.89244 32.54972 27.22108
#
# Velocity S-wave (km/s) = 3.01411 3.67524 3.36097
# Velocity P-wave (km/s) = 4.91279 5.82677 5.38919
#
# Compressibility (1/GPa) = 0.03451691
#
# Stress axis : x y z
#
# Youngs Moduli (GPa) = 74.40373 51.82026 54.06238
#
# Poissons Ratio (x) = 0.18963 -0.04876
# Poissons Ratio (y) = 0.27227 0.30283
# Poissons Ratio (z) = -0.06711 0.29028
#
# Static dielectric constant tensor:
#      x y z
#    x 4.564030 -0.101170 -0.140800 
#    y -0.101170 4.507780 -0.001060 
#    z -0.140800 -0.001060 4.867670 
# 
# 
# High freq. dielectric constant tensor:
#      x y z
#    x 1.968800 -0.001110 -0.010640 
#    y -0.001110 1.945690 -0.006410 
#    z -0.010640 -0.006410 1.969090 
# 
# From -- ./inp_files/116750.got.cif
#   From: 2010.06.25/outbox.cif.g09.slc.cpg/sg2_59_cif.got.tgz:116750.got - 2010.06.27 13:26:56.
