data_PCOD8023735
_publ_section_title
;
Structure prediction by ZEFSAII (Michael W. Deem and Ramdas Pophale) SiO2 
 PCOD8023735
Probable space group: P -1
;
_chemical_formula_sum "Si O2"
_cell_formula_units_Z 16
_cell_length_a 15.336721
_cell_length_b 14.495552
_cell_length_c 8.712679
_cell_angle_alpha 67.443578
_cell_angle_beta 61.222622
_cell_angle_gamma 27.174693
_cell_volume 770.519053
_symmetry_space_group_name_H-M "P -1"
_symmetry_group_IT_number 2
_symmetry_cell_setting 'triclinic'
loop_
_space_group_symop_operation_xyz
x,y,z
-x,-y,-z
loop_
_atom_site_type_symbol
_atom_site_label
_atom_site_fract_x
_atom_site_fract_y
_atom_site_fract_z
Si Si1 0.953462 0.159698 0.273110
Si Si2 0.775511 0.716081 0.601337
Si Si3 0.809092 0.072756 0.477233
Si Si4 0.560165 0.840807 0.989486
Si Si5 0.904979 0.807122 0.357016
Si Si6 0.346040 0.365669 0.375395
Si Si7 0.717721 0.035167 0.075655
Si Si8 0.626425 0.608374 0.309440
O O1 0.838985 0.157338 0.329980
O O2 0.801729 0.384955 0.236051
O O3 0.021325 0.099301 0.430833
O O4 0.146767 0.999082 0.099703
O O5 0.751215 0.857293 0.524879
O O6 0.635071 0.772693 0.568649
O O7 0.000000 0.500000 0.500000
O O8 0.745491 0.698904 0.807927
O O9 0.587379 0.258999 0.621863
O O10 0.831651 0.975203 0.382594
O O11 0.635791 0.704359 0.149675
O O12 0.500000 0.000000 0.000000
O O13 0.368933 0.961254 0.985347
O O14 0.866442 0.843336 0.184362
O O15 0.140702 0.582434 0.330665
O O16 0.343848 0.399261 0.530898
O O17 0.535902 0.245207 0.195671
#
# Coordination Sequence:
#
# PCOD8023735 Si02
#       8
#     2   2   2   2   2   2   2   2
#     4  11  26  43  69  97 128 176 223 278 330 381
#     4   9  22  39  62  94 129 171 211 255 321 390
#     4  11  23  46  68  95 132 171 226 276 330 389
#     4  11  25  41  66 100 135 172 220 268 322 392
#     4  11  22  43  69  91 136 175 218 265 329 394
#     4  10  23  42  64  98 131 177 212 264 328 394
#     4  11  25  41  67  95 136 172 216 272 323 390
#     4  12  23  44  70  96 134 173 219 272 330 392
#
# _framework density 20.765224
#
# number of rings (size 3 to 8) (size 9 to 14) (size 15 to 20)
#    0.000    1.250    3.750    1.125    7.000    1.500 
#    0.000    3.750    0.000    0.000    0.000    0.000 
#    0.000    0.000    0.000    0.000    0.000    0.000 
#
# Total GULP energy -198352.568225 kJ/mol
# GULP energy per Si atom -12397.035514 kJ/mol
# Density = 2.071796 g / cm^3
# Si number density = 20.765224 Si / 1000 Ang^3
#
#
#
# Elastic Constant Matrix: (Units=GPa)
#
#
# Indices 1 2 3 4 5 6 
#
# 1 71.7118 44.4054 39.1050 5.3148 -6.8367 16.4212
# 2 44.4054 111.4070 46.8817 -2.1261 -6.1798 1.4912
# 3 39.1050 46.8817 131.5779 10.5650 -19.7511 10.1243
# 4 5.3148 -2.1261 10.5650 36.8319 -5.7923 0.1330
# 5 -6.8367 -6.1798 -19.7511 -5.7923 34.9472 -4.4207
# 6 16.4212 1.4912 10.1243 0.1330 -4.4207 33.2596
#
#
#
# Elastic Compliance Matrix: (Units=1/GPa)
#
#
# Indices 1 2 3 4 5 6 
#
# 1 0.022935 -0.007781 -0.003095 -0.002896 -0.000393 -0.010073
# 2 -0.007781 0.013325 -0.002954 0.002747 0.000145 0.004152
# 3 -0.003095 -0.002954 0.010458 -0.002040 0.004326 -0.000940
# 4 -0.002896 0.002747 -0.002040 0.028909 0.003852 0.002324
# 5 -0.000393 0.000145 0.004326 0.003852 0.032041 0.003114
# 6 -0.010073 0.004152 -0.000940 0.002324 0.003114 0.035544
#
#
# Mechanical properties :
#
#
# Convention : Reuss Voigt Hill
#
# Bulk Modulus (GPa) = 52.47108 63.94234 58.20671
# Shear Modulus (GPa) = 28.21287 33.29471 30.75379
#
# Velocity S-wave (km/s) = 3.69000 4.00858 3.85258
# Velocity P-wave (km/s) = 6.59381 7.23082 6.91965
#
# Compressibility (1/GPa) = 0.01905812
#
# Stress axis : x y z
#
# Youngs Moduli (GPa) = 43.60228 75.04466 95.62358
#
# Poissons Ratio (x) = 0.58394 0.29596
# Poissons Ratio (y) = 0.33928 0.28243
# Poissons Ratio (z) = 0.13495 0.22165
#
# Static dielectric constant tensor:
#      x y z
#    x 4.116370 -0.037300 -0.199590 
#    y -0.037300 3.641340 0.527930 
#    z -0.199590 0.527930 2.194490 
# 
# 
# High freq. dielectric constant tensor:
#      x y z
#    x 1.816610 -0.009140 -0.001850 
#    y -0.009140 1.809540 0.007830 
#    z -0.001850 0.007830 1.817170 
# 
# From -- ./inp_files/312948.got.cif
#   From: 2010.06.25/outbox.cif.g09.slc.cpg/sg2_157_cif.got.tgz:312948.got - 2010.06.27 13:26:56.
