data_PCOD8023096
_publ_section_title
;
Structure prediction by ZEFSAII (Michael W. Deem and Ramdas Pophale) SiO2 
 PCOD8023096
Probable space group: P -1
;
_chemical_formula_sum "Si O2"
_cell_formula_units_Z 14
_cell_length_a 10.649955
_cell_length_b 14.058327
_cell_length_c 21.902741
_cell_angle_alpha 19.886768
_cell_angle_beta 148.028924
_cell_angle_gamma 146.260410
_cell_volume 580.122466
_symmetry_space_group_name_H-M "P -1"
_symmetry_group_IT_number 2
_symmetry_cell_setting 'triclinic'
loop_
_space_group_symop_operation_xyz
x,y,z
-x,-y,-z
loop_
_atom_site_type_symbol
_atom_site_label
_atom_site_fract_x
_atom_site_fract_y
_atom_site_fract_z
Si Si1 0.913816 0.410690 0.320109
Si Si2 0.656086 0.772776 0.179778
Si Si3 0.541923 0.087001 0.274103
Si Si4 0.342251 0.427186 0.572911
Si Si5 0.759793 0.538509 0.005124
Si Si6 0.498872 0.329372 0.289807
Si Si7 0.834577 0.231239 0.893202
O O1 0.147316 0.329848 0.498285
O O2 0.003629 0.698832 0.143385
O O3 0.782202 0.154479 0.376217
O O4 0.727525 0.474245 0.255764
O O5 0.784385 0.678041 0.350596
O O6 0.498061 0.483744 0.261296
O O7 0.500000 0.000000 0.000000
O O8 0.832203 0.915375 0.111446
O O9 0.330113 0.213474 0.142399
O O10 0.450169 0.759557 0.419881
O O11 0.603510 0.234715 0.144094
O O12 0.564325 0.272032 0.743830
O O13 0.735603 0.610049 0.880444
O O14 0.040097 0.556923 0.128420
O O15 0.500000 0.000000 0.500000
#
# Coordination Sequence:
#
# PCOD8023096 Si02
#       7
#     2   2   2   2   2   2   2
#     4  10  23  40  68 100 127 177 228 278 332 406
#     4  10  24  43  61  96 140 178 223 274 343 403
#     4   9  20  41  62  97 133 168 228 276 338 399
#     4  11  23  42  66  95 136 187 217 277 340 412
#     4   9  20  39  64  94 130 171 218 290 328 394
#     4  11  24  43  70 102 132 178 234 281 342 408
#     4  10  23  43  63 100 139 172 224 276 347 403
#
# _framework density 24.132833000000002
#
# number of rings (size 3 to 8) (size 9 to 14) (size 15 to 20)
#    0.000    2.000    0.000    3.000    6.000    3.429 
#    5.143    1.429    0.000    0.000    0.000    0.000 
#    0.000    0.000    0.000    0.000    0.000    0.000 
#
# Total GULP energy -173437.173695 kJ/mol
# GULP energy per Si atom -12388.369550 kJ/mol
# Density = 2.407791 g / cm^3
# Si number density = 24.132833 Si / 1000 Ang^3
#
#
#
# Elastic Constant Matrix: (Units=GPa)
#
#
# Indices 1 2 3 4 5 6 
#
# 1 76.4193 29.2320 33.6569 -3.5387 -28.4480 -5.1906
# 2 29.2320 100.1126 47.1409 21.4107 -7.3775 -3.6418
# 3 33.6569 47.1409 97.2637 -3.0295 -36.1057 -8.6122
# 4 -3.5387 21.4107 -3.0295 54.4540 -4.9999 -2.6821
# 5 -28.4480 -7.3775 -36.1057 -4.9999 40.1085 1.1782
# 6 -5.1906 -3.6418 -8.6122 -2.6821 1.1782 29.2997
#
#
#
# Elastic Compliance Matrix: (Units=1/GPa)
#
#
# Indices 1 2 3 4 5 6 
#
# 1 0.021793 -0.007946 0.003463 0.006555 0.017820 0.003775
# 2 -0.007946 0.019255 -0.012608 -0.010284 -0.014635 -0.003073
# 3 0.003463 -0.012608 0.024663 0.008996 0.023278 0.006183
# 4 0.006555 -0.010284 0.008996 0.024812 0.013825 0.004243
# 5 0.017820 -0.014635 0.023278 0.013825 0.057348 0.007139
# 6 0.003775 -0.003073 0.006183 0.004243 0.007139 0.036335
#
#
# Mechanical properties :
#
#
# Convention : Reuss Voigt Hill
#
# Bulk Modulus (GPa) = 31.71625 54.87281 43.29453
# Shear Modulus (GPa) = 21.84381 35.69017 28.76699
#
# Velocity S-wave (km/s) = 3.01183 3.84983 3.45632
# Velocity P-wave (km/s) = 5.02650 6.52294 5.82299
#
# Compressibility (1/GPa) = 0.03152958
#
# Stress axis : x y z
#
# Youngs Moduli (GPa) = 45.88551 51.93556 40.54712
#
# Poissons Ratio (x) = 0.41266 -0.14041
# Poissons Ratio (y) = 0.36459 0.51122
# Poissons Ratio (z) = -0.15890 0.65480
#
# Static dielectric constant tensor:
#      x y z
#    x 4.480270 0.132570 -0.666350 
#    y 0.132570 4.510330 0.254620 
#    z -0.666350 0.254620 4.478680 
# 
# 
# High freq. dielectric constant tensor:
#      x y z
#    x 1.943000 0.000600 -0.039050 
#    y 0.000600 1.960330 0.010770 
#    z -0.039050 0.010770 1.950720 
# 
# From -- ./inp_files/610511.got.cif
#   From: 2010.06.25/outbox.cif.g09.slc.cpg/sg2_306_cif.got.tgz:610511.got - 2010.06.27 13:26:56.
