data_PCOD8023598
_publ_section_title
;
Structure prediction by ZEFSAII (Michael W. Deem and Ramdas Pophale) SiO2 
 PCOD8023598
Probable space group: P -1
;
_chemical_formula_sum "Si O2"
_cell_formula_units_Z 14
_cell_length_a 11.853187
_cell_length_b 14.586058
_cell_length_c 14.586167
_cell_angle_alpha 159.561466
_cell_angle_beta 113.217799
_cell_angle_gamma 56.690704
_cell_volume 670.448766
_symmetry_space_group_name_H-M "P -1"
_symmetry_group_IT_number 2
_symmetry_cell_setting 'triclinic'
loop_
_space_group_symop_operation_xyz
x,y,z
-x,-y,-z
loop_
_atom_site_type_symbol
_atom_site_label
_atom_site_fract_x
_atom_site_fract_y
_atom_site_fract_z
Si Si1 0.104176 0.330621 0.461034
Si Si2 0.822456 0.611551 0.743488
Si Si3 0.306240 0.596154 0.791384
Si Si4 0.812849 0.959759 0.414480
Si Si5 0.469953 0.756090 0.303996
Si Si6 0.851180 0.469620 0.828092
Si Si7 0.649719 0.350603 0.349921
O O1 0.205653 0.459521 0.630968
O O2 0.000000 0.500000 0.500000
O O3 0.997491 0.413314 0.591715
O O4 0.205647 0.957735 0.129183
O O5 0.798841 0.584953 0.817240
O O6 0.746317 0.474068 0.533017
O O7 0.746292 0.974316 0.033265
O O8 0.437966 0.401602 0.722491
O O9 0.383385 0.554536 0.678744
O O10 0.972707 0.744696 0.309465
O O11 0.703000 0.048216 0.545803
O O12 0.783367 0.275836 0.655802
O O13 0.783249 0.777668 0.157548
O O14 0.500000 0.000000 0.500000
O O15 0.500000 0.500000 0.000000
O O16 0.500000 0.500000 0.500000
#
# Coordination Sequence:
#
# PCOD8023598 Si02
#       7
#     2   2   2   2   2   2   2
#     4  12  23  46  67 100 134 173 231 270 334 398
#     4  12  25  41  72  98 134 173 225 275 331 400
#     4  12  26  44  72  96 138 185 216 289 336 396
#     4  10  23  47  64  96 133 169 226 273 332 391
#     4  12  28  47  69 101 136 181 230 275 341 406
#     4  10  23  41  71  95 127 175 217 281 329 382
#     4  12  26  45  65 104 138 175 224 266 340 415
#
# _framework density 20.881536000000001
#
# number of rings (size 3 to 8) (size 9 to 14) (size 15 to 20)
#    0.000    0.571    2.857    4.286    8.000    0.000 
#    0.000    0.000    0.000    0.000    0.000    0.000 
#    0.000    0.000    0.000    0.000    0.000    0.000 
#
# Total GULP energy -173688.117924 kJ/mol
# GULP energy per Si atom -12406.294137 kJ/mol
# Density = 2.083401 g / cm^3
# Si number density = 20.881536 Si / 1000 Ang^3
#
#
#
# Elastic Constant Matrix: (Units=GPa)
#
#
# Indices 1 2 3 4 5 6 
#
# 1 164.7370 34.9585 76.1091 -9.8056 -0.8466 17.6719
# 2 34.9585 126.0833 45.6625 -8.9306 8.6559 19.8596
# 3 76.1091 45.6625 181.0093 -11.8266 15.1226 10.2069
# 4 -9.8056 -8.9306 -11.8266 30.4109 2.2637 0.0487
# 5 -0.8466 8.6559 15.1226 2.2637 52.3723 -4.3592
# 6 17.6719 19.8596 10.2069 0.0487 -4.3592 31.4243
#
#
#
# Elastic Compliance Matrix: (Units=1/GPa)
#
#
# Indices 1 2 3 4 5 6 
#
# 1 0.007997 -0.000619 -0.003028 0.001164 0.000805 -0.003013
# 2 -0.000619 0.009845 -0.001620 0.002199 -0.001730 -0.005591
# 3 -0.003028 -0.001620 0.007478 0.001606 -0.002009 0.000016
# 4 0.001164 0.002199 0.001606 0.034724 -0.002557 -0.002975
# 5 0.000805 -0.001730 -0.002009 -0.002557 0.020427 0.004131
# 6 -0.003013 -0.005591 0.000016 -0.002975 0.004131 0.037622
#
#
# Mechanical properties :
#
#
# Convention : Reuss Voigt Hill
#
# Bulk Modulus (GPa) = 67.62732 87.25442 77.44087
# Shear Modulus (GPa) = 37.43779 43.84814 40.64296
#
# Velocity S-wave (km/s) = 4.23882 4.58739 4.41654
# Velocity P-wave (km/s) = 7.51088 8.36271 7.94821
#
# Compressibility (1/GPa) = 0.01478692
#
# Stress axis : x y z
#
# Youngs Moduli (GPa) = 125.04602 101.57810 133.72520
#
# Poissons Ratio (x) = 0.06288 0.40487
# Poissons Ratio (y) = 0.07741 0.21660
# Poissons Ratio (z) = 0.37859 0.16453
#
# Static dielectric constant tensor:
#      x y z
#    x 4.082230 0.038680 -0.027090 
#    y 0.038680 3.896050 -0.027420 
#    z -0.027090 -0.027420 4.035240 
# 
# 
# High freq. dielectric constant tensor:
#      x y z
#    x 1.834460 0.006010 0.004730 
#    y 0.006010 1.824010 -0.004190 
#    z 0.004730 -0.004190 1.840620 
# 
# From -- ./inp_files/488119.got.cif
#   From: 2010.06.25/outbox.cif.g09.slc.cpg/sg2_245_cif.got.tgz:488119.got - 2010.06.27 13:26:56.
