data_PCOD8023768
_publ_section_title
;
Structure prediction by ZEFSAII (Michael W. Deem and Ramdas Pophale) SiO2 
 PCOD8023768
Probable space group: P -1
;
_chemical_formula_sum "Si O2"
_cell_formula_units_Z 16
_cell_length_a 21.500998
_cell_length_b 11.043673
_cell_length_c 20.014651
_cell_angle_alpha 30.285069
_cell_angle_beta 160.801124
_cell_angle_gamma 149.026886
_cell_volume 762.564981
_symmetry_space_group_name_H-M "P -1"
_symmetry_group_IT_number 2
_symmetry_cell_setting 'triclinic'
loop_
_space_group_symop_operation_xyz
x,y,z
-x,-y,-z
loop_
_atom_site_type_symbol
_atom_site_label
_atom_site_fract_x
_atom_site_fract_y
_atom_site_fract_z
Si Si1 0.001294 0.307399 0.149086
Si Si2 0.657810 0.427783 0.552958
Si Si3 0.132596 0.621966 0.480776
Si Si4 0.488126 0.989050 0.291959
Si Si5 0.178999 0.241769 0.813264
Si Si6 0.098841 0.404961 0.407210
Si Si7 0.613464 0.263013 0.829802
Si Si8 0.303357 0.976096 0.852018
O O1 0.206387 0.349339 0.373252
O O2 0.953986 0.028784 0.208580
O O3 0.000000 0.500000 0.000000
O O4 0.844877 0.376095 0.007085
O O5 0.615036 0.167476 0.673493
O O6 0.769658 0.418122 0.600846
O O7 0.463978 0.530449 0.305941
O O8 0.208325 0.405004 0.697753
O O9 0.098644 0.576100 0.389688
O O10 0.924520 0.630148 0.296625
O O11 0.287901 0.886040 0.523086
O O12 0.478360 0.811407 0.301683
O O13 0.383768 0.209500 0.065298
O O14 0.873608 0.272823 0.222572
O O15 0.217522 0.207116 0.641231
O O16 0.607529 0.019970 0.984588
O O17 0.500000 0.000000 0.000000
#
# Coordination Sequence:
#
# PCOD8023768 Si02
#       8
#     2   2   2   2   2   2   2   2
#     4  11  21  39  68  95 131 158 213 279 322 365
#     4  12  23  38  64  98 129 166 211 263 329 379
#     4  11  25  43  64  91 132 173 215 254 314 393
#     4  11  24  40  65  93 127 167 213 264 313 380
#     4  10  23  42  65  94 121 171 216 269 319 367
#     4  11  25  41  62  95 131 173 211 258 322 387
#     4  11  22  38  65  98 122 165 214 272 321 366
#     4  11  23  41  65  94 129 166 214 269 319 375
#
# _framework density 20.981818000000001
#
# number of rings (size 3 to 8) (size 9 to 14) (size 15 to 20)
#    0.000    1.000    5.000    3.000    3.500    3.500 
#    0.000    0.625    0.000    0.000    0.000    0.000 
#    0.000    0.000    0.000    0.000    0.000    0.000 
#
# Total GULP energy -198208.828612 kJ/mol
# GULP energy per Si atom -12388.051788 kJ/mol
# Density = 2.093406 g / cm^3
# Si number density = 20.981818 Si / 1000 Ang^3
#
#
#
# Elastic Constant Matrix: (Units=GPa)
#
#
# Indices 1 2 3 4 5 6 
#
# 1 136.2369 30.5011 26.0104 -4.7739 -4.4619 23.9392
# 2 30.5011 69.6311 5.1562 -1.1260 -5.9598 13.5730
# 3 26.0104 5.1562 73.0200 -3.7827 10.8160 2.0840
# 4 -4.7739 -1.1260 -3.7827 20.4663 5.8962 -1.7453
# 5 -4.4619 -5.9598 10.8160 5.8962 36.9306 -0.0783
# 6 23.9392 13.5730 2.0840 -1.7453 -0.0783 32.6454
#
#
#
# Elastic Compliance Matrix: (Units=1/GPa)
#
#
# Indices 1 2 3 4 5 6 
#
# 1 0.009652 -0.002728 -0.003290 0.000549 0.001590 -0.005700
# 2 -0.002728 0.016781 -0.000520 -0.001007 0.002681 -0.004991
# 3 -0.003290 -0.000520 0.015912 0.003962 -0.005770 0.001811
# 4 0.000549 -0.001007 0.003962 0.052667 -0.009660 0.002556
# 5 0.001590 0.002681 -0.005770 -0.009660 0.030930 -0.002354
# 6 -0.005700 -0.004991 0.001811 0.002556 -0.002354 0.036903
#
#
# Mechanical properties :
#
#
# Convention : Reuss Voigt Hill
#
# Bulk Modulus (GPa) = 34.16630 44.69147 39.42889
# Shear Modulus (GPa) = 26.92862 32.48982 29.70922
#
# Velocity S-wave (km/s) = 3.58638 3.93934 3.76699
# Velocity P-wave (km/s) = 5.78521 6.48363 6.14435
#
# Compressibility (1/GPa) = 0.02926861
#
# Stress axis : x y z
#
# Youngs Moduli (GPa) = 103.60521 59.59134 62.84674
#
# Poissons Ratio (x) = 0.16258 0.20675
# Poissons Ratio (y) = 0.28266 0.03268
# Poissons Ratio (z) = 0.34084 0.03099
#
# Static dielectric constant tensor:
#      x y z
#    x 3.931680 0.402780 -0.187380 
#    y 0.402780 3.504280 0.117830 
#    z -0.187380 0.117830 4.324200 
# 
# 
# High freq. dielectric constant tensor:
#      x y z
#    x 1.827120 0.027600 0.001760 
#    y 0.027600 1.803560 0.005990 
#    z 0.001760 0.005990 1.832680 
# 
# From -- ./inp_files/438398.got.cif
#   From: 2010.06.25/outbox.cif.g09.slc.cpg/sg2_220_cif.got.tgz:438398.got - 2010.06.27 13:26:56.
