data_PCOD8023548
_publ_section_title
;
Structure prediction by ZEFSAII (Michael W. Deem and Ramdas Pophale) SiO2 
 PCOD8023548
Probable space group: P -1
;
_chemical_formula_sum "Si O2"
_cell_formula_units_Z 14
_cell_length_a 8.571356
_cell_length_b 12.708298
_cell_length_c 12.842005
_cell_angle_alpha 146.048165
_cell_angle_beta 117.376135
_cell_angle_gamma 48.794478
_cell_volume 575.149840
_symmetry_space_group_name_H-M "P -1"
_symmetry_group_IT_number 2
_symmetry_cell_setting 'triclinic'
loop_
_space_group_symop_operation_xyz
x,y,z
-x,-y,-z
loop_
_atom_site_type_symbol
_atom_site_label
_atom_site_fract_x
_atom_site_fract_y
_atom_site_fract_z
Si Si1 0.857640 0.169086 0.249239
Si Si2 0.700660 0.690810 0.070406
Si Si3 0.309030 0.714980 0.321248
Si Si4 0.066962 0.485639 0.390893
Si Si5 0.652163 0.728292 0.324935
Si Si6 0.263778 0.000062 0.102135
Si Si7 0.882062 0.959213 0.291564
O O1 0.790347 0.408437 0.478860
O O2 0.096055 0.046830 0.178239
O O3 0.844527 0.013672 0.203409
O O4 0.708810 0.195096 0.128346
O O5 0.712281 0.632742 0.148052
O O6 0.881376 0.733595 0.129254
O O7 0.477941 0.923275 0.164555
O O8 0.715406 0.494370 0.844211
O O9 0.528836 0.630267 0.261502
O O10 0.110526 0.908415 0.350431
O O11 0.299554 0.826504 0.520794
O O12 0.198743 0.217161 0.186299
O O13 0.000000 0.500000 0.500000
O O14 0.869467 0.633836 0.375238
O O15 0.500000 0.000000 0.500000
#
# Coordination Sequence:
#
# PCOD8023548 Si02
#       7
#     2   2   2   2   2   2   2
#     4  10  23  42  71  94 136 178 223 273 339 397
#     4  12  26  43  72 103 135 176 232 281 332 406
#     4  11  26  42  67  98 141 177 223 280 341 395
#     4  10  23  41  70 100 135 172 220 284 335 391
#     4  12  23  44  75 104 132 175 234 283 331 396
#     4  10  24  44  71 101 134 173 234 277 332 402
#     4  11  25  45  65  99 142 181 221 280 343 406
#
# _framework density 24.341484999999999
#
# number of rings (size 3 to 8) (size 9 to 14) (size 15 to 20)
#    0.000    1.143    1.429    4.286   10.000    1.714 
#    0.000    1.429    0.000    0.000    0.000    0.000 
#    0.000    0.000    0.000    0.000    0.000    0.000 
#
# Total GULP energy -173601.779569 kJ/mol
# GULP energy per Si atom -12400.127112 kJ/mol
# Density = 2.428608 g / cm^3
# Si number density = 24.341485 Si / 1000 Ang^3
#
#
#
# Elastic Constant Matrix: (Units=GPa)
#
#
# Indices 1 2 3 4 5 6 
#
# 1 75.6691 16.1247 32.0140 -6.6241 15.0690 22.2218
# 2 16.1247 111.9820 29.4892 -15.3181 4.7193 6.0205
# 3 32.0140 29.4892 127.1799 0.7792 26.1328 18.3364
# 4 -6.6241 -15.3181 0.7792 37.9293 4.2149 7.1735
# 5 15.0690 4.7193 26.1328 4.2149 31.4004 -0.3733
# 6 22.2218 6.0205 18.3364 7.1735 -0.3733 39.7357
#
#
#
# Elastic Compliance Matrix: (Units=1/GPa)
#
#
# Indices 1 2 3 4 5 6 
#
# 1 0.019707 -0.000604 -0.001276 0.006451 -0.009308 -0.011592
# 2 -0.000604 0.010205 -0.002071 0.004264 -0.000105 -0.001023
# 3 -0.001276 -0.002071 0.010976 0.000433 -0.008319 -0.004194
# 4 0.006451 0.004264 0.000433 0.032106 -0.008529 -0.010329
# 5 -0.009308 -0.000105 -0.008319 -0.008529 0.044528 0.011018
# 6 -0.011592 -0.001023 -0.004194 -0.010329 0.011018 0.035708
#
#
# Mechanical properties :
#
#
# Convention : Reuss Voigt Hill
#
# Bulk Modulus (GPa) = 30.31674 52.23187 41.27431
# Shear Modulus (GPa) = 29.04837 37.62663 33.33750
#
# Velocity S-wave (km/s) = 3.45826 3.93591 3.70479
# Velocity P-wave (km/s) = 5.33178 6.49305 5.94086
#
# Compressibility (1/GPa) = 0.03298507
#
# Stress axis : x y z
#
# Youngs Moduli (GPa) = 50.74420 97.99055 91.11066
#
# Poissons Ratio (x) = 0.05915 0.11627
# Poissons Ratio (y) = 0.03063 0.18872
# Poissons Ratio (z) = 0.06476 0.20297
#
# Static dielectric constant tensor:
#      x y z
#    x 4.300710 0.112810 0.291320 
#    y 0.112810 4.421970 0.252610 
#    z 0.291320 0.252610 4.797840 
# 
# 
# High freq. dielectric constant tensor:
#      x y z
#    x 1.950040 0.004110 0.017200 
#    y 0.004110 1.963660 -0.004830 
#    z 0.017200 -0.004830 1.979110 
# 
# From -- ./inp_files/393314.got.cif
#   From: 2010.06.25/outbox.cif.g09.slc.cpg/sg2_197_cif.got.tgz:393314.got - 2010.06.27 13:26:56.
