data_PCOD8023544
_publ_section_title
;
Structure prediction by ZEFSAII (Michael W. Deem and Ramdas Pophale) SiO2 
 PCOD8023544
Probable space group: P -1
;
_chemical_formula_sum "Si O2"
_cell_formula_units_Z 16
_cell_length_a 11.555827
_cell_length_b 17.777763
_cell_length_c 9.308247
_cell_angle_alpha 150.275270
_cell_angle_beta 129.234086
_cell_angle_gamma 59.904143
_cell_volume 728.700654
_symmetry_space_group_name_H-M "P -1"
_symmetry_group_IT_number 2
_symmetry_cell_setting 'triclinic'
loop_
_space_group_symop_operation_xyz
x,y,z
-x,-y,-z
loop_
_atom_site_type_symbol
_atom_site_label
_atom_site_fract_x
_atom_site_fract_y
_atom_site_fract_z
Si Si1 0.914623 0.274769 0.146164
Si Si2 0.018937 0.986294 0.823911
Si Si3 0.215485 0.744494 0.487717
Si Si4 0.530797 0.330496 0.231947
Si Si5 0.013221 0.400977 0.135508
Si Si6 0.775859 0.831955 0.168516
Si Si7 0.376222 0.917690 0.665518
Si Si8 0.416302 0.857585 0.286847
O O1 0.909257 0.338921 0.086616
O O2 0.936711 0.417874 0.510228
O O3 0.765894 0.159993 0.882422
O O4 0.043290 0.161184 0.072329
O O5 0.165664 0.904578 0.768868
O O6 0.875840 0.882531 0.469538
O O7 0.000000 0.000000 0.000000
O O8 0.311472 0.681190 0.584153
O O9 0.308329 0.769011 0.453332
O O10 0.074775 0.622131 0.124150
O O11 0.500000 0.500000 0.500000
O O12 0.397272 0.216328 0.005550
O O13 0.541240 0.293674 0.009437
O O14 0.157404 0.306293 0.090175
O O15 0.761404 0.980229 0.303374
O O16 0.462733 0.869588 0.510121
O O17 0.500000 0.000000 0.000000
O O18 0.500000 0.000000 0.500000
#
# Coordination Sequence:
#
# PCOD8023544 Si02
#       8
#     2   2   2   2   2   2   2   2
#     4  11  21  41  66 100 137 173 226 279 348 395
#     4  11  23  39  68  98 132 175 232 282 339 404
#     4  11  23  43  67 100 133 179 234 279 337 415
#     4  12  26  44  66  96 143 183 221 281 357 415
#     4  10  23  41  69  99 136 181 219 283 339 417
#     4  11  22  42  65  95 136 176 225 278 343 390
#     4  12  22  40  71  98 132 175 238 284 332 402
#     4  12  22  42  68  99 137 181 228 284 345 404
#
# _framework density 21.956887999999999
#
# number of rings (size 3 to 8) (size 9 to 14) (size 15 to 20)
#    0.000    0.750    5.000    2.250    0.000    4.000 
#    0.000    6.250    0.000    0.000    0.000    0.000 
#    0.000    0.000    0.000    0.000    0.000    0.000 
#
# Total GULP energy -198297.599309 kJ/mol
# GULP energy per Si atom -12393.599957 kJ/mol
# Density = 2.190691 g / cm^3
# Si number density = 21.956888 Si / 1000 Ang^3
#
#
#
# Elastic Constant Matrix: (Units=GPa)
#
#
# Indices 1 2 3 4 5 6 
#
# 1 95.2450 29.3953 44.5831 -4.6375 -20.7377 0.7938
# 2 29.3953 107.4419 64.9798 -4.3998 -14.9692 -11.4392
# 3 44.5831 64.9798 133.2843 -7.6446 -33.5212 -6.8965
# 4 -4.6375 -4.3998 -7.6446 40.4767 -2.3943 -5.0765
# 5 -20.7377 -14.9692 -33.5212 -2.3943 46.4309 1.7503
# 6 0.7938 -11.4392 -6.8965 -5.0765 1.7503 36.8043
#
#
#
# Elastic Compliance Matrix: (Units=1/GPa)
#
#
# Indices 1 2 3 4 5 6 
#
# 1 0.013072 -0.001517 -0.002791 0.000842 0.003428 -0.001323
# 2 -0.001517 0.013718 -0.006190 0.000507 -0.000820 0.003246
# 3 -0.002791 -0.006190 0.013196 0.001948 0.006364 0.000575
# 4 0.000842 0.000507 0.001948 0.025903 0.003134 0.003928
# 5 0.003428 -0.000820 0.006364 0.003134 0.027560 -0.000015
# 6 -0.001323 0.003246 0.000575 0.003928 -0.000015 0.028858
#
#
# Mechanical properties :
#
#
# Convention : Reuss Voigt Hill
#
# Bulk Modulus (GPa) = 52.65815 68.20974 60.43394
# Shear Modulus (GPa) = 33.41488 37.87657 35.64573
#
# Velocity S-wave (km/s) = 3.90531 4.15787 4.03357
# Velocity P-wave (km/s) = 6.66107 7.36093 7.01973
#
# Compressibility (1/GPa) = 0.01899041
#
# Stress axis : x y z
#
# Youngs Moduli (GPa) = 76.49743 72.89722 75.78142
#
# Poissons Ratio (x) = 0.11061 0.21150
# Poissons Ratio (y) = 0.11608 0.46905
# Poissons Ratio (z) = 0.21350 0.45120
#
# Static dielectric constant tensor:
#      x y z
#    x 4.712640 0.112060 0.198650 
#    y 0.112060 3.847090 0.043750 
#    z 0.198650 0.043750 4.570820 
# 
# 
# High freq. dielectric constant tensor:
#      x y z
#    x 1.866410 0.002050 -0.012500 
#    y 0.002050 1.844000 -0.004770 
#    z -0.012500 -0.004770 1.881340 
# 
# From -- ./inp_files/280303.got.cif
#   From: 2010.06.25/outbox.cif.g09.slc.cpg/sg2_141_cif.got.tgz:280303.got - 2010.06.27 13:26:56.
