data_PCOD8023050
_publ_section_title
;
Structure prediction by ZEFSAII (Michael W. Deem and Ramdas Pophale) SiO2 
 PCOD8023050
Probable space group: P -1
;
_chemical_formula_sum "Si O2"
_cell_formula_units_Z 16
_cell_length_a 8.655787
_cell_length_b 10.853193
_cell_length_c 17.396209
_cell_angle_alpha 128.882287
_cell_angle_beta 115.370060
_cell_angle_gamma 37.364330
_cell_volume 763.418976
_symmetry_space_group_name_H-M "P -1"
_symmetry_group_IT_number 2
_symmetry_cell_setting 'triclinic'
loop_
_space_group_symop_operation_xyz
x,y,z
-x,-y,-z
loop_
_atom_site_type_symbol
_atom_site_label
_atom_site_fract_x
_atom_site_fract_y
_atom_site_fract_z
Si Si1 0.652161 0.264649 0.599114
Si Si2 0.275638 0.868238 0.267484
Si Si3 0.896019 0.180382 0.931381
Si Si4 0.759674 0.988964 0.932268
Si Si5 0.208187 0.395103 0.939506
Si Si6 0.151842 0.444589 0.777586
Si Si7 0.089529 0.615213 0.560401
Si Si8 0.013053 0.740832 0.423263
O O1 0.718289 0.228081 0.688627
O O2 0.764040 0.347404 0.618842
O O3 0.346105 0.468169 0.605832
O O4 0.774164 0.027521 0.490087
O O5 0.089964 0.899236 0.182504
O O6 0.559417 0.690370 0.223581
O O7 0.147661 0.127001 0.352210
O O8 0.761451 0.150786 0.948562
O O9 0.741228 0.451973 0.999322
O O10 0.174723 0.025144 0.969024
O O11 0.955034 0.726356 0.834005
O O12 0.468543 0.127488 0.918014
O O13 0.123054 0.389235 0.835168
O O14 0.000000 0.500000 0.000000
O O15 0.094041 0.351367 0.665940
O O16 0.000000 0.500000 0.500000
O O17 0.143199 0.628446 0.489646
#
# Coordination Sequence:
#
# PCOD8023050 Si02
#       8
#     2   2   2   2   2   2   2   2
#     4  10  23  42  65  90 130 170 206 259 316 371
#     4  11  24  39  63  99 121 165 215 257 313 369
#     4  10  23  40  66  89 125 160 211 261 306 374
#     4  10  23  42  66  91 121 169 207 261 317 366
#     4  11  25  44  63  92 129 164 206 259 319 374
#     4  11  24  40  65  95 125 164 212 261 310 376
#     4  11  23  40  66  96 126 165 211 260 310 373
#     4  10  23  43  62  92 131 165 209 257 314 372
#
# _framework density 20.958347
#
# number of rings (size 3 to 8) (size 9 to 14) (size 15 to 20)
#    0.000    1.500    1.250    2.250    8.750    5.000 
#    2.250    0.000    0.000    0.000    0.000    0.000 
#    0.000    0.000    0.000    0.000    0.000    0.000 
#
# Total GULP energy -198396.473891 kJ/mol
# GULP energy per Si atom -12399.779618 kJ/mol
# Density = 2.091064 g / cm^3
# Si number density = 20.958347 Si / 1000 Ang^3
#
#
#
# Elastic Constant Matrix: (Units=GPa)
#
#
# Indices 1 2 3 4 5 6 
#
# 1 75.9834 41.6427 27.5548 9.5884 -9.4877 3.7752
# 2 41.6427 133.7143 47.5099 3.5427 -6.4555 -0.1741
# 3 27.5548 47.5099 117.3159 -13.4814 -1.4027 7.4875
# 4 9.5884 3.5427 -13.4814 36.2227 -1.0151 -4.7606
# 5 -9.4877 -6.4555 -1.4027 -1.0151 34.7090 1.6756
# 6 3.7752 -0.1741 7.4875 -4.7606 1.6756 26.2162
#
#
#
# Elastic Compliance Matrix: (Units=1/GPa)
#
#
# Indices 1 2 3 4 5 6 
#
# 1 0.017884 -0.004196 -0.002913 -0.005699 0.003971 -0.003060
# 2 -0.004196 0.009986 -0.003243 -0.000875 0.000486 0.001407
# 3 -0.002913 -0.003243 0.011205 0.004996 -0.000711 -0.001850
# 4 -0.005699 -0.000875 0.004996 0.031720 -0.000842 0.005202
# 5 0.003971 0.000486 -0.000711 -0.000842 0.030051 -0.002439
# 6 -0.003060 0.001407 -0.001850 0.005202 -0.002439 0.040223
#
#
# Mechanical properties :
#
#
# Convention : Reuss Voigt Hill
#
# Bulk Modulus (GPa) = 54.43449 62.26981 58.35215
# Shear Modulus (GPa) = 29.78001 33.45001 31.61501
#
# Velocity S-wave (km/s) = 3.77359 3.99936 3.88811
# Velocity P-wave (km/s) = 6.70938 7.14858 6.93246
#
# Compressibility (1/GPa) = 0.01837071
#
# Stress axis : x y z
#
# Youngs Moduli (GPa) = 55.91658 100.13973 89.24339
#
# Poissons Ratio (x) = 0.42015 0.26001
# Poissons Ratio (y) = 0.23461 0.28943
# Poissons Ratio (z) = 0.16291 0.32476
#
# Static dielectric constant tensor:
#      x y z
#    x 3.681170 0.123930 -0.051290 
#    y 0.123930 4.069270 -0.161350 
#    z -0.051290 -0.161350 3.896890 
# 
# 
# High freq. dielectric constant tensor:
#      x y z
#    x 1.808150 0.010190 -0.003010 
#    y 0.010190 1.835690 -0.008670 
#    z -0.003010 -0.008670 1.824350 
# 
# From -- ./inp_files/126801.got.cif
#   From: 2010.06.25/outbox.cif.g09.slc.cpg/sg2_64_cif.got.tgz:126801.got - 2010.06.27 13:26:56.
