data_PCOD8023404
_publ_section_title
;
Structure prediction by ZEFSAII (Michael W. Deem and Ramdas Pophale) SiO2 
 PCOD8023404
Probable space group: P -1
;
_chemical_formula_sum "Si O2"
_cell_formula_units_Z 16
_cell_length_a 12.062959
_cell_length_b 10.812774
_cell_length_c 6.511739
_cell_angle_alpha 106.039512
_cell_angle_beta 112.667246
_cell_angle_gamma 69.369140
_cell_volume 723.710963
_symmetry_space_group_name_H-M "P -1"
_symmetry_group_IT_number 2
_symmetry_cell_setting 'triclinic'
loop_
_space_group_symop_operation_xyz
x,y,z
-x,-y,-z
loop_
_atom_site_type_symbol
_atom_site_label
_atom_site_fract_x
_atom_site_fract_y
_atom_site_fract_z
Si Si1 0.965981 0.087776 0.220838
Si Si2 0.139197 0.616823 0.682440
Si Si3 0.417463 0.545888 0.766756
Si Si4 0.370887 0.971540 0.445981
Si Si5 0.247730 0.198306 0.167476
Si Si6 0.183315 0.054495 0.688285
Si Si7 0.951001 0.531684 0.757357
Si Si8 0.489737 0.293422 0.421785
O O1 0.920926 0.240410 0.192647
O O2 0.082219 0.082471 0.448744
O O3 0.850542 0.057157 0.244797
O O4 0.000000 0.000000 0.000000
O O5 0.284546 0.589732 0.799302
O O6 0.108632 0.588142 0.409905
O O7 0.079245 0.515802 0.715814
O O8 0.425382 0.425167 0.562321
O O9 0.447010 0.668935 0.722337
O O10 0.500000 0.500000 0.000000
O O11 0.405266 0.808248 0.404092
O O12 0.500000 0.000000 0.500000
O O13 0.269482 0.058013 0.249697
O O14 0.319600 0.010323 0.658625
O O15 0.151136 0.322356 0.270398
O O16 0.381172 0.227354 0.243861
O O17 0.186582 0.178916 0.895168
O O18 0.000000 0.500000 0.000000
#
# Coordination Sequence:
#
# PCOD8023404 Si02
#       8
#     2   2   2   2   2   2   2   2
#     4  11  24  43  66 100 138 176 227 288 349 423
#     4  11  24  43  66  96 133 175 230 277 350 409
#     4  11  25  43  68  97 137 187 230 286 341 419
#     4  10  23  41  66  97 137 181 227 288 338 408
#     4  11  23  44  69 101 140 175 237 294 343 419
#     4  11  23  40  69  98 133 181 223 282 358 412
#     4  11  24  41  70 102 133 176 225 291 348 412
#     4  10  24  44  65  97 138 180 234 283 345 401
#
# _framework density 22.108273000000001
#
# number of rings (size 3 to 8) (size 9 to 14) (size 15 to 20)
#    0.000    1.250    1.250    3.750    1.750    9.000 
#    0.000    0.000    0.000    0.000    0.000    0.000 
#    0.000    0.000    0.000    0.000    0.000    0.000 
#
# Total GULP energy -198210.170360 kJ/mol
# GULP energy per Si atom -12388.135648 kJ/mol
# Density = 2.205795 g / cm^3
# Si number density = 22.108273 Si / 1000 Ang^3
#
#
#
# Elastic Constant Matrix: (Units=GPa)
#
#
# Indices 1 2 3 4 5 6 
#
# 1 150.8050 40.7831 45.7100 -2.1981 -10.7958 6.1474
# 2 40.7831 124.4454 45.7912 -4.8806 1.5473 -2.6901
# 3 45.7100 45.7912 138.1457 4.9106 9.6692 -0.2217
# 4 -2.1981 -4.8806 4.9106 38.7841 0.6958 -4.1734
# 5 -10.7958 1.5473 9.6692 0.6958 31.9358 4.4932
# 6 6.1474 -2.6901 -0.2217 -4.1734 4.4932 29.2126
#
#
#
# Elastic Compliance Matrix: (Units=1/GPa)
#
#
# Indices 1 2 3 4 5 6 
#
# 1 0.008263 -0.001928 -0.002383 0.000186 0.003958 -0.002517
# 2 -0.001928 0.009730 -0.002601 0.001628 -0.000597 0.001606
# 3 -0.002383 -0.002601 0.009190 -0.001492 -0.003522 0.000660
# 4 0.000186 0.001628 -0.001492 0.026633 -0.000709 0.004013
# 5 0.003958 -0.000597 -0.003522 -0.000709 0.034655 -0.006346
# 6 -0.002517 0.001606 0.000660 0.004013 -0.006346 0.036464
#
#
# Mechanical properties :
#
#
# Convention : Reuss Voigt Hill
#
# Bulk Modulus (GPa) = 74.84678 75.32942 75.08810
# Shear Modulus (GPa) = 34.91337 38.72728 36.82032
#
# Velocity S-wave (km/s) = 3.97823 4.18988 4.08543
# Velocity P-wave (km/s) = 7.41821 7.58642 7.50279
#
# Compressibility (1/GPa) = 0.01336063
#
# Stress axis : x y z
#
# Youngs Moduli (GPa) = 121.01686 102.77029 108.81373
#
# Poissons Ratio (x) = 0.19809 0.25930
# Poissons Ratio (y) = 0.23327 0.28303
# Poissons Ratio (z) = 0.28838 0.26731
#
# Static dielectric constant tensor:
#      x y z
#    x 4.375060 -0.128830 -0.217980 
#    y -0.128830 4.393230 0.158400 
#    z -0.217980 0.158400 4.107250 
# 
# 
# High freq. dielectric constant tensor:
#      x y z
#    x 1.891240 0.001190 -0.004440 
#    y 0.001190 1.866500 0.004050 
#    z -0.004440 0.004050 1.864070 
# 
# From -- ./inp_files/71981.got.cif
#   From: 2010.06.25/outbox.cif.g09.slc.cpg/sg2_36_cif.got.tgz:71981.got - 2010.06.27 13:26:56.
