data_PCOD8023877
_publ_section_title
;
Structure prediction by ZEFSAII (Michael W. Deem and Ramdas Pophale) SiO2 
 PCOD8023877
Probable space group: P -1
;
_chemical_formula_sum "Si O2"
_cell_formula_units_Z 16
_cell_length_a 12.065784
_cell_length_b 8.310013
_cell_length_c 17.989598
_cell_angle_alpha 117.286386
_cell_angle_beta 29.283710
_cell_angle_gamma 128.524304
_cell_volume 673.080637
_symmetry_space_group_name_H-M "P -1"
_symmetry_group_IT_number 2
_symmetry_cell_setting 'triclinic'
loop_
_space_group_symop_operation_xyz
x,y,z
-x,-y,-z
loop_
_atom_site_type_symbol
_atom_site_label
_atom_site_fract_x
_atom_site_fract_y
_atom_site_fract_z
Si Si1 0.545646 0.683648 0.568349
Si Si2 0.684532 0.257262 0.744516
Si Si3 0.951805 0.958118 0.288489
Si Si4 0.215215 0.156230 0.804575
Si Si5 0.729214 0.587981 0.588552
Si Si6 0.272167 0.775663 0.113175
Si Si7 0.410070 0.380935 0.167781
Si Si8 0.229428 0.856265 0.850430
O O1 0.500000 0.500000 0.500000
O O2 0.706084 0.905178 0.475361
O O3 0.713898 0.689510 0.542316
O O4 0.278628 0.671284 0.752465
O O5 0.709682 0.254669 0.817052
O O6 0.558666 0.395458 0.821438
O O7 0.975752 0.364678 0.561685
O O8 0.490450 0.022131 0.778843
O O9 0.878971 0.930161 0.240113
O O10 0.008404 0.772786 0.243097
O O11 0.184478 0.197873 0.210445
O O12 0.520099 0.338311 0.660148
O O13 0.180954 0.962108 0.830499
O O14 0.030423 0.240132 0.965329
O O15 0.660983 0.688727 0.719623
O O16 0.309355 0.598711 0.011509
O O17 0.500000 0.000000 0.000000
#
# Coordination Sequence:
#
# PCOD8023877 Si02
#       8
#     2   2   2   2   2   2   2   2
#     4  12  27  46  69 106 145 194 241 298 366 436
#     4  12  24  47  74 110 144 188 244 299 357 431
#     4  11  24  46  69 106 149 190 239 295 370 425
#     4  11  26  50  71 107 147 192 238 299 362 431
#     4  12  26  45  73 106 144 183 246 299 358 427
#     4  10  23  42  67 106 146 186 234 293 356 425
#     4  11  25  42  74 107 142 193 240 298 360 426
#     4  11  27  47  76 104 147 192 242 295 366 432
#
# _framework density 23.771296
#
# number of rings (size 3 to 8) (size 9 to 14) (size 15 to 20)
#    0.000    0.750    3.750    3.000    7.000    4.000 
#    0.000    0.000    0.000    0.000    0.000    0.000 
#    0.000    0.000    0.000    0.000    0.000    0.000 
#
# Total GULP energy -198384.357365 kJ/mol
# GULP energy per Si atom -12399.022335 kJ/mol
# Density = 2.371719 g / cm^3
# Si number density = 23.771296 Si / 1000 Ang^3
#
#
#
# Elastic Constant Matrix: (Units=GPa)
#
#
# Indices 1 2 3 4 5 6 
#
# 1 121.1445 0.5385 24.4263 10.9537 25.5729 11.0521
# 2 0.5385 61.5040 18.4675 14.2288 1.4560 6.7950
# 3 24.4263 18.4675 86.1902 10.5292 13.9174 9.0463
# 4 10.9537 14.2288 10.5292 41.7625 -4.2144 2.7688
# 5 25.5729 1.4560 13.9174 -4.2144 39.0473 -0.8937
# 6 11.0521 6.7950 9.0463 2.7688 -0.8937 27.7623
#
#
#
# Elastic Compliance Matrix: (Units=1/GPa)
#
#
# Indices 1 2 3 4 5 6 
#
# 1 0.010711 0.001760 -0.001417 -0.003490 -0.007046 -0.004112
# 2 0.001760 0.019057 -0.003214 -0.006042 -0.001456 -0.003762
# 3 -0.001417 -0.003214 0.013985 -0.002282 -0.004255 -0.003116
# 4 -0.003490 -0.006042 -0.002282 0.028070 0.006377 0.001017
# 5 -0.007046 -0.001456 -0.004255 0.006377 0.032597 0.004961
# 6 -0.004112 -0.003762 -0.003116 0.001017 0.004961 0.039651
#
#
# Mechanical properties :
#
#
# Convention : Reuss Voigt Hill
#
# Bulk Modulus (GPa) = 26.30822 39.52260 32.91541
# Shear Modulus (GPa) = 30.77256 36.74150 33.75703
#
# Velocity S-wave (km/s) = 3.60186 3.93571 3.77248
# Velocity P-wave (km/s) = 5.32814 6.10863 5.73168
#
# Compressibility (1/GPa) = 0.03801094
#
# Stress axis : x y z
#
# Youngs Moduli (GPa) = 93.36625 52.47547 71.50408
#
# Poissons Ratio (x) = -0.09236 0.10131
# Poissons Ratio (y) = -0.16434 0.22981
# Poissons Ratio (z) = 0.13229 0.16865
#
# Static dielectric constant tensor:
#      x y z
#    x 4.471740 -0.026190 -0.061690 
#    y -0.026190 4.263000 0.312800 
#    z -0.061690 0.312800 5.355960 
# 
# 
# High freq. dielectric constant tensor:
#      x y z
#    x 1.953890 0.006390 0.010040 
#    y 0.006390 1.925360 -0.000870 
#    z 0.010040 -0.000870 1.964430 
# 
# From -- ./inp_files/261673.got.cif
#   From: 2010.06.25/outbox.cif.g09.slc.cpg/sg2_131_cif.got.tgz:261673.got - 2010.06.27 13:26:56.
