data_PCOD8023706
_publ_section_title
;
Structure prediction by ZEFSAII (Michael W. Deem and Ramdas Pophale) SiO2 
 PCOD8023706
Probable space group: P -1
;
_chemical_formula_sum "Si O2"
_cell_formula_units_Z 14
_cell_length_a 14.831577
_cell_length_b 11.664822
_cell_length_c 9.726148
_cell_angle_alpha 142.309618
_cell_angle_beta 140.114301
_cell_angle_gamma 35.023433
_cell_volume 555.264758
_symmetry_space_group_name_H-M "P -1"
_symmetry_group_IT_number 2
_symmetry_cell_setting 'triclinic'
loop_
_space_group_symop_operation_xyz
x,y,z
-x,-y,-z
loop_
_atom_site_type_symbol
_atom_site_label
_atom_site_fract_x
_atom_site_fract_y
_atom_site_fract_z
Si Si1 0.134289 0.955567 0.501872
Si Si2 0.206717 0.498219 0.132121
Si Si3 0.577979 0.436810 0.881470
Si Si4 0.547503 0.167498 0.082856
Si Si5 0.078953 0.563162 0.345762
Si Si6 0.816265 0.562483 0.362423
Si Si7 0.450216 0.972276 0.567233
O O1 0.203821 0.717813 0.283310
O O2 0.289622 0.954810 0.748400
O O3 0.000000 0.000000 0.500000
O O4 0.033721 0.173636 0.494375
O O5 0.381785 0.274908 0.085986
O O6 0.187780 0.511512 0.287316
O O7 0.047608 0.519032 0.893809
O O8 0.457795 0.637915 0.828644
O O9 0.591065 0.214985 0.634842
O O10 0.500000 0.500000 0.000000
O O11 0.760732 0.406573 0.077152
O O12 0.571848 0.967626 0.823050
O O13 0.214556 0.429201 0.499415
O O14 0.719747 0.792021 0.385251
O O15 0.000000 0.500000 0.500000
O O16 0.500000 0.000000 0.500000
#
# Coordination Sequence:
#
# PCOD8023706 Si02
#       7
#     2   2   2   2   2   2   2
#     4  10  24  41  65 100 132 185 226 281 344 408
#     4  10  23  42  63  99 137 182 227 283 336 412
#     4  11  24  45  73 104 130 185 231 288 352 404
#     4  11  24  43  68 102 140 172 241 287 342 418
#     4  10  23  43  67  99 140 180 225 276 353 409
#     4  11  25  45  71 108 143 175 232 293 345 415
#     4  11  24  43  72 103 134 187 232 285 350 412
#
# _framework density 25.213194999999999
#
# number of rings (size 3 to 8) (size 9 to 14) (size 15 to 20)
#    0.000    1.429    2.857    2.143    4.000    9.143 
#    0.000    1.429    0.000    0.000    0.000    0.000 
#    0.000    0.000    0.000    0.000    0.000    0.000 
#
# Total GULP energy -173544.705912 kJ/mol
# GULP energy per Si atom -12396.050422 kJ/mol
# Density = 2.515581 g / cm^3
# Si number density = 25.213195 Si / 1000 Ang^3
#
#
#
# Elastic Constant Matrix: (Units=GPa)
#
#
# Indices 1 2 3 4 5 6 
#
# 1 64.9020 7.1296 17.0146 7.8767 13.4330 2.1275
# 2 7.1296 44.2746 38.9465 -1.5937 8.2475 6.1248
# 3 17.0146 38.9465 166.1353 28.7573 23.0411 2.7157
# 4 7.8767 -1.5937 28.7573 43.7487 5.9829 4.6257
# 5 13.4330 8.2475 23.0411 5.9829 42.4464 0.3910
# 6 2.1275 6.1248 2.7157 4.6257 0.3910 44.5619
#
#
#
# Elastic Compliance Matrix: (Units=1/GPa)
#
#
# Indices 1 2 3 4 5 6 
#
# 1 0.016892 -0.001627 -0.000328 -0.002234 -0.004534 -0.000291
# 2 -0.001627 0.031261 -0.008087 0.007521 -0.002188 -0.004488
# 3 -0.000328 -0.008087 0.009348 -0.006161 -0.002542 0.001219
# 4 -0.002234 0.007521 -0.006161 0.028134 -0.001343 -0.003460
# 5 -0.004534 -0.002188 -0.002542 -0.001343 0.026983 0.000575
# 6 -0.000291 -0.004488 0.001219 -0.003460 0.000575 0.023351
#
#
# Mechanical properties :
#
#
# Convention : Reuss Voigt Hill
#
# Bulk Modulus (GPa) = 26.72627 44.61037 35.66832
# Shear Modulus (GPa) = 29.66932 40.29949 34.98441
#
# Velocity S-wave (km/s) = 3.43408 4.00227 3.72902
# Velocity P-wave (km/s) = 5.13294 6.25214 5.71998
#
# Compressibility (1/GPa) = 0.03741637
#
# Stress axis : x y z
#
# Youngs Moduli (GPa) = 59.20084 31.98866 106.97871
#
# Poissons Ratio (x) = 0.05204 0.03513
# Poissons Ratio (y) = 0.09631 0.86512
# Poissons Ratio (z) = 0.01944 0.25869
#
# Static dielectric constant tensor:
#      x y z
#    x 2.623240 1.023110 -1.324140 
#    y 1.023110 2.022540 1.845920 
#    z -1.324140 1.845920 3.769660 
# 
# 
# High freq. dielectric constant tensor:
#      x y z
#    x 2.016580 0.006560 0.008290 
#    y 0.006560 2.004480 0.001580 
#    z 0.008290 0.001580 2.014580 
# 
# From -- ./inp_files/465984.got.cif
#   From: 2010.06.25/outbox.cif.g09.slc.cpg/sg2_233_cif.got.tgz:465984.got - 2010.06.27 13:26:56.
