data_PCOD8023329
_publ_section_title
;
Structure prediction by ZEFSAII (Michael W. Deem and Ramdas Pophale) SiO2 
 PCOD8023329
Probable space group: P -1
;
_chemical_formula_sum "Si O2"
_cell_formula_units_Z 14
_cell_length_a 12.745588
_cell_length_b 17.701714
_cell_length_c 10.267260
_cell_angle_alpha 53.962256
_cell_angle_beta 114.060287
_cell_angle_gamma 158.301466
_cell_volume 613.234584
_symmetry_space_group_name_H-M "P -1"
_symmetry_group_IT_number 2
_symmetry_cell_setting 'triclinic'
loop_
_space_group_symop_operation_xyz
x,y,z
-x,-y,-z
loop_
_atom_site_type_symbol
_atom_site_label
_atom_site_fract_x
_atom_site_fract_y
_atom_site_fract_z
Si Si1 0.222044 0.010139 0.831147
Si Si2 0.506826 0.709024 0.059111
Si Si3 0.827614 0.591555 0.237667
Si Si4 0.178394 0.785700 0.695018
Si Si5 0.686395 0.019325 0.689543
Si Si6 0.348434 0.723412 0.435051
Si Si7 0.615624 0.583551 0.826757
O O1 0.271411 0.113623 0.878268
O O2 0.565340 0.246425 0.699637
O O3 0.002717 0.889101 0.726476
O O4 0.014375 0.761884 0.026772
O O5 0.489296 0.589089 0.127919
O O6 0.166111 0.496382 0.133830
O O7 0.646122 0.878068 0.840543
O O8 0.632988 0.346186 0.377097
O O9 0.568744 0.471428 0.280915
O O10 0.093874 0.771337 0.298673
O O11 0.343680 0.812587 0.716242
O O12 0.133883 0.823437 0.513594
O O13 0.391061 0.999722 0.691453
O O14 0.000000 0.500000 0.500000
O O15 0.500000 0.500000 0.000000
#
# Coordination Sequence:
#
# PCOD8023329 Si02
#       7
#     2   2   2   2   2   2   2
#     4  10  24  44  68  98 132 169 222 266 324 391
#     4  11  23  45  67  95 134 171 213 275 324 382
#     4  10  23  44  64  96 128 171 220 267 325 385
#     4  11  23  41  65  98 132 172 216 265 327 392
#     4  10  23  41  65  96 130 172 215 268 327 387
#     4  12  24  42  67  95 137 172 216 273 323 388
#     4  10  23  44  68  98 129 169 227 264 325 391
#
# _framework density 22.829764000000001
#
# number of rings (size 3 to 8) (size 9 to 14) (size 15 to 20)
#    0.000    1.429    2.857    1.286    6.000    6.286 
#    0.000    1.429    0.000    0.000    0.000    0.000 
#    0.000    0.000    0.000    0.000    0.000    0.000 
#
# Total GULP energy -173485.760365 kJ/mol
# GULP energy per Si atom -12391.840026 kJ/mol
# Density = 2.277780 g / cm^3
# Si number density = 22.829764 Si / 1000 Ang^3
#
#
#
# Elastic Constant Matrix: (Units=GPa)
#
#
# Indices 1 2 3 4 5 6 
#
# 1 91.2369 13.6805 33.0984 -0.2533 6.9464 13.5540
# 2 13.6805 77.0104 32.4603 -0.2484 5.1349 12.0221
# 3 33.0984 32.4603 79.6075 0.5840 -2.4064 9.5686
# 4 -0.2533 -0.2484 0.5840 26.7832 -1.2688 3.7622
# 5 6.9464 5.1349 -2.4064 -1.2688 40.1972 -0.0357
# 6 13.5540 12.0221 9.5686 3.7622 -0.0357 32.7980
#
#
#
# Elastic Compliance Matrix: (Units=1/GPa)
#
#
# Indices 1 2 3 4 5 6 
#
# 1 0.013744 0.000798 -0.005597 0.000749 -0.002792 -0.004428
# 2 0.000798 0.016515 -0.006604 0.000820 -0.002621 -0.004554
# 3 -0.005597 -0.006604 0.017718 -0.000309 0.002861 -0.000397
# 4 0.000749 0.000820 -0.000309 0.038090 0.000945 -0.004888
# 5 -0.002792 -0.002621 0.002861 0.000945 0.025897 0.001200
# 6 -0.004428 -0.004554 -0.000397 -0.004888 0.001200 0.034667
#
#
# Mechanical properties :
#
#
# Convention : Reuss Voigt Hill
#
# Bulk Modulus (GPa) = 39.72896 45.14814 42.43855
# Shear Modulus (GPa) = 28.11718 31.19671 29.65695
#
# Velocity S-wave (km/s) = 3.51323 3.70062 3.60814
# Velocity P-wave (km/s) = 5.82212 6.17077 5.99898
#
# Compressibility (1/GPa) = 0.02517056
#
# Stress axis : x y z
#
# Youngs Moduli (GPa) = 72.75949 60.54970 56.44006
#
# Poissons Ratio (x) = -0.04829 0.31590
# Poissons Ratio (y) = -0.05803 0.37271
# Poissons Ratio (z) = 0.40725 0.39985
#
# Static dielectric constant tensor:
#      x y z
#    x 4.114000 0.286950 0.109440 
#    y 0.286950 4.772010 -0.092260 
#    z 0.109440 -0.092260 4.197970 
# 
# 
# High freq. dielectric constant tensor:
#      x y z
#    x 1.886800 0.002930 0.001310 
#    y 0.002930 1.909450 -0.009370 
#    z 0.001310 -0.009370 1.894880 
# 
# From -- ./inp_files/260960.got.cif
#   From: 2010.06.25/outbox.cif.g09.slc.cpg/sg2_131_cif.got.tgz:260960.got - 2010.06.27 13:26:56.
