data_PCOD8023755
_publ_section_title
;
Structure prediction by ZEFSAII (Michael W. Deem and Ramdas Pophale) SiO2 
 PCOD8023755
Probable space group: P -1
;
_chemical_formula_sum "Si O2"
_cell_formula_units_Z 16
_cell_length_a 14.560728
_cell_length_b 12.386374
_cell_length_c 8.860662
_cell_angle_alpha 114.475365
_cell_angle_beta 126.531283
_cell_angle_gamma 108.476640
_cell_volume 744.883668
_symmetry_space_group_name_H-M "P -1"
_symmetry_group_IT_number 2
_symmetry_cell_setting 'triclinic'
loop_
_space_group_symop_operation_xyz
x,y,z
-x,-y,-z
loop_
_atom_site_type_symbol
_atom_site_label
_atom_site_fract_x
_atom_site_fract_y
_atom_site_fract_z
Si Si1 0.194995 0.644077 0.339928
Si Si2 0.179115 0.611720 0.650225
Si Si3 0.333577 0.491811 0.361250
Si Si4 0.700514 0.795605 0.406199
Si Si5 0.058611 0.081715 0.770818
Si Si6 0.655157 0.500253 0.278225
Si Si7 0.673810 0.850573 0.752362
Si Si8 0.472644 0.006309 0.303348
O O1 0.179077 0.663596 0.511511
O O2 0.258345 0.562933 0.324262
O O3 0.336927 0.844484 0.511935
O O4 0.000000 0.500000 0.000000
O O5 0.196216 0.482620 0.589583
O O6 0.000000 0.500000 0.500000
O O7 0.351998 0.803320 0.009567
O O8 0.358763 0.470181 0.545049
O O9 0.525147 0.641863 0.553060
O O10 0.199946 0.301241 0.027866
O O11 0.714145 0.663470 0.339114
O O12 0.680024 0.837337 0.572843
O O13 0.535320 0.701972 0.084317
O O14 0.884558 0.993164 0.634178
O O15 0.140287 0.035149 0.916767
O O16 0.000000 0.000000 0.500000
O O17 0.629520 0.951628 0.801363
O O18 0.500000 0.000000 0.500000
#
# Coordination Sequence:
#
# PCOD8023755 Si02
#       8
#     2   2   2   2   2   2   2   2
#     4  10  23  43  66  95 126 173 220 268 322 385
#     4  11  24  41  68  95 132 172 220 269 323 382
#     4  10  23  43  65  90 130 168 207 266 322 387
#     4  11  24  40  66  94 128 165 215 261 316 390
#     4  12  26  40  62  97 129 167 214 262 323 381
#     4  10  23  42  65  91 129 171 212 258 327 375
#     4  11  24  42  68  93 131 169 214 262 326 386
#     4  11  24  43  66  98 132 171 218 273 327 386
#
# _framework density 21.479863999999999
#
# number of rings (size 3 to 8) (size 9 to 14) (size 15 to 20)
#    0.000    1.250    1.250    3.375    5.250    5.000 
#    0.000    0.000    0.000    0.000    0.000    0.000 
#    0.000    0.000    0.000    0.000    0.000    0.000 
#
# Total GULP energy -198474.039676 kJ/mol
# GULP energy per Si atom -12404.627480 kJ/mol
# Density = 2.143097 g / cm^3
# Si number density = 21.479864 Si / 1000 Ang^3
#
#
#
# Elastic Constant Matrix: (Units=GPa)
#
#
# Indices 1 2 3 4 5 6 
#
# 1 110.7219 23.5788 43.5166 4.0883 1.2662 30.2300
# 2 23.5788 63.7485 24.0417 0.9781 -1.7777 20.7144
# 3 43.5166 24.0417 133.3910 -11.1046 -9.6342 23.2558
# 4 4.0883 0.9781 -11.1046 37.1703 6.7611 -3.4380
# 5 1.2662 -1.7777 -9.6342 6.7611 45.6471 0.0690
# 6 30.2300 20.7144 23.2558 -3.4380 0.0690 35.9207
#
#
#
# Elastic Compliance Matrix: (Units=1/GPa)
#
#
# Indices 1 2 3 4 5 6 
#
# 1 0.012813 -0.000799 -0.002784 -0.002938 -0.000526 -0.008800
# 2 -0.000799 0.019891 -0.001714 -0.001997 0.000746 -0.009881
# 3 -0.002784 -0.001714 0.009500 0.002656 0.001626 -0.002568
# 4 -0.002938 -0.001997 0.002656 0.029193 -0.003767 0.004706
# 5 -0.000526 0.000746 0.001626 -0.003767 0.022854 -0.001445
# 6 -0.008800 -0.009881 -0.002568 0.004706 -0.001445 0.043058
#
#
# Mechanical properties :
#
#
# Convention : Reuss Voigt Hill
#
# Bulk Modulus (GPa) = 31.63674 54.45951 43.04813
# Shear Modulus (GPa) = 31.55732 38.19590 34.87661
#
# Velocity S-wave (km/s) = 3.83712 4.22147 4.03387
# Velocity P-wave (km/s) = 5.86446 7.01212 6.46381
#
# Compressibility (1/GPa) = 0.03160882
#
# Stress axis : x y z
#
# Youngs Moduli (GPa) = 78.04352 50.27469 105.25952
#
# Poissons Ratio (x) = 0.04019 0.29309
# Poissons Ratio (y) = 0.06238 0.18042
# Poissons Ratio (z) = 0.21731 0.08617
#
# Static dielectric constant tensor:
#      x y z
#    x 3.734840 0.166340 -0.017620 
#    y 0.166340 3.896050 0.141230 
#    z -0.017620 0.141230 3.808900 
# 
# 
# High freq. dielectric constant tensor:
#      x y z
#    x 1.854670 0.001770 0.002280 
#    y 0.001770 1.845180 -0.004490 
#    z 0.002280 -0.004490 1.853610 
# 
# From -- ./inp_files/184860.got.cif
#   From: 2010.06.25/outbox.cif.g09.slc.cpg/sg2_93_cif.got.tgz:184860.got - 2010.06.27 13:26:56.
