data_PCOD8023338
_publ_section_title
;
Structure prediction by ZEFSAII (Michael W. Deem and Ramdas Pophale) SiO2 
 PCOD8023338
Probable space group: P -1
;
_chemical_formula_sum "Si O2"
_cell_formula_units_Z 16
_cell_length_a 18.252191
_cell_length_b 6.489478
_cell_length_c 15.246176
_cell_angle_alpha 135.124058
_cell_angle_beta 36.126982
_cell_angle_gamma 131.970145
_cell_volume 730.786678
_symmetry_space_group_name_H-M "P -1"
_symmetry_group_IT_number 2
_symmetry_cell_setting 'triclinic'
loop_
_space_group_symop_operation_xyz
x,y,z
-x,-y,-z
loop_
_atom_site_type_symbol
_atom_site_label
_atom_site_fract_x
_atom_site_fract_y
_atom_site_fract_z
Si Si1 0.781760 0.720966 0.734736
Si Si2 0.122439 0.666816 0.984924
Si Si3 0.453273 0.439259 0.384912
Si Si4 0.315846 0.263735 0.639638
Si Si5 0.028509 0.703653 0.279257
Si Si6 0.403566 0.848730 0.974068
Si Si7 0.753600 0.401729 0.488148
Si Si8 0.191526 0.367529 0.122349
O O1 0.739026 0.475499 0.626799
O O2 0.789123 0.557079 0.770383
O O3 0.918979 0.941725 0.643230
O O4 0.681963 0.928003 0.905091
O O5 0.240273 0.519374 0.807079
O O6 0.090649 0.631313 0.106841
O O7 0.000000 0.500000 0.000000
O O8 0.163893 0.014541 0.021612
O O9 0.358864 0.268592 0.498789
O O10 0.562304 0.695967 0.401912
O O11 0.518647 0.201787 0.202110
O O12 0.375130 0.579938 0.431395
O O13 0.226389 0.934457 0.643114
O O14 0.069322 0.493538 0.250513
O O15 0.875521 0.631495 0.397855
O O16 0.317118 0.534707 0.998414
O O17 0.500000 0.000000 0.000000
#
# Coordination Sequence:
#
# PCOD8023338 Si02
#       8
#     2   2   2   2   2   2   2   2
#     4  10  23  42  65  98 128 166 214 265 325 381
#     4  11  23  44  68  96 128 169 218 264 322 385
#     4  11  25  44  61  92 135 165 216 269 315 376
#     4  11  26  42  64  95 133 169 214 264 318 385
#     4  10  23  41  65  97 129 163 215 270 318 383
#     4  11  23  43  68  94 124 167 219 267 312 386
#     4  12  24  40  66  94 128 176 210 258 327 381
#     4  10  23  41  67  92 128 169 212 272 323 370
#
# _framework density 21.894214999999999
#
# number of rings (size 3 to 8) (size 9 to 14) (size 15 to 20)
#    0.000    1.250    1.250    4.500    1.750   10.000 
#    0.000    0.000    0.000    0.000    0.000    0.000 
#    0.000    0.000    0.000    0.000    0.000    0.000 
#
# Total GULP energy -198475.016380 kJ/mol
# GULP energy per Si atom -12404.688524 kJ/mol
# Density = 2.184438 g / cm^3
# Si number density = 21.894215 Si / 1000 Ang^3
#
#
#
# Elastic Constant Matrix: (Units=GPa)
#
#
# Indices 1 2 3 4 5 6 
#
# 1 136.4297 40.4577 24.5347 0.4738 6.0174 3.0344
# 2 40.4577 68.1361 18.9786 9.0931 -2.8801 3.9119
# 3 24.5347 18.9786 87.1248 -1.6266 4.3355 -2.6336
# 4 0.4738 9.0931 -1.6266 30.3865 4.0130 0.6664
# 5 6.0174 -2.8801 4.3355 4.0130 37.3308 -0.3443
# 6 3.0344 3.9119 -2.6336 0.6664 -0.3443 31.4073
#
#
#
# Elastic Compliance Matrix: (Units=1/GPa)
#
#
# Indices 1 2 3 4 5 6 
#
# 1 0.009260 -0.005416 -0.001312 0.001671 -0.001941 -0.000387
# 2 -0.005416 0.019897 -0.003163 -0.006450 0.003450 -0.002046
# 3 -0.001312 -0.003163 0.012701 0.001837 -0.001691 0.001528
# 4 0.001671 -0.006450 0.001837 0.035546 -0.004802 -0.000011
# 5 -0.001941 0.003450 -0.001691 -0.004802 0.028079 0.000026
# 6 -0.000387 -0.002046 0.001528 -0.000011 0.000026 0.032261
#
#
# Mechanical properties :
#
#
# Convention : Reuss Voigt Hill
#
# Bulk Modulus (GPa) = 45.29647 51.07031 48.18339
# Shear Modulus (GPa) = 30.32410 33.67288 31.99849
#
# Velocity S-wave (km/s) = 3.72563 3.92596 3.82711
# Velocity P-wave (km/s) = 6.26425 6.62778 6.44858
#
# Compressibility (1/GPa) = 0.02207678
#
# Stress axis : x y z
#
# Youngs Moduli (GPa) = 107.98902 50.25759 78.73480
#
# Poissons Ratio (x) = 0.27219 0.10329
# Poissons Ratio (y) = 0.58486 0.24905
# Poissons Ratio (z) = 0.14166 0.15897
#
# Static dielectric constant tensor:
#      x y z
#    x 2.775150 -1.139730 0.454380 
#    y -1.139730 2.688290 0.275290 
#    z 0.454380 0.275290 3.847590 
# 
# 
# High freq. dielectric constant tensor:
#      x y z
#    x 1.882680 0.010500 0.004940 
#    y 0.010500 1.856280 -0.001900 
#    z 0.004940 -0.001900 1.862350 
# 
# From -- ./inp_files/66257.got.cif
#   From: 2010.06.25/outbox.cif.g09.slc.cpg/sg2_34_cif.got.tgz:66257.got - 2010.06.27 13:26:56.
