data_PCOD8023975
_publ_section_title
;
Structure prediction by ZEFSAII (Michael W. Deem and Ramdas Pophale) SiO2 
 PCOD8023975
Probable space group: P -1
;
_chemical_formula_sum "Si O2"
_cell_formula_units_Z 16
_cell_length_a 5.254330
_cell_length_b 18.305620
_cell_length_c 8.860236
_cell_angle_alpha 118.455584
_cell_angle_beta 124.221204
_cell_angle_gamma 71.587110
_cell_volume 618.190193
_symmetry_space_group_name_H-M "P -1"
_symmetry_group_IT_number 2
_symmetry_cell_setting 'triclinic'
loop_
_space_group_symop_operation_xyz
x,y,z
-x,-y,-z
loop_
_atom_site_type_symbol
_atom_site_label
_atom_site_fract_x
_atom_site_fract_y
_atom_site_fract_z
Si Si1 0.460018 0.842424 0.280229
Si Si2 0.767723 0.606575 0.734229
Si Si3 0.173380 0.209096 0.046686
Si Si4 0.384853 0.936982 0.060687
Si Si5 0.736339 0.887096 0.733734
Si Si6 0.468454 0.550791 0.859051
Si Si7 0.470627 0.369298 0.643097
Si Si8 0.859266 0.689620 0.254752
O O1 0.357495 0.921043 0.217570
O O2 0.552435 0.872049 0.505496
O O3 0.736196 0.780471 0.239617
O O4 0.172928 0.783849 0.126503
O O5 0.696231 0.702401 0.861410
O O6 0.535532 0.552442 0.700445
O O7 0.704232 0.595888 0.527190
O O8 0.133388 0.582001 0.840388
O O9 0.215271 0.196004 0.229851
O O10 0.336922 0.126461 0.951809
O O11 0.448349 0.035186 0.159990
O O12 0.077218 0.918108 0.846407
O O13 0.536395 0.454508 0.842313
O O14 0.732015 0.609841 0.055528
O O15 0.248928 0.312182 0.607818
O O16 0.775361 0.314161 0.644298
#
# Coordination Sequence:
#
# PCOD8023975 Si02
#       8
#     2   2   2   2   2   2   2   2
#     4  11  24  41  66  95 135 174 224 275 338 402
#     4  12  25  43  70  99 135 178 227 280 343 403
#     4  11  24  41  65  96 133 175 219 282 333 404
#     4  10  23  42  68  96 134 170 222 275 338 400
#     4  10  23  43  66  99 130 174 219 277 335 407
#     4  12  24  46  68  97 137 177 224 283 342 405
#     4  12  26  43  69  99 133 179 228 281 340 409
#     4  12  25  43  66 100 135 176 228 278 339 404
#
# _framework density 25.882000999999999
#
# number of rings (size 3 to 8) (size 9 to 14) (size 15 to 20)
#    0.000    0.750    1.250    6.000    5.250    1.500 
#    0.000    0.000    0.000    0.000    0.000    0.000 
#    0.000    0.000    0.000    0.000    0.000    0.000 
#
# Total GULP energy -198338.466220 kJ/mol
# GULP energy per Si atom -12396.154139 kJ/mol
# Density = 2.582309 g / cm^3
# Si number density = 25.882001 Si / 1000 Ang^3
#
#
#
# Elastic Constant Matrix: (Units=GPa)
#
#
# Indices 1 2 3 4 5 6 
#
# 1 93.2987 42.0080 -10.4021 -7.5931 -1.5390 -21.1842
# 2 42.0080 119.8360 4.6729 -6.6101 11.7908 -7.1256
# 3 -10.4021 4.6729 98.3445 -19.3829 5.1744 -10.6021
# 4 -7.5931 -6.6101 -19.3829 33.8646 -2.3326 -5.9169
# 5 -1.5390 11.7908 5.1744 -2.3326 20.9778 1.7652
# 6 -21.1842 -7.1256 -10.6021 -5.9169 1.7652 48.2781
#
#
#
# Elastic Compliance Matrix: (Units=1/GPa)
#
#
# Indices 1 2 3 4 5 6 
#
# 1 0.015778 -0.005194 0.003805 0.006257 0.003191 0.007643
# 2 -0.005194 0.010763 -0.000820 -0.000073 -0.006181 -0.000654
# 3 0.003805 -0.000820 0.013097 0.009034 -0.001957 0.005603
# 4 0.006257 -0.000073 0.009034 0.037829 0.001696 0.009293
# 5 0.003191 -0.006181 -0.001957 0.001696 0.052187 -0.001642
# 6 0.007643 -0.000654 0.005603 0.009293 -0.001642 0.026400
#
#
# Mechanical properties :
#
#
# Convention : Reuss Voigt Hill
#
# Bulk Modulus (GPa) = 28.39339 42.67076 35.53208
# Shear Modulus (GPa) = 29.03389 38.97080 34.00234
#
# Velocity S-wave (km/s) = 3.35293 3.88456 3.62849
# Velocity P-wave (km/s) = 5.09742 6.05328 5.59579
#
# Compressibility (1/GPa) = 0.03521946
#
# Stress axis : x y z
#
# Youngs Moduli (GPa) = 63.37892 92.91428 76.35170
#
# Poissons Ratio (x) = 0.48257 -0.29051
# Poissons Ratio (y) = 0.32917 0.06264
# Poissons Ratio (z) = -0.24115 0.07623
#
# Static dielectric constant tensor:
#      x y z
#    x 4.741100 0.343870 -0.348580 
#    y 0.343870 5.024480 -0.229210 
#    z -0.348580 -0.229210 4.704380 
# 
# 
# High freq. dielectric constant tensor:
#      x y z
#    x 2.029490 0.004400 -0.018660 
#    y 0.004400 2.056470 -0.009450 
#    z -0.018660 -0.009450 2.039690 
# 
# From -- ./inp_files/44680.got.cif
#   From: 2010.06.25/outbox.cif.g09.slc.cpg/sg2_23_cif.got.tgz:44680.got - 2010.06.27 13:26:56.
