data_PCOD8023172
_publ_section_title
;
Structure prediction by ZEFSAII (Michael W. Deem and Ramdas Pophale) SiO2 
 PCOD8023172
Probable space group: P -1
;
_chemical_formula_sum "Si O2"
_cell_formula_units_Z 14
_cell_length_a 9.035489
_cell_length_b 11.785418
_cell_length_c 9.727056
_cell_angle_alpha 122.935796
_cell_angle_beta 62.269010
_cell_angle_gamma 130.188373
_cell_volume 653.434982
_symmetry_space_group_name_H-M "P -1"
_symmetry_group_IT_number 2
_symmetry_cell_setting 'triclinic'
loop_
_space_group_symop_operation_xyz
x,y,z
-x,-y,-z
loop_
_atom_site_type_symbol
_atom_site_label
_atom_site_fract_x
_atom_site_fract_y
_atom_site_fract_z
Si Si1 0.532675 0.378919 0.994234
Si Si2 0.938301 0.842433 0.332152
Si Si3 0.141812 0.076316 0.861416
Si Si4 0.293466 0.871378 0.566712
Si Si5 0.898907 0.356847 0.745391
Si Si6 0.817564 0.411738 0.422846
Si Si7 0.477679 0.454149 0.635480
O O1 0.520106 0.412242 0.181895
O O2 0.500000 0.500000 0.000000
O O3 0.358755 0.205340 0.908663
O O4 0.747943 0.400686 0.905166
O O5 0.953522 0.867557 0.176406
O O6 0.710855 0.720824 0.381022
O O7 0.064962 0.760842 0.254229
O O8 0.000000 0.000000 0.500000
O O9 0.156205 0.941129 0.688510
O O10 0.000000 0.000000 0.000000
O O11 0.196157 0.729072 0.409971
O O12 0.288553 0.782745 0.654063
O O13 0.500000 0.000000 0.500000
O O14 0.109316 0.518344 0.718911
O O15 0.668342 0.449749 0.585975
O O16 0.000000 0.500000 0.500000
O O17 0.500000 0.500000 0.500000
#
# Coordination Sequence:
#
# PCOD8023172 Si02
#       7
#     2   2   2   2   2   2   2
#     4  12  26  47  73 103 145 189 246 296 354 427
#     4  12  26  48  75 104 150 190 237 300 368 426
#     4  12  28  45  72 106 142 190 241 298 358 427
#     4  11  21  43  69 104 140 186 239 291 351 420
#     4  11  24  44  72 105 140 192 239 296 359 427
#     4  10  23  40  73 103 138 186 244 288 350 433
#     4  12  26  47  70 107 145 187 231 299 363 426
#
# _framework density 21.425236999999999
#
# number of rings (size 3 to 8) (size 9 to 14) (size 15 to 20)
#    0.000    0.571    5.714    2.571    8.000    0.571 
#    2.571    0.714    0.000    0.000    0.000    0.000 
#    0.000    0.000    0.000    0.000    0.000    0.000 
#
# Total GULP energy -173458.257795 kJ/mol
# GULP energy per Si atom -12389.875557 kJ/mol
# Density = 2.137647 g / cm^3
# Si number density = 21.425237 Si / 1000 Ang^3
#
#
#
# Elastic Constant Matrix: (Units=GPa)
#
#
# Indices 1 2 3 4 5 6 
#
# 1 125.5635 52.3132 62.4502 -11.3711 -26.9225 -14.2501
# 2 52.3132 138.9309 49.4264 -24.2686 -3.4844 -13.5155
# 3 62.4502 49.4264 122.8499 -15.3950 -8.7538 -8.7043
# 4 -11.3711 -24.2686 -15.3950 37.8777 -0.0545 2.9367
# 5 -26.9225 -3.4844 -8.7538 -0.0545 49.2825 -1.3481
# 6 -14.2501 -13.5155 -8.7043 2.9367 -1.3481 43.3888
#
#
#
# Elastic Compliance Matrix: (Units=1/GPa)
#
#
# Indices 1 2 3 4 5 6 
#
# 1 0.013242 -0.002808 -0.004974 -0.000044 0.006225 0.002673
# 2 -0.002808 0.009854 -0.001946 0.004569 -0.001139 0.001412
# 3 -0.004974 -0.001946 0.011641 0.001995 -0.000787 -0.000064
# 4 -0.000044 0.004569 0.001995 0.030143 0.000681 -0.000210
# 5 0.006225 -0.001139 -0.000787 0.000681 0.023533 0.002217
# 6 0.002673 0.001412 -0.000064 -0.000210 0.002217 0.024435
#
#
# Mechanical properties :
#
#
# Convention : Reuss Voigt Hill
#
# Bulk Modulus (GPa) = 65.44061 79.52487 72.48274
# Shear Modulus (GPa) = 36.39038 40.98676 38.68857
#
# Velocity S-wave (km/s) = 4.12574 4.37855 4.25402
# Velocity P-wave (km/s) = 7.30107 7.92213 7.61793
#
# Compressibility (1/GPa) = 0.01528103
#
# Stress axis : x y z
#
# Youngs Moduli (GPa) = 75.51652 101.47846 85.90329
#
# Poissons Ratio (x) = 0.28495 0.42731
# Poissons Ratio (y) = 0.21205 0.16715
# Poissons Ratio (z) = 0.37565 0.19746
#
# Static dielectric constant tensor:
#      x y z
#    x 3.626250 -0.446930 1.060400 
#    y -0.446930 4.490120 0.176110 
#    z 1.060400 0.176110 1.887290 
# 
# 
# High freq. dielectric constant tensor:
#      x y z
#    x 1.848950 -0.007710 -0.008310 
#    y -0.007710 1.856690 -0.008970 
#    z -0.008310 -0.008970 1.834040 
# 
# From -- ./inp_files/159135.got.cif
#   From: 2010.06.25/outbox.cif.g09.slc.cpg/sg2_80_cif.got.tgz:159135.got - 2010.06.27 13:26:56.
