data_PCOD8023684
_publ_section_title
;
Structure prediction by ZEFSAII (Michael W. Deem and Ramdas Pophale) SiO2 
 PCOD8023684
Probable space group: P -1
;
_chemical_formula_sum "Si O2"
_cell_formula_units_Z 16
_cell_length_a 14.951423
_cell_length_b 8.846721
_cell_length_c 19.833761
_cell_angle_alpha 110.877183
_cell_angle_beta 19.558686
_cell_angle_gamma 120.099249
_cell_volume 695.998251
_symmetry_space_group_name_H-M "P -1"
_symmetry_group_IT_number 2
_symmetry_cell_setting 'triclinic'
loop_
_space_group_symop_operation_xyz
x,y,z
-x,-y,-z
loop_
_atom_site_type_symbol
_atom_site_label
_atom_site_fract_x
_atom_site_fract_y
_atom_site_fract_z
Si Si1 0.929372 0.953732 0.451135
Si Si2 0.028358 0.021655 0.138119
Si Si3 0.221832 0.918534 0.545661
Si Si4 0.099189 0.770671 0.847551
Si Si5 0.545415 0.385860 0.508412
Si Si6 0.939324 0.472705 0.460747
Si Si7 0.332181 0.884269 0.240319
Si Si8 0.509622 0.476450 0.290968
O O1 0.624037 0.747786 0.656680
O O2 0.265518 0.980769 0.238452
O O3 0.923118 0.980700 0.379559
O O4 0.888738 0.113212 0.542761
O O5 0.900608 0.109915 0.296390
O O6 0.078487 0.140139 0.052390
O O7 0.324826 0.019534 0.956386
O O8 0.776700 0.801765 0.270885
O O9 0.076190 0.709851 0.586545
O O10 0.602350 0.054701 0.297419
O O11 0.203392 0.666696 0.703278
O O12 0.886142 0.615572 0.032496
O O13 0.500000 0.500000 0.500000
O O14 0.637269 0.505038 0.531254
O O15 0.614063 0.456224 0.672353
O O16 0.000000 0.500000 0.500000
O O17 0.223688 0.670964 0.258951
#
# Coordination Sequence:
#
# PCOD8023684 Si02
#       8
#     2   2   2   2   2   2   2   2
#     4  10  23  43  63  94 128 174 221 271 324 391
#     4  11  24  44  65  97 135 173 214 277 333 391
#     4  11  23  41  68  94 136 168 215 280 332 390
#     4  11  25  43  67 104 137 170 220 272 332 401
#     4  11  25  44  67 102 138 171 218 275 332 401
#     4  11  21  39  64  95 126 174 224 268 321 391
#     4  10  23  42  63  89 131 172 223 269 320 389
#     4  11  24  41  70  96 132 181 216 268 337 395
#
# _framework density 22.988562999999999
#
# number of rings (size 3 to 8) (size 9 to 14) (size 15 to 20)
#    0.000    1.250    1.250    5.250    3.500    3.000 
#    0.000    2.500    0.000    0.000    0.000    0.000 
#    0.000    0.000    0.000    0.000    0.000    0.000 
#
# Total GULP energy -198238.712072 kJ/mol
# GULP energy per Si atom -12389.919505 kJ/mol
# Density = 2.293624 g / cm^3
# Si number density = 22.988563 Si / 1000 Ang^3
#
#
#
# Elastic Constant Matrix: (Units=GPa)
#
#
# Indices 1 2 3 4 5 6 
#
# 1 119.1864 33.0449 12.3317 -0.7221 -14.2845 -8.6054
# 2 33.0449 106.2302 14.6941 -4.1467 -3.1954 -0.6909
# 3 12.3317 14.6941 45.2053 8.8071 -9.3192 -5.5822
# 4 -0.7221 -4.1467 8.8071 17.4993 -6.1346 -1.6214
# 5 -14.2845 -3.1954 -9.3192 -6.1346 33.9406 1.6297
# 6 -8.6054 -0.6909 -5.5822 -1.6214 1.6297 46.0521
#
#
#
# Elastic Compliance Matrix: (Units=1/GPa)
#
#
# Indices 1 2 3 4 5 6 
#
# 1 0.009845 -0.002701 -0.001184 0.001849 0.003822 0.001586
# 2 -0.002701 0.010926 -0.003785 0.004198 -0.000358 -0.000639
# 3 -0.001184 -0.003785 0.027378 -0.013030 0.004191 0.002433
# 4 0.001849 0.004198 -0.013030 0.068327 0.009903 0.000884
# 5 0.003822 -0.000358 0.004191 0.009903 0.033961 0.000364
# 6 0.001586 -0.000639 0.002433 0.000884 0.000364 0.022314
#
#
# Mechanical properties :
#
#
# Convention : Reuss Voigt Hill
#
# Bulk Modulus (GPa) = 30.48054 43.41814 36.94934
# Shear Modulus (GPa) = 25.12179 33.53515 29.32847
#
# Velocity S-wave (km/s) = 3.30933 3.82354 3.57569
# Velocity P-wave (km/s) = 5.28110 6.19842 5.75806
#
# Compressibility (1/GPa) = 0.03280782
#
# Stress axis : x y z
#
# Youngs Moduli (GPa) = 101.56944 91.52165 36.52601
#
# Poissons Ratio (x) = 0.24723 0.04325
# Poissons Ratio (y) = 0.27438 0.13826
# Poissons Ratio (z) = 0.12027 0.34644
#
# Static dielectric constant tensor:
#      x y z
#    x 3.984600 1.035430 -0.515010 
#    y 1.035430 4.052410 0.474680 
#    z -0.515010 0.474680 3.698020 
# 
# 
# High freq. dielectric constant tensor:
#      x y z
#    x 1.926450 -0.003970 -0.016940 
#    y -0.003970 1.923640 -0.007950 
#    z -0.016940 -0.007950 1.873830 
# 
# From -- ./inp_files/508176.got.cif
#   From: 2010.06.25/outbox.cif.g09.slc.cpg/sg2_255_cif.got.tgz:508176.got - 2010.06.27 13:26:56.
