data_PCOD8023121
_publ_section_title
;
Structure prediction by ZEFSAII (Michael W. Deem and Ramdas Pophale) SiO2 
 PCOD8023121
Probable space group: P -1
;
_chemical_formula_sum "Si O2"
_cell_formula_units_Z 16
_cell_length_a 8.456371
_cell_length_b 11.929667
_cell_length_c 27.098642
_cell_angle_alpha 29.866846
_cell_angle_beta 35.771562
_cell_angle_gamma 53.815638
_cell_volume 733.152294
_symmetry_space_group_name_H-M "P -1"
_symmetry_group_IT_number 2
_symmetry_cell_setting 'triclinic'
loop_
_space_group_symop_operation_xyz
x,y,z
-x,-y,-z
loop_
_atom_site_type_symbol
_atom_site_label
_atom_site_fract_x
_atom_site_fract_y
_atom_site_fract_z
Si Si1 0.772341 0.210091 0.437443
Si Si2 0.349862 0.406203 0.022008
Si Si3 0.114757 0.667900 0.118511
Si Si4 0.150664 0.057377 0.693286
Si Si5 0.178511 0.610966 0.363127
Si Si6 0.226388 0.052396 0.867729
Si Si7 0.036069 0.203411 0.474114
Si Si8 0.605553 0.099679 0.215518
O O1 0.447804 0.200871 0.533256
O O2 0.896378 0.388792 0.291072
O O3 0.978020 0.312292 0.395077
O O4 0.745710 0.936519 0.536055
O O5 0.554780 0.322094 0.965684
O O6 0.271756 0.612844 0.935913
O O7 0.500000 0.500000 0.000000
O O8 0.059637 0.171471 0.198334
O O9 0.029393 0.840372 0.112726
O O10 0.083295 0.774532 0.031500
O O11 0.988819 0.236677 0.678452
O O12 0.200729 0.944205 0.774417
O O13 0.516148 0.778563 0.225283
O O14 0.176450 0.408539 0.401408
O O15 0.000000 0.500000 0.500000
O O16 0.366683 0.057245 0.777703
O O17 0.733475 0.995556 0.648306
#
# Coordination Sequence:
#
# PCOD8023121 Si02
#       8
#     2   2   2   2   2   2   2   2
#     4  10  23  44  64  99 136 172 219 274 335 388
#     4  12  23  45  70  96 132 178 221 274 332 394
#     4  11  23  43  69  93 134 173 219 271 334 392
#     4  11  26  42  68 103 129 175 226 273 332 400
#     4  12  23  42  66 101 132 172 227 272 328 396
#     4  11  24  43  66  98 131 176 221 274 330 398
#     4  10  23  40  68  96 135 176 218 274 331 396
#     4  11  22  44  69  95 133 176 225 271 331 394
#
# _framework density 21.82357
#
# number of rings (size 3 to 8) (size 9 to 14) (size 15 to 20)
#    0.000    1.000    5.000    1.125    1.750    2.000 
#    0.000    3.125    0.000    0.000    0.000    0.000 
#    0.000    0.000    0.000    0.000    0.000    0.000 
#
# Total GULP energy -198367.943173 kJ/mol
# GULP energy per Si atom -12397.996448 kJ/mol
# Density = 2.177390 g / cm^3
# Si number density = 21.823570 Si / 1000 Ang^3
#
#
#
# Elastic Constant Matrix: (Units=GPa)
#
#
# Indices 1 2 3 4 5 6 
#
# 1 85.1496 41.4097 38.9822 -10.1286 2.1798 2.7803
# 2 41.4097 116.5684 16.8798 -1.2272 -7.0708 -0.5051
# 3 38.9822 16.8798 94.8226 -6.1807 7.0348 0.7382
# 4 -10.1286 -1.2272 -6.1807 32.4816 -0.4458 0.3957
# 5 2.1798 -7.0708 7.0348 -0.4458 30.9560 -5.0083
# 6 2.7803 -0.5051 0.7382 0.3957 -5.0083 34.5243
#
#
#
# Elastic Compliance Matrix: (Units=1/GPa)
#
#
# Indices 1 2 3 4 5 6 
#
# 1 0.017702 -0.005477 -0.005916 0.004188 -0.001355 -0.001624
# 2 -0.005477 0.010690 0.000037 -0.001269 0.002969 0.001042
# 3 -0.005916 0.000037 0.013207 0.000636 -0.002598 -0.000190
# 4 0.004188 -0.001269 0.000636 0.032170 -0.000395 -0.000795
# 5 -0.001355 0.002969 -0.002598 -0.000395 0.034506 0.005218
# 6 -0.001624 0.001042 -0.000190 -0.000795 0.005218 0.029881
#
#
# Mechanical properties :
#
#
# Convention : Reuss Voigt Hill
#
# Bulk Modulus (GPa) = 52.94356 54.56490 53.75423
# Shear Modulus (GPa) = 29.91066 32.87697 31.39382
#
# Velocity S-wave (km/s) = 3.70613 3.88556 3.79691
# Velocity P-wave (km/s) = 6.52889 6.72214 6.62622
#
# Compressibility (1/GPa) = 0.01888804
#
# Stress axis : x y z
#
# Youngs Moduli (GPa) = 56.49089 93.54448 75.71630
#
# Poissons Ratio (x) = 0.51233 0.44795
# Poissons Ratio (y) = 0.30940 -0.00284
# Poissons Ratio (z) = 0.33421 -0.00351
#
# Static dielectric constant tensor:
#      x y z
#    x 3.830630 -0.191930 0.183410 
#    y -0.191930 4.209540 0.069160 
#    z 0.183410 0.069160 3.974230 
# 
# 
# High freq. dielectric constant tensor:
#      x y z
#    x 1.840690 -0.018290 0.020000 
#    y -0.018290 1.874240 0.006720 
#    z 0.020000 0.006720 1.856690 
# 
# From -- ./inp_files/333616.got.cif
#   From: 2010.06.25/outbox.cif.g09.slc.cpg/sg2_167_cif.got.tgz:333616.got - 2010.06.27 13:26:56.
