data_PCOD8023728
_publ_section_title
;
Structure prediction by ZEFSAII (Michael W. Deem and Ramdas Pophale) SiO2 
 PCOD8023728
Probable space group: P -1
;
_chemical_formula_sum "Si O2"
_cell_formula_units_Z 16
_cell_length_a 15.572595
_cell_length_b 5.348912
_cell_length_c 9.217048
_cell_angle_alpha 75.541489
_cell_angle_beta 73.230866
_cell_angle_gamma 75.358150
_cell_volume 698.161088
_symmetry_space_group_name_H-M "P -1"
_symmetry_group_IT_number 2
_symmetry_cell_setting 'triclinic'
loop_
_space_group_symop_operation_xyz
x,y,z
-x,-y,-z
loop_
_atom_site_type_symbol
_atom_site_label
_atom_site_fract_x
_atom_site_fract_y
_atom_site_fract_z
Si Si1 0.975191 0.758232 0.384597
Si Si2 0.949579 0.755706 0.072019
Si Si3 0.332208 0.554211 0.340466
Si Si4 0.229027 0.135199 0.033178
Si Si5 0.507277 0.769644 0.147053
Si Si6 0.333546 0.543969 0.025074
Si Si7 0.148515 0.945793 0.366312
Si Si8 0.447239 0.260003 0.561067
O O1 0.945251 0.682233 0.252611
O O2 0.000000 0.500000 0.500000
O O3 0.066166 0.879710 0.317836
O O4 0.889209 0.943120 0.476455
O O5 0.846425 0.834948 0.058090
O O6 0.000000 0.500000 0.000000
O O7 0.000000 0.000000 0.000000
O O8 0.406976 0.742556 0.255014
O O9 0.332639 0.410450 0.204999
O O10 0.229941 0.705839 0.400875
O O11 0.356457 0.353698 0.493064
O O12 0.278347 0.385055 0.966839
O O13 0.295816 0.855460 0.010474
O O14 0.186550 0.147969 0.213970
O O15 0.568131 0.815154 0.252992
O O16 0.562835 0.502945 0.080991
O O17 0.500000 0.000000 0.000000
O O18 0.500000 0.500000 0.500000
O O19 0.500000 0.000000 0.500000
#
# Coordination Sequence:
#
# PCOD8023728 Si02
#       8
#     2   2   2   2   2   2   2   2
#     4  11  25  44  70 101 137 180 231 287 341 417
#     4  12  25  45  74 102 139 183 229 284 353 408
#     4  10  23  43  70  97 136 188 225 281 346 408
#     4  11  24  44  67 104 136 186 223 284 340 416
#     4  11  22  43  70 103 136 182 229 284 340 405
#     4  11  24  41  68 101 141 173 235 279 341 403
#     4  10  23  43  68  98 138 178 235 276 348 407
#     4  10  23  42  64  96 133 173 223 274 337 401
#
# _framework density 22.917349999999999
#
# number of rings (size 3 to 8) (size 9 to 14) (size 15 to 20)
#    0.000    1.250    1.250    4.125    7.000    6.000 
#    2.250    0.000    0.000    0.000    0.000    0.000 
#    0.000    0.000    0.000    0.000    0.000    0.000 
#
# Total GULP energy -198282.324547 kJ/mol
# GULP energy per Si atom -12392.645284 kJ/mol
# Density = 2.286519 g / cm^3
# Si number density = 22.917350 Si / 1000 Ang^3
#
#
#
# Elastic Constant Matrix: (Units=GPa)
#
#
# Indices 1 2 3 4 5 6 
#
# 1 104.7421 40.2738 56.2926 24.9952 19.0364 -17.9911
# 2 40.2738 114.6158 47.5154 22.8880 4.5933 -4.3285
# 3 56.2926 47.5154 139.8705 19.6135 30.6402 -25.1744
# 4 24.9952 22.8880 19.6135 41.1376 -5.5760 -4.2876
# 5 19.0364 4.5933 30.6402 -5.5760 51.5535 -1.1399
# 6 -17.9911 -4.3285 -25.1744 -4.2876 -1.1399 45.3206
#
#
#
# Elastic Compliance Matrix: (Units=1/GPa)
#
#
# Indices 1 2 3 4 5 6 
#
# 1 0.014898 -0.002514 -0.002634 -0.006625 -0.004351 0.003475
# 2 -0.002514 0.011413 -0.003005 -0.003409 0.001288 -0.001868
# 3 -0.002634 -0.003005 0.011764 -0.002640 -0.005931 0.004803
# 4 -0.006625 -0.003409 -0.002640 0.032426 0.007801 -0.001158
# 5 -0.004351 0.001288 -0.005931 0.007801 0.025180 -0.003528
# 6 0.003475 -0.001868 0.004803 -0.001158 -0.003528 0.025736
#
#
# Mechanical properties :
#
#
# Convention : Reuss Voigt Hill
#
# Bulk Modulus (GPa) = 45.93914 71.93245 58.93580
# Shear Modulus (GPa) = 34.48715 41.94546 38.21630
#
# Velocity S-wave (km/s) = 3.88345 4.28283 4.08802
# Velocity P-wave (km/s) = 6.34013 7.47749 6.93217
#
# Compressibility (1/GPa) = 0.02176793
#
# Stress axis : x y z
#
# Youngs Moduli (GPa) = 67.12102 87.62041 85.00176
#
# Poissons Ratio (x) = 0.22031 0.22392
# Poissons Ratio (y) = 0.16877 0.25545
# Poissons Ratio (z) = 0.17682 0.26332
#
# Static dielectric constant tensor:
#      x y z
#    x 4.216730 -0.340510 0.190340 
#    y -0.340510 3.678320 -0.134970 
#    z 0.190340 -0.134970 4.257620 
# 
# 
# High freq. dielectric constant tensor:
#      x y z
#    x 1.916170 -0.008010 0.012860 
#    y -0.008010 1.901080 0.012000 
#    z 0.012860 0.012000 1.908560 
# 
# From -- ./inp_files/288585.got.cif
#   From: 2010.06.25/outbox.cif.g09.slc.cpg/sg2_145_cif.got.tgz:288585.got - 2010.06.27 13:26:56.
