data_PCOD8023622
_publ_section_title
;
Structure prediction by ZEFSAII (Michael W. Deem and Ramdas Pophale) SiO2 
 PCOD8023622
Probable space group: P -1
;
_chemical_formula_sum "Si O2"
_cell_formula_units_Z 14
_cell_length_a 9.563710
_cell_length_b 12.640654
_cell_length_c 5.258592
_cell_angle_alpha 77.052964
_cell_angle_beta 99.183803
_cell_angle_gamma 84.802653
_cell_volume 606.319023
_symmetry_space_group_name_H-M "P -1"
_symmetry_group_IT_number 2
_symmetry_cell_setting 'triclinic'
loop_
_space_group_symop_operation_xyz
x,y,z
-x,-y,-z
loop_
_atom_site_type_symbol
_atom_site_label
_atom_site_fract_x
_atom_site_fract_y
_atom_site_fract_z
Si Si1 0.090454 0.197061 0.862330
Si Si2 0.074484 0.451675 0.795380
Si Si3 0.360763 0.860351 0.556454
Si Si4 0.613311 0.941086 0.871227
Si Si5 0.376873 0.427598 0.785806
Si Si6 0.514661 0.642393 0.645001
Si Si7 0.053111 0.876015 0.636789
O O1 0.096373 0.321434 0.870616
O O2 0.010118 0.192902 0.570591
O O3 0.252546 0.134547 0.922462
O O4 0.000930 0.150290 0.086085
O O5 0.228098 0.492114 0.800769
O O6 0.000000 0.500000 0.500000
O O7 0.000000 0.500000 0.000000
O O8 0.518435 0.871546 0.707010
O O9 0.386919 0.740508 0.492580
O O10 0.226771 0.856810 0.709314
O O11 0.316684 0.963210 0.304532
O O12 0.500000 0.000000 0.000000
O O13 0.476690 0.519938 0.720839
O O14 0.371510 0.360561 0.553440
O O15 0.426138 0.337266 0.067020
O O16 0.000000 0.000000 0.500000
#
# Coordination Sequence:
#
# PCOD8023622 Si02
#       7
#     2   2   2   2   2   2   2
#     4  12  28  47  77 101 150 192 236 295 368 417
#     4  12  27  46  70 103 140 188 237 292 344 432
#     4  11  26  42  73 102 143 180 242 285 356 424
#     4  11  26  46  70 108 139 188 235 296 351 436
#     4  10  23  46  64 101 135 173 232 282 348 398
#     4  10  23  41  72  96 133 179 220 292 340 411
#     4  12  26  49  70 108 143 192 232 292 353 437
#
# _framework density 23.090153999999998
#
# number of rings (size 3 to 8) (size 9 to 14) (size 15 to 20)
#    0.000    0.857    1.429    3.857   12.000    0.000 
#    0.000    0.000    0.000    0.000    0.000    0.000 
#    0.000    0.000    0.000    0.000    0.000    0.000 
#
# Total GULP energy -173471.945558 kJ/mol
# GULP energy per Si atom -12390.853254 kJ/mol
# Density = 2.303760 g / cm^3
# Si number density = 23.090154 Si / 1000 Ang^3
#
#
#
# Elastic Constant Matrix: (Units=GPa)
#
#
# Indices 1 2 3 4 5 6 
#
# 1 137.4589 20.4725 41.6522 0.6782 -13.9391 -32.5169
# 2 20.4725 96.2668 36.0182 -4.6370 -4.6747 -30.3423
# 3 41.6522 36.0182 110.3369 8.3745 -14.3411 -7.3622
# 4 0.6782 -4.6370 8.3745 36.0724 -12.9378 -1.2807
# 5 -13.9391 -4.6747 -14.3411 -12.9378 36.0570 8.2984
# 6 -32.5169 -30.3423 -7.3622 -1.2807 8.2984 35.1555
#
#
#
# Elastic Compliance Matrix: (Units=1/GPa)
#
#
# Indices 1 2 3 4 5 6 
#
# 1 0.011048 0.003216 -0.004461 0.001980 0.000880 0.011925
# 2 0.003216 0.017651 -0.006310 0.003697 -0.001660 0.017414
# 3 -0.004461 -0.006310 0.012941 -0.002792 0.003390 -0.007764
# 4 0.001980 0.003697 -0.002792 0.032958 0.011275 0.002977
# 5 0.000880 -0.001660 0.003390 0.011275 0.035041 -0.007769
# 6 0.011925 0.017414 -0.007764 0.002977 -0.007769 0.054821
#
#
# Mechanical properties :
#
#
# Convention : Reuss Voigt Hill
#
# Bulk Modulus (GPa) = 37.69234 60.03869 48.86551
# Shear Modulus (GPa) = 26.53731 37.85163 32.19447
#
# Velocity S-wave (km/s) = 3.39380 4.05322 3.73808
# Velocity P-wave (km/s) = 5.63175 6.92554 6.31188
#
# Compressibility (1/GPa) = 0.02653059
#
# Stress axis : x y z
#
# Youngs Moduli (GPa) = 90.51458 56.65370 77.27099
#
# Poissons Ratio (x) = -0.18221 0.34469
# Poissons Ratio (y) = -0.29111 0.48761
# Poissons Ratio (z) = 0.40376 0.35751
#
# Static dielectric constant tensor:
#      x y z
#    x 4.602110 0.045340 -0.133830 
#    y 0.045340 4.357720 0.138680 
#    z -0.133830 0.138680 4.837050 
# 
# 
# High freq. dielectric constant tensor:
#      x y z
#    x 1.917940 -0.007170 -0.012760 
#    y -0.007170 1.925470 -0.006470 
#    z -0.012760 -0.006470 1.916290 
# 
# From -- ./inp_files/27212.got.cif
#   From: 2010.06.25/outbox.cif.g09.slc.cpg/sg2_14_cif.got.tgz:27212.got - 2010.06.27 13:26:56.
