data_PCOD8023081
_publ_section_title
;
Structure prediction by ZEFSAII (Michael W. Deem and Ramdas Pophale) SiO2 
 PCOD8023081
Probable space group: P -1
;
_chemical_formula_sum "Si O2"
_cell_formula_units_Z 16
_cell_length_a 22.799731
_cell_length_b 7.951000
_cell_length_c 8.781714
_cell_angle_alpha 99.953866
_cell_angle_beta 45.229727
_cell_angle_gamma 130.557930
_cell_volume 728.932024
_symmetry_space_group_name_H-M "P -1"
_symmetry_group_IT_number 2
_symmetry_cell_setting 'triclinic'
loop_
_space_group_symop_operation_xyz
x,y,z
-x,-y,-z
loop_
_atom_site_type_symbol
_atom_site_label
_atom_site_fract_x
_atom_site_fract_y
_atom_site_fract_z
Si Si1 0.855084 0.983697 0.020106
Si Si2 0.459362 0.768968 0.941294
Si Si3 0.053997 0.509085 0.553861
Si Si4 0.687881 0.228953 0.982121
Si Si5 0.231087 0.508089 0.817842
Si Si6 0.407824 0.292576 0.501913
Si Si7 0.438210 0.640500 0.278282
Si Si8 0.007676 0.679274 0.910919
O O1 0.820489 0.730831 0.021109
O O2 0.735290 0.923397 0.207914
O O3 0.903744 0.052527 0.117528
O O4 0.961561 0.220332 0.748758
O O5 0.346825 0.644249 0.013489
O O6 0.561704 0.845269 0.649091
O O7 0.418197 0.577189 0.122663
O O8 0.500000 0.000000 0.000000
O O9 0.073968 0.713781 0.644485
O O10 0.000000 0.500000 0.500000
O O11 0.187604 0.632675 0.309775
O O12 0.707657 0.271048 0.134153
O O13 0.578418 0.921270 0.106177
O O14 0.338150 0.622801 0.520232
O O15 0.125092 0.440420 0.904807
O O16 0.500000 0.500000 0.500000
O O17 0.415751 0.427418 0.364534
O O18 0.000000 0.500000 0.000000
#
# Coordination Sequence:
#
# PCOD8023081 Si02
#       8
#     2   2   2   2   2   2   2   2
#     4  10  25  42  68  92 132 174 219 274 334 392
#     4  10  23  41  66  99 132 172 217 282 326 389
#     4  11  24  44  63  98 126 176 221 270 330 399
#     4  11  24  42  65  97 133 171 222 267 338 390
#     4  11  22  45  64 100 130 175 224 273 336 392
#     4  11  24  45  69 100 133 176 223 271 338 394
#     4  10  24  40  69  97 133 172 219 277 326 393
#     4  10  23  40  67  91 130 175 221 270 325 399
#
# _framework density 21.949922000000001
#
# number of rings (size 3 to 8) (size 9 to 14) (size 15 to 20)
#    0.000    1.500    1.250    2.625    8.750    4.500 
#    0.000    0.000    0.000    0.000    0.000    0.000 
#    0.000    0.000    0.000    0.000    0.000    0.000 
#
# Total GULP energy -198268.979576 kJ/mol
# GULP energy per Si atom -12391.811223 kJ/mol
# Density = 2.189996 g / cm^3
# Si number density = 21.949922 Si / 1000 Ang^3
#
#
#
# Elastic Constant Matrix: (Units=GPa)
#
#
# Indices 1 2 3 4 5 6 
#
# 1 117.9004 16.5662 40.9796 6.1412 -26.6072 13.6045
# 2 16.5662 58.2635 24.9091 10.4731 -11.2291 8.2822
# 3 40.9796 24.9091 145.4871 7.9606 -33.4945 0.9188
# 4 6.1412 10.4731 7.9606 38.0930 -0.0616 2.6706
# 5 -26.6072 -11.2291 -33.4945 -0.0616 45.8003 1.3644
# 6 13.6045 8.2822 0.9188 2.6706 1.3644 41.3148
#
#
#
# Elastic Compliance Matrix: (Units=1/GPa)
#
#
# Indices 1 2 3 4 5 6 
#
# 1 0.010728 -0.000721 -0.001693 -0.000927 0.004919 -0.003453
# 2 -0.000721 0.020282 -0.002305 -0.004723 0.002968 -0.003570
# 3 -0.001693 -0.002305 0.008939 -0.001004 0.004965 0.000722
# 4 -0.000927 -0.004723 -0.001004 0.027937 -0.002380 -0.000453
# 5 0.004919 0.002968 0.004965 -0.002380 0.029141 -0.003134
# 6 -0.003453 -0.003570 0.000722 -0.000453 -0.003134 0.026174
#
#
# Mechanical properties :
#
#
# Convention : Reuss Voigt Hill
#
# Bulk Modulus (GPa) = 32.77564 54.06234 43.41899
# Shear Modulus (GPa) = 35.01143 40.98801 37.99972
#
# Velocity S-wave (km/s) = 3.99815 4.32596 4.16528
# Velocity P-wave (km/s) = 6.02313 7.04523 6.55413
#
# Compressibility (1/GPa) = 0.03051047
#
# Stress axis : x y z
#
# Youngs Moduli (GPa) = 93.20969 49.30367 111.87453
#
# Poissons Ratio (x) = 0.03554 0.18946
# Poissons Ratio (y) = 0.06719 0.25790
# Poissons Ratio (z) = 0.15785 0.11366
#
# Static dielectric constant tensor:
#      x y z
#    x 4.528290 0.275820 0.042500 
#    y 0.275820 4.253740 0.134360 
#    z 0.042500 0.134360 4.086430 
# 
# 
# High freq. dielectric constant tensor:
#      x y z
#    x 1.886840 0.005460 -0.004200 
#    y 0.005460 1.855520 0.013020 
#    z -0.004200 0.013020 1.863630 
# 
# From -- ./inp_files/263158.got.cif
#   From: 2010.06.25/outbox.cif.g09.slc.cpg/sg2_132_cif.got.tgz:263158.got - 2010.06.27 13:26:56.
