data_PCOD8023063
_publ_section_title
;
Structure prediction by ZEFSAII (Michael W. Deem and Ramdas Pophale) SiO2 
 PCOD8023063
Probable space group: P -1
;
_chemical_formula_sum "Si O2"
_cell_formula_units_Z 16
_cell_length_a 11.392637
_cell_length_b 14.271587
_cell_length_c 15.019387
_cell_angle_alpha 37.092327
_cell_angle_beta 148.915768
_cell_angle_gamma 141.572062
_cell_volume 719.896780
_symmetry_space_group_name_H-M "P -1"
_symmetry_group_IT_number 2
_symmetry_cell_setting 'triclinic'
loop_
_space_group_symop_operation_xyz
x,y,z
-x,-y,-z
loop_
_atom_site_type_symbol
_atom_site_label
_atom_site_fract_x
_atom_site_fract_y
_atom_site_fract_z
Si Si1 0.659564 0.597010 0.396384
Si Si2 0.373720 0.259290 0.918300
Si Si3 0.192701 0.654167 0.755042
Si Si4 0.037705 0.932242 0.889956
Si Si5 0.123442 0.312984 0.891692
Si Si6 0.440225 0.771220 0.393844
Si Si7 0.352683 0.974047 0.514201
Si Si8 0.573565 0.154815 0.864237
O O1 0.701120 0.645786 0.283385
O O2 0.515082 0.403923 0.454197
O O3 0.485291 0.691693 0.249415
O O4 0.911449 0.640968 0.582945
O O5 0.238606 0.304916 0.878808
O O6 0.272816 0.062349 0.989848
O O7 0.665128 0.314373 0.081165
O O8 0.237800 0.495826 0.863187
O O9 0.353558 0.805877 0.685769
O O10 0.922433 0.041978 0.673189
O O11 0.138687 0.808446 0.990854
O O12 0.837871 0.823789 0.911668
O O13 0.837940 0.264998 0.737894
O O14 0.571893 0.872722 0.486448
O O15 0.535013 0.870841 0.287755
O O16 0.500000 0.000000 0.500000
O O17 0.500000 0.000000 0.000000
#
# Coordination Sequence:
#
# PCOD8023063 Si02
#       8
#     2   2   2   2   2   2   2   2
#     4  11  25  44  68  96 134 172 224 276 318 392
#     4  12  22  41  68  96 134 175 214 265 344 384
#     4  11  24  41  63 101 129 173 220 263 333 394
#     4  11  23  43  64  97 131 173 219 270 328 391
#     4  10  23  40  66  95 135 168 217 273 326 404
#     4  10  25  42  68  97 131 176 217 271 337 381
#     4  12  24  41  65 102 138 169 217 269 331 406
#     4  11  21  46  68  90 129 176 225 278 320 380
#
# _framework density 22.225408999999999
#
# number of rings (size 3 to 8) (size 9 to 14) (size 15 to 20)
#    0.000    1.000    2.500    4.125    3.500    1.000 
#    2.250    2.500    0.000    0.000    0.000    0.000 
#    0.000    0.000    0.000    0.000    0.000    0.000 
#
# Total GULP energy -198237.884530 kJ/mol
# GULP energy per Si atom -12389.867783 kJ/mol
# Density = 2.217482 g / cm^3
# Si number density = 22.225409 Si / 1000 Ang^3
#
#
#
# Elastic Constant Matrix: (Units=GPa)
#
#
# Indices 1 2 3 4 5 6 
#
# 1 108.5253 37.4028 41.5559 1.3749 -10.7173 -11.4527
# 2 37.4028 142.0207 52.5335 -7.7367 -6.4348 -14.7613
# 3 41.5559 52.5335 112.1224 -1.0551 -8.1136 -9.1171
# 4 1.3749 -7.7367 -1.0551 37.4051 1.0664 -0.4305
# 5 -10.7173 -6.4348 -8.1136 1.0664 24.9291 -3.9498
# 6 -11.4527 -14.7613 -9.1171 -0.4305 -3.9498 23.7526
#
#
#
# Elastic Compliance Matrix: (Units=1/GPa)
#
#
# Indices 1 2 3 4 5 6 
#
# 1 0.011764 -0.001360 -0.003054 -0.000876 0.004444 0.004378
# 2 -0.001360 0.009228 -0.003384 0.001874 0.001253 0.004023
# 3 -0.003054 -0.003384 0.011876 -0.000292 0.001896 0.001293
# 4 -0.000876 0.001874 -0.000292 0.027185 -0.000999 0.000957
# 5 0.004444 0.001253 0.001896 -0.000999 0.044762 0.011075
# 6 0.004378 0.004023 0.001293 0.000957 0.011075 0.049067
#
#
# Mechanical properties :
#
#
# Convention : Reuss Voigt Hill
#
# Bulk Modulus (GPa) = 57.89559 69.51696 63.70627
# Shear Modulus (GPa) = 28.53288 32.62910 30.58099
#
# Velocity S-wave (km/s) = 3.58690 3.83573 3.71340
# Velocity P-wave (km/s) = 6.57725 7.13885 6.86380
#
# Compressibility (1/GPa) = 0.01727247
#
# Stress axis : x y z
#
# Youngs Moduli (GPa) = 85.00183 108.36341 84.20450
#
# Poissons Ratio (x) = 0.14738 0.25713
# Poissons Ratio (y) = 0.11561 0.28497
# Poissons Ratio (z) = 0.25957 0.36673
#
# Static dielectric constant tensor:
#      x y z
#    x 4.046140 0.002520 -0.149120 
#    y 0.002520 4.204430 -0.246860 
#    z -0.149120 -0.246860 4.447390 
# 
# 
# High freq. dielectric constant tensor:
#      x y z
#    x 1.868240 -0.003520 -0.001390 
#    y -0.003520 1.871530 -0.021100 
#    z -0.001390 -0.021100 1.892770 
# 
# From -- ./inp_files/273390.got.cif
#   From: 2010.06.25/outbox.cif.g09.slc.cpg/sg2_137_cif.got.tgz:273390.got - 2010.06.27 13:26:56.
