data_PCOD8023839
_publ_section_title
;
Structure prediction by ZEFSAII (Michael W. Deem and Ramdas Pophale) SiO2 
 PCOD8023839
Probable space group: P -1
;
_chemical_formula_sum "Si O2"
_cell_formula_units_Z 16
_cell_length_a 7.173837
_cell_length_b 15.688322
_cell_length_c 14.705176
_cell_angle_alpha 136.639644
_cell_angle_beta 44.382734
_cell_angle_gamma 109.399632
_cell_volume 731.730372
_symmetry_space_group_name_H-M "P -1"
_symmetry_group_IT_number 2
_symmetry_cell_setting 'triclinic'
loop_
_space_group_symop_operation_xyz
x,y,z
-x,-y,-z
loop_
_atom_site_type_symbol
_atom_site_label
_atom_site_fract_x
_atom_site_fract_y
_atom_site_fract_z
Si Si1 0.106203 0.289240 0.319823
Si Si2 0.719768 0.409253 0.079398
Si Si3 0.791140 0.113126 0.378188
Si Si4 0.645716 0.953181 0.634904
Si Si5 0.612050 0.658912 0.187442
Si Si6 0.724001 0.222440 0.774696
Si Si7 0.616772 0.049447 0.911065
Si Si8 0.651645 0.514528 0.550974
O O1 0.174986 0.386895 0.443969
O O2 0.967433 0.201438 0.354006
O O3 0.885712 0.367488 0.378294
O O4 0.405635 0.205569 0.096777
O O5 0.572181 0.546266 0.178184
O O6 0.566257 0.429786 0.245787
O O7 0.690049 0.288656 0.937616
O O8 0.051295 0.373300 0.960397
O O9 0.562899 0.190989 0.595684
O O10 0.624994 0.075847 0.327377
O O11 0.042430 0.973251 0.218223
O O12 0.636034 0.094223 0.708348
O O13 0.594559 0.960822 0.765694
O O14 0.941204 0.827662 0.410787
O O15 0.478973 0.664336 0.137167
O O16 0.500000 0.000000 0.000000
O O17 0.500000 0.500000 0.500000
#
# Coordination Sequence:
#
# PCOD8023839 Si02
#       8
#     2   2   2   2   2   2   2   2
#     4  10  24  44  66 100 139 175 232 276 328 405
#     4  11  24  45  68 102 136 172 233 279 335 415
#     4  11  22  44  68  97 136 176 227 277 333 406
#     4  11  24  40  68  99 138 176 223 278 334 406
#     4  11  23  43  70 100 131 185 221 283 342 396
#     4  11  24  42  67 100 136 179 221 277 345 397
#     4  10  23  42  66  96 132 180 223 273 333 395
#     4  11  25  45  71 100 138 183 220 283 341 397
#
# _framework density 21.865977999999998
#
# number of rings (size 3 to 8) (size 9 to 14) (size 15 to 20)
#    0.000    1.250    3.750    1.125    0.000   10.500 
#    4.500    0.000    0.000    0.000    0.000    0.000 
#    0.000    0.000    0.000    0.000    0.000    0.000 
#
# Total GULP energy -198350.615006 kJ/mol
# GULP energy per Si atom -12396.913438 kJ/mol
# Density = 2.181621 g / cm^3
# Si number density = 21.865978 Si / 1000 Ang^3
#
#
#
# Elastic Constant Matrix: (Units=GPa)
#
#
# Indices 1 2 3 4 5 6 
#
# 1 168.9185 27.4511 62.3354 -5.4034 8.0436 -4.2995
# 2 27.4511 55.3173 19.5160 -10.7634 6.9611 2.1732
# 3 62.3354 19.5160 146.4961 -3.6571 -8.0727 -16.2863
# 4 -5.4034 -10.7634 -3.6571 23.0935 -7.4592 1.3958
# 5 8.0436 6.9611 -8.0727 -7.4592 42.6354 -2.6376
# 6 -4.2995 2.1732 -16.2863 1.3958 -2.6376 29.6072
#
#
#
# Elastic Compliance Matrix: (Units=1/GPa)
#
#
# Indices 1 2 3 4 5 6 
#
# 1 0.007493 -0.002501 -0.003015 -0.000401 -0.001678 -0.000518
# 2 -0.002501 0.022284 -0.002234 0.008949 -0.002262 -0.003851
# 3 -0.003015 -0.002234 0.009140 0.000380 0.003041 0.005007
# 4 -0.000401 0.008949 0.000380 0.049926 0.007284 -0.002211
# 5 -0.001678 -0.002262 0.003041 0.007284 0.026213 0.003587
# 6 -0.000518 -0.003851 0.005007 -0.002211 0.003587 0.037161
#
#
# Mechanical properties :
#
#
# Convention : Reuss Voigt Hill
#
# Bulk Modulus (GPa) = 42.70343 65.48188 54.09265
# Shear Modulus (GPa) = 28.48622 36.49584 32.49103
#
# Velocity S-wave (km/s) = 3.61330 4.08986 3.85894
# Velocity P-wave (km/s) = 6.08111 7.23288 6.68186
#
# Compressibility (1/GPa) = 0.02341732
#
# Stress axis : x y z
#
# Youngs Moduli (GPa) = 133.45631 44.87518 109.40469
#
# Poissons Ratio (x) = 0.11224 0.32988
# Poissons Ratio (y) = 0.33379 0.24438
# Poissons Ratio (z) = 0.40240 0.10024
#
# Static dielectric constant tensor:
#      x y z
#    x 4.040830 -0.106140 -0.369490 
#    y -0.106140 3.892970 0.377490 
#    z -0.369490 0.377490 4.874450 
# 
# 
# High freq. dielectric constant tensor:
#      x y z
#    x 1.864640 -0.003280 -0.013700 
#    y -0.003280 1.850690 0.001180 
#    z -0.013700 0.001180 1.879530 
# 
# From -- ./inp_files/485242.got.cif
#   From: 2010.06.25/outbox.cif.g09.slc.cpg/sg2_243_cif.got.tgz:485242.got - 2010.06.27 13:26:56.
