data_PCOD8023754
_publ_section_title
;
Structure prediction by ZEFSAII (Michael W. Deem and Ramdas Pophale) SiO2 
 PCOD8023754
Probable space group: P -1
;
_chemical_formula_sum "Si O2"
_cell_formula_units_Z 14
_cell_length_a 9.315295
_cell_length_b 22.195089
_cell_length_c 19.134987
_cell_angle_alpha 17.308420
_cell_angle_beta 145.403479
_cell_angle_gamma 144.236261
_cell_volume 660.633779
_symmetry_space_group_name_H-M "P -1"
_symmetry_group_IT_number 2
_symmetry_cell_setting 'triclinic'
loop_
_space_group_symop_operation_xyz
x,y,z
-x,-y,-z
loop_
_atom_site_type_symbol
_atom_site_label
_atom_site_fract_x
_atom_site_fract_y
_atom_site_fract_z
Si Si1 0.797641 0.027178 0.598690
Si Si2 0.121241 0.354843 0.853607
Si Si3 0.555689 0.237752 0.773355
Si Si4 0.610898 0.444065 0.866992
Si Si5 0.231522 0.559109 0.803045
Si Si6 0.999772 0.838444 0.615030
Si Si7 0.696282 0.425612 0.762640
O O1 0.854932 0.234803 0.434128
O O2 0.948946 0.038086 0.573588
O O3 0.500000 0.000000 0.500000
O O4 0.872300 0.847597 0.874047
O O5 0.312205 0.383750 0.833217
O O6 0.222613 0.553653 0.721614
O O7 0.823349 0.343747 0.726836
O O8 0.553172 0.266402 0.824959
O O9 0.336623 0.346051 0.529869
O O10 0.500000 0.000000 0.000000
O O11 0.593730 0.390793 0.837694
O O12 0.733786 0.678358 0.677241
O O13 0.769857 0.291898 0.139348
O O14 0.995268 0.393952 0.919557
O O15 0.500000 0.500000 0.000000
O O16 0.000000 0.000000 0.500000
#
# Coordination Sequence:
#
# PCOD8023754 Si02
#       7
#     2   2   2   2   2   2   2
#     4  12  22  38  58  93 128 168 214 250 300 392
#     4  11  25  39  67  94 126 168 218 261 319 376
#     4  10  23  45  68  91 118 172 222 267 315 378
#     4  11  24  42  59  98 134 165 210 269 315 386
#     4  11  21  37  63  91 127 170 201 257 315 380
#     4  11  26  38  60  92 139 176 204 249 327 384
#     4  10  23  42  65  90 127 167 215 262 319 376
#
# _framework density 21.191773000000001
#
# number of rings (size 3 to 8) (size 9 to 14) (size 15 to 20)
#    0.000    1.143    4.286    0.857    8.000    0.571 
#    0.000    0.714    0.000    0.000    0.000    0.000 
#    0.000    0.000    0.000    0.000    0.000    0.000 
#
# Total GULP energy -173463.167659 kJ/mol
# GULP energy per Si atom -12390.226261 kJ/mol
# Density = 2.114354 g / cm^3
# Si number density = 21.191773 Si / 1000 Ang^3
#
#
#
# Elastic Constant Matrix: (Units=GPa)
#
#
# Indices 1 2 3 4 5 6 
#
# 1 161.5740 51.4685 28.6954 -2.4980 -8.1250 -3.0978
# 2 51.4685 94.6985 27.4356 1.4288 2.9901 5.8489
# 3 28.6954 27.4356 61.3278 -7.4030 0.1414 -9.3575
# 4 -2.4980 1.4288 -7.4030 31.5819 -3.3409 11.3627
# 5 -8.1250 2.9901 0.1414 -3.3409 31.3700 -0.2287
# 6 -3.0978 5.8489 -9.3575 11.3627 -0.2287 37.5207
#
#
#
# Elastic Compliance Matrix: (Units=1/GPa)
#
#
# Indices 1 2 3 4 5 6 
#
# 1 0.007894 -0.003896 -0.001802 0.000385 0.002470 0.000708
# 2 -0.003896 0.014553 -0.005374 -0.001205 -0.002526 -0.003581
# 3 -0.001802 -0.005374 0.020685 0.003232 0.000332 0.004871
# 4 0.000385 -0.001205 0.003232 0.036534 0.004018 -0.010014
# 5 0.002470 -0.002526 0.000332 0.004018 0.033182 -0.000334
# 6 0.000708 -0.003581 0.004871 -0.010014 -0.000334 0.031514
#
#
# Mechanical properties :
#
#
# Convention : Reuss Voigt Hill
#
# Bulk Modulus (GPa) = 47.64230 59.19990 53.42110
# Shear Modulus (GPa) = 28.81813 34.09459 31.45636
#
# Velocity S-wave (km/s) = 3.69165 4.01541 3.85693
# Velocity P-wave (km/s) = 6.37976 7.03520 6.71548
#
# Compressibility (1/GPa) = 0.02098975
#
# Stress axis : x y z
#
# Youngs Moduli (GPa) = 126.68082 68.71375 48.34307
#
# Poissons Ratio (x) = 0.26769 0.08711
# Poissons Ratio (y) = 0.49352 0.25978
# Poissons Ratio (z) = 0.22827 0.36924
#
# Static dielectric constant tensor:
#      x y z
#    x 4.016550 0.079410 0.323170 
#    y 0.079410 4.030840 -0.027670 
#    z 0.323170 -0.027670 3.828780 
# 
# 
# High freq. dielectric constant tensor:
#      x y z
#    x 1.835510 -0.003030 0.021250 
#    y -0.003030 1.840710 -0.004780 
#    z 0.021250 -0.004780 1.820210 
# 
# From -- ./inp_files/181015.got.cif
#   From: 2010.06.25/outbox.cif.g09.slc.cpg/sg2_91_cif.got.tgz:181015.got - 2010.06.27 13:26:56.
