data_PCOD8023269
_publ_section_title
;
Structure prediction by ZEFSAII (Michael W. Deem and Ramdas Pophale) SiO2 
 PCOD8023269
Probable space group: P -1
;
_chemical_formula_sum "Si O2"
_cell_formula_units_Z 16
_cell_length_a 9.073035
_cell_length_b 13.170948
_cell_length_c 8.886273
_cell_angle_alpha 55.739489
_cell_angle_beta 99.305206
_cell_angle_gamma 118.129092
_cell_volume 766.118704
_symmetry_space_group_name_H-M "P -1"
_symmetry_group_IT_number 2
_symmetry_cell_setting 'triclinic'
loop_
_space_group_symop_operation_xyz
x,y,z
-x,-y,-z
loop_
_atom_site_type_symbol
_atom_site_label
_atom_site_fract_x
_atom_site_fract_y
_atom_site_fract_z
Si Si1 0.814455 0.640349 0.509150
Si Si2 0.561085 0.679052 0.638925
Si Si3 0.396087 0.087257 0.751169
Si Si4 0.719168 0.795067 0.873436
Si Si5 0.074652 0.545659 0.138885
Si Si6 0.220276 0.428703 0.770588
Si Si7 0.036394 0.047171 0.795924
Si Si8 0.568307 0.183002 0.014488
O O1 0.643567 0.624520 0.570511
O O2 0.909132 0.583769 0.682315
O O3 0.766118 0.550436 0.424088
O O4 0.940444 0.799259 0.355251
O O5 0.536870 0.807797 0.465814
O O6 0.683227 0.722775 0.766032
O O7 0.380410 0.558638 0.761151
O O8 0.197865 0.032233 0.784346
O O9 0.423367 0.956440 0.825216
O O10 0.498453 0.171141 0.844421
O O11 0.555285 0.801889 0.899887
O O12 0.774261 0.712172 0.069533
O O13 0.875449 0.947737 0.752397
O O14 0.951483 0.578878 0.192811
O O15 0.252615 0.683023 0.051475
O O16 0.000000 0.500000 0.000000
O O17 0.000000 0.000000 0.000000
#
# Coordination Sequence:
#
# PCOD8023269 Si02
#       8
#     2   2   2   2   2   2   2   2
#     4  11  24  41  67  91 123 168 209 259 307 375
#     4  11  24  41  62  95 127 159 213 255 318 366
#     4  10  23  41  64  92 123 165 205 265 302 373
#     4  12  23  39  67  92 125 170 200 263 311 370
#     4  12  26  42  62  95 130 163 207 262 313 366
#     4  12  23  42  66  89 128 167 213 252 309 374
#     4  11  21  42  66  93 124 160 216 251 309 372
#     4  11  23  41  65  88 127 165 211 249 317 365
#
# _framework density 20.884492999999999
#
# number of rings (size 3 to 8) (size 9 to 14) (size 15 to 20)
#    0.000    0.750    2.500    5.625    0.000    4.500 
#    0.000    0.000    0.000    0.000    0.000    0.000 
#    0.000    0.000    0.000    0.000    0.000    0.000 
#
# Total GULP energy -198518.938755 kJ/mol
# GULP energy per Si atom -12407.433672 kJ/mol
# Density = 2.083696 g / cm^3
# Si number density = 20.884493 Si / 1000 Ang^3
#
#
#
# Elastic Constant Matrix: (Units=GPa)
#
#
# Indices 1 2 3 4 5 6 
#
# 1 137.5837 57.0612 36.1363 -11.2521 -0.9447 1.7829
# 2 57.0612 113.5214 39.3737 -1.1864 -0.7516 22.5991
# 3 36.1363 39.3737 99.2754 -1.7155 18.6453 -4.9332
# 4 -11.2521 -1.1864 -1.7155 37.8121 3.9737 0.0581
# 5 -0.9447 -0.7516 18.6453 3.9737 30.4797 -7.2725
# 6 1.7829 22.5991 -4.9332 0.0581 -7.2725 45.3082
#
#
#
# Elastic Compliance Matrix: (Units=1/GPa)
#
#
# Indices 1 2 3 4 5 6 
#
# 1 0.009896 -0.004678 -0.001883 0.002554 0.001481 0.001973
# 2 -0.004678 0.014161 -0.004566 -0.001298 0.001463 -0.007140
# 3 -0.001883 -0.004566 0.014290 0.000825 -0.008410 0.002556
# 4 0.002554 -0.001298 0.000825 0.027631 -0.004072 -0.000053
# 5 0.001481 0.001463 -0.008410 -0.004072 0.039681 0.004671
# 6 0.001973 -0.007140 0.002556 -0.000053 0.004671 0.026583
#
#
# Mechanical properties :
#
#
# Convention : Reuss Voigt Hill
#
# Bulk Modulus (GPa) = 62.13212 68.39144 65.26178
# Shear Modulus (GPa) = 31.27726 37.24061 34.25894
#
# Velocity S-wave (km/s) = 3.87412 4.22734 4.05458
# Velocity P-wave (km/s) = 7.05880 7.52634 7.29632
#
# Compressibility (1/GPa) = 0.01609473
#
# Stress axis : x y z
#
# Youngs Moduli (GPa) = 101.04768 70.61563 69.97836
#
# Poissons Ratio (x) = 0.33031 0.13178
# Poissons Ratio (y) = 0.47265 0.31951
# Poissons Ratio (z) = 0.19028 0.32242
#
# Static dielectric constant tensor:
#      x y z
#    x 3.804710 0.017590 0.079320 
#    y 0.017590 3.789470 -0.028780 
#    z 0.079320 -0.028780 3.820850 
# 
# 
# High freq. dielectric constant tensor:
#      x y z
#    x 1.824460 0.003480 0.001790 
#    y 0.003480 1.828350 -0.005080 
#    z 0.001790 -0.005080 1.825710 
# 
# From -- ./inp_files/185149.got.cif
#   From: 2010.06.25/outbox.cif.g09.slc.cpg/sg2_93_cif.got.tgz:185149.got - 2010.06.27 13:26:56.
