data_PCOD8023881
_publ_section_title
;
Structure prediction by ZEFSAII (Michael W. Deem and Ramdas Pophale) SiO2 
 PCOD8023881
Probable space group: P -1
;
_chemical_formula_sum "Si O2"
_cell_formula_units_Z 16
_cell_length_a 16.117783
_cell_length_b 11.627976
_cell_length_c 19.195551
_cell_angle_alpha 20.478083
_cell_angle_beta 147.113008
_cell_angle_gamma 145.670414
_cell_volume 668.747661
_symmetry_space_group_name_H-M "P -1"
_symmetry_group_IT_number 2
_symmetry_cell_setting 'triclinic'
loop_
_space_group_symop_operation_xyz
x,y,z
-x,-y,-z
loop_
_atom_site_type_symbol
_atom_site_label
_atom_site_fract_x
_atom_site_fract_y
_atom_site_fract_z
Si Si1 0.760023 0.625328 0.951261
Si Si2 0.689100 0.039666 0.980202
Si Si3 0.967970 0.788389 0.363583
Si Si4 0.069357 0.372036 0.314010
Si Si5 0.232251 0.625464 0.423379
Si Si6 0.547487 0.211512 0.151953
Si Si7 0.498345 0.627879 0.186045
Si Si8 0.750117 0.761415 0.619251
O O1 0.669760 0.582827 0.837296
O O2 0.776060 0.999889 0.776174
O O3 0.674566 0.359259 0.098977
O O4 0.931386 0.565251 0.092043
O O5 0.871202 0.017823 0.121430
O O6 0.603778 0.696032 0.151994
O O7 0.668224 0.393425 0.803285
O O8 0.610684 0.017725 0.860929
O O9 0.882630 0.640455 0.458389
O O10 0.000000 0.500000 0.500000
O O11 0.131033 0.026622 0.363374
O O12 0.182163 0.565183 0.342827
O O13 0.167907 0.368673 0.315673
O O14 0.000000 0.000000 0.500000
O O15 0.412431 0.582932 0.579903
O O16 0.622145 0.973089 0.389995
O O17 0.500000 0.500000 0.000000
O O18 0.500000 0.000000 0.000000
#
# Coordination Sequence:
#
# PCOD8023881 Si02
#       8
#     2   2   2   2   2   2   2   2
#     4  11  24  41  65  99 128 169 216 261 325 380
#     4  10  25  41  64  96 124 167 217 256 320 378
#     4  11  24  43  64  93 133 168 209 267 320 383
#     4  12  23  42  68  95 133 169 213 272 318 381
#     4  11  24  41  65  99 128 169 216 261 325 380
#     4  11  24  43  64  93 133 168 209 267 320 383
#     4  10  23  42  67  91 129 167 215 271 310 374
#     4  12  25  43  68  97 130 170 218 264 325 385
#
# _framework density 23.925317
#
# number of rings (size 3 to 8) (size 9 to 14) (size 15 to 20)
#    0.000    1.000    2.500    3.000    7.000    2.000 
#    0.000    0.000    0.000    0.000    0.000    0.000 
#    0.000    0.000    0.000    0.000    0.000    0.000 
#
# Total GULP energy -198425.463705 kJ/mol
# GULP energy per Si atom -12401.591482 kJ/mol
# Density = 2.387086 g / cm^3
# Si number density = 23.925317 Si / 1000 Ang^3
#
#
#
# Elastic Constant Matrix: (Units=GPa)
#
#
# Indices 1 2 3 4 5 6 
#
# 1 48.5619 15.3130 9.8002 7.1197 11.2216 -7.8578
# 2 15.3130 198.4260 99.4404 27.0694 4.4243 -45.0931
# 3 9.8002 99.4404 171.4256 15.5323 42.2528 8.9165
# 4 7.1197 27.0694 15.5323 58.4782 7.2396 7.9594
# 5 11.2216 4.4243 42.2528 7.2396 33.8596 -26.0548
# 6 -7.8578 -45.0931 8.9165 7.9594 -26.0548 16.8753
#
#
#
# Elastic Compliance Matrix: (Units=1/GPa)
#
#
# Indices 1 2 3 4 5 6 
#
# 1 0.022681 -0.000550 0.000114 -0.002500 -0.004273 0.003613
# 2 -0.000550 0.002356 0.001325 0.001037 -0.009200 -0.009355
# 3 0.000114 0.001325 0.003479 -0.003813 0.005324 0.011775
# 4 -0.002500 0.001037 -0.003813 0.016365 0.006381 0.005754
# 5 -0.004273 -0.009200 0.005324 0.006381 0.004173 -0.025953
# 6 0.003613 -0.009355 0.011775 0.005754 -0.025953 -0.013065
#
#
# Mechanical properties :
#
#
# Convention : Reuss Voigt Hill
#
# Bulk Modulus (GPa) = 33.00962 74.16897 53.58930
# Shear Modulus (GPa) = 112.84822 41.43328 77.14075
#
# Velocity S-wave (km/s) = 6.87526 4.16598 5.68439
# Velocity P-wave (km/s) = 8.76656 7.36261 8.09508
#
# Compressibility (1/GPa) = 0.03029420
#
# Stress axis : x y z
#
# Youngs Moduli (GPa) = 44.08941 424.52644 287.45277
#
# Poissons Ratio (x) = 0.23355 -0.03282
# Poissons Ratio (y) = 0.02426 -0.38096
# Poissons Ratio (z) = -0.00503 -0.56262
#
# Static dielectric constant tensor:
#      x y z
#    x 6.250160 0.925930 -1.275390 
#    y 0.925930 4.914470 -0.395600 
#    z -1.275390 -0.395600 5.162560 
# 
# 
# High freq. dielectric constant tensor:
#      x y z
#    x 1.950890 -0.000560 0.000570 
#    y -0.000560 1.966220 0.002370 
#    z 0.000570 0.002370 1.964640 
# 
# From -- ./inp_files/599994.got.cif
#   From: 2010.06.25/outbox.cif.g09.slc.cpg/sg2_300_cif.got.tgz:599994.got - 2010.06.27 13:26:56.
