data_PCOD8023169
_publ_section_title
;
Structure prediction by ZEFSAII (Michael W. Deem and Ramdas Pophale) SiO2 
 PCOD8023169
Probable space group: P -1
;
_chemical_formula_sum "Si O2"
_cell_formula_units_Z 16
_cell_length_a 11.849760
_cell_length_b 9.633600
_cell_length_c 14.797020
_cell_angle_alpha 150.188750
_cell_angle_beta 102.550580
_cell_angle_gamma 66.281142
_cell_volume 735.927557
_symmetry_space_group_name_H-M "P -1"
_symmetry_group_IT_number 2
_symmetry_cell_setting 'triclinic'
loop_
_space_group_symop_operation_xyz
x,y,z
-x,-y,-z
loop_
_atom_site_type_symbol
_atom_site_label
_atom_site_fract_x
_atom_site_fract_y
_atom_site_fract_z
Si Si1 0.821263 0.125956 0.794037
Si Si2 0.469936 0.083882 0.938703
Si Si3 0.855070 0.170011 0.105925
Si Si4 0.256197 0.123169 0.200371
Si Si5 0.245236 0.179561 0.839599
Si Si6 0.660687 0.763731 0.302803
Si Si7 0.885840 0.225075 0.353680
Si Si8 0.408310 0.766064 0.292325
O O1 0.723489 0.026105 0.666756
O O2 0.770397 0.137319 0.894673
O O3 0.820760 0.449023 0.946481
O O4 0.964453 0.857824 0.655998
O O5 0.364892 0.988976 0.821146
O O6 0.596868 0.939165 0.817200
O O7 0.400148 0.450627 0.130742
O O8 0.500000 0.000000 0.000000
O O9 0.775462 0.500103 0.229944
O O10 0.847536 0.242163 0.251771
O O11 0.794131 0.925435 0.935041
O O12 0.000000 0.000000 0.000000
O O13 0.184385 0.455243 0.423280
O O14 0.292014 0.128207 0.716100
O O15 0.142502 0.042358 0.755860
O O16 0.541399 0.681888 0.213056
O O17 0.592027 0.078663 0.525551
#
# Coordination Sequence:
#
# PCOD8023169 Si02
#       8
#     2   2   2   2   2   2   2   2
#     4  11  22  46  68  97 135 182 232 274 338 415
#     4  11  24  44  66  98 138 176 229 286 351 403
#     4  12  24  43  71 101 140 180 226 286 338 408
#     4  12  24  43  71  99 137 182 231 279 343 405
#     4  11  24  43  69  96 140 179 220 289 351 397
#     4  11  22  43  67 103 132 178 236 278 344 411
#     4  12  27  43  69 107 140 179 231 281 346 409
#     4  10  23  40  72  94 134 177 235 287 329 408
#
# _framework density 21.741271000000001
#
# number of rings (size 3 to 8) (size 9 to 14) (size 15 to 20)
#    0.000    0.750    3.750    3.000    3.500    3.500 
#    0.000    0.625    0.000    0.000    0.000    0.000 
#    0.000    0.000    0.000    0.000    0.000    0.000 
#
# Total GULP energy -198311.061156 kJ/mol
# GULP energy per Si atom -12394.441322 kJ/mol
# Density = 2.169179 g / cm^3
# Si number density = 21.741271 Si / 1000 Ang^3
#
#
#
# Elastic Constant Matrix: (Units=GPa)
#
#
# Indices 1 2 3 4 5 6 
#
# 1 119.2373 53.6802 19.3890 4.0662 -10.4149 -13.4524
# 2 53.6802 112.0101 25.5489 -4.6391 -10.9346 -3.7249
# 3 19.3890 25.5489 84.3085 -10.9833 -15.6757 -6.3818
# 4 4.0662 -4.6391 -10.9833 22.2639 2.1676 1.7568
# 5 -10.4149 -10.9346 -15.6757 2.1676 31.7608 1.1639
# 6 -13.4524 -3.7249 -6.3818 1.7568 1.1639 40.0106
#
#
#
# Elastic Compliance Matrix: (Units=1/GPa)
#
#
# Indices 1 2 3 4 5 6 
#
# 1 0.011565 -0.005200 -0.001065 -0.004146 0.001636 0.003369
# 2 -0.005200 0.012067 -0.001974 0.002445 0.001348 -0.001086
# 3 -0.001065 -0.001974 0.014705 0.006371 0.005744 0.001357
# 4 -0.004146 0.002445 0.006371 0.049573 -0.000672 -0.002307
# 5 0.001636 0.001348 0.005744 -0.000672 0.035345 0.000593
# 6 0.003369 -0.001086 0.001357 -0.002307 0.000593 0.026325
#
#
# Mechanical properties :
#
#
# Convention : Reuss Voigt Hill
#
# Bulk Modulus (GPa) = 45.74614 56.97690 51.36152
# Shear Modulus (GPa) = 28.84440 33.26956 31.05698
#
# Velocity S-wave (km/s) = 3.64636 3.91608 3.78362
# Velocity P-wave (km/s) = 6.23015 6.83457 6.53934
#
# Compressibility (1/GPa) = 0.02185977
#
# Stress axis : x y z
#
# Youngs Moduli (GPa) = 86.46789 82.87354 68.00357
#
# Poissons Ratio (x) = 0.43090 0.07242
# Poissons Ratio (y) = 0.44959 0.13424
# Poissons Ratio (z) = 0.09208 0.16360
#
# Static dielectric constant tensor:
#      x y z
#    x 0.440960 5.515120 -0.537310 
#    y 5.515120 -4.892960 0.818680 
#    z -0.537310 0.818680 3.782030 
# 
# 
# High freq. dielectric constant tensor:
#      x y z
#    x 1.866160 -0.011790 -0.003910 
#    y -0.011790 1.849990 -0.009410 
#    z -0.003910 -0.009410 1.860950 
# 
# From -- ./inp_files/242650.got.cif
#   From: 2010.06.25/outbox.cif.g09.slc.cpg/sg2_122_cif.got.tgz:242650.got - 2010.06.27 13:26:56.
