data_PCOD8023537
_publ_section_title
;
Structure prediction by ZEFSAII (Michael W. Deem and Ramdas Pophale) SiO2 
 PCOD8023537
Probable space group: P -1
;
_chemical_formula_sum "Si O2"
_cell_formula_units_Z 14
_cell_length_a 18.772890
_cell_length_b 8.748304
_cell_length_c 9.667809
_cell_angle_alpha 45.374317
_cell_angle_beta 135.477651
_cell_angle_gamma 146.456215
_cell_volume 590.698926
_symmetry_space_group_name_H-M "P -1"
_symmetry_group_IT_number 2
_symmetry_cell_setting 'triclinic'
loop_
_space_group_symop_operation_xyz
x,y,z
-x,-y,-z
loop_
_atom_site_type_symbol
_atom_site_label
_atom_site_fract_x
_atom_site_fract_y
_atom_site_fract_z
Si Si1 0.980442 0.635469 0.076853
Si Si2 0.578727 0.120080 0.294885
Si Si3 0.069634 0.911253 0.739789
Si Si4 0.745226 0.952414 0.678197
Si Si5 0.318040 0.438235 0.615259
Si Si6 0.283126 0.507425 0.236018
Si Si7 0.560746 0.538348 0.905598
O O1 0.829879 0.507703 0.990667
O O2 0.034699 0.862476 0.883551
O O3 0.975152 0.378130 0.200300
O O4 0.089692 0.812725 0.240034
O O5 0.608946 0.256839 0.402946
O O6 0.687767 0.085282 0.439716
O O7 0.424321 0.827823 0.250003
O O8 0.596455 0.336283 0.068716
O O9 0.231595 0.184056 0.772501
O O10 0.000000 0.000000 0.500000
O O11 0.691208 0.674018 0.695413
O O12 0.688053 0.854396 0.820004
O O13 0.226123 0.386069 0.391271
O O14 0.430897 0.438882 0.699823
O O15 0.500000 0.500000 0.000000
#
# Coordination Sequence:
#
# PCOD8023537 Si02
#       7
#     2   2   2   2   2   2   2
#     4  11  25  43  70  95 136 179 215 271 339 382
#     4  11  24  43  72  95 131 176 221 275 329 385
#     4  11  22  42  70 101 129 169 231 277 317 393
#     4  12  26  45  65  99 139 174 219 274 329 398
#     4  11  22  42  71 100 131 169 226 281 324 389
#     4  12  25  44  66  98 140 177 215 271 336 397
#     4  10  23  41  69  97 126 170 225 271 328 386
#
# _framework density 23.700737
#
# number of rings (size 3 to 8) (size 9 to 14) (size 15 to 20)
#    0.000    0.857    2.857    4.714    4.000    0.571 
#    2.571    0.714    0.000    0.000    0.000    0.000 
#    0.000    0.000    0.000    0.000    0.000    0.000 
#
# Total GULP energy -173488.417898 kJ/mol
# GULP energy per Si atom -12392.029850 kJ/mol
# Density = 2.364679 g / cm^3
# Si number density = 23.700737 Si / 1000 Ang^3
#
#
#
# Elastic Constant Matrix: (Units=GPa)
#
#
# Indices 1 2 3 4 5 6 
#
# 1 42.0723 30.8865 24.8696 7.1983 21.3065 -4.8315
# 2 30.8865 134.1549 47.6516 10.9660 7.9587 6.9939
# 3 24.8696 47.6516 129.5358 -3.1516 47.1471 5.8413
# 4 7.1983 10.9660 -3.1516 37.2784 5.1083 10.8654
# 5 21.3065 7.9587 47.1471 5.1083 29.4675 3.8692
# 6 -4.8315 6.9939 5.8413 10.8654 3.8692 28.9394
#
#
#
# Elastic Compliance Matrix: (Units=1/GPa)
#
#
# Indices 1 2 3 4 5 6 
#
# 1 0.076369 -0.023184 0.028222 0.000376 -0.097532 0.025555
# 2 -0.023184 0.016936 -0.015960 -0.004897 0.039651 -0.008205
# 3 0.028222 -0.015960 0.035844 0.010516 -0.076264 0.007582
# 4 0.000376 -0.004897 0.010516 0.035187 -0.020383 -0.011362
# 5 -0.097532 0.039651 -0.076264 -0.020383 0.223597 -0.032714
# 6 0.025555 -0.008205 0.007582 -0.011362 -0.032714 0.047914
#
#
# Mechanical properties :
#
#
# Convention : Reuss Voigt Hill
#
# Bulk Modulus (GPa) = 9.31911 56.95317 33.13614
# Shear Modulus (GPa) = 10.13252 32.62742 21.37997
#
# Velocity S-wave (km/s) = 2.06990 3.71434 3.00672
# Velocity P-wave (km/s) = 3.10695 6.51747 5.10541
#
# Compressibility (1/GPa) = 0.10730644
#
# Stress axis : x y z
#
# Youngs Moduli (GPa) = 13.09425 59.04448 27.89836
#
# Poissons Ratio (x) = 1.36888 -0.78734
# Poissons Ratio (y) = 0.30357 0.44526
# Poissons Ratio (z) = -0.36954 0.94235
#
# Static dielectric constant tensor:
#      x y z
#    x 3.999170 0.328920 0.219040 
#    y 0.328920 4.413100 0.169120 
#    z 0.219040 0.169120 5.024640 
# 
# 
# High freq. dielectric constant tensor:
#      x y z
#    x 1.906270 0.016320 0.017190 
#    y 0.016320 1.943080 0.007770 
#    z 0.017190 0.007770 1.965100 
# 
# From -- ./inp_files/469165.got.cif
#   From: 2010.06.25/outbox.cif.g09.slc.cpg/sg2_235_cif.got.tgz:469165.got - 2010.06.27 13:26:56.
