data_PCOD8023479
_publ_section_title
;
Structure prediction by ZEFSAII (Michael W. Deem and Ramdas Pophale) SiO2 
 PCOD8023479
Probable space group: P -1
;
_chemical_formula_sum "Si O2"
_cell_formula_units_Z 14
_cell_length_a 5.258672
_cell_length_b 24.772088
_cell_length_c 11.684769
_cell_angle_alpha 146.988495
_cell_angle_beta 130.546369
_cell_angle_gamma 48.281795
_cell_volume 602.939104
_symmetry_space_group_name_H-M "P -1"
_symmetry_group_IT_number 2
_symmetry_cell_setting 'triclinic'
loop_
_space_group_symop_operation_xyz
x,y,z
-x,-y,-z
loop_
_atom_site_type_symbol
_atom_site_label
_atom_site_fract_x
_atom_site_fract_y
_atom_site_fract_z
Si Si1 0.562684 0.451196 0.111451
Si Si2 0.089045 0.424324 0.723131
Si Si3 0.783796 0.922821 0.325683
Si Si4 0.953878 0.776947 0.767018
Si Si5 0.797346 0.118115 0.178119
Si Si6 0.215112 0.747228 0.029671
Si Si7 0.249038 0.127049 0.532362
O O1 0.847638 0.496037 0.212328
O O2 0.298872 0.535566 0.265475
O O3 0.361078 0.408682 0.878725
O O4 0.764319 0.358717 0.088909
O O5 0.158562 0.315963 0.487973
O O6 0.931306 0.859489 0.372761
O O7 0.832959 0.831432 0.085117
O O8 0.392474 0.999487 0.344145
O O9 0.000000 0.000000 0.500000
O O10 0.601600 0.863064 0.861782
O O11 0.175337 0.820477 0.819231
O O12 0.232716 0.732100 0.871321
O O13 0.989347 0.163470 0.416103
O O14 0.000000 0.000000 0.000000
O O15 0.486262 0.802849 0.262553
#
# Coordination Sequence:
#
# PCOD8023479 Si02
#       7
#     2   2   2   2   2   2   2
#     4  10  23  42  72  95 130 173 227 274 333 409
#     4  10  23  45  66 100 130 172 222 279 336 400
#     4   9  21  38  64  96 130 172 232 273 326 394
#     4  12  28  45  68 101 144 173 224 283 338 399
#     4  12  28  45  70 100 139 185 226 275 332 395
#     4  11  25  40  69  99 134 178 222 279 338 400
#     4  10  23  41  68  91 136 182 227 273 327 408
#
# _framework density 23.219591999999999
#
# number of rings (size 3 to 8) (size 9 to 14) (size 15 to 20)
#    0.000    1.429    0.000    3.000   16.000    2.286 
#    0.000    0.000    0.000    0.000    0.000    0.000 
#    0.000    0.000    0.000    0.000    0.000    0.000 
#
# Total GULP energy -173466.318651 kJ/mol
# GULP energy per Si atom -12390.451332 kJ/mol
# Density = 2.316674 g / cm^3
# Si number density = 23.219592 Si / 1000 Ang^3
#
#
#
# Elastic Constant Matrix: (Units=GPa)
#
#
# Indices 1 2 3 4 5 6 
#
# 1 101.5942 22.7461 8.9612 -5.4456 -6.2361 21.3096
# 2 22.7461 101.8540 23.1769 -3.9001 -4.6655 33.1666
# 3 8.9612 23.1769 74.3593 0.9158 -12.1530 1.3233
# 4 -5.4456 -3.9001 0.9158 35.7527 -0.3182 -1.1562
# 5 -6.2361 -4.6655 -12.1530 -0.3182 28.1193 2.0016
# 6 21.3096 33.1666 1.3233 -1.1562 2.0016 42.9103
#
#
#
# Elastic Compliance Matrix: (Units=1/GPa)
#
#
# Indices 1 2 3 4 5 6 
#
# 1 0.011370 -0.000454 -0.000740 0.001551 0.002525 -0.005349
# 2 -0.000454 0.014499 -0.004068 0.001277 0.001336 -0.010884
# 3 -0.000740 -0.004068 0.015706 -0.000819 0.005745 0.002738
# 4 0.001551 0.001277 -0.000819 0.028339 0.000593 -0.000996
# 5 0.002525 0.001336 0.005745 0.000593 0.039138 -0.004273
# 6 -0.005349 -0.010884 0.002738 -0.000996 -0.004273 0.034461
#
#
# Mechanical properties :
#
#
# Convention : Reuss Voigt Hill
#
# Bulk Modulus (GPa) = 32.20570 43.06399 37.63485
# Shear Modulus (GPa) = 30.41576 36.21799 33.31687
#
# Velocity S-wave (km/s) = 3.62321 3.95372 3.79206
# Velocity P-wave (km/s) = 5.60390 6.27927 5.95117
#
# Compressibility (1/GPa) = 0.03105040
#
# Stress axis : x y z
#
# Youngs Moduli (GPa) = 87.95077 68.96884 63.67120
#
# Poissons Ratio (x) = 0.03132 0.04712
# Poissons Ratio (y) = 0.03994 0.25903
# Poissons Ratio (z) = 0.06508 0.28058
#
# Static dielectric constant tensor:
#      x y z
#    x 4.672820 -0.119400 -0.285050 
#    y -0.119400 4.573770 0.030180 
#    z -0.285050 0.030180 3.523410 
# 
# 
# High freq. dielectric constant tensor:
#      x y z
#    x 1.927020 0.019590 -0.014270 
#    y 0.019590 1.914460 -0.002920 
#    z -0.014270 -0.002920 1.916540 
# 
# From -- ./inp_files/371174.got.cif
#   From: 2010.06.25/outbox.cif.g09.slc.cpg/sg2_186_cif.got.tgz:371174.got - 2010.06.27 13:26:56.
