data_PCOD8023682
_publ_section_title
;
Structure prediction by ZEFSAII (Michael W. Deem and Ramdas Pophale) SiO2 
 PCOD8023682
Probable space group: P -1
;
_chemical_formula_sum "Si O2"
_cell_formula_units_Z 14
_cell_length_a 13.165730
_cell_length_b 13.255463
_cell_length_c 8.640147
_cell_angle_alpha 102.794224
_cell_angle_beta 127.556189
_cell_angle_gamma 37.596316
_cell_volume 613.493204
_symmetry_space_group_name_H-M "P -1"
_symmetry_group_IT_number 2
_symmetry_cell_setting 'triclinic'
loop_
_space_group_symop_operation_xyz
x,y,z
-x,-y,-z
loop_
_atom_site_type_symbol
_atom_site_label
_atom_site_fract_x
_atom_site_fract_y
_atom_site_fract_z
Si Si1 0.924095 0.574208 0.785304
Si Si2 0.390072 0.878644 0.410557
Si Si3 0.882121 0.031407 0.056390
Si Si4 0.525302 0.658859 0.992914
Si Si5 0.055533 0.270500 0.359626
Si Si6 0.324946 0.207704 0.838624
Si Si7 0.616239 0.319924 0.471473
O O1 0.635325 0.769890 0.569231
O O2 0.996007 0.641924 0.826539
O O3 0.074564 0.387213 0.763212
O O4 0.000000 0.500000 0.000000
O O5 0.453715 0.725894 0.495596
O O6 0.204279 0.062278 0.418622
O O7 0.265873 0.962142 0.153338
O O8 0.682429 0.233085 0.039711
O O9 0.092820 0.858557 0.314714
O O10 0.000000 0.000000 0.000000
O O11 0.468378 0.645133 0.769776
O O12 0.535082 0.778088 0.029877
O O13 0.781749 0.439646 0.227338
O O14 0.222323 0.241231 0.589935
O O15 0.500000 0.000000 0.000000
O O16 0.500000 0.500000 0.500000
#
# Coordination Sequence:
#
# PCOD8023682 Si02
#       7
#     2   2   2   2   2   2   2
#     4  11  22  37  61  96 131 169 209 256 319 393
#     4  11  22  41  63  92 130 169 210 267 321 379
#     4  10  23  42  63  89 120 166 222 268 319 377
#     4  11  22  42  66  90 128 169 208 273 328 376
#     4  11  22  40  65  96 131 169 208 257 326 402
#     4  11  23  39  62  98 132 168 212 254 321 405
#     4  11  24  43  63  91 124 166 223 273 320 378
#
# _framework density 22.820139999999999
#
# number of rings (size 3 to 8) (size 9 to 14) (size 15 to 20)
#    0.000    1.143    0.000    8.571    0.000    2.286 
#    0.000   17.143    0.000    0.000    0.000    0.000 
#    0.000    0.000    0.000    0.000    0.000    0.000 
#
# Total GULP energy -173441.817053 kJ/mol
# GULP energy per Si atom -12388.701218 kJ/mol
# Density = 2.276820 g / cm^3
# Si number density = 22.820140 Si / 1000 Ang^3
#
#
#
# Elastic Constant Matrix: (Units=GPa)
#
#
# Indices 1 2 3 4 5 6 
#
# 1 64.0176 52.6094 22.7840 -8.1478 -3.8175 -12.0029
# 2 52.6094 174.8122 51.7600 -14.9864 6.4034 -6.8760
# 3 22.7840 51.7600 146.3468 3.6116 13.6789 -13.2985
# 4 -8.1478 -14.9864 3.6116 58.1139 -9.8814 3.2361
# 5 -3.8175 6.4034 13.6789 -9.8814 28.2260 -7.6858
# 6 -12.0029 -6.8760 -13.2985 3.2361 -7.6858 40.1470
#
#
#
# Elastic Compliance Matrix: (Units=1/GPa)
#
#
# Indices 1 2 3 4 5 6 
#
# 1 0.023586 -0.006414 -0.001628 0.002780 0.008250 0.006769
# 2 -0.006414 0.008331 -0.001948 0.001145 -0.001843 -0.001581
# 3 -0.001628 -0.001948 0.008334 -0.002031 -0.004173 0.001305
# 4 0.002780 0.001145 -0.002031 0.019355 0.007963 0.000319
# 5 0.008250 -0.001843 -0.004173 0.007963 0.044106 0.008571
# 6 0.006769 -0.001581 0.001305 0.000319 0.008571 0.028709
#
#
# Mechanical properties :
#
#
# Convention : Reuss Voigt Hill
#
# Bulk Modulus (GPa) = 49.32946 71.05371 60.19158
# Shear Modulus (GPa) = 31.41558 42.49893 36.95726
#
# Velocity S-wave (km/s) = 3.71436 4.32017 4.02867
# Velocity P-wave (km/s) = 6.32921 7.48927 6.93354
#
# Compressibility (1/GPa) = 0.02027186
#
# Stress axis : x y z
#
# Youngs Moduli (GPa) = 42.39825 120.03771 119.98865
#
# Poissons Ratio (x) = 0.76988 0.19537
# Poissons Ratio (y) = 0.27193 0.23368
# Poissons Ratio (z) = 0.06903 0.23378
#
# Static dielectric constant tensor:
#      x y z
#    x 3.858910 -0.137460 0.270790 
#    y -0.137460 4.287540 0.113840 
#    z 0.270790 0.113840 4.914360 
# 
# 
# High freq. dielectric constant tensor:
#      x y z
#    x 1.877620 -0.016640 0.009670 
#    y -0.016640 1.908820 -0.005600 
#    z 0.009670 -0.005600 1.924960 
# 
# From -- ./inp_files/315701.got.cif
#   From: 2010.06.25/outbox.cif.g09.slc.cpg/sg2_158_cif.got.tgz:315701.got - 2010.06.27 13:26:56.
