data_PCOD8023481
_publ_section_title
;
Structure prediction by ZEFSAII (Michael W. Deem and Ramdas Pophale) SiO2 
 PCOD8023481
Probable space group: P -1
;
_chemical_formula_sum "Si O2"
_cell_formula_units_Z 14
_cell_length_a 8.003486
_cell_length_b 10.188297
_cell_length_c 19.364699
_cell_angle_alpha 154.370291
_cell_angle_beta 58.167953
_cell_angle_gamma 118.470419
_cell_volume 580.286369
_symmetry_space_group_name_H-M "P -1"
_symmetry_group_IT_number 2
_symmetry_cell_setting 'triclinic'
loop_
_space_group_symop_operation_xyz
x,y,z
-x,-y,-z
loop_
_atom_site_type_symbol
_atom_site_label
_atom_site_fract_x
_atom_site_fract_y
_atom_site_fract_z
Si Si1 0.509810 0.268034 0.263836
Si Si2 0.529762 0.841745 0.176793
Si Si3 0.910830 0.267525 0.100834
Si Si4 0.751988 0.145453 0.383450
Si Si5 0.169268 0.864477 0.345529
Si Si6 0.138989 0.108843 0.196685
Si Si7 0.820691 0.249689 0.569487
O O1 0.688016 0.352113 0.213069
O O2 0.394897 0.568036 0.457835
O O3 0.346502 0.046625 0.159888
O O4 0.610041 0.071680 0.210033
O O5 0.312669 0.951601 0.294136
O O6 0.670846 0.862942 0.223041
O O7 0.500000 0.500000 0.000000
O O8 0.050408 0.557029 0.210301
O O9 0.912810 0.173034 0.974618
O O10 0.000000 0.000000 0.000000
O O11 0.765676 0.063976 0.423908
O O12 0.971794 0.203662 0.333502
O O13 0.303037 0.833579 0.373291
O O14 0.032173 0.160940 0.514562
O O15 0.180831 0.395708 0.274553
#
# Coordination Sequence:
#
# PCOD8023481 Si02
#       7
#     2   2   2   2   2   2   2
#     4  11  25  44  70 101 130 179 229 269 330 403
#     4  12  26  42  66  98 136 172 221 276 336 393
#     4  12  24  43  68 100 136 177 220 274 336 394
#     4  11  24  44  72  97 133 178 228 271 330 399
#     4  11  24  42  65  97 137 172 220 273 337 389
#     4  11  22  45  70  98 136 174 226 275 330 396
#     4  10  23  41  68  93 131 172 223 271 329 386
#
# _framework density 24.126018999999999
#
# number of rings (size 3 to 8) (size 9 to 14) (size 15 to 20)
#    0.000    0.857    1.429    6.857    4.000    1.714 
#    2.571    2.857    0.000    0.000    0.000    0.000 
#    0.000    0.000    0.000    0.000    0.000    0.000 
#
# Total GULP energy -173468.331077 kJ/mol
# GULP energy per Si atom -12390.595077 kJ/mol
# Density = 2.407111 g / cm^3
# Si number density = 24.126019 Si / 1000 Ang^3
#
#
#
# Elastic Constant Matrix: (Units=GPa)
#
#
# Indices 1 2 3 4 5 6 
#
# 1 95.9815 23.8035 20.7926 -14.5629 19.1803 -12.3273
# 2 23.8035 72.5647 23.9723 -18.0448 4.6418 -9.7839
# 3 20.7926 23.9723 64.0752 -22.7446 21.8876 -15.7173
# 4 -14.5629 -18.0448 -22.7446 31.1788 -4.7626 -2.0118
# 5 19.1803 4.6418 21.8876 -4.7626 49.4304 -13.2791
# 6 -12.3273 -9.7839 -15.7173 -2.0118 -13.2791 44.1617
#
#
#
# Elastic Compliance Matrix: (Units=1/GPa)
#
#
# Indices 1 2 3 4 5 6 
#
# 1 0.012686 -0.002685 0.000094 0.003993 -0.003784 0.002024
# 2 -0.002685 0.017800 -0.003276 0.007213 0.002338 0.003060
# 3 0.000094 -0.003276 0.027706 0.017573 -0.008298 0.007466
# 4 0.003993 0.007213 0.017573 0.051281 -0.002209 0.010639
# 5 -0.003784 0.002338 -0.008298 -0.002209 0.026082 0.004251
# 6 0.002024 0.003060 0.007466 0.010639 0.004251 0.028307
#
#
# Mechanical properties :
#
#
# Convention : Reuss Voigt Hill
#
# Bulk Modulus (GPa) = 21.52469 41.08426 31.30447
# Shear Modulus (GPa) = 26.16680 35.89106 31.02893
#
# Velocity S-wave (km/s) = 3.29688 3.86119 3.59014
# Velocity P-wave (km/s) = 4.84084 6.07819 5.49446
#
# Compressibility (1/GPa) = 0.04645828
#
# Stress axis : x y z
#
# Youngs Moduli (GPa) = 78.82738 56.17864 36.09371
#
# Poissons Ratio (x) = 0.15082 -0.00339
# Poissons Ratio (y) = 0.21162 0.11825
# Poissons Ratio (z) = -0.00741 0.18405
#
# Static dielectric constant tensor:
#      x y z
#    x 4.574770 -0.206700 0.188370 
#    y -0.206700 4.463520 -0.311380 
#    z 0.188370 -0.311380 4.211140 
# 
# 
# High freq. dielectric constant tensor:
#      x y z
#    x 1.959540 -0.001010 0.008730 
#    y -0.001010 1.959020 -0.022740 
#    z 0.008730 -0.022740 1.959560 
# 
# From -- ./inp_files/557712.got.cif
#   From: 2010.06.25/outbox.cif.g09.slc.cpg/sg2_279_cif.got.tgz:557712.got - 2010.06.27 13:26:56.
