data_PCOD8023720
_publ_section_title
;
Structure prediction by ZEFSAII (Michael W. Deem and Ramdas Pophale) SiO2 
 PCOD8023720
Probable space group: P -1
;
_chemical_formula_sum "Si O2"
_cell_formula_units_Z 16
_cell_length_a 11.609308
_cell_length_b 9.174623
_cell_length_c 15.419487
_cell_angle_alpha 143.764628
_cell_angle_beta 118.872527
_cell_angle_gamma 78.545372
_cell_volume 790.208304
_symmetry_space_group_name_H-M "P -1"
_symmetry_group_IT_number 2
_symmetry_cell_setting 'triclinic'
loop_
_space_group_symop_operation_xyz
x,y,z
-x,-y,-z
loop_
_atom_site_type_symbol
_atom_site_label
_atom_site_fract_x
_atom_site_fract_y
_atom_site_fract_z
Si Si1 0.553723 0.815845 0.167629
Si Si2 0.318778 0.093748 0.430208
Si Si3 0.674039 0.402532 0.229454
Si Si4 0.803009 0.761312 0.901035
Si Si5 0.928710 0.285543 0.946020
Si Si6 0.254761 0.774174 0.995033
Si Si7 0.655578 0.897400 0.066028
Si Si8 0.381995 0.806079 0.472182
O O1 0.675937 0.897333 0.177217
O O2 0.625347 0.971505 0.355795
O O3 0.500000 0.500000 0.000000
O O4 0.421135 0.905650 0.143502
O O5 0.287065 0.317974 0.578234
O O6 0.461682 0.206147 0.479563
O O7 0.183889 0.974391 0.262609
O O8 0.333796 0.872836 0.393384
O O9 0.760048 0.443356 0.189701
O O10 0.718216 0.205856 0.211659
O O11 0.509004 0.259914 0.084484
O O12 0.727286 0.489646 0.688785
O O13 0.731936 0.743661 0.962042
O O14 0.963272 0.801942 0.000655
O O15 0.793682 0.995359 0.950008
O O16 0.840252 0.379249 0.031282
O O17 0.000000 0.500000 0.000000
#
# Coordination Sequence:
#
# PCOD8023720 Si02
#       8
#     2   2   2   2   2   2   2   2
#     4  11  23  36  63  97 130 155 209 265 322 366
#     4  11  22  39  62  94 124 164 217 258 312 368
#     4   9  18  38  64  88 126 158 206 256 320 366
#     4  11  23  42  67  92 132 166 211 254 321 378
#     4  12  25  43  63  90 130 174 213 256 313 378
#     4  10  23  42  64  94 128 170 205 259 319 376
#     4   9  19  36  61  94 123 163 195 260 321 373
#     4  11  22  37  63  96 125 161 209 269 308 372
#
# _framework density 20.247826
#
# number of rings (size 3 to 8) (size 9 to 14) (size 15 to 20)
#    0.000    1.500    3.750    2.625    3.500    1.500 
#    0.000    4.375    0.000    0.000    0.000    0.000 
#    0.000    0.000    0.000    0.000    0.000    0.000 
#
# Total GULP energy -198300.722120 kJ/mol
# GULP energy per Si atom -12393.795133 kJ/mol
# Density = 2.020174 g / cm^3
# Si number density = 20.247826 Si / 1000 Ang^3
#
#
#
# Elastic Constant Matrix: (Units=GPa)
#
#
# Indices 1 2 3 4 5 6 
#
# 1 101.8682 26.0252 54.7254 -0.9490 -18.0026 22.2980
# 2 26.0252 47.8813 37.3604 -6.8594 2.1604 3.7463
# 3 54.7254 37.3604 129.7795 1.1736 -14.4999 -6.1946
# 4 -0.9490 -6.8594 1.1736 24.1849 -3.3004 -5.4949
# 5 -18.0026 2.1604 -14.4999 -3.3004 36.1871 -8.9242
# 6 22.2980 3.7463 -6.1946 -5.4949 -8.9242 40.2550
#
#
#
# Elastic Compliance Matrix: (Units=1/GPa)
#
#
# Indices 1 2 3 4 5 6 
#
# 1 0.016677 -0.004256 -0.005802 -0.001829 0.003805 -0.009140
# 2 -0.004256 0.031143 -0.008147 0.007556 -0.007130 -0.002344
# 3 -0.005802 -0.008147 0.013345 -0.000996 0.004558 0.006900
# 4 -0.001829 0.007556 -0.000996 0.045709 0.004217 0.007331
# 5 0.003805 -0.007130 0.004558 0.004217 0.033980 0.007366
# 6 -0.009140 -0.002344 0.006900 0.007331 0.007366 0.033818
#
#
# Mechanical properties :
#
#
# Convention : Reuss Voigt Hill
#
# Bulk Modulus (GPa) = 40.39696 57.30568 48.85132
# Shear Modulus (GPa) = 22.79629 30.88660 26.84144
#
# Velocity S-wave (km/s) = 3.35903 3.90991 3.64489
# Velocity P-wave (km/s) = 5.91935 6.98189 6.47246
#
# Compressibility (1/GPa) = 0.02475434
#
# Stress axis : x y z
#
# Youngs Moduli (GPa) = 59.96324 32.10990 74.93488
#
# Poissons Ratio (x) = 0.13666 0.43475
# Poissons Ratio (y) = 0.25521 0.61053
# Poissons Ratio (z) = 0.34789 0.26161
#
# Static dielectric constant tensor:
#      x y z
#    x 3.954560 0.151760 -0.269120 
#    y 0.151760 3.769430 -0.181330 
#    z -0.269120 -0.181330 3.570550 
# 
# 
# High freq. dielectric constant tensor:
#      x y z
#    x 1.789980 0.004740 -0.022400 
#    y 0.004740 1.789820 -0.006110 
#    z -0.022400 -0.006110 1.773290 
# 
# From -- ./inp_files/271566.got.cif
#   From: 2010.06.25/outbox.cif.g09.slc.cpg/sg2_136_cif.got.tgz:271566.got - 2010.06.27 13:26:56.
