data_PCOD8023929
_publ_section_title
;
Structure prediction by ZEFSAII (Michael W. Deem and Ramdas Pophale) SiO2 
 PCOD8023929
Probable space group: P -1
;
_chemical_formula_sum "Si O2"
_cell_formula_units_Z 16
_cell_length_a 8.702696
_cell_length_b 24.374609
_cell_length_c 8.514240
_cell_angle_alpha 51.580867
_cell_angle_beta 127.907766
_cell_angle_gamma 148.018678
_cell_volume 732.692692
_symmetry_space_group_name_H-M "P -1"
_symmetry_group_IT_number 2
_symmetry_cell_setting 'triclinic'
loop_
_space_group_symop_operation_xyz
x,y,z
-x,-y,-z
loop_
_atom_site_type_symbol
_atom_site_label
_atom_site_fract_x
_atom_site_fract_y
_atom_site_fract_z
Si Si1 0.408105 0.436684 0.900860
Si Si2 0.384812 0.769480 0.923495
Si Si3 0.845619 0.968754 0.664710
Si Si4 0.933820 0.408186 0.532708
Si Si5 0.241154 0.961480 0.797083
Si Si6 0.676073 0.787871 0.366064
Si Si7 0.034889 0.431556 0.191661
Si Si8 0.057728 0.243694 0.203475
O O1 0.652687 0.509576 0.788635
O O2 0.108801 0.391569 0.742677
O O3 0.500000 0.500000 0.000000
O O4 0.331036 0.336809 0.090829
O O5 0.599740 0.889647 0.783982
O O6 0.239352 0.688598 0.831518
O O7 0.131496 0.737651 0.923055
O O8 0.561691 0.763045 0.159433
O O9 0.981410 0.928028 0.793217
O O10 0.676591 0.956582 0.428353
O O11 0.113184 0.089688 0.678817
O O12 0.594926 0.291245 0.541043
O O13 0.000000 0.500000 0.500000
O O14 0.040274 0.437070 0.370594
O O15 0.131620 0.865295 0.807346
O O16 0.500000 0.000000 0.000000
O O17 0.846288 0.760658 0.556499
O O18 0.000000 0.500000 0.000000
#
# Coordination Sequence:
#
# PCOD8023929 Si02
#       8
#     2   2   2   2   2   2   2   2
#     4  12  23  46  69 102 138 178 232 288 345 422
#     4  12  25  45  69 102 138 180 232 288 343 413
#     4  10  25  41  68 101 140 179 237 282 334 419
#     4  12  26  46  74  99 140 185 226 289 357 415
#     4  10  23  42  67  99 138 184 228 283 345 403
#     4  11  23  45  71  97 139 186 224 284 355 401
#     4  12  27  43  68 102 137 178 236 287 349 420
#     4  11  24  42  71  96 139 184 225 285 348 411
#
# _framework density 21.837257000000001
#
# number of rings (size 3 to 8) (size 9 to 14) (size 15 to 20)
#    0.000    0.750    2.500    4.500    7.000    3.000 
#    2.250    0.000    0.000    0.000    0.000    0.000 
#    0.000    0.000    0.000    0.000    0.000    0.000 
#
# Total GULP energy -198259.990168 kJ/mol
# GULP energy per Si atom -12391.249385 kJ/mol
# Density = 2.178755 g / cm^3
# Si number density = 21.837257 Si / 1000 Ang^3
#
#
#
# Elastic Constant Matrix: (Units=GPa)
#
#
# Indices 1 2 3 4 5 6 
#
# 1 91.9383 46.7954 42.3949 -0.3578 -17.7004 -3.3784
# 2 46.7954 113.7336 55.3664 -7.0987 -3.2733 6.1967
# 3 42.3949 55.3664 163.1304 8.7770 -2.7633 2.3908
# 4 -0.3578 -7.0987 8.7770 35.5932 6.6161 -6.2575
# 5 -17.7004 -3.2733 -2.7633 6.6161 41.3123 -4.8967
# 6 -3.3784 6.1967 2.3908 -6.2575 -4.8967 35.0052
#
#
#
# Elastic Compliance Matrix: (Units=1/GPa)
#
#
# Indices 1 2 3 4 5 6 
#
# 1 0.016230 -0.005685 -0.002162 -0.001116 0.006951 0.003493
# 2 -0.005685 0.012899 -0.003085 0.003312 -0.002431 -0.002370
# 3 -0.002162 -0.003085 0.007887 -0.002652 -0.000303 -0.000718
# 4 -0.001116 0.003312 -0.002652 0.031067 -0.004851 0.004362
# 5 0.006951 -0.002431 -0.000303 -0.004851 0.028247 0.004206
# 6 0.003493 -0.002370 -0.000718 0.004362 0.004206 0.030741
#
#
# Mechanical properties :
#
#
# Convention : Reuss Voigt Hill
#
# Bulk Modulus (GPa) = 65.99848 73.10175 69.55011
# Shear Modulus (GPa) = 32.47056 37.33185 34.90120
#
# Velocity S-wave (km/s) = 3.86026 4.13915 4.00214
# Velocity P-wave (km/s) = 7.08218 7.50945 7.29894
#
# Compressibility (1/GPa) = 0.01515186
#
# Stress axis : x y z
#
# Youngs Moduli (GPa) = 61.61533 77.52316 126.79091
#
# Poissons Ratio (x) = 0.44074 0.27408
# Poissons Ratio (y) = 0.35030 0.39117
# Poissons Ratio (z) = 0.13319 0.23917
#
# Static dielectric constant tensor:
#      x y z
#    x 4.034590 0.206110 -0.056020 
#    y 0.206110 4.021710 -0.040560 
#    z -0.056020 -0.040560 4.523350 
# 
# 
# High freq. dielectric constant tensor:
#      x y z
#    x 1.847190 0.005060 0.002470 
#    y 0.005060 1.866680 -0.003890 
#    z 0.002470 -0.003890 1.883290 
# 
# From -- ./inp_files/226199.got.cif
#   From: 2010.06.25/outbox.cif.g09.slc.cpg/sg2_114_cif.got.tgz:226199.got - 2010.06.27 13:26:56.
