data_PCOD8023283
_publ_section_title
;
Structure prediction by ZEFSAII (Michael W. Deem and Ramdas Pophale) SiO2 
 PCOD8023283
Probable space group: P -1
;
_chemical_formula_sum "Si O2"
_cell_formula_units_Z 16
_cell_length_a 11.831793
_cell_length_b 9.108762
_cell_length_c 11.773121
_cell_angle_alpha 121.356395
_cell_angle_beta 55.742783
_cell_angle_gamma 86.345194
_cell_volume 772.787714
_symmetry_space_group_name_H-M "P -1"
_symmetry_group_IT_number 2
_symmetry_cell_setting 'triclinic'
loop_
_space_group_symop_operation_xyz
x,y,z
-x,-y,-z
loop_
_atom_site_type_symbol
_atom_site_label
_atom_site_fract_x
_atom_site_fract_y
_atom_site_fract_z
Si Si1 0.444600 0.528175 0.819006
Si Si2 0.196991 0.644078 0.831301
Si Si3 0.433079 0.210273 0.063207
Si Si4 0.246861 0.247680 0.567066
Si Si5 0.744309 0.276909 0.400089
Si Si6 0.848711 0.840170 0.193306
Si Si7 0.569683 0.830051 0.209306
Si Si8 0.856784 0.549149 0.520829
O O1 0.269664 0.651050 0.913353
O O2 0.452434 0.694814 0.959554
O O3 0.571997 0.442086 0.609414
O O4 0.461715 0.347106 0.811641
O O5 0.287634 0.417478 0.642918
O O6 0.242905 0.759729 0.758513
O O7 0.009240 0.731446 0.986077
O O8 0.285862 0.365565 0.278760
O O9 0.381399 0.195681 0.959829
O O10 0.500000 0.000000 0.000000
O O11 0.123841 0.258451 0.736742
O O12 0.167920 0.295203 0.504659
O O13 0.408412 0.038425 0.400154
O O14 0.872945 0.345909 0.380507
O O15 0.796904 0.066488 0.341639
O O16 0.710039 0.824067 0.201063
O O17 0.000000 0.500000 0.500000
#
# Coordination Sequence:
#
# PCOD8023283 Si02
#       8
#     2   2   2   2   2   2   2   2
#     4  11  23  43  64  93 132 173 217 263 323 388
#     4  11  24  39  64  99 132 165 215 278 319 377
#     4  11  25  42  66  97 125 175 222 261 319 387
#     4  11  22  43  64  95 129 171 216 258 326 388
#     4  10  23  41  64  95 130 170 216 262 327 390
#     4  12  24  40  68 101 132 166 218 269 332 377
#     4  12  24  42  68  93 135 176 214 265 317 400
#     4  10  24  44  68  91 133 173 212 271 324 386
#
# _framework density 20.704263000000001
#
# number of rings (size 3 to 8) (size 9 to 14) (size 15 to 20)
#    0.000    1.000    3.750    2.625    5.250    1.000 
#    0.000    0.625    0.000    0.000    0.000    0.000 
#    0.000    0.000    0.000    0.000    0.000    0.000 
#
# Total GULP energy -198351.067806 kJ/mol
# GULP energy per Si atom -12396.941738 kJ/mol
# Density = 2.065714 g / cm^3
# Si number density = 20.704263 Si / 1000 Ang^3
#
#
#
# Elastic Constant Matrix: (Units=GPa)
#
#
# Indices 1 2 3 4 5 6 
#
# 1 117.3157 56.3627 24.9641 4.9725 -0.2423 -9.9307
# 2 56.3627 116.7469 29.7412 -7.3008 0.5996 2.8884
# 3 24.9641 29.7412 68.1423 -8.9610 9.1353 -3.8278
# 4 4.9725 -7.3008 -8.9610 42.9619 -4.5769 12.8914
# 5 -0.2423 0.5996 9.1353 -4.5769 24.7159 -1.4335
# 6 -9.9307 2.8884 -3.8278 12.8914 -1.4335 31.0009
#
#
#
# Elastic Compliance Matrix: (Units=1/GPa)
#
#
# Indices 1 2 3 4 5 6 
#
# 1 0.012633 -0.005950 -0.002392 -0.004805 0.000630 0.006333
# 2 -0.005950 0.012629 -0.003284 0.003785 0.001260 -0.005004
# 3 -0.002392 -0.003284 0.018189 0.002752 -0.006137 0.000358
# 4 -0.004805 0.003785 0.002752 0.029526 0.003519 -0.013668
# 5 0.000630 0.001260 -0.006137 0.003519 0.043347 -0.000132
# 6 0.006333 -0.005004 0.000358 -0.013668 -0.000132 0.040474
#
#
# Mechanical properties :
#
#
# Convention : Reuss Voigt Hill
#
# Bulk Modulus (GPa) = 49.50755 58.26010 53.88383
# Shear Modulus (GPa) = 26.76910 32.47821 29.62366
#
# Velocity S-wave (km/s) = 3.59963 3.96494 3.78670
# Velocity P-wave (km/s) = 6.42185 7.01151 6.72315
#
# Compressibility (1/GPa) = 0.02019894
#
# Stress axis : x y z
#
# Youngs Moduli (GPa) = 79.16072 79.18457 54.97686
#
# Poissons Ratio (x) = 0.47113 0.13149
# Poissons Ratio (y) = 0.47099 0.18056
# Poissons Ratio (z) = 0.18933 0.26007
#
# Static dielectric constant tensor:
#      x y z
#    x 4.009780 0.000470 0.396310 
#    y 0.000470 4.013280 -0.045900 
#    z 0.396310 -0.045900 3.797020 
# 
# 
# High freq. dielectric constant tensor:
#      x y z
#    x 1.796900 -0.001900 0.008710 
#    y -0.001900 1.829400 -0.006160 
#    z 0.008710 -0.006160 1.809780 
# 
# From -- ./inp_files/205021.got.cif
#   From: 2010.06.25/outbox.cif.g09.slc.cpg/sg2_103_cif.got.tgz:205021.got - 2010.06.27 13:26:56.
