data_PCOD8023857
_publ_section_title
;
Structure prediction by ZEFSAII (Michael W. Deem and Ramdas Pophale) SiO2 
 PCOD8023857
Probable space group: P -1
;
_chemical_formula_sum "Si O2"
_cell_formula_units_Z 16
_cell_length_a 14.603276
_cell_length_b 14.907731
_cell_length_c 8.642114
_cell_angle_alpha 57.398352
_cell_angle_beta 90.925754
_cell_angle_gamma 138.987742
_cell_volume 736.399313
_symmetry_space_group_name_H-M "P -1"
_symmetry_group_IT_number 2
_symmetry_cell_setting 'triclinic'
loop_
_space_group_symop_operation_xyz
x,y,z
-x,-y,-z
loop_
_atom_site_type_symbol
_atom_site_label
_atom_site_fract_x
_atom_site_fract_y
_atom_site_fract_z
Si Si1 0.032573 0.966996 0.376220
Si Si2 0.587078 0.190354 0.240766
Si Si3 0.293811 0.046336 0.219335
Si Si4 0.404298 0.945524 0.894298
Si Si5 0.322158 0.393081 0.786267
Si Si6 0.727675 0.423019 0.314590
Si Si7 0.381943 0.476750 0.351791
Si Si8 0.064003 0.686031 0.290444
O O1 0.179749 0.017328 0.346447
O O2 0.121641 0.134472 0.088435
O O3 0.000000 0.000000 0.500000
O O4 0.815911 0.699654 0.581028
O O5 0.405375 0.084069 0.305562
O O6 0.675269 0.238653 0.034772
O O7 0.760262 0.424111 0.132800
O O8 0.500000 0.000000 0.500000
O O9 0.133901 0.818001 0.324093
O O10 0.457149 0.264002 0.904358
O O11 0.558219 0.168779 0.593169
O O12 0.234865 0.854023 0.013351
O O13 0.500000 0.000000 0.000000
O O14 0.347746 0.534662 0.729112
O O15 0.311087 0.388380 0.606500
O O16 0.517234 0.526411 0.711484
O O17 0.903536 0.591250 0.284697
O O18 0.000000 0.500000 0.500000
#
# Coordination Sequence:
#
# PCOD8023857 Si02
#       8
#     2   2   2   2   2   2   2   2
#     4  11  26  43  68 103 138 175 232 284 338 416
#     4  10  23  43  63  96 139 175 217 279 341 403
#     4  11  24  43  73  99 137 187 230 275 350 408
#     4  11  21  42  66  93 131 178 226 274 334 402
#     4  10  23  42  66  99 133 173 228 281 343 404
#     4  11  24  40  65  97 135 173 221 283 339 399
#     4  10  23  44  71  95 134 180 225 286 338 406
#     4  12  23  41  69 102 131 175 234 281 326 410
#
# _framework density 21.727343000000001
#
# number of rings (size 3 to 8) (size 9 to 14) (size 15 to 20)
#    0.000    1.250    2.500    2.625    3.500    5.500 
#    2.250    0.000    0.000    0.000    0.000    0.000 
#    0.000    0.000    0.000    0.000    0.000    0.000 
#
# Total GULP energy -198297.413077 kJ/mol
# GULP energy per Si atom -12393.588317 kJ/mol
# Density = 2.167789 g / cm^3
# Si number density = 21.727343 Si / 1000 Ang^3
#
#
#
# Elastic Constant Matrix: (Units=GPa)
#
#
# Indices 1 2 3 4 5 6 
#
# 1 132.7246 42.1443 33.0471 4.7227 6.0249 -9.0881
# 2 42.1443 113.0762 32.4703 -0.6554 4.5152 -9.8300
# 3 33.0471 32.4703 82.4563 0.4125 -4.4372 -4.5108
# 4 4.7227 -0.6554 0.4125 26.7146 0.0984 -5.2715
# 5 6.0249 4.5152 -4.4372 0.0984 34.3735 3.7249
# 6 -9.0881 -9.8300 -4.5108 -5.2715 3.7249 42.3745
#
#
#
# Elastic Compliance Matrix: (Units=1/GPa)
#
#
# Indices 1 2 3 4 5 6 
#
# 1 0.009212 -0.002491 -0.002739 -0.001427 -0.001754 0.001083
# 2 -0.002491 0.010963 -0.003307 0.001150 -0.001644 0.001945
# 3 -0.002739 -0.003307 0.014677 0.000162 0.002811 -0.000019
# 4 -0.001427 0.001150 0.000162 0.038666 -0.000514 0.004833
# 5 -0.001754 -0.001644 0.002811 -0.000514 0.030325 -0.003188
# 6 0.001083 0.001945 -0.000019 0.004833 -0.003188 0.025162
#
#
# Mechanical properties :
#
#
# Convention : Reuss Voigt Hill
#
# Bulk Modulus (GPa) = 56.24774 60.39783 58.32278
# Shear Modulus (GPa) = 32.89368 35.39889 34.14628
#
# Velocity S-wave (km/s) = 3.89515 4.04075 3.96862
# Velocity P-wave (km/s) = 6.79513 7.04476 6.92107
#
# Compressibility (1/GPa) = 0.01777849
#
# Stress axis : x y z
#
# Youngs Moduli (GPa) = 108.55506 91.21733 68.13415
#
# Poissons Ratio (x) = 0.22721 0.18663
# Poissons Ratio (y) = 0.27040 0.22529
# Poissons Ratio (z) = 0.29735 0.30162
#
# Static dielectric constant tensor:
#      x y z
#    x 3.814380 -0.167720 0.339720 
#    y -0.167720 4.087600 -0.116690 
#    z 0.339720 -0.116690 3.465720 
# 
# 
# High freq. dielectric constant tensor:
#      x y z
#    x 1.868860 -0.009880 0.001830 
#    y -0.009880 1.856660 0.006290 
#    z 0.001830 0.006290 1.846550 
# 
# From -- ./inp_files/312756.got.cif
#   From: 2010.06.25/outbox.cif.g09.slc.cpg/sg2_157_cif.got.tgz:312756.got - 2010.06.27 13:26:56.
