data_PCOD8023756
_publ_section_title
;
Structure prediction by ZEFSAII (Michael W. Deem and Ramdas Pophale) SiO2 
 PCOD8023756
Probable space group: P -1
;
_chemical_formula_sum "Si O2"
_cell_formula_units_Z 12
_cell_length_a 16.095011
_cell_length_b 4.944353
_cell_length_c 19.928837
_cell_angle_alpha 64.267235
_cell_angle_beta 158.870078
_cell_angle_gamma 105.947336
_cell_volume 471.776914
_symmetry_space_group_name_H-M "P -1"
_symmetry_group_IT_number 2
_symmetry_cell_setting 'triclinic'
loop_
_space_group_symop_operation_xyz
x,y,z
-x,-y,-z
loop_
_atom_site_type_symbol
_atom_site_label
_atom_site_fract_x
_atom_site_fract_y
_atom_site_fract_z
Si Si1 0.554716 0.269002 0.885301
Si Si2 0.982177 0.796091 0.118485
Si Si3 0.940102 0.789303 0.670762
Si Si4 0.775468 0.064732 0.374364
Si Si5 0.416362 0.289238 0.251422
Si Si6 0.231856 0.275480 0.256255
O O1 0.333422 0.560947 0.725030
O O2 0.599965 0.380122 0.833029
O O3 0.453785 0.985624 0.830066
O O4 0.814985 0.134538 0.137361
O O5 0.013950 0.580061 0.233130
O O6 0.179292 0.580088 0.233285
O O7 0.029666 0.118298 0.135517
O O8 0.699149 0.898297 0.866516
O O9 0.880187 0.825329 0.542876
O O10 0.703970 0.042993 0.508973
O O11 0.000000 0.000000 0.500000
O O12 0.234539 0.393760 0.168661
O O13 0.500000 0.000000 0.500000
#
# Coordination Sequence:
#
# PCOD8023756 Si02
#       6
#     2   2   2   2   2   2
#     4  10  25  44  68 100 130 172 212 261 327 385
#     4  11  25  42  62  92 126 173 219 265 319 370
#     4  10  24  44  68  95 135 170 215 268 323 388
#     4  11  25  45  71 100 130 166 212 265 325 392
#     4  10  23  42  65  91 130 172 215 266 316 375
#     4  12  24  40  63  91 128 171 220 267 315 366
#
# _framework density 25.435748
#
# number of rings (size 3 to 8) (size 9 to 14) (size 15 to 20)
#    0.000    1.333    1.667    2.000    2.333   13.333 
#    0.000    0.000    0.000    0.000    0.000    0.000 
#    0.000    0.000    0.000    0.000    0.000    0.000 
#
# Total GULP energy -148850.222090 kJ/mol
# GULP energy per Si atom -12404.185174 kJ/mol
# Density = 2.537786 g / cm^3
# Si number density = 25.435748 Si / 1000 Ang^3
#
#
#
# Elastic Constant Matrix: (Units=GPa)
#
#
# Indices 1 2 3 4 5 6 
#
# 1 144.5002 17.0612 32.4322 5.0046 26.0617 5.9507
# 2 17.0612 65.2249 9.7225 24.9311 -1.0274 3.1785
# 3 32.4322 9.7225 133.1601 18.4571 -3.4756 10.0208
# 4 5.0046 24.9311 18.4571 34.4345 4.6831 6.1248
# 5 26.0617 -1.0274 -3.4756 4.6831 42.5070 2.8716
# 6 5.9507 3.1785 10.0208 6.1248 2.8716 27.8675
#
#
#
# Elastic Compliance Matrix: (Units=1/GPa)
#
#
# Indices 1 2 3 4 5 6 
#
# 1 0.008874 -0.003306 -0.002492 0.003395 -0.006048 -0.000745
# 2 -0.003306 0.022721 0.001641 -0.017639 0.004591 0.000928
# 3 -0.002492 0.001641 0.009018 -0.005730 0.003068 -0.001955
# 4 0.003395 -0.017639 -0.005730 0.046517 -0.007690 -0.006084
# 5 -0.006048 0.004591 0.003068 -0.007690 0.028550 -0.001587
# 6 -0.000745 0.000928 -0.001955 -0.006084 -0.001587 0.038141
#
#
# Mechanical properties :
#
#
# Convention : Reuss Voigt Hill
#
# Bulk Modulus (GPa) = 30.96118 51.25743 41.10931
# Shear Modulus (GPa) = 28.91794 39.87310 34.39552
#
# Velocity S-wave (km/s) = 3.37545 3.96359 3.68129
# Velocity P-wave (km/s) = 5.23358 6.41422 5.85374
#
# Compressibility (1/GPa) = 0.03229851
#
# Stress axis : x y z
#
# Youngs Moduli (GPa) = 112.68712 44.01195 110.88536
#
# Poissons Ratio (x) = 0.14552 0.27637
# Poissons Ratio (y) = 0.37259 -0.18199
# Poissons Ratio (z) = 0.28086 -0.07224
#
# Static dielectric constant tensor:
#      x y z
#    x 4.689050 0.178550 0.025510 
#    y 0.178550 4.349220 0.213320 
#    z 0.025510 0.213320 4.962620 
# 
# 
# High freq. dielectric constant tensor:
#      x y z
#    x 2.013220 -0.005990 0.009680 
#    y -0.005990 1.999450 0.002820 
#    z 0.009680 0.002820 2.046870 
# 
# From -- ./inp_files/121305.got.cif
#   From: 2010.06.25/outbox.cif.g09.slc.cpg/sg2_61_cif.got.tgz:121305.got - 2010.06.27 13:26:56.
