data_PCOD8023397
_publ_section_title
;
Structure prediction by ZEFSAII (Michael W. Deem and Ramdas Pophale) SiO2 
 PCOD8023397
Probable space group: P -1
;
_chemical_formula_sum "Si O2"
_cell_formula_units_Z 16
_cell_length_a 14.137352
_cell_length_b 13.951371
_cell_length_c 10.898442
_cell_angle_alpha 135.400610
_cell_angle_beta 32.431639
_cell_angle_gamma 134.049065
_cell_volume 783.639150
_symmetry_space_group_name_H-M "P -1"
_symmetry_group_IT_number 2
_symmetry_cell_setting 'triclinic'
loop_
_space_group_symop_operation_xyz
x,y,z
-x,-y,-z
loop_
_atom_site_type_symbol
_atom_site_label
_atom_site_fract_x
_atom_site_fract_y
_atom_site_fract_z
Si Si1 0.837104 0.167884 0.574672
Si Si2 0.949649 0.830110 0.884398
Si Si3 0.548997 0.806456 0.954081
Si Si4 0.066022 0.990185 0.282047
Si Si5 0.361609 0.372979 0.103808
Si Si6 0.091357 0.431822 0.642315
Si Si7 0.658276 0.631393 0.476691
Si Si8 0.952434 0.708825 0.038313
O O1 0.920002 0.036422 0.396814
O O2 0.893515 0.205712 0.406118
O O3 0.916946 0.299782 0.696925
O O4 0.619887 0.122326 0.789799
O O5 0.749203 0.757419 0.979279
O O6 0.954088 0.750105 0.933116
O O7 0.000000 0.000000 0.000000
O O8 0.518351 0.685270 0.980669
O O9 0.568436 0.746892 0.742735
O O10 0.735862 0.916736 0.880806
O O11 0.079609 0.834184 0.092016
O O12 0.000000 0.000000 0.500000
O O13 0.219327 0.441919 0.393005
O O14 0.500000 0.500000 0.000000
O O15 0.192547 0.407310 0.632842
O O16 0.026470 0.572751 0.853268
O O17 0.500000 0.500000 0.500000
O O18 0.750498 0.686539 0.296236
#
# Coordination Sequence:
#
# PCOD8023397 Si02
#       8
#     2   2   2   2   2   2   2   2
#     4  11  23  45  71  94 136 178 219 271 340 396
#     4  11  23  44  66  96 141 177 219 281 337 396
#     4  11  23  44  69  94 131 182 216 272 336 393
#     4  12  23  48  66  96 139 176 219 276 333 402
#     4  10  23  41  66  96 137 174 223 275 331 406
#     4  10  23  43  65  98 135 174 220 283 331 391
#     4  11  23  42  65  99 135 167 227 284 325 391
#     4  12  24  40  71  97 133 179 219 276 340 395
#
# _framework density 20.417560000000002
#
# number of rings (size 3 to 8) (size 9 to 14) (size 15 to 20)
#    0.000    1.000    6.250    1.125    7.000    2.500 
#    4.500    1.250    0.000    0.000    0.000    0.000 
#    0.000    0.000    0.000    0.000    0.000    0.000 
#
# Total GULP energy -198369.028187 kJ/mol
# GULP energy per Si atom -12398.064262 kJ/mol
# Density = 2.037109 g / cm^3
# Si number density = 20.417560 Si / 1000 Ang^3
#
#
#
# Elastic Constant Matrix: (Units=GPa)
#
#
# Indices 1 2 3 4 5 6 
#
# 1 81.0070 21.1023 42.2862 -10.9292 13.9472 -0.0161
# 2 21.1023 106.1016 37.6644 -2.9853 1.7913 4.2308
# 3 42.2862 37.6644 106.8808 -9.7980 -4.5889 4.2292
# 4 -10.9292 -2.9853 -9.7980 45.4678 2.2980 9.5733
# 5 13.9472 1.7913 -4.5889 2.2980 34.9207 -4.7426
# 6 -0.0161 4.2308 4.2292 9.5733 -4.7426 29.3725
#
#
#
# Elastic Compliance Matrix: (Units=1/GPa)
#
#
# Indices 1 2 3 4 5 6 
#
# 1 0.018077 -0.000872 -0.006829 0.003542 -0.008497 -0.001408
# 2 -0.000872 0.010897 -0.003478 0.000056 -0.000838 -0.001223
# 3 -0.006829 -0.003478 0.013617 0.001067 0.004477 -0.001088
# 4 0.003542 0.000056 0.001067 0.025193 -0.004163 -0.009043
# 5 -0.008497 -0.000838 0.004477 -0.004163 0.033789 0.006284
# 6 -0.001408 -0.001223 -0.001088 -0.009043 0.006284 0.038340
#
#
# Mechanical properties :
#
#
# Convention : Reuss Voigt Hill
#
# Bulk Modulus (GPa) = 49.42193 55.12168 52.27181
# Shear Modulus (GPa) = 29.58319 34.81464 32.19892
#
# Velocity S-wave (km/s) = 3.81058 4.13380 3.97548
# Velocity P-wave (km/s) = 6.60446 7.05976 6.83590
#
# Compressibility (1/GPa) = 0.02023393
#
# Stress axis : x y z
#
# Youngs Moduli (GPa) = 55.31830 91.76557 73.43880
#
# Poissons Ratio (x) = 0.08000 0.50153
# Poissons Ratio (y) = 0.04823 0.25539
# Poissons Ratio (z) = 0.37778 0.31913
#
# Static dielectric constant tensor:
#      x y z
#    x 3.663300 -0.031650 0.390060 
#    y -0.031650 3.912210 -0.011690 
#    z 0.390060 -0.011690 3.708580 
# 
# 
# High freq. dielectric constant tensor:
#      x y z
#    x 1.796980 0.001620 0.020260 
#    y 0.001620 1.809400 -0.004170 
#    z 0.020260 -0.004170 1.797460 
# 
# From -- ./inp_files/455043.got.cif
#   From: 2010.06.25/outbox.cif.g09.slc.cpg/sg2_228_cif.got.tgz:455043.got - 2010.06.27 13:26:56.
