data_PCOD8023850
_publ_section_title
;
Structure prediction by ZEFSAII (Michael W. Deem and Ramdas Pophale) SiO2 
 PCOD8023850
Probable space group: P -1
;
_chemical_formula_sum "Si O2"
_cell_formula_units_Z 16
_cell_length_a 13.868432
_cell_length_b 8.231823
_cell_length_c 14.266684
_cell_angle_alpha 55.501056
_cell_angle_beta 50.588870
_cell_angle_gamma 43.334910
_cell_volume 846.594259
_symmetry_space_group_name_H-M "P -1"
_symmetry_group_IT_number 2
_symmetry_cell_setting 'triclinic'
loop_
_space_group_symop_operation_xyz
x,y,z
-x,-y,-z
loop_
_atom_site_type_symbol
_atom_site_label
_atom_site_fract_x
_atom_site_fract_y
_atom_site_fract_z
Si Si1 0.793659 0.310451 0.849909
Si Si2 0.633206 0.797060 0.860007
Si Si3 0.065029 0.250291 0.353766
Si Si4 0.818268 0.219139 0.224610
Si Si5 0.330102 0.283243 0.917854
Si Si6 0.007649 0.050772 0.629574
Si Si7 0.072815 0.239610 0.792889
Si Si8 0.127922 0.157713 0.998062
O O1 0.646575 0.588224 0.854874
O O2 0.906443 0.289790 0.869603
O O3 0.877690 0.245147 0.718665
O O4 0.746465 0.130184 0.965492
O O5 0.764029 0.829106 0.739120
O O6 0.471087 0.045808 0.858219
O O7 0.646621 0.722147 0.984527
O O8 0.050181 0.087615 0.343092
O O9 0.936933 0.536517 0.322911
O O10 0.043303 0.196736 0.490425
O O11 0.677434 0.489779 0.196708
O O12 0.835518 0.150095 0.346532
O O13 0.804305 0.022683 0.243157
O O14 0.969828 0.204214 0.110486
O O15 0.173836 0.304326 0.984947
O O16 0.121707 0.232319 0.871091
#
# Coordination Sequence:
#
# PCOD8023850 Si02
#       8
#     2   2   2   2   2   2   2   2
#     4   9  18  32  49  75 100 126 160 201 248 290
#     4  10  21  34  48  70 104 136 163 194 238 298
#     4  10  18  34  53  76  99 123 160 206 248 290
#     4  10  18  31  49  75 100 125 164 205 243 285
#     4  11  21  32  49  72 101 138 166 193 239 291
#     4   9  19  32  56  78  94 121 162 209 251 284
#     4   9  17  28  50  74  98 123 153 204 251 282
#     4  10  17  29  50  73  98 126 162 208 243 281
#
# _framework density 18.899253999999999
#
# number of rings (size 3 to 8) (size 9 to 14) (size 15 to 20)
#    0.000    2.500    0.000    6.375    0.000    5.000 
#    0.000    1.875    0.000    0.000    0.000    7.875 
#    0.000    0.000    0.000    0.000    0.000    0.000 
#
# Total GULP energy -198278.040876 kJ/mol
# GULP energy per Si atom -12392.377555 kJ/mol
# Density = 1.885624 g / cm^3
# Si number density = 18.899254 Si / 1000 Ang^3
#
#
#
# Elastic Constant Matrix: (Units=GPa)
#
#
# Indices 1 2 3 4 5 6 
#
# 1 29.2964 13.8126 17.5934 -0.4923 13.1289 4.3743
# 2 13.8126 135.8694 53.2862 -19.2919 9.6955 10.1493
# 3 17.5934 53.2862 107.1539 -24.0001 18.2986 -0.8599
# 4 -0.4923 -19.2919 -24.0001 27.7258 1.0719 0.7369
# 5 13.1289 9.6955 18.2986 1.0719 26.0601 -5.3205
# 6 4.3743 10.1493 -0.8599 0.7369 -5.3205 19.2864
#
#
#
# Elastic Compliance Matrix: (Units=1/GPa)
#
#
# Indices 1 2 3 4 5 6 
#
# 1 0.051645 -0.000514 -0.004147 -0.001495 -0.026720 -0.018942
# 2 -0.000514 0.010047 -0.003649 0.004076 -0.002337 -0.006134
# 3 -0.004147 -0.003649 0.015694 0.011249 -0.007838 0.000969
# 4 -0.001495 0.004076 0.011249 0.049252 -0.012016 -0.006501
# 5 -0.026720 -0.002337 -0.007838 -0.012016 0.063805 0.025001
# 6 -0.018942 -0.006134 0.000969 -0.006501 0.025001 0.066562
#
#
# Mechanical properties :
#
#
# Convention : Reuss Voigt Hill
#
# Bulk Modulus (GPa) = 16.45710 49.07822 32.76766
# Shear Modulus (GPa) = 17.01365 27.12297 22.06831
#
# Velocity S-wave (km/s) = 3.00364 3.79243 3.42084
# Velocity P-wave (km/s) = 4.55585 6.72320 5.74270
#
# Compressibility (1/GPa) = 0.06076404
#
# Stress axis : x y z
#
# Youngs Moduli (GPa) = 19.36313 99.53117 63.71947
#
# Poissons Ratio (x) = 0.05118 0.26427
# Poissons Ratio (y) = 0.00996 0.23252
# Poissons Ratio (z) = 0.08031 0.36320
#
# Static dielectric constant tensor:
#      x y z
#    x 3.292060 0.246160 0.169920 
#    y 0.246160 4.048640 -0.424420 
#    z 0.169920 -0.424420 3.419210 
# 
# 
# High freq. dielectric constant tensor:
#      x y z
#    x 1.715960 0.029050 0.019430 
#    y 0.029050 1.743490 -0.029560 
#    z 0.019430 -0.029560 1.710640 
# 
# From -- ./inp_files/253991.got.cif
#   From: 2010.06.25/outbox.cif.g09.slc.cpg/sg2_127_cif.got.tgz:253991.got - 2010.06.27 13:26:56.
