data_PCOD8023223
_publ_section_title
;
Structure prediction by ZEFSAII (Michael W. Deem and Ramdas Pophale) SiO2 
 PCOD8023223
Probable space group: P -1
;
_chemical_formula_sum "Si O2"
_cell_formula_units_Z 12
_cell_length_a 8.768915
_cell_length_b 8.888264
_cell_length_c 11.625706
_cell_angle_alpha 139.469657
_cell_angle_beta 100.680969
_cell_angle_gamma 60.562077
_cell_volume 483.622839
_symmetry_space_group_name_H-M "P -1"
_symmetry_group_IT_number 2
_symmetry_cell_setting 'triclinic'
loop_
_space_group_symop_operation_xyz
x,y,z
-x,-y,-z
loop_
_atom_site_type_symbol
_atom_site_label
_atom_site_fract_x
_atom_site_fract_y
_atom_site_fract_z
Si Si1 0.764194 0.683979 0.786094
Si Si2 0.779033 0.092753 0.764862
Si Si3 0.384424 0.410731 0.825974
Si Si4 0.847695 0.527898 0.379099
Si Si5 0.821521 0.194931 0.381083
Si Si6 0.378882 0.099607 0.865351
O O1 0.771863 0.402805 0.600760
O O2 0.950747 0.660321 0.758778
O O3 0.591821 0.934815 0.839119
O O4 0.752101 0.727282 0.946132
O O5 0.605430 0.267508 0.754612
O O6 0.830976 0.775045 0.598003
O O7 0.718755 0.256899 0.974778
O O8 0.964286 0.067270 0.727508
O O9 0.306780 0.337911 0.663974
O O10 0.349743 0.298903 0.873418
O O11 0.805220 0.342836 0.343708
O O12 0.675141 0.108577 0.310510
#
# Coordination Sequence:
#
# PCOD8023223 Si02
#       6
#     2   2   2   2   2   2
#     4  10  23  41  63  89 123 163 205 247 298 363
#     4  10  23  41  63  89 123 163 205 247 298 363
#     4  11  24  41  63  93 126 159 199 252 310 361
#     4  11  23  41  66  91 119 161 209 252 296 357
#     4  11  23  41  66  91 119 161 209 252 296 357
#     4  11  24  41  63  93 126 159 199 252 310 361
#
# _framework density 24.812725
#
# number of rings (size 3 to 8) (size 9 to 14) (size 15 to 20)
#    0.000    1.333    0.000    6.000    0.000   13.333 
#    0.000    3.333    0.000    0.000    0.000    0.000 
#    0.000    0.000    0.000    0.000    0.000    0.000 
#
# Total GULP energy -148812.058554 kJ/mol
# GULP energy per Si atom -12401.004879 kJ/mol
# Density = 2.475625 g / cm^3
# Si number density = 24.812725 Si / 1000 Ang^3
#
#
#
# Elastic Constant Matrix: (Units=GPa)
#
#
# Indices 1 2 3 4 5 6 
#
# 1 72.1878 37.1565 8.7208 2.1456 13.7399 -2.9170
# 2 37.1565 86.3174 14.7628 -6.2604 -0.1856 -4.8654
# 3 8.7208 14.7628 85.9864 8.5907 -5.7846 6.1170
# 4 2.1456 -6.2604 8.5907 38.2533 -10.4649 0.4440
# 5 13.7399 -0.1856 -5.7846 -10.4649 41.8989 2.6109
# 6 -2.9170 -4.8654 6.1170 0.4440 2.6109 29.9143
#
#
#
# Elastic Compliance Matrix: (Units=1/GPa)
#
#
# Indices 1 2 3 4 5 6 
#
# 1 0.020217 -0.008853 -0.000710 -0.004633 -0.008014 0.001445
# 2 -0.008853 0.016227 -0.002234 0.004648 0.003713 0.001840
# 3 -0.000710 -0.002234 0.012679 -0.002731 0.001485 -0.003114
# 4 -0.004633 0.004648 -0.002731 0.030164 0.008718 -0.000346
# 5 -0.008014 0.003713 0.001485 0.008718 0.029090 -0.003150
# 6 0.001445 0.001840 -0.003114 -0.000346 -0.003150 0.034786
#
#
# Mechanical properties :
#
#
# Convention : Reuss Voigt Hill
#
# Bulk Modulus (GPa) = 39.16819 40.64130 39.90474
# Shear Modulus (GPa) = 28.52810 34.27007 31.39909
#
# Velocity S-wave (km/s) = 3.39446 3.72041 3.56117
# Velocity P-wave (km/s) = 5.58416 5.90509 5.74687
#
# Compressibility (1/GPa) = 0.02553092
#
# Stress axis : x y z
#
# Youngs Moduli (GPa) = 49.46410 61.62632 78.86765
#
# Poissons Ratio (x) = 0.54558 0.05596
# Poissons Ratio (y) = 0.43790 0.17615
# Poissons Ratio (z) = 0.03509 0.13765
#
# Static dielectric constant tensor:
#      x y z
#    x 4.634390 -0.350600 -0.113730 
#    y -0.350600 4.154090 0.066880 
#    z -0.113730 0.066880 4.713170 
# 
# 
# High freq. dielectric constant tensor:
#      x y z
#    x 1.996180 -0.021200 -0.002340 
#    y -0.021200 1.969860 0.005100 
#    z -0.002340 0.005100 2.002590 
# 
# From -- ./inp_files/190557.got.cif
#   From: 2010.06.25/outbox.cif.g09.slc.cpg/sg2_96_cif.got.tgz:190557.got - 2010.06.27 13:26:56.
