data_PCOD8023183
_publ_section_title
;
Structure prediction by ZEFSAII (Michael W. Deem and Ramdas Pophale) SiO2 
 PCOD8023183
Probable space group: P -1
;
_chemical_formula_sum "Si O2"
_cell_formula_units_Z 16
_cell_length_a 10.640103
_cell_length_b 13.971619
_cell_length_c 8.281241
_cell_angle_alpha 99.028866
_cell_angle_beta 42.015882
_cell_angle_gamma 118.578184
_cell_volume 681.119570
_symmetry_space_group_name_H-M "P -1"
_symmetry_group_IT_number 2
_symmetry_cell_setting 'triclinic'
loop_
_space_group_symop_operation_xyz
x,y,z
-x,-y,-z
loop_
_atom_site_type_symbol
_atom_site_label
_atom_site_fract_x
_atom_site_fract_y
_atom_site_fract_z
Si Si1 0.875060 0.352274 0.681688
Si Si2 0.648488 0.674245 0.404433
Si Si3 0.808769 0.641688 0.848372
Si Si4 0.954543 0.076225 0.883164
Si Si5 0.253224 0.894323 0.227627
Si Si6 0.175171 0.484634 0.725251
Si Si7 0.942176 0.112395 0.239184
Si Si8 0.504019 0.388405 0.121873
O O1 0.759720 0.222827 0.824989
O O2 0.981354 0.366699 0.405597
O O3 0.070840 0.442192 0.637645
O O4 0.682366 0.376570 0.848206
O O5 0.419433 0.604740 0.498085
O O6 0.786889 0.610949 0.252851
O O7 0.546423 0.670930 0.675677
O O8 0.801988 0.812721 0.265763
O O9 0.729020 0.670623 0.766301
O O10 0.877139 0.748612 0.930336
O O11 0.607949 0.525119 0.089384
O O12 0.890967 0.096623 0.773432
O O13 0.806850 0.065168 0.183145
O O14 0.942069 0.957167 0.852138
O O15 0.191660 0.898197 0.474198
O O16 0.500000 0.000000 0.000000
O O17 0.000000 0.500000 0.000000
#
# Coordination Sequence:
#
# PCOD8023183 Si02
#       8
#     2   2   2   2   2   2   2   2
#     4  11  22  41  59 101 129 177 229 278 344 413
#     4  11  23  38  66  95 131 179 220 283 341 401
#     4  10  23  41  60  93 137 178 219 283 339 407
#     4  11  24  46  70 100 139 175 237 284 338 420
#     4  11  25  43  73  98 139 181 228 289 348 406
#     4  11  22  37  60  94 129 166 222 271 338 403
#     4  10  25  44  70  99 134 184 230 281 347 406
#     4  11  22  37  67  92 134 176 228 275 342 411
#
# _framework density 23.490738
#
# number of rings (size 3 to 8) (size 9 to 14) (size 15 to 20)
#    0.000    1.250    3.750    1.500    7.000    0.500 
#    0.000    0.000    2.750    0.000    0.000    0.000 
#    0.000    0.000    0.000    0.000    0.000    0.000 
#
# Total GULP energy -198221.085659 kJ/mol
# GULP energy per Si atom -12388.817854 kJ/mol
# Density = 2.343727 g / cm^3
# Si number density = 23.490738 Si / 1000 Ang^3
#
#
#
# Elastic Constant Matrix: (Units=GPa)
#
#
# Indices 1 2 3 4 5 6 
#
# 1 33.6601 9.3925 27.1850 15.1235 3.1783 -0.6710
# 2 9.3925 117.9632 35.8342 11.9391 -5.6055 0.4498
# 3 27.1850 35.8342 60.5052 21.2672 -5.9693 13.7612
# 4 15.1235 11.9391 21.2672 36.2273 0.1122 4.4446
# 5 3.1783 -5.6055 -5.9693 0.1122 41.9873 3.2344
# 6 -0.6710 0.4498 13.7612 4.4446 3.2344 31.5124
#
#
#
# Elastic Compliance Matrix: (Units=1/GPa)
#
#
# Indices 1 2 3 4 5 6 
#
# 1 0.058944 0.005170 -0.030711 -0.010341 -0.009421 0.017018
# 2 0.005170 0.011022 -0.009672 -0.000642 -0.000627 0.004331
# 3 -0.030711 -0.009672 0.043994 -0.007443 0.008816 -0.019583
# 4 -0.010341 -0.000642 -0.007443 0.036762 -0.000297 -0.002115
# 5 -0.009421 -0.000627 0.008816 -0.000297 0.026216 -0.006691
# 6 0.017018 0.004331 -0.019583 -0.002115 -0.006691 0.041571
#
#
# Mechanical properties :
#
#
# Convention : Reuss Voigt Hill
#
# Bulk Modulus (GPa) = 22.97019 39.66133 31.31576
# Shear Modulus (GPa) = 16.47742 31.25985 23.86863
#
# Velocity S-wave (km/s) = 2.65135 3.65188 3.19107
# Velocity P-wave (km/s) = 4.37864 5.89085 5.19011
#
# Compressibility (1/GPa) = 0.04353468
#
# Stress axis : x y z
#
# Youngs Moduli (GPa) = 16.96534 90.72426 22.73040
#
# Poissons Ratio (x) = -0.46903 0.69806
# Poissons Ratio (y) = -0.08771 0.21985
# Poissons Ratio (z) = 0.52101 0.87749
#
# Static dielectric constant tensor:
#      x y z
#    x 2.504290 -0.675440 0.882490 
#    y -0.675440 4.318880 0.350930 
#    z 0.882490 0.350930 4.300090 
# 
# 
# High freq. dielectric constant tensor:
#      x y z
#    x 1.913400 0.009900 0.025010 
#    y 0.009900 1.948300 0.007460 
#    z 0.025010 0.007460 1.938610 
# 
# From -- ./inp_files/270398.got.cif
#   From: 2010.06.25/outbox.cif.g09.slc.cpg/sg2_136_cif.got.tgz:270398.got - 2010.06.27 13:26:56.
