data_PCOD8023832
_publ_section_title
;
Structure prediction by ZEFSAII (Michael W. Deem and Ramdas Pophale) SiO2 
 PCOD8023832
Probable space group: P -1
;
_chemical_formula_sum "Si O2"
_cell_formula_units_Z 16
_cell_length_a 14.065926
_cell_length_b 14.397541
_cell_length_c 14.974103
_cell_angle_alpha 49.790863
_cell_angle_beta 30.338850
_cell_angle_gamma 30.989741
_cell_volume 735.023851
_symmetry_space_group_name_H-M "P -1"
_symmetry_group_IT_number 2
_symmetry_cell_setting 'triclinic'
loop_
_space_group_symop_operation_xyz
x,y,z
-x,-y,-z
loop_
_atom_site_type_symbol
_atom_site_label
_atom_site_fract_x
_atom_site_fract_y
_atom_site_fract_z
Si Si1 0.059003 0.358913 0.477275
Si Si2 0.936193 0.755755 0.141420
Si Si3 0.368930 0.335053 0.999800
Si Si4 0.973944 0.841202 0.247596
Si Si5 0.680574 0.105474 0.061642
Si Si6 0.609158 0.137334 0.504254
Si Si7 0.155851 0.557336 0.597564
Si Si8 0.890155 0.141592 0.578643
O O1 0.936186 0.297785 0.660315
O O2 0.417277 0.176268 0.288898
O O3 0.000000 0.500000 0.500000
O O4 0.905570 0.454285 0.447023
O O5 0.869446 0.817793 0.261258
O O6 0.666290 0.813482 0.282972
O O7 0.243367 0.525680 0.023667
O O8 0.956412 0.872407 0.997062
O O9 0.598703 0.156329 0.992890
O O10 0.098622 0.376636 0.174087
O O11 0.559726 0.264441 0.800229
O O12 0.725420 0.055980 0.359236
O O13 0.243664 0.795669 0.027099
O O14 0.483799 0.338328 0.491889
O O15 0.874046 0.977002 0.458347
O O16 0.144887 0.706231 0.527761
O O17 0.000000 0.000000 0.500000
#
# Coordination Sequence:
#
# PCOD8023832 Si02
#       8
#     2   2   2   2   2   2   2   2
#     4  11  22  38  63  92 135 182 217 256 311 376
#     4  11  24  40  64  96 138 178 215 254 324 384
#     4  10  23  44  63  95 131 166 217 273 316 395
#     4  12  22  39  61  96 136 179 216 254 307 387
#     4  11  22  38  59  91 132 175 217 259 310 371
#     4  11  22  44  66  93 134 169 215 270 315 392
#     4  10  23  42  66  95 132 171 212 268 324 380
#     4  12  26  47  72  94 123 168 220 280 341 382
#
# _framework density 21.768001999999999
#
# number of rings (size 3 to 8) (size 9 to 14) (size 15 to 20)
#    0.000    1.000    3.750    3.750    3.500    4.000 
#    0.000    2.500    0.000    0.000    0.000    0.000 
#    0.000    0.000    0.000    0.000    0.000    0.000 
#
# Total GULP energy -198357.624208 kJ/mol
# GULP energy per Si atom -12397.351513 kJ/mol
# Density = 2.171846 g / cm^3
# Si number density = 21.768002 Si / 1000 Ang^3
#
#
#
# Elastic Constant Matrix: (Units=GPa)
#
#
# Indices 1 2 3 4 5 6 
#
# 1 47.4854 22.2069 23.4601 9.1060 14.6764 17.8122
# 2 22.2069 144.5194 49.8882 -7.0022 11.0111 15.7343
# 3 23.4601 49.8882 92.9082 -6.3334 16.1117 8.1085
# 4 9.1060 -7.0022 -6.3334 30.3868 7.8070 0.4244
# 5 14.6764 11.0111 16.1117 7.8070 18.4012 9.8829
# 6 17.8122 15.7343 8.1085 0.4244 9.8829 34.4785
#
#
#
# Elastic Compliance Matrix: (Units=1/GPa)
#
#
# Indices 1 2 3 4 5 6 
#
# 1 0.034253 -0.001640 -0.005304 -0.008645 -0.011407 -0.012324
# 2 -0.001640 0.008901 -0.004054 0.001722 0.000031 -0.002292
# 3 -0.005304 -0.004054 0.016775 0.007597 -0.013653 0.004465
# 4 -0.008645 0.001722 0.007597 0.043422 -0.023568 0.008115
# 5 -0.011407 0.000031 -0.013653 -0.023568 0.094958 -0.017839
# 6 -0.012324 -0.002292 0.004465 0.008115 -0.017839 0.040379
#
#
# Mechanical properties :
#
#
# Convention : Reuss Voigt Hill
#
# Bulk Modulus (GPa) = 26.36196 52.89151 39.62674
# Shear Modulus (GPa) = 18.29300 29.27716 23.78508
#
# Velocity S-wave (km/s) = 2.90204 3.67135 3.30913
# Velocity P-wave (km/s) = 4.83382 6.50556 5.73098
#
# Compressibility (1/GPa) = 0.03793344
#
# Stress axis : x y z
#
# Youngs Moduli (GPa) = 29.19471 112.34228 59.61219
#
# Poissons Ratio (x) = 0.18429 0.31618
# Poissons Ratio (y) = 0.04789 0.24164
# Poissons Ratio (z) = 0.15485 0.45538
#
# Static dielectric constant tensor:
#      x y z
#    x 3.546430 -0.008610 -0.243220 
#    y -0.008610 4.351550 0.101350 
#    z -0.243220 0.101350 4.316440 
# 
# 
# High freq. dielectric constant tensor:
#      x y z
#    x 1.812760 0.000790 -0.012170 
#    y 0.000790 1.876440 -0.009210 
#    z -0.012170 -0.009210 1.856500 
# 
# From -- ./inp_files/534110.got.cif
#   From: 2010.06.25/outbox.cif.g09.slc.cpg/sg2_268_cif.got.tgz:534110.got - 2010.06.27 13:26:56.
