data_PCOD8023589
_publ_section_title
;
Structure prediction by ZEFSAII (Michael W. Deem and Ramdas Pophale) SiO2 
 PCOD8023589
Probable space group: P -1
;
_chemical_formula_sum "Si O2"
_cell_formula_units_Z 14
_cell_length_a 16.356460
_cell_length_b 22.464587
_cell_length_c 8.848142
_cell_angle_alpha 151.728568
_cell_angle_beta 140.197578
_cell_angle_gamma 23.132069
_cell_volume 589.609114
_symmetry_space_group_name_H-M "P -1"
_symmetry_group_IT_number 2
_symmetry_cell_setting 'triclinic'
loop_
_space_group_symop_operation_xyz
x,y,z
-x,-y,-z
loop_
_atom_site_type_symbol
_atom_site_label
_atom_site_fract_x
_atom_site_fract_y
_atom_site_fract_z
Si Si1 0.698322 0.122385 0.316944
Si Si2 0.251109 0.574345 0.624150
Si Si3 0.029558 0.001794 0.313182
Si Si4 0.476232 0.050430 0.754069
Si Si5 0.710421 0.655998 0.345393
Si Si6 0.290898 0.581676 0.369943
Si Si7 0.883255 0.542390 0.665639
O O1 0.476443 0.373623 0.579499
O O2 0.832442 0.014335 0.421162
O O3 0.655909 0.011817 0.964950
O O4 0.832787 0.090750 0.314074
O O5 0.264376 0.519910 0.346461
O O6 0.076475 0.629581 0.592703
O O7 0.191980 0.767362 0.962597
O O8 0.924582 0.166252 0.397935
O O9 0.500000 0.000000 0.500000
O O10 0.505950 0.900313 0.558203
O O11 0.242918 0.284213 0.993181
O O12 0.741548 0.643308 0.539309
O O13 0.900154 0.559606 0.294495
O O14 0.674658 0.538858 0.991875
O O15 0.500000 0.500000 0.500000
#
# Coordination Sequence:
#
# PCOD8023589 Si02
#       7
#     2   2   2   2   2   2   2
#     4  10  23  41  71 104 136 180 237 281 350 424
#     4  11  23  46  70 103 142 180 235 291 356 412
#     4  11  24  41  71 100 141 186 231 285 349 420
#     4  11  24  44  73 105 140 181 229 296 355 413
#     4  11  25  46  70 100 145 179 239 288 341 425
#     4  12  27  46  68 104 145 184 232 295 352 416
#     4  10  25  45  75 103 133 188 234 287 351 415
#
# _framework density 23.744544999999999
#
# number of rings (size 3 to 8) (size 9 to 14) (size 15 to 20)
#    0.000    1.143    1.429    3.857    8.000    5.714 
#    2.571    0.000    0.000    0.000    0.000    0.000 
#    0.000    0.000    0.000    0.000    0.000    0.000 
#
# Total GULP energy -173609.514442 kJ/mol
# GULP energy per Si atom -12400.679603 kJ/mol
# Density = 2.369050 g / cm^3
# Si number density = 23.744545 Si / 1000 Ang^3
#
#
#
# Elastic Constant Matrix: (Units=GPa)
#
#
# Indices 1 2 3 4 5 6 
#
# 1 96.1075 30.7909 22.1472 -2.1035 -4.0813 15.4189
# 2 30.7909 93.7904 21.9018 2.4720 9.8000 8.5776
# 3 22.1472 21.9018 109.9356 -6.9563 10.1022 -1.8874
# 4 -2.1035 2.4720 -6.9563 32.8638 5.6059 3.2119
# 5 -4.0813 9.8000 10.1022 5.6059 41.1063 4.5482
# 6 15.4189 8.5776 -1.8874 3.2119 4.5482 36.6278
#
#
#
# Elastic Compliance Matrix: (Units=1/GPa)
#
#
# Indices 1 2 3 4 5 6 
#
# 1 0.013079 -0.003641 -0.002257 0.000595 0.003218 -0.005221
# 2 -0.003641 0.012644 -0.001614 -0.000954 -0.002729 -0.001089
# 3 -0.002257 -0.001614 0.010333 0.002469 -0.002938 0.002009
# 4 0.000595 -0.000954 0.002469 0.032031 -0.004450 -0.002156
# 5 0.003218 -0.002729 -0.002938 -0.004450 0.027050 -0.003836
# 6 -0.005221 -0.001089 0.002009 -0.002156 -0.003836 0.030523
#
#
# Mechanical properties :
#
#
# Convention : Reuss Voigt Hill
#
# Bulk Modulus (GPa) = 47.54621 49.94593 48.74607
# Shear Modulus (GPa) = 33.85337 37.11916 35.48627
#
# Velocity S-wave (km/s) = 3.77998 3.95811 3.87007
# Velocity P-wave (km/s) = 6.25448 6.47837 6.36741
#
# Compressibility (1/GPa) = 0.02103217
#
# Stress axis : x y z
#
# Youngs Moduli (GPa) = 76.45842 79.08808 96.77600
#
# Poissons Ratio (x) = 0.28797 0.21844
# Poissons Ratio (y) = 0.27839 0.15618
# Poissons Ratio (z) = 0.17258 0.12763
#
# Static dielectric constant tensor:
#      x y z
#    x 4.319650 0.104560 0.039970 
#    y 0.104560 4.296900 0.040480 
#    z 0.039970 0.040480 4.253140 
# 
# 
# High freq. dielectric constant tensor:
#      x y z
#    x 1.945200 0.008040 0.001790 
#    y 0.008040 1.943030 0.003680 
#    z 0.001790 0.003680 1.944020 
# 
# From -- ./inp_files/338715.got.cif
#   From: 2010.06.25/outbox.cif.g09.slc.cpg/sg2_170_cif.got.tgz:338715.got - 2010.06.27 13:26:56.
