data_PCOD8023940
_publ_section_title
;
Structure prediction by ZEFSAII (Michael W. Deem and Ramdas Pophale) SiO2 
 PCOD8023940
Probable space group: P -1
;
_chemical_formula_sum "Si O2"
_cell_formula_units_Z 12
_cell_length_a 11.604935
_cell_length_b 19.341918
_cell_length_c 4.910200
_cell_angle_alpha 64.049935
_cell_angle_beta 55.076127
_cell_angle_gamma 34.929051
_cell_volume 516.219848
_symmetry_space_group_name_H-M "P -1"
_symmetry_group_IT_number 2
_symmetry_cell_setting 'triclinic'
loop_
_space_group_symop_operation_xyz
x,y,z
-x,-y,-z
loop_
_atom_site_type_symbol
_atom_site_label
_atom_site_fract_x
_atom_site_fract_y
_atom_site_fract_z
Si Si1 0.814156 0.542359 0.368703
Si Si2 0.581425 0.391950 0.247154
Si Si3 0.134071 0.281918 0.461880
Si Si4 0.866902 0.256640 0.610452
Si Si5 0.615090 0.779301 0.295487
Si Si6 0.093226 0.005899 0.614513
O O1 0.616802 0.578344 0.424305
O O2 0.696414 0.660153 0.496818
O O3 0.943644 0.422948 0.574047
O O4 0.000000 0.500000 0.000000
O O5 0.722047 0.355392 0.389606
O O6 0.500000 0.500000 0.000000
O O7 0.723178 0.285614 0.010349
O O8 0.274508 0.204399 0.678815
O O9 0.029741 0.250808 0.526894
O O10 0.305256 0.245270 0.078184
O O11 0.008217 0.128896 0.510064
O O12 0.355495 0.897384 0.450883
O O13 0.000000 0.000000 0.500000
O O14 0.000000 0.000000 0.000000
#
# Coordination Sequence:
#
# PCOD8023940 Si02
#       6
#     2   2   2   2   2   2
#     4  10  23  42  68 101 141 180 230 290 349 415
#     4  12  25  44  73 105 142 182 235 292 360 420
#     4  11  24  41  66 100 138 176 230 284 354 413
#     4  12  26  45  71 104 141 183 236 295 348 422
#     4  11  24  42  66  98 137 183 227 280 350 414
#     4  12  26  47  71  99 138 185 240 290 347 420
#
# _framework density 23.245909000000001
#
# number of rings (size 3 to 8) (size 9 to 14) (size 15 to 20)
#    0.000    0.667    1.667    6.000    0.000    6.667 
#    0.000    0.000    0.000    0.000    0.000    0.000 
#    0.000    0.000    0.000    0.000    0.000    0.000 
#
# Total GULP energy -148715.920089 kJ/mol
# GULP energy per Si atom -12392.993341 kJ/mol
# Density = 2.319300 g / cm^3
# Si number density = 23.245909 Si / 1000 Ang^3
#
#
#
# Elastic Constant Matrix: (Units=GPa)
#
#
# Indices 1 2 3 4 5 6 
#
# 1 158.5927 63.7254 31.2448 1.3643 -7.7986 -28.4516
# 2 63.7254 122.0505 31.7002 17.6246 -15.6867 -8.2834
# 3 31.2448 31.7002 92.3006 14.6381 -7.5872 -11.9641
# 4 1.3643 17.6246 14.6381 35.0912 -6.0873 -4.0403
# 5 -7.7986 -15.6867 -7.5872 -6.0873 46.2002 -4.4758
# 6 -28.4516 -8.2834 -11.9641 -4.0403 -4.4758 42.4091
#
#
#
# Elastic Compliance Matrix: (Units=1/GPa)
#
#
# Indices 1 2 3 4 5 6 
#
# 1 0.009382 -0.004547 -0.001364 0.003244 0.000768 0.005411
# 2 -0.004547 0.011917 -0.001793 -0.004846 0.002205 -0.001457
# 3 -0.001364 -0.001793 0.012899 -0.004021 0.000952 0.002091
# 4 0.003244 -0.004846 -0.004021 0.033416 0.002993 0.003595
# 5 0.000768 0.002205 0.000952 0.002993 0.023459 0.003975
# 6 0.005411 -0.001457 0.002091 0.003595 0.003975 0.028277
#
#
# Mechanical properties :
#
#
# Convention : Reuss Voigt Hill
#
# Bulk Modulus (GPa) = 53.21999 69.58716 61.40358
# Shear Modulus (GPa) = 35.45585 41.15832 38.30709
#
# Velocity S-wave (km/s) = 3.90968 4.21237 4.06385
# Velocity P-wave (km/s) = 6.58216 7.32523 6.96361
#
# Compressibility (1/GPa) = 0.01878993
#
# Stress axis : x y z
#
# Youngs Moduli (GPa) = 106.58958 83.91262 77.52676
#
# Poissons Ratio (x) = 0.38152 0.10577
# Poissons Ratio (y) = 0.48463 0.13900
# Poissons Ratio (z) = 0.14542 0.15045
#
# Static dielectric constant tensor:
#      x y z
#    x 4.219210 0.000800 -0.139690 
#    y 0.000800 4.458120 0.154540 
#    z -0.139690 0.154540 4.156840 
# 
# 
# High freq. dielectric constant tensor:
#      x y z
#    x 1.934020 -0.004350 -0.006370 
#    y -0.004350 1.920590 0.015860 
#    z -0.006370 0.015860 1.917260 
# 
# From -- ./inp_files/23323.got.cif
#   From: 2010.06.25/outbox.cif.g09.slc.cpg/sg2_12_cif.got.tgz:23323.got - 2010.06.27 13:26:56.
