data_PCOD8023689
_publ_section_title
;
Structure prediction by ZEFSAII (Michael W. Deem and Ramdas Pophale) SiO2 
 PCOD8023689
Probable space group: P -1
;
_chemical_formula_sum "Si O2"
_cell_formula_units_Z 16
_cell_length_a 12.393002
_cell_length_b 16.506345
_cell_length_c 8.476730
_cell_angle_alpha 77.599368
_cell_angle_beta 54.699591
_cell_angle_gamma 39.630369
_cell_volume 809.506627
_symmetry_space_group_name_H-M "P -1"
_symmetry_group_IT_number 2
_symmetry_cell_setting 'triclinic'
loop_
_space_group_symop_operation_xyz
x,y,z
-x,-y,-z
loop_
_atom_site_type_symbol
_atom_site_label
_atom_site_fract_x
_atom_site_fract_y
_atom_site_fract_z
Si Si1 0.221490 0.778163 0.398088
Si Si2 0.161908 0.510607 0.472698
Si Si3 0.246397 0.972843 0.848927
Si Si4 0.064734 0.979106 0.698658
Si Si5 0.238069 0.286239 0.498209
Si Si6 0.610021 0.523544 0.970389
Si Si7 0.755739 0.395630 0.379953
Si Si8 0.960000 0.741405 0.108689
O O1 0.226782 0.848507 0.493911
O O2 0.131835 0.739239 0.568528
O O3 0.475254 0.632988 0.183149
O O4 0.060767 0.882492 0.343676
O O5 0.161869 0.415753 0.568726
O O6 0.351930 0.423782 0.212268
O O7 0.245117 0.525069 0.539298
O O8 0.917991 0.659966 0.542845
O O9 0.219625 0.936837 0.722910
O O10 0.507971 0.845051 0.725242
O O11 0.148926 0.113519 0.853764
O O12 0.120401 0.989916 0.089410
O O13 0.220179 0.235916 0.689123
O O14 0.844246 0.364419 0.886505
O O15 0.500000 0.500000 0.000000
O O16 0.500000 0.500000 0.500000
O O17 0.927880 0.333616 0.123170
#
# Coordination Sequence:
#
# PCOD8023689 Si02
#       8
#     2   2   2   2   2   2   2   2
#     4  11  21  39  56  99 127 153 195 254 328 358
#     4  10  23  42  63  92 122 162 213 251 308 372
#     4  11  22  42  64  89 124 163 213 252 315 364
#     4  10  24  37  65  93 126 160 201 269 309 373
#     4  10  24  42  62  85 123 172 210 253 297 378
#     4  11  19  35  64  91 119 158 199 259 316 361
#     4  12  23  39  67  95 127 157 202 267 313 362
#     4  11  23  38  59  91 122 162 212 248 302 373
#
# _framework density 19.765125000000001
#
# number of rings (size 3 to 8) (size 9 to 14) (size 15 to 20)
#    0.000    1.250    3.750    1.875    3.500    1.500 
#    0.000    5.625    0.000    0.000    0.000    0.000 
#    0.000    0.000    0.000    0.000    0.000    0.000 
#
# Total GULP energy -198353.078774 kJ/mol
# GULP energy per Si atom -12397.067423 kJ/mol
# Density = 1.972014 g / cm^3
# Si number density = 19.765125 Si / 1000 Ang^3
#
#
#
# Elastic Constant Matrix: (Units=GPa)
#
#
# Indices 1 2 3 4 5 6 
#
# 1 102.5602 30.5687 44.3664 4.9672 3.1330 4.1416
# 2 30.5687 92.4258 43.3525 -6.5234 -0.6396 17.0652
# 3 44.3664 43.3525 120.2438 -2.7832 -1.7485 1.0729
# 4 4.9672 -6.5234 -2.7832 44.3366 2.9568 -4.0371
# 5 3.1330 -0.6396 -1.7485 2.9568 28.5484 1.9394
# 6 4.1416 17.0652 1.0729 -4.0371 1.9394 18.1144
#
#
#
# Elastic Compliance Matrix: (Units=1/GPa)
#
#
# Indices 1 2 3 4 5 6 
#
# 1 0.012215 -0.002309 -0.003733 -0.001912 -0.001377 -0.000675
# 2 -0.002309 0.016762 -0.005018 0.000973 0.001232 -0.014881
# 3 -0.003733 -0.005018 0.011485 0.000820 0.000575 0.005022
# 4 -0.001912 0.000973 0.000820 0.023585 -0.002500 0.004996
# 5 -0.001377 0.001232 0.000575 -0.002500 0.035859 -0.005276
# 6 -0.000675 -0.014881 0.005022 0.004996 -0.005276 0.070759
#
#
# Mechanical properties :
#
#
# Convention : Reuss Voigt Hill
#
# Bulk Modulus (GPa) = 54.51790 61.31166 57.91478
# Shear Modulus (GPa) = 25.13827 31.32936 28.23382
#
# Velocity S-wave (km/s) = 3.57017 3.98563 3.78361
# Velocity P-wave (km/s) = 6.68114 7.22965 6.96080
#
# Compressibility (1/GPa) = 0.01834260
#
# Stress axis : x y z
#
# Youngs Moduli (GPa) = 81.86438 59.66020 87.06637
#
# Poissons Ratio (x) = 0.13775 0.32501
# Poissons Ratio (y) = 0.18902 0.43690
# Poissons Ratio (z) = 0.30559 0.29938
#
# Static dielectric constant tensor:
#      x y z
#    x 3.432140 0.011110 -0.027930 
#    y 0.011110 3.873120 -0.069780 
#    z -0.027930 -0.069780 3.949890 
# 
# 
# High freq. dielectric constant tensor:
#      x y z
#    x 1.754650 0.003910 0.002110 
#    y 0.003910 1.784970 -0.012230 
#    z 0.002110 -0.012230 1.778640 
# 
# From -- ./inp_files/262735.got.cif
#   From: 2010.06.25/outbox.cif.g09.slc.cpg/sg2_132_cif.got.tgz:262735.got - 2010.06.27 13:26:56.
