data_PCOD8023270
_publ_section_title
;
Structure prediction by ZEFSAII (Michael W. Deem and Ramdas Pophale) SiO2 
 PCOD8023270
Probable space group: P -1
;
_chemical_formula_sum "Si O2"
_cell_formula_units_Z 14
_cell_length_a 10.030137
_cell_length_b 6.819615
_cell_length_c 20.137750
_cell_angle_alpha 130.424841
_cell_angle_beta 128.251444
_cell_angle_gamma 45.259448
_cell_volume 710.316507
_symmetry_space_group_name_H-M "P -1"
_symmetry_group_IT_number 2
_symmetry_cell_setting 'triclinic'
loop_
_space_group_symop_operation_xyz
x,y,z
-x,-y,-z
loop_
_atom_site_type_symbol
_atom_site_label
_atom_site_fract_x
_atom_site_fract_y
_atom_site_fract_z
Si Si1 0.704882 0.716314 0.985249
Si Si2 0.691782 0.774846 0.470649
Si Si3 0.711511 0.271622 0.290263
Si Si4 0.701178 0.676800 0.826225
Si Si5 0.032883 0.081889 0.827033
Si Si6 0.981457 0.152738 0.459672
Si Si7 0.866911 0.054144 0.906439
O O1 0.871364 0.716726 0.081476
O O2 0.751849 0.742121 0.929250
O O3 0.705439 0.407977 0.930446
O O4 0.500000 0.000000 0.000000
O O5 0.639139 0.619918 0.359660
O O6 0.794825 0.954367 0.515675
O O7 0.852402 0.512420 0.510637
O O8 0.500000 0.000000 0.500000
O O9 0.528856 0.217303 0.226569
O O10 0.872033 0.063626 0.350196
O O11 0.816921 0.190939 0.233213
O O12 0.834317 0.316287 0.776991
O O13 0.752924 0.868440 0.833769
O O14 0.991638 0.953666 0.853826
O O15 0.000000 0.000000 0.500000
O O16 0.000000 0.000000 0.000000
#
# Coordination Sequence:
#
# PCOD8023270 Si02
#       7
#     2   2   2   2   2   2   2
#     4  11  21  39  62  86 129 174 206 253 314 362
#     4   9  21  43  68  91 123 166 198 249 329 390
#     4  10  23  41  64  92 127 160 209 263 311 369
#     4  11  22  40  60  92 125 168 216 256 302 365
#     4  11  22  41  60  88 132 167 207 264 305 358
#     4   9  21  44  65  92 123 158 203 253 321 386
#     4  11  21  40  62  87 123 177 216 246 309 364
#
# _framework density 19.709524999999999
#
# number of rings (size 3 to 8) (size 9 to 14) (size 15 to 20)
#    0.857    0.857    4.286    0.857    2.000    1.143 
#   10.286    0.000    0.000    0.000    0.000    0.000 
#    0.000    0.000    0.000    0.000    0.000    0.000 
#
# Total GULP energy -173483.077550 kJ/mol
# GULP energy per Si atom -12391.648396 kJ/mol
# Density = 1.966467 g / cm^3
# Si number density = 19.709525 Si / 1000 Ang^3
#
#
#
# Elastic Constant Matrix: (Units=GPa)
#
#
# Indices 1 2 3 4 5 6 
#
# 1 179.8767 81.4891 62.1657 1.4869 -6.1938 -6.8139
# 2 81.4891 80.0764 32.9757 2.6981 -7.9289 0.4659
# 3 62.1657 32.9757 96.1892 -0.3060 -8.4792 -4.2884
# 4 1.4869 2.6981 -0.3060 24.8665 -6.4750 -7.9047
# 5 -6.1938 -7.9289 -8.4792 -6.4750 29.0027 1.8988
# 6 -6.8139 0.4659 -4.2884 -7.9047 1.8988 40.6493
#
#
#
# Elastic Compliance Matrix: (Units=1/GPa)
#
#
# Indices 1 2 3 4 5 6 
#
# 1 0.011679 -0.010405 -0.004031 0.000567 -0.001522 0.001833
# 2 -0.010405 0.024071 -0.001326 -0.001895 0.003725 -0.002702
# 3 -0.004031 -0.001326 0.013779 0.001675 0.003115 0.000973
# 4 0.000567 -0.001895 0.001675 0.045715 0.009727 0.008729
# 5 -0.001522 0.003725 0.003115 0.009727 0.038246 0.000136
# 6 0.001833 -0.002702 0.000973 0.008729 0.000136 0.026733
#
#
# Mechanical properties :
#
#
# Convention : Reuss Voigt Hill
#
# Bulk Modulus (GPa) = 55.53998 78.82261 67.18129
# Shear Modulus (GPa) = 25.28457 30.87115 28.07786
#
# Velocity S-wave (km/s) = 3.58559 3.96195 3.77846
# Velocity P-wave (km/s) = 6.73664 7.81079 7.29352
#
# Compressibility (1/GPa) = 0.01800505
#
# Stress axis : x y z
#
# Youngs Moduli (GPa) = 85.62517 41.54354 72.57224
#
# Poissons Ratio (x) = 0.43227 0.29257
# Poissons Ratio (y) = 0.89095 0.09619
# Poissons Ratio (z) = 0.34519 0.05507
#
# Static dielectric constant tensor:
#      x y z
#    x 3.698070 -0.273490 -0.009480 
#    y -0.273490 3.567210 -0.082600 
#    z -0.009480 -0.082600 3.432350 
# 
# 
# High freq. dielectric constant tensor:
#      x y z
#    x 1.775600 -0.012220 0.004440 
#    y -0.012220 1.751140 -0.003670 
#    z 0.004440 -0.003670 1.755600 
# 
# From -- ./inp_files/585868.got.cif
#   From: 2010.06.25/outbox.cif.g09.slc.cpg/sg2_293_cif.got.tgz:585868.got - 2010.06.27 13:26:56.
