data_PCOD8023860
_publ_section_title
;
Structure prediction by ZEFSAII (Michael W. Deem and Ramdas Pophale) SiO2 
 PCOD8023860
Probable space group: P -1
;
_chemical_formula_sum "Si O2"
_cell_formula_units_Z 16
_cell_length_a 14.612382
_cell_length_b 9.469840
_cell_length_c 9.053158
_cell_angle_alpha 104.204344
_cell_angle_beta 39.639557
_cell_angle_gamma 93.470807
_cell_volume 757.876523
_symmetry_space_group_name_H-M "P -1"
_symmetry_group_IT_number 2
_symmetry_cell_setting 'triclinic'
loop_
_space_group_symop_operation_xyz
x,y,z
-x,-y,-z
loop_
_atom_site_type_symbol
_atom_site_label
_atom_site_fract_x
_atom_site_fract_y
_atom_site_fract_z
Si Si1 0.845562 0.588286 0.574744
Si Si2 0.153199 0.944209 0.376474
Si Si3 0.555608 0.199240 0.512856
Si Si4 0.001157 0.267903 0.344306
Si Si5 0.571410 0.537215 0.068638
Si Si6 0.737578 0.888721 0.220271
Si Si7 0.277797 0.193714 0.457019
Si Si8 0.413766 0.757878 0.848718
O O1 0.939262 0.699169 0.559003
O O2 0.785454 0.650347 0.506338
O O3 0.942305 0.425189 0.377115
O O4 0.724083 0.581404 0.849216
O O5 0.132194 0.816776 0.486528
O O6 0.220280 0.065113 0.411290
O O7 0.267671 0.879502 0.090837
O O8 0.000000 0.000000 0.500000
O O9 0.545652 0.328801 0.678387
O O10 0.401909 0.146480 0.700914
O O11 0.572156 0.266553 0.349224
O O12 0.694922 0.067535 0.346564
O O13 0.121327 0.159304 0.069510
O O14 0.600174 0.398966 0.107330
O O15 0.500000 0.500000 0.000000
O O16 0.773460 0.801314 0.307911
O O17 0.453720 0.174155 0.230173
#
# Coordination Sequence:
#
# PCOD8023860 Si02
#       8
#     2   2   2   2   2   2   2   2
#     4  11  23  42  66  98 135 179 222 277 332 413
#     4  12  24  41  68 100 136 180 227 273 341 409
#     4  10  23  42  66  99 136 178 224 279 344 396
#     4  11  23  43  68  93 137 182 223 269 345 408
#     4  12  23  40  69 101 132 173 227 282 332 397
#     4  10  23  43  67  97 136 179 222 284 337 400
#     4  11  25  42  68 101 136 175 230 283 334 394
#     4  11  24  43  68 100 136 179 225 282 335 399
#
# _framework density 21.111621
#
# number of rings (size 3 to 8) (size 9 to 14) (size 15 to 20)
#    0.000    1.000    5.000    1.500    1.750    2.000 
#    0.000    1.250    0.000    0.000    0.000    0.000 
#    0.000    0.000    0.000    0.000    0.000    0.000 
#
# Total GULP energy -198416.555032 kJ/mol
# GULP energy per Si atom -12401.034689 kJ/mol
# Density = 2.106357 g / cm^3
# Si number density = 21.111621 Si / 1000 Ang^3
#
#
#
# Elastic Constant Matrix: (Units=GPa)
#
#
# Indices 1 2 3 4 5 6 
#
# 1 95.2044 54.4573 48.7307 10.9197 5.5931 -12.4962
# 2 54.4573 100.6935 42.4640 0.9498 1.9521 1.5364
# 3 48.7307 42.4640 111.9371 22.3180 -3.0573 0.9879
# 4 10.9197 0.9498 22.3180 39.9303 -0.3387 4.9151
# 5 5.5931 1.9521 -3.0573 -0.3387 24.4779 1.1646
# 6 -12.4962 1.5364 0.9879 4.9151 1.1646 34.6203
#
#
#
# Elastic Compliance Matrix: (Units=1/GPa)
#
#
# Indices 1 2 3 4 5 6 
#
# 1 0.019661 -0.008613 -0.004788 -0.003556 -0.004847 0.008283
# 2 -0.008613 0.015900 -0.003072 0.004234 0.000582 -0.004347
# 3 -0.004788 -0.003072 0.013466 -0.005967 0.002997 -0.001230
# 4 -0.003556 0.004234 -0.005967 0.029939 0.000409 -0.005565
# 5 -0.004847 0.000582 0.002997 0.000409 0.042453 -0.003347
# 6 0.008283 -0.004347 -0.001230 -0.005565 -0.003347 0.033005
#
#
# Mechanical properties :
#
#
# Convention : Reuss Voigt Hill
#
# Bulk Modulus (GPa) = 62.18792 66.57099 64.37945
# Shear Modulus (GPa) = 25.94280 30.61791 28.28036
#
# Velocity S-wave (km/s) = 3.50928 3.81239 3.66398
# Velocity P-wave (km/s) = 6.77796 7.14006 6.96137
#
# Compressibility (1/GPa) = 0.01608029
#
# Stress axis : x y z
#
# Youngs Moduli (GPa) = 50.86194 62.89400 74.26066
#
# Poissons Ratio (x) = 0.54169 0.35559
# Poissons Ratio (y) = 0.43806 0.22814
# Poissons Ratio (z) = 0.24355 0.19322
#
# Static dielectric constant tensor:
#      x y z
#    x 3.771920 0.078240 -0.275990 
#    y 0.078240 4.822070 -0.857410 
#    z -0.275990 -0.857410 4.640890 
# 
# 
# High freq. dielectric constant tensor:
#      x y z
#    x 1.820810 -0.005360 -0.003140 
#    y -0.005360 1.842020 -0.004250 
#    z -0.003140 -0.004250 1.826990 
# 
# From -- ./inp_files/209262.got.cif
#   From: 2010.06.25/outbox.cif.g09.slc.cpg/sg2_105_cif.got.tgz:209262.got - 2010.06.27 13:26:56.
