data_PCOD8023748
_publ_section_title
;
Structure prediction by ZEFSAII (Michael W. Deem and Ramdas Pophale) SiO2 
 PCOD8023748
Probable space group: P -1
;
_chemical_formula_sum "Si O2"
_cell_formula_units_Z 16
_cell_length_a 11.108466
_cell_length_b 9.361302
_cell_length_c 13.552788
_cell_angle_alpha 108.435603
_cell_angle_beta 56.090783
_cell_angle_gamma 142.871555
_cell_volume 682.364981
_symmetry_space_group_name_H-M "P -1"
_symmetry_group_IT_number 2
_symmetry_cell_setting 'triclinic'
loop_
_space_group_symop_operation_xyz
x,y,z
-x,-y,-z
loop_
_atom_site_type_symbol
_atom_site_label
_atom_site_fract_x
_atom_site_fract_y
_atom_site_fract_z
Si Si1 0.743435 0.677342 0.985436
Si Si2 0.459324 0.130282 0.596815
Si Si3 0.856699 0.209765 0.156249
Si Si4 0.437886 0.302963 0.190599
Si Si5 0.274872 0.573114 0.751025
Si Si6 0.814590 0.678890 0.547177
Si Si7 0.291981 0.151688 0.501639
Si Si8 0.875823 0.072063 0.918097
O O1 0.897390 0.654934 0.884440
O O2 0.915474 0.958896 0.946203
O O3 0.500000 0.500000 0.000000
O O4 0.661201 0.590317 0.117677
O O5 0.704874 0.424109 0.556064
O O6 0.274887 0.087698 0.610594
O O7 0.500000 0.000000 0.500000
O O8 0.360201 0.027633 0.730032
O O9 0.879284 0.407345 0.197305
O O10 0.812529 0.145678 0.045235
O O11 0.539785 0.258355 0.206536
O O12 0.254460 0.261982 0.320269
O O13 0.335408 0.132438 0.105836
O O14 0.437694 0.673934 0.604805
O O15 0.098995 0.292410 0.795477
O O16 0.739784 0.696740 0.480240
O O17 0.098110 0.897118 0.472244
#
# Coordination Sequence:
#
# PCOD8023748 Si02
#       8
#     2   2   2   2   2   2   2   2
#     4  10  23  42  65 103 133 174 231 278 341 417
#     4  12  26  47  70 104 139 184 231 283 349 410
#     4  12  25  45  67 100 143 183 225 286 349 405
#     4  10  23  43  69 105 138 175 238 283 346 410
#     4  11  24  45  67 103 144 178 234 285 339 422
#     4  10  24  45  74 101 138 182 229 293 340 402
#     4  10  24  46  71 104 136 182 240 277 346 406
#     4  11  24  42  73  98 141 181 228 286 344 413
#
# _framework density 23.447861
#
# number of rings (size 3 to 8) (size 9 to 14) (size 15 to 20)
#    0.000    1.250    2.500    1.875    7.000    4.000 
#    2.250    0.000    0.000    0.000    0.000    0.000 
#    0.000    0.000    0.000    0.000    0.000    0.000 
#
# Total GULP energy -198208.893414 kJ/mol
# GULP energy per Si atom -12388.055838 kJ/mol
# Density = 2.339449 g / cm^3
# Si number density = 23.447861 Si / 1000 Ang^3
#
#
#
# Elastic Constant Matrix: (Units=GPa)
#
#
# Indices 1 2 3 4 5 6 
#
# 1 83.0297 36.1612 19.5400 -4.7426 -5.0280 -13.0575
# 2 36.1612 120.7643 40.1858 -21.0225 -10.9809 -10.9445
# 3 19.5400 40.1858 85.4086 -20.2720 1.6913 2.4361
# 4 -4.7426 -21.0225 -20.2720 34.0843 -0.3406 8.1889
# 5 -5.0280 -10.9809 1.6913 -0.3406 38.1008 -1.5102
# 6 -13.0575 -10.9445 2.4361 8.1889 -1.5102 26.6978
#
#
#
# Elastic Compliance Matrix: (Units=1/GPa)
#
#
# Indices 1 2 3 4 5 6 
#
# 1 0.015291 -0.003386 -0.002986 -0.003531 0.001441 0.007528
# 2 -0.003386 0.011832 -0.004015 0.003855 0.003278 0.002564
# 3 -0.002986 -0.004015 0.016622 0.008759 -0.002506 -0.007452
# 4 -0.003531 0.003855 0.008759 0.039579 0.000092 -0.013081
# 5 0.001441 0.003278 -0.002506 0.000092 0.027644 0.003813
# 6 0.007528 0.002564 -0.007452 -0.013081 0.003813 0.047096
#
#
# Mechanical properties :
#
#
# Convention : Reuss Voigt Hill
#
# Bulk Modulus (GPa) = 43.53692 53.44184 48.48938
# Shear Modulus (GPa) = 26.81001 32.66430 29.73715
#
# Velocity S-wave (km/s) = 3.38507 3.73642 3.56508
# Velocity P-wave (km/s) = 5.82118 6.43861 6.13766
#
# Compressibility (1/GPa) = 0.02296901
#
# Stress axis : x y z
#
# Youngs Moduli (GPa) = 65.39840 84.51474 60.16041
#
# Poissons Ratio (x) = 0.28620 0.17966
# Poissons Ratio (y) = 0.22146 0.24157
# Poissons Ratio (z) = 0.19530 0.33936
#
# Static dielectric constant tensor:
#      x y z
#    x 4.433330 -0.125970 0.350990 
#    y -0.125970 4.229670 -0.429620 
#    z 0.350990 -0.429620 4.362700 
# 
# 
# High freq. dielectric constant tensor:
#      x y z
#    x 1.932460 -0.001920 0.022150 
#    y -0.001920 1.923130 -0.029770 
#    z 0.022150 -0.029770 1.927730 
# 
# From -- ./inp_files/515880.got.cif
#   From: 2010.06.25/outbox.cif.g09.slc.cpg/sg2_258_cif.got.tgz:515880.got - 2010.06.27 13:26:56.
