data_PCOD8023185
_publ_section_title
;
Structure prediction by ZEFSAII (Michael W. Deem and Ramdas Pophale) SiO2 
 PCOD8023185
Probable space group: P -1
;
_chemical_formula_sum "Si O2"
_cell_formula_units_Z 14
_cell_length_a 8.720215
_cell_length_b 6.336461
_cell_length_c 13.224193
_cell_angle_alpha 86.411664
_cell_angle_beta 72.779613
_cell_angle_gamma 86.286226
_cell_volume 695.763063
_symmetry_space_group_name_H-M "P -1"
_symmetry_group_IT_number 2
_symmetry_cell_setting 'triclinic'
loop_
_space_group_symop_operation_xyz
x,y,z
-x,-y,-z
loop_
_atom_site_type_symbol
_atom_site_label
_atom_site_fract_x
_atom_site_fract_y
_atom_site_fract_z
Si Si1 0.534462 0.427164 0.685661
Si Si2 0.482076 0.687942 0.080921
Si Si3 0.756022 0.289794 0.310538
Si Si4 0.754865 0.999217 0.987702
Si Si5 0.822271 0.513419 0.492582
Si Si6 0.638742 0.884037 0.410823
Si Si7 0.946262 0.296398 0.079797
O O1 0.552642 0.416911 0.802573
O O2 0.430857 0.639236 0.670911
O O3 0.710975 0.426113 0.604745
O O4 0.439447 0.238976 0.661604
O O5 0.640274 0.822010 0.057878
O O6 0.500000 0.500000 0.000000
O O7 0.334287 0.855146 0.083184
O O8 0.824666 0.365450 0.399780
O O9 0.867220 0.377606 0.197305
O O10 0.757107 0.037329 0.325396
O O11 0.811123 0.163765 0.055586
O O12 0.905755 0.865212 0.915800
O O13 0.753575 0.745053 0.467095
O O14 0.000000 0.500000 0.500000
O O15 0.500000 0.000000 0.500000
O O16 0.000000 0.500000 0.000000
#
# Coordination Sequence:
#
# PCOD8023185 Si02
#       7
#     2   2   2   2   2   2   2
#     4  11  22  40  65  90 123 164 214 255 307 386
#     4  11  23  41  64  92 130 168 209 264 319 372
#     4  11  22  41  66  89 120 171 209 251 318 376
#     4  10  23  41  60  95 126 162 219 256 314 391
#     4  11  25  40  59  96 129 156 207 264 316 375
#     4  11  20  43  67  87 120 166 215 254 307 378
#     4  11  23  41  65  91 128 168 211 265 318 373
#
# _framework density 20.121793
#
# number of rings (size 3 to 8) (size 9 to 14) (size 15 to 20)
#    0.000    1.143    2.857    4.286    0.000    8.571 
#    2.571    0.000    0.000    0.000    0.000    0.000 
#    0.000    0.000    0.000    0.000    0.000    0.000 
#
# Total GULP energy -173573.751757 kJ/mol
# GULP energy per Si atom -12398.125126 kJ/mol
# Density = 2.007600 g / cm^3
# Si number density = 20.121793 Si / 1000 Ang^3
#
#
#
# Elastic Constant Matrix: (Units=GPa)
#
#
# Indices 1 2 3 4 5 6 
#
# 1 150.2992 51.3923 66.6167 -2.2461 3.8696 4.3871
# 2 51.3923 125.8789 57.6205 -7.1576 1.2525 11.0399
# 3 66.6167 57.6205 158.9687 0.6878 0.9729 14.7611
# 4 -2.2461 -7.1576 0.6878 25.5638 -2.2782 -9.6851
# 5 3.8696 1.2525 0.9729 -2.2782 27.4403 -4.3914
# 6 4.3871 11.0399 14.7611 -9.6851 -4.3914 27.2118
#
#
#
# Elastic Compliance Matrix: (Units=1/GPa)
#
#
# Indices 1 2 3 4 5 6 
#
# 1 0.008731 -0.002282 -0.002941 0.000591 -0.000782 0.001198
# 2 -0.002282 0.010358 -0.002652 0.002128 -0.000146 -0.001662
# 3 -0.002941 -0.002652 0.008917 -0.003003 -0.000746 -0.004477
# 4 0.000591 0.002128 -0.003003 0.047543 0.006866 0.018700
# 5 -0.000782 -0.000146 -0.000746 0.006866 0.038640 0.009269
# 6 0.001198 -0.001662 -0.004477 0.018700 0.009269 0.047810
#
#
# Mechanical properties :
#
#
# Convention : Reuss Voigt Hill
#
# Bulk Modulus (GPa) = 81.58741 87.37842 84.48292
# Shear Modulus (GPa) = 27.49759 33.34433 30.42096
#
# Velocity S-wave (km/s) = 3.70071 4.07520 3.89246
# Velocity P-wave (km/s) = 7.67432 8.10321 7.89168
#
# Compressibility (1/GPa) = 0.01225679
#
# Stress axis : x y z
#
# Youngs Moduli (GPa) = 114.53284 96.54277 112.14129
#
# Poissons Ratio (x) = 0.22033 0.32976
# Poissons Ratio (y) = 0.26139 0.29741
# Poissons Ratio (z) = 0.33679 0.25604
#
# Static dielectric constant tensor:
#      x y z
#    x 3.758760 -0.096350 -0.028870 
#    y -0.096350 3.884640 -0.063100 
#    z -0.028870 -0.063100 3.502520 
# 
# 
# High freq. dielectric constant tensor:
#      x y z
#    x 1.788920 -0.003780 -0.000760 
#    y -0.003780 1.800000 -0.002070 
#    z -0.000760 -0.002070 1.785470 
# 
# From -- ./inp_files/37720.got.cif
#   From: 2010.06.25/outbox.cif.g09.slc.cpg/sg2_19_cif.got.tgz:37720.got - 2010.06.27 13:26:56.
