data_PCOD8023076
_publ_section_title
;
Structure prediction by ZEFSAII (Michael W. Deem and Ramdas Pophale) SiO2 
 PCOD8023076
Probable space group: P -1
;
_chemical_formula_sum "Si O2"
_cell_formula_units_Z 16
_cell_length_a 9.617583
_cell_length_b 11.490426
_cell_length_c 9.308837
_cell_angle_alpha 111.132113
_cell_angle_beta 118.055798
_cell_angle_gamma 55.313001
_cell_volume 740.351886
_symmetry_space_group_name_H-M "P -1"
_symmetry_group_IT_number 2
_symmetry_cell_setting 'triclinic'
loop_
_space_group_symop_operation_xyz
x,y,z
-x,-y,-z
loop_
_atom_site_type_symbol
_atom_site_label
_atom_site_fract_x
_atom_site_fract_y
_atom_site_fract_z
Si Si1 0.778649 0.696343 0.732253
Si Si2 0.522931 0.351740 0.504400
Si Si3 0.249121 0.676803 0.950632
Si Si4 0.051817 0.378728 0.675031
Si Si5 0.588538 0.630556 0.220452
Si Si6 0.076428 0.178798 0.348791
Si Si7 0.895108 0.085894 0.623508
Si Si8 0.992171 0.727125 0.093270
O O1 0.592007 0.697109 0.674597
O O2 0.934403 0.548418 0.669895
O O3 0.766705 0.810071 0.657535
O O4 0.824426 0.741627 0.926951
O O5 0.500000 0.500000 0.500000
O O6 0.431013 0.358092 0.613968
O O7 0.730712 0.234798 0.556379
O O8 0.351464 0.532793 0.849315
O O9 0.090626 0.791428 0.824521
O O10 0.395057 0.727310 0.089819
O O11 0.171285 0.645548 0.046076
O O12 0.992305 0.361891 0.797400
O O13 0.265110 0.325892 0.744066
O O14 0.005226 0.287140 0.498538
O O15 0.166763 0.013681 0.365980
O O16 0.026072 0.120398 0.801851
O O17 0.000000 0.000000 0.500000
#
# Coordination Sequence:
#
# PCOD8023076 Si02
#       8
#     2   2   2   2   2   2   2   2
#     4  11  24  40  70 106 138 182 243 291 357 403
#     4  12  27  45  74 107 143 183 245 295 350 429
#     4  10  23  40  67 106 139 180 235 292 349 409
#     4  12  21  41  71 105 145 186 230 297 351 422
#     4  11  22  40  68 108 142 178 234 292 355 401
#     4  11  23  43  69  94 142 189 235 281 348 433
#     4  12  27  48  70 101 140 196 235 287 364 426
#     4  11  23  44  66 104 139 190 235 293 351 415
#
# _framework density 21.611345
#
# number of rings (size 3 to 8) (size 9 to 14) (size 15 to 20)
#    0.000    0.750    6.250    2.250    1.750    3.500 
#    0.000    0.625    0.000    0.000    0.000    0.000 
#    0.000    0.000    0.000    0.000    0.000    0.000 
#
# Total GULP energy -198339.987200 kJ/mol
# GULP energy per Si atom -12396.249200 kJ/mol
# Density = 2.156216 g / cm^3
# Si number density = 21.611345 Si / 1000 Ang^3
#
#
#
# Elastic Constant Matrix: (Units=GPa)
#
#
# Indices 1 2 3 4 5 6 
#
# 1 108.6824 39.3818 47.5061 -10.1916 16.2906 8.6526
# 2 39.3818 114.0022 43.0098 -5.2216 7.1341 20.3502
# 3 47.5061 43.0098 121.1215 9.8210 16.8999 1.6140
# 4 -10.1916 -5.2216 9.8210 31.8058 3.1598 0.2138
# 5 16.2906 7.1341 16.8999 3.1598 41.7072 7.4051
# 6 8.6526 20.3502 1.6140 0.2138 7.4051 29.5324
#
#
#
# Elastic Compliance Matrix: (Units=1/GPa)
#
#
# Indices 1 2 3 4 5 6 
#
# 1 0.012949 -0.002173 -0.004295 0.005438 -0.003124 -0.001318
# 2 -0.002173 0.012452 -0.003875 0.002445 0.001549 -0.008138
# 3 -0.004295 -0.003875 0.012108 -0.005494 -0.002864 0.004025
# 4 0.005438 0.002445 -0.005494 0.035552 -0.002549 -0.002596
# 5 -0.003124 0.001549 -0.002864 -0.002549 0.027506 -0.006874
# 6 -0.001318 -0.008138 0.004025 -0.002596 -0.006874 0.041378
#
#
# Mechanical properties :
#
#
# Convention : Reuss Voigt Hill
#
# Bulk Modulus (GPa) = 59.44185 67.06683 63.25434
# Shear Modulus (GPa) = 29.71968 34.86964 32.29466
#
# Velocity S-wave (km/s) = 3.71238 4.02118 3.86986
# Velocity P-wave (km/s) = 6.77793 7.25675 7.02142
#
# Compressibility (1/GPa) = 0.01682316
#
# Stress axis : x y z
#
# Youngs Moduli (GPa) = 77.22694 80.30617 82.58882
#
# Poissons Ratio (x) = 0.17452 0.35468
# Poissons Ratio (y) = 0.16783 0.32006
# Poissons Ratio (z) = 0.33166 0.31122
#
# Static dielectric constant tensor:
#      x y z
#    x 4.005600 0.195270 0.225950 
#    y 0.195270 3.847810 0.107370 
#    z 0.225950 0.107370 4.414280 
# 
# 
# High freq. dielectric constant tensor:
#      x y z
#    x 1.850390 0.018020 0.003560 
#    y 0.018020 1.814600 0.010010 
#    z 0.003560 0.010010 1.871950 
# 
# From -- ./inp_files/188715.got.cif
#   From: 2010.06.25/outbox.cif.g09.slc.cpg/sg2_95_cif.got.tgz:188715.got - 2010.06.27 13:26:56.
