data_PCOD8023388
_publ_section_title
;
Structure prediction by ZEFSAII (Michael W. Deem and Ramdas Pophale) SiO2 
 PCOD8023388
Probable space group: P -1
;
_chemical_formula_sum "Si O2"
_cell_formula_units_Z 14
_cell_length_a 14.672999
_cell_length_b 6.321013
_cell_length_c 23.686720
_cell_angle_alpha 72.045308
_cell_angle_beta 159.828503
_cell_angle_gamma 98.277950
_cell_volume 646.027716
_symmetry_space_group_name_H-M "P -1"
_symmetry_group_IT_number 2
_symmetry_cell_setting 'triclinic'
loop_
_space_group_symop_operation_xyz
x,y,z
-x,-y,-z
loop_
_atom_site_type_symbol
_atom_site_label
_atom_site_fract_x
_atom_site_fract_y
_atom_site_fract_z
Si Si1 0.850786 0.853739 0.663884
Si Si2 0.814764 0.896498 0.516074
Si Si3 0.298942 0.788660 0.355011
Si Si4 0.694055 0.617770 0.844676
Si Si5 0.217522 0.085602 0.682090
Si Si6 0.175196 0.322087 0.955338
Si Si7 0.209565 0.439078 0.552884
O O1 0.974762 0.863082 0.672816
O O2 0.508294 0.912616 0.447150
O O3 0.036863 0.586368 0.821897
O O4 0.852835 0.074654 0.685494
O O5 0.790776 0.645293 0.505217
O O6 0.483521 0.113045 0.307705
O O7 0.996498 0.960172 0.568214
O O8 0.500000 0.500000 0.500000
O O9 0.044380 0.810228 0.161247
O O10 0.504566 0.464330 0.737613
O O11 0.744010 0.633780 0.938700
O O12 0.000000 0.500000 0.000000
O O13 0.207533 0.212141 0.606019
O O14 0.095127 0.310905 0.637825
O O15 0.542037 0.867722 0.899924
#
# Coordination Sequence:
#
# PCOD8023388 Si02
#       7
#     2   2   2   2   2   2   2
#     4  10  24  41  66  93 128 172 210 259 330 376
#     4  11  24  43  65  95 132 167 215 265 315 382
#     4   9  22  42  64  88 131 174 208 254 325 385
#     4  11  27  39  65 103 128 160 220 265 316 388
#     4  10  23  41  66  95 125 173 221 255 319 384
#     4  11  24  41  66  95 131 166 214 265 315 382
#     4  10  23  42  68  90 133 174 203 269 328 367
#
# _framework density 21.670898000000001
#
# number of rings (size 3 to 8) (size 9 to 14) (size 15 to 20)
#    0.000    1.714    1.429    0.429   14.000    4.571 
#    0.000    1.429    0.000    0.000    0.000    0.000 
#    0.000    0.000    0.000    0.000    0.000    0.000 
#
# Total GULP energy -173457.492563 kJ/mol
# GULP energy per Si atom -12389.820897 kJ/mol
# Density = 2.162157 g / cm^3
# Si number density = 21.670898 Si / 1000 Ang^3
#
#
#
# Elastic Constant Matrix: (Units=GPa)
#
#
# Indices 1 2 3 4 5 6 
#
# 1 90.0115 48.4739 41.1503 -1.5906 -5.8522 -5.6789
# 2 48.4739 131.1640 43.2763 -0.8801 -10.7909 -17.5282
# 3 41.1503 43.2763 109.3858 -19.9073 5.5400 -3.3006
# 4 -1.5906 -0.8801 -19.9073 35.5303 -3.6968 -0.5541
# 5 -5.8522 -10.7909 5.5400 -3.6968 35.1061 6.0635
# 6 -5.6789 -17.5282 -3.3006 -0.5541 6.0635 19.9211
#
#
#
# Elastic Compliance Matrix: (Units=1/GPa)
#
#
# Indices 1 2 3 4 5 6 
#
# 1 0.015519 -0.004136 -0.004652 -0.001819 0.001968 -0.000635
# 2 -0.004136 0.011314 -0.003014 -0.001286 0.001800 0.007693
# 3 -0.004652 -0.003014 0.013481 0.006950 -0.002987 -0.000642
# 4 -0.001819 -0.001286 0.006950 0.032091 0.001600 -0.000093
# 5 0.001968 0.001800 -0.002987 0.001600 0.031362 -0.007852
# 6 -0.000635 0.007693 -0.000642 -0.000093 -0.007852 0.059067
#
#
# Mechanical properties :
#
#
# Convention : Reuss Voigt Hill
#
# Bulk Modulus (GPa) = 59.83705 66.26251 63.04978
# Shear Modulus (GPa) = 26.04058 31.28888 28.66473
#
# Velocity S-wave (km/s) = 3.47023 3.80389 3.64088
# Velocity P-wave (km/s) = 6.61274 7.06653 6.84339
#
# Compressibility (1/GPa) = 0.01671205
#
# Stress axis : x y z
#
# Youngs Moduli (GPa) = 64.43545 88.38360 74.17896
#
# Poissons Ratio (x) = 0.36553 0.34508
# Poissons Ratio (y) = 0.26649 0.22354
# Poissons Ratio (z) = 0.29976 0.26634
#
# Static dielectric constant tensor:
#      x y z
#    x 3.787150 -0.160980 0.167930 
#    y -0.160980 4.233770 0.037040 
#    z 0.167930 0.037040 4.099500 
# 
# 
# High freq. dielectric constant tensor:
#      x y z
#    x 1.834510 -0.015040 0.010740 
#    y -0.015040 1.872030 -0.005310 
#    z 0.010740 -0.005310 1.844680 
# 
# From -- ./inp_files/97486.got.cif
#   From: 2010.06.25/outbox.cif.g09.slc.cpg/sg2_49_cif.got.tgz:97486.got - 2010.06.27 13:26:56.
