data_PCOD8023433
_publ_section_title
;
Structure prediction by ZEFSAII (Michael W. Deem and Ramdas Pophale) SiO2 
 PCOD8023433
Probable space group: P -1
;
_chemical_formula_sum "Si O2"
_cell_formula_units_Z 16
_cell_length_a 12.169104
_cell_length_b 14.706636
_cell_length_c 13.959180
_cell_angle_alpha 29.339730
_cell_angle_beta 122.870264
_cell_angle_gamma 140.400448
_cell_volume 710.661222
_symmetry_space_group_name_H-M "P -1"
_symmetry_group_IT_number 2
_symmetry_cell_setting 'triclinic'
loop_
_space_group_symop_operation_xyz
x,y,z
-x,-y,-z
loop_
_atom_site_type_symbol
_atom_site_label
_atom_site_fract_x
_atom_site_fract_y
_atom_site_fract_z
Si Si1 0.601939 0.877996 0.006803
Si Si2 0.221881 0.519420 0.065740
Si Si3 0.681981 0.817819 0.297061
Si Si4 0.330802 0.283118 0.238014
Si Si5 0.796771 0.076154 0.314987
Si Si6 0.827841 0.436859 0.518130
Si Si7 0.730509 0.674393 0.124880
Si Si8 0.011899 0.918216 0.284024
O O1 0.662422 0.128546 0.753057
O O2 0.374589 0.634525 0.115807
O O3 0.662629 0.945008 0.084706
O O4 0.697984 0.797955 0.076089
O O5 0.274188 0.443129 0.069716
O O6 0.018374 0.254746 0.253505
O O7 0.227627 0.737354 0.833254
O O8 0.500000 0.500000 0.500000
O O9 0.694359 0.943845 0.285634
O O10 0.877562 0.907053 0.295457
O O11 0.555856 0.492666 0.132136
O O12 0.199990 0.051508 0.309420
O O13 0.301319 0.161718 0.439477
O O14 0.744517 0.489329 0.351010
O O15 0.000000 0.500000 0.500000
O O16 0.898059 0.616986 0.480057
O O17 0.923393 0.913909 0.938057
#
# Coordination Sequence:
#
# PCOD8023433 Si02
#       8
#     2   2   2   2   2   2   2   2
#     4  11  24  43  70 101 131 177 224 276 339 398
#     4  10  23  41  67  93 132 174 226 273 327 390
#     4  12  26  43  68 101 138 181 223 274 335 402
#     4  11  24  45  71  95 133 179 224 275 338 391
#     4  11  24  45  65  97 134 182 222 277 326 395
#     4  12  24  44  71 100 136 176 219 278 342 399
#     4  11  23  47  71  98 136 172 223 286 335 397
#     4  12  25  44  70 100 135 179 223 276 339 400
#
# _framework density 22.514244000000001
#
# number of rings (size 3 to 8) (size 9 to 14) (size 15 to 20)
#    0.000    0.750    3.750    4.125    3.500    2.500 
#    2.250    0.625    0.000    0.000    0.000    0.000 
#    0.000    0.000    0.000    0.000    0.000    0.000 
#
# Total GULP energy -198481.015673 kJ/mol
# GULP energy per Si atom -12405.063480 kJ/mol
# Density = 2.246300 g / cm^3
# Si number density = 22.514244 Si / 1000 Ang^3
#
#
#
# Elastic Constant Matrix: (Units=GPa)
#
#
# Indices 1 2 3 4 5 6 
#
# 1 64.5847 10.9458 18.3418 1.0235 8.7222 17.4455
# 2 10.9458 108.4740 15.3412 -5.4604 2.8706 6.3107
# 3 18.3418 15.3412 98.4375 0.0493 2.8292 9.7566
# 4 1.0235 -5.4604 0.0493 36.6110 3.2144 -5.7825
# 5 8.7222 2.8706 2.8292 3.2144 35.6195 -1.0580
# 6 17.4455 6.3107 9.7566 -5.7825 -1.0580 33.6174
#
#
#
# Elastic Compliance Matrix: (Units=1/GPa)
#
#
# Indices 1 2 3 4 5 6 
#
# 1 0.019635 -0.001044 -0.002394 -0.001834 -0.004658 -0.009761
# 2 -0.001044 0.009623 -0.001221 0.001408 -0.000570 -0.000686
# 3 -0.002394 -0.001221 0.010979 -0.000395 -0.000205 -0.001789
# 4 -0.001834 0.001408 -0.000395 0.028651 -0.002050 0.005666
# 5 -0.004658 -0.000570 -0.000205 -0.002050 0.029556 0.003161
# 6 -0.009761 -0.000686 -0.001789 0.005666 0.003161 0.036534
#
#
# Mechanical properties :
#
#
# Convention : Reuss Voigt Hill
#
# Bulk Modulus (GPa) = 32.34351 40.08374 36.21363
# Shear Modulus (GPa) = 32.34120 36.29407 34.31763
#
# Velocity S-wave (km/s) = 3.79420 4.01939 3.90842
# Velocity P-wave (km/s) = 5.79583 6.27559 6.04047
#
# Compressibility (1/GPa) = 0.03091810
#
# Stress axis : x y z
#
# Youngs Moduli (GPa) = 50.92946 103.92031 91.08701
#
# Poissons Ratio (x) = 0.10849 0.21803
# Poissons Ratio (y) = 0.05317 0.11126
# Poissons Ratio (z) = 0.12191 0.12694
#
# Static dielectric constant tensor:
#      x y z
#    x 4.091770 0.094400 0.138330 
#    y 0.094400 4.621600 -0.953130 
#    z 0.138330 -0.953130 5.252120 
# 
# 
# High freq. dielectric constant tensor:
#      x y z
#    x 1.883940 0.016850 -0.002180 
#    y 0.016850 1.900660 -0.016190 
#    z -0.002180 -0.016190 1.888220 
# 
# From -- ./inp_files/522181.got.cif
#   From: 2010.06.25/outbox.cif.g09.slc.cpg/sg2_262_cif.got.tgz:522181.got - 2010.06.27 13:26:56.
