data_PCOD8023145
_publ_section_title
;
Structure prediction by ZEFSAII (Michael W. Deem and Ramdas Pophale) SiO2 
 PCOD8023145
Probable space group: P -1
;
_chemical_formula_sum "Si O2"
_cell_formula_units_Z 14
_cell_length_a 5.161727
_cell_length_b 24.284527
_cell_length_c 17.593444
_cell_angle_alpha 160.126346
_cell_angle_beta 121.487678
_cell_angle_gamma 65.416967
_cell_volume 617.424634
_symmetry_space_group_name_H-M "P -1"
_symmetry_group_IT_number 2
_symmetry_cell_setting 'triclinic'
loop_
_space_group_symop_operation_xyz
x,y,z
-x,-y,-z
loop_
_atom_site_type_symbol
_atom_site_label
_atom_site_fract_x
_atom_site_fract_y
_atom_site_fract_z
Si Si1 0.052569 0.759321 0.026750
Si Si2 0.166290 0.541285 0.498293
Si Si3 0.267644 0.376431 0.745426
Si Si4 0.214078 0.925881 0.993157
Si Si5 0.200245 0.484198 0.084605
Si Si6 0.069311 0.992795 0.788990
Si Si7 0.769743 0.822319 0.220932
O O1 0.421872 0.848781 0.204326
O O2 0.863093 0.741197 0.053134
O O3 0.890145 0.871120 0.094321
O O4 0.029247 0.577171 0.750974
O O5 0.500000 0.500000 0.500000
O O6 0.000000 0.500000 0.500000
O O7 0.185752 0.729915 0.719857
O O8 0.443983 0.400652 0.722724
O O9 0.952862 0.440365 0.770617
O O10 0.163206 0.182764 0.502990
O O11 0.500000 0.500000 0.000000
O O12 0.579335 0.025921 0.165120
O O13 0.095209 0.946002 0.085445
O O14 0.000000 0.000000 0.000000
O O15 0.197165 0.293386 0.852590
O O16 0.000000 0.500000 0.000000
O O17 0.000000 0.000000 0.500000
#
# Coordination Sequence:
#
# PCOD8023145 Si02
#       7
#     2   2   2   2   2   2   2
#     4  12  26  44  77 104 142 192 243 290 363 435
#     4  12  23  48  73 106 143 189 240 294 373 433
#     4  10  23  40  69  97 140 182 237 281 352 427
#     4  12  26  46  75 111 145 182 240 313 360 429
#     4  10  23  43  65  94 136 192 226 283 358 406
#     4  12  25  45  74 108 140 194 239 291 371 430
#     4  12  28  44  71 107 145 183 244 300 342 426
#
# _framework density 22.674831000000001
#
# number of rings (size 3 to 8) (size 9 to 14) (size 15 to 20)
#    0.000    0.571    2.857    4.286    8.000    3.429 
#    0.000    0.000    0.000    0.000    0.000    0.000 
#    0.000    0.000    0.000    0.000    0.000    0.000 
#
# Total GULP energy -173563.992161 kJ/mol
# GULP energy per Si atom -12397.428012 kJ/mol
# Density = 2.262322 g / cm^3
# Si number density = 22.674831 Si / 1000 Ang^3
#
#
#
# Elastic Constant Matrix: (Units=GPa)
#
#
# Indices 1 2 3 4 5 6 
#
# 1 175.7450 31.0853 25.3213 6.7091 12.6964 -14.6570
# 2 31.0853 114.4419 49.9837 21.9147 0.1024 -12.4627
# 3 25.3213 49.9837 133.7597 20.7050 6.6662 -7.1172
# 4 6.7091 21.9147 20.7050 34.6245 1.3132 -0.4852
# 5 12.6964 0.1024 6.6662 1.3132 36.6626 0.9597
# 6 -14.6570 -12.4627 -7.1172 -0.4852 0.9597 36.8745
#
#
#
# Elastic Compliance Matrix: (Units=1/GPa)
#
#
# Indices 1 2 3 4 5 6 
#
# 1 0.006312 -0.001269 -0.000504 -0.000009 -0.002144 0.002039
# 2 -0.001269 0.011822 -0.003268 -0.005286 0.001118 0.002762
# 3 -0.000504 -0.003268 0.009417 -0.003404 -0.001420 0.000505
# 4 -0.000009 -0.005286 -0.003404 0.034257 -0.000538 -0.001982
# 5 -0.002144 0.001118 -0.001420 -0.000538 0.028332 -0.001493
# 6 0.002039 0.002762 0.000505 -0.001982 -0.001493 0.028973
#
#
# Mechanical properties :
#
#
# Convention : Reuss Voigt Hill
#
# Bulk Modulus (GPa) = 57.24166 70.74746 63.99456
# Shear Modulus (GPa) = 37.03192 42.80274 39.91733
#
# Velocity S-wave (km/s) = 4.04564 4.34945 4.20029
# Velocity P-wave (km/s) = 6.86457 7.51613 7.19773
#
# Compressibility (1/GPa) = 0.01746979
#
# Stress axis : x y z
#
# Youngs Moduli (GPa) = 158.41954 84.58777 106.18717
#
# Poissons Ratio (x) = 0.10733 0.05354
# Poissons Ratio (y) = 0.20100 0.34702
# Poissons Ratio (z) = 0.07987 0.27643
#
# Static dielectric constant tensor:
#      x y z
#    x 6.748450 0.464600 0.268750 
#    y 0.464600 4.005620 0.112750 
#    z 0.268750 0.112750 4.218730 
# 
# 
# High freq. dielectric constant tensor:
#      x y z
#    x 1.932420 -0.004510 0.004330 
#    y -0.004510 1.878810 0.015060 
#    z 0.004330 0.015060 1.895820 
# 
# From -- ./inp_files/473466.got.cif
#   From: 2010.06.25/outbox.cif.g09.slc.cpg/sg2_237_cif.got.tgz:473466.got - 2010.06.27 13:26:56.
