data_PCOD8023380
_publ_section_title
;
Structure prediction by ZEFSAII (Michael W. Deem and Ramdas Pophale) SiO2 
 PCOD8023380
Probable space group: P -1
;
_chemical_formula_sum "Si O2"
_cell_formula_units_Z 16
_cell_length_a 18.571213
_cell_length_b 8.554170
_cell_length_c 12.599944
_cell_angle_alpha 130.456111
_cell_angle_beta 37.598030
_cell_angle_gamma 103.529237
_cell_volume 740.957010
_symmetry_space_group_name_H-M "P -1"
_symmetry_group_IT_number 2
_symmetry_cell_setting 'triclinic'
loop_
_space_group_symop_operation_xyz
x,y,z
-x,-y,-z
loop_
_atom_site_type_symbol
_atom_site_label
_atom_site_fract_x
_atom_site_fract_y
_atom_site_fract_z
Si Si1 0.700262 0.176852 0.587996
Si Si2 0.187403 0.958380 0.195330
Si Si3 0.514796 0.185212 0.185616
Si Si4 0.460459 0.284188 0.056587
Si Si5 0.646150 0.978452 0.357517
Si Si6 0.719339 0.273394 0.243482
Si Si7 0.015549 0.724593 0.094480
Si Si8 0.899618 0.376687 0.808280
O O1 0.680705 0.434473 0.689965
O O2 0.633618 0.086783 0.538104
O O3 0.610290 0.246650 0.833745
O O4 0.872028 0.975697 0.321240
O O5 0.185554 0.745701 0.167837
O O6 0.317605 0.938776 0.092780
O O7 0.230775 0.895030 0.994001
O O8 0.036383 0.250017 0.510645
O O9 0.431324 0.275574 0.210630
O O10 0.429864 0.433806 0.471847
O O11 0.521006 0.954049 0.129655
O O12 0.500000 0.000000 0.500000
O O13 0.682347 0.135711 0.310843
O O14 0.789962 0.681530 0.057929
O O15 0.847154 0.306664 0.139935
O O16 0.031064 0.737595 0.207189
O O17 0.000000 0.500000 0.000000
#
# Coordination Sequence:
#
# PCOD8023380 Si02
#       8
#     2   2   2   2   2   2   2   2
#     4  11  23  45  63  99 132 175 218 273 337 391
#     4  10  23  41  66  93 130 174 227 276 321 400
#     4  11  21  42  65  96 133 169 225 275 334 395
#     4  10  24  39  65  96 128 171 222 271 340 391
#     4  12  26  44  69  98 139 177 222 274 331 397
#     4  11  25  41  65 103 130 179 224 272 331 396
#     4  11  22  43  71  95 135 174 221 273 330 405
#     4  10  23  44  66  99 128 180 223 266 340 392
#
# _framework density 21.593695
#
# number of rings (size 3 to 8) (size 9 to 14) (size 15 to 20)
#    0.000    1.250    2.500    2.625    3.500    3.000 
#    4.500    0.000    0.000    0.000    0.000    0.000 
#    0.000    0.000    0.000    0.000    0.000    0.000 
#
# Total GULP energy -198240.485962 kJ/mol
# GULP energy per Si atom -12390.030373 kJ/mol
# Density = 2.154455 g / cm^3
# Si number density = 21.593695 Si / 1000 Ang^3
#
#
#
# Elastic Constant Matrix: (Units=GPa)
#
#
# Indices 1 2 3 4 5 6 
#
# 1 68.7738 44.2356 33.4196 3.4824 -12.2856 2.6316
# 2 44.2356 145.3143 71.1909 22.9977 -16.7835 16.3683
# 3 33.4196 71.1909 139.7253 17.7958 -7.1438 -5.3456
# 4 3.4824 22.9977 17.7958 45.6048 0.5587 -4.0451
# 5 -12.2856 -16.7835 -7.1438 0.5587 35.9918 -3.7275
# 6 2.6316 16.3683 -5.3456 -4.0451 -3.7275 20.6465
#
#
#
# Elastic Compliance Matrix: (Units=1/GPa)
#
#
# Indices 1 2 3 4 5 6 
#
# 1 0.019254 -0.004919 -0.002062 0.001945 0.004048 0.002024
# 2 -0.004919 0.013500 -0.005349 -0.005447 0.002386 -0.012097
# 3 -0.002062 -0.005349 0.010718 -0.000695 -0.000326 0.007083
# 4 0.001945 -0.005447 -0.000695 0.025581 -0.001518 0.008628
# 5 0.004048 0.002386 -0.000326 -0.001518 0.030519 0.002720
# 6 0.002024 -0.012097 0.007083 0.008628 0.002720 0.061782
#
#
# Mechanical properties :
#
#
# Convention : Reuss Voigt Hill
#
# Bulk Modulus (GPa) = 53.15787 72.38951 62.77369
# Shear Modulus (GPa) = 26.00321 34.11312 30.05817
#
# Velocity S-wave (km/s) = 3.47393 3.97895 3.73498
# Velocity P-wave (km/s) = 6.38449 7.39632 6.90895
#
# Compressibility (1/GPa) = 0.01881189
#
# Stress axis : x y z
#
# Youngs Moduli (GPa) = 51.93813 74.07615 93.29938
#
# Poissons Ratio (x) = 0.36438 0.19240
# Poissons Ratio (y) = 0.25548 0.49903
# Poissons Ratio (z) = 0.10711 0.39621
#
# Static dielectric constant tensor:
#      x y z
#    x 3.294270 0.079720 0.474010 
#    y 0.079720 4.053180 0.274120 
#    z 0.474010 0.274120 3.879530 
# 
# 
# High freq. dielectric constant tensor:
#      x y z
#    x 1.834820 0.010560 0.003990 
#    y 0.010560 1.855420 0.004320 
#    z 0.003990 0.004320 1.862830 
# 
# From -- ./inp_files/462437.got.cif
#   From: 2010.06.25/outbox.cif.g09.slc.cpg/sg2_232_cif.got.tgz:462437.got - 2010.06.27 13:26:56.
