data_PCOD8023112
_publ_section_title
;
Structure prediction by ZEFSAII (Michael W. Deem and Ramdas Pophale) SiO2 
 PCOD8023112
Probable space group: P -1
;
_chemical_formula_sum "Si O2"
_cell_formula_units_Z 16
_cell_length_a 12.253818
_cell_length_b 17.646868
_cell_length_c 30.049115
_cell_angle_alpha 19.252829
_cell_angle_beta 159.313587
_cell_angle_gamma 150.240762
_cell_volume 750.499719
_symmetry_space_group_name_H-M "P -1"
_symmetry_group_IT_number 2
_symmetry_cell_setting 'triclinic'
loop_
_space_group_symop_operation_xyz
x,y,z
-x,-y,-z
loop_
_atom_site_type_symbol
_atom_site_label
_atom_site_fract_x
_atom_site_fract_y
_atom_site_fract_z
Si Si1 0.755305 0.164702 0.392685
Si Si2 0.856738 0.560226 0.844213
Si Si3 0.117533 0.298937 0.950446
Si Si4 0.798076 0.839335 0.751791
Si Si5 0.243139 0.680966 0.491122
Si Si6 0.631170 0.068618 0.689417
Si Si7 0.781722 0.300049 0.169607
Si Si8 0.267384 0.439814 0.407356
O O1 0.528225 0.203890 0.326583
O O2 0.948225 0.379910 0.341273
O O3 0.561870 0.130792 0.292591
O O4 0.979757 0.930142 0.616160
O O5 0.779120 0.782547 0.723750
O O6 0.576783 0.554351 0.705150
O O7 0.178496 0.569478 0.934520
O O8 0.910088 0.325865 0.023444
O O9 0.116556 0.546912 0.836006
O O10 0.826544 0.335696 0.784741
O O11 0.436225 0.236716 0.078698
O O12 0.084171 0.084825 0.090242
O O13 0.867819 0.102516 0.639006
O O14 0.256342 0.774675 0.393686
O O15 0.000000 0.500000 0.500000
O O16 0.422163 0.222210 0.559424
O O17 0.500000 0.500000 0.500000
#
# Coordination Sequence:
#
# PCOD8023112 Si02
#       8
#     2   2   2   2   2   2   2   2
#     4  11  20  40  67  94 123 163 216 254 303 371
#     4  11  21  41  65  97 125 165 218 259 320 366
#     4  11  22  38  66  94 124 160 212 261 307 366
#     4  10  23  40  68  94 126 166 217 268 304 378
#     4  11  24  41  65  93 130 166 208 266 322 374
#     4  11  22  42  65  89 120 167 218 254 304 375
#     4  11  19  36  70  96 118 162 214 264 296 363
#     4  12  25  40  60  95 133 164 199 257 326 376
#
# _framework density 21.319127999999999
#
# number of rings (size 3 to 8) (size 9 to 14) (size 15 to 20)
#    0.000    1.000    5.000    4.500    0.000    2.000 
#    0.000    0.000    0.000    0.000    0.000    0.000 
#    0.000    0.000    0.000    0.000    0.000    0.000 
#
# Total GULP energy -198390.498311 kJ/mol
# GULP energy per Si atom -12399.406144 kJ/mol
# Density = 2.127060 g / cm^3
# Si number density = 21.319128 Si / 1000 Ang^3
#
#
#
# Elastic Constant Matrix: (Units=GPa)
#
#
# Indices 1 2 3 4 5 6 
#
# 1 114.0291 57.9864 33.6262 11.7920 -3.9069 -6.1576
# 2 57.9864 109.5435 31.8535 5.5956 -11.2259 11.0959
# 3 33.6262 31.8535 108.0707 6.9493 -25.0575 -2.8846
# 4 11.7920 5.5956 6.9493 20.1320 -6.5291 -6.9245
# 5 -3.9069 -11.2259 -25.0575 -6.5291 46.7112 -5.4339
# 6 -6.1576 11.0959 -2.8846 -6.9245 -5.4339 19.9652
#
#
#
# Elastic Compliance Matrix: (Units=1/GPa)
#
#
# Indices 1 2 3 4 5 6 
#
# 1 0.013751 -0.007284 -0.002073 -0.003616 -0.001482 0.006332
# 2 -0.007284 0.015040 -0.002300 -0.003321 -0.000102 -0.012117
# 3 -0.002073 -0.002300 0.012120 0.001376 0.006508 0.004638
# 4 -0.003616 -0.003321 0.001376 0.065318 0.011887 0.026818
# 5 -0.001482 -0.000102 0.006508 0.011887 0.027836 0.012239
# 6 0.006332 -0.012117 0.004638 0.026818 0.012239 0.072077
#
#
# Mechanical properties :
#
#
# Convention : Reuss Voigt Hill
#
# Bulk Modulus (GPa) = 56.83337 64.28615 60.55976
# Shear Modulus (GPa) = 21.24743 31.24015 26.24379
#
# Velocity S-wave (km/s) = 3.16038 3.83215 3.51236
# Velocity P-wave (km/s) = 6.32721 7.05693 6.70201
#
# Compressibility (1/GPa) = 0.01759530
#
# Stress axis : x y z
#
# Youngs Moduli (GPa) = 72.72437 66.48901 82.50491
#
# Poissons Ratio (x) = 0.48433 0.17107
# Poissons Ratio (y) = 0.52975 0.18977
# Poissons Ratio (z) = 0.15079 0.15293
#
# Static dielectric constant tensor:
#      x y z
#    x 4.108660 -0.016570 -0.037730 
#    y -0.016570 3.431060 -0.141000 
#    z -0.037730 -0.141000 4.303790 
# 
# 
# High freq. dielectric constant tensor:
#      x y z
#    x 1.846010 -0.003030 -0.006740 
#    y -0.003030 1.781520 -0.013450 
#    z -0.006740 -0.013450 1.864800 
# 
# From -- ./inp_files/623156.got.cif
#   From: 2010.06.25/outbox.cif.g09.slc.cpg/sg2_312_cif.got.tgz:623156.got - 2010.06.27 13:26:56.
