data_PCOD8023660
_publ_section_title
;
Structure prediction by ZEFSAII (Michael W. Deem and Ramdas Pophale) SiO2 
 PCOD8023660
Probable space group: P -1
;
_chemical_formula_sum "Si O2"
_cell_formula_units_Z 14
_cell_length_a 11.916919
_cell_length_b 8.962145
_cell_length_c 11.272090
_cell_angle_alpha 118.095115
_cell_angle_beta 127.024671
_cell_angle_gamma 78.477225
_cell_volume 841.862479
_symmetry_space_group_name_H-M "P -1"
_symmetry_group_IT_number 2
_symmetry_cell_setting 'triclinic'
loop_
_space_group_symop_operation_xyz
x,y,z
-x,-y,-z
loop_
_atom_site_type_symbol
_atom_site_label
_atom_site_fract_x
_atom_site_fract_y
_atom_site_fract_z
Si Si1 0.863323 0.366426 0.843299
Si Si2 0.875433 0.547528 0.562197
Si Si3 0.913410 0.229632 0.057842
Si Si4 0.034356 0.246854 0.516464
Si Si5 0.336768 0.437018 0.363982
Si Si6 0.817728 0.877766 0.947385
Si Si7 0.954665 0.858351 0.260330
O O1 0.735592 0.451005 0.736014
O O2 0.904735 0.217982 0.726155
O O3 0.815860 0.302292 0.921387
O O4 0.000000 0.500000 0.000000
O O5 0.854386 0.652207 0.466619
O O6 0.733342 0.547717 0.546604
O O7 0.018471 0.630625 0.752489
O O8 0.898559 0.352755 0.475778
O O9 0.042160 0.163243 0.045172
O O10 0.811691 0.079503 0.002510
O O11 0.098921 0.230008 0.683105
O O12 0.990042 0.060214 0.368453
O O13 0.500000 0.500000 0.500000
O O14 0.317444 0.238331 0.237084
O O15 0.827632 0.827079 0.072992
#
# Coordination Sequence:
#
# PCOD8023660 Si02
#       7
#     2   2   2   2   2   2   2
#     4  11  17  31  54  80 101 130 174 223 254 303
#     4  10  18  32  49  80 108 129 174 210 265 295
#     4   9  16  28  52  76 100 124 170 227 257 289
#     4  10  19  27  50  83 107 133 162 228 247 299
#     4  11  22  35  53  76 108 139 168 214 269 312
#     4   9  17  30  50  75 101 131 168 218 262 295
#     4  10  17  29  49  83 104 127 170 213 267 290
#
# _framework density 16.629795000000001
#
# number of rings (size 3 to 8) (size 9 to 14) (size 15 to 20)
#    0.000    2.000    7.143    0.000    2.000    0.000 
#    0.000    0.714    0.000    1.714    0.000    0.000 
#    0.000    0.000    0.000    0.000    0.000    0.000 
#
# Total GULP energy -173485.366934 kJ/mol
# GULP energy per Si atom -12391.811924 kJ/mol
# Density = 1.659195 g / cm^3
# Si number density = 16.629795 Si / 1000 Ang^3
#
#
#
# Elastic Constant Matrix: (Units=GPa)
#
#
# Indices 1 2 3 4 5 6 
#
# 1 69.3968 40.0415 48.4645 -4.1109 -1.0104 11.9601
# 2 40.0415 109.4942 44.6866 0.4030 0.9399 12.7773
# 3 48.4645 44.6866 84.4262 1.4637 4.5106 3.0885
# 4 -4.1109 0.4030 1.4637 32.2327 1.1580 -13.3582
# 5 -1.0104 0.9399 4.5106 1.1580 27.0887 -1.2247
# 6 11.9601 12.7773 3.0885 -13.3582 -1.2247 25.1582
#
#
#
# Elastic Compliance Matrix: (Units=1/GPa)
#
#
# Indices 1 2 3 4 5 6 
#
# 1 0.027848 -0.003373 -0.014016 0.000152 0.003050 -0.009576
# 2 -0.003373 0.012971 -0.004667 -0.002833 0.000055 -0.005913
# 3 -0.014016 -0.004667 0.022344 -0.000099 -0.003804 0.006053
# 4 0.000152 -0.002833 -0.000099 0.040597 -0.000579 0.022906
# 5 0.003050 0.000055 -0.003804 -0.000579 0.037709 0.000517
# 6 -0.009576 -0.005913 0.006053 0.022906 0.000517 0.058748
#
#
# Mechanical properties :
#
#
# Convention : Reuss Voigt Hill
#
# Bulk Modulus (GPa) = 52.48917 58.85583 55.67250
# Shear Modulus (GPa) = 19.94571 25.57090 22.75830
#
# Velocity S-wave (km/s) = 3.46699 3.92555 3.70337
# Velocity P-wave (km/s) = 6.90351 7.48433 7.19978
#
# Compressibility (1/GPa) = 0.01905155
#
# Stress axis : x y z
#
# Youngs Moduli (GPa) = 35.90879 77.09566 44.75436
#
# Poissons Ratio (x) = 0.26005 0.62729
# Poissons Ratio (y) = 0.12112 0.20886
# Poissons Ratio (z) = 0.50330 0.35978
#
# Static dielectric constant tensor:
#      x y z
#    x 2.860690 0.244010 -0.504110 
#    y 0.244010 4.360860 -0.179980 
#    z -0.504110 -0.179980 3.251530 
# 
# 
# High freq. dielectric constant tensor:
#      x y z
#    x 1.590880 0.021280 -0.052520 
#    y 0.021280 1.663840 0.010270 
#    z -0.052520 0.010270 1.623890 
# 
# From -- ./inp_files/173061.got.cif
#   From: 2010.06.25/outbox.cif.g09.slc.cpg/sg2_87_cif.got.tgz:173061.got - 2010.06.27 13:26:56.
