data_PCOD8023217
_publ_section_title
;
Structure prediction by ZEFSAII (Michael W. Deem and Ramdas Pophale) SiO2 
 PCOD8023217
Probable space group: P -1
;
_chemical_formula_sum "Si O2"
_cell_formula_units_Z 16
_cell_length_a 14.497245
_cell_length_b 11.553326
_cell_length_c 14.607053
_cell_angle_alpha 66.340278
_cell_angle_beta 133.467139
_cell_angle_gamma 150.944703
_cell_volume 709.979160
_symmetry_space_group_name_H-M "P -1"
_symmetry_group_IT_number 2
_symmetry_cell_setting 'triclinic'
loop_
_space_group_symop_operation_xyz
x,y,z
-x,-y,-z
loop_
_atom_site_type_symbol
_atom_site_label
_atom_site_fract_x
_atom_site_fract_y
_atom_site_fract_z
Si Si1 0.046751 0.761746 0.980421
Si Si2 0.824044 0.775700 0.530075
Si Si3 0.354172 0.001864 0.383768
Si Si4 0.232057 0.230185 0.197031
Si Si5 0.165749 0.567188 0.897342
Si Si6 0.918622 0.056514 0.658920
Si Si7 0.167227 0.852706 0.828483
Si Si8 0.490227 0.695106 0.767492
O O1 0.023241 0.710465 0.874730
O O2 0.821605 0.670872 0.882599
O O3 0.948310 0.552214 0.038144
O O4 0.372402 0.099510 0.122014
O O5 0.520056 0.460176 0.381389
O O6 0.003498 0.813128 0.672529
O O7 0.771922 0.828456 0.559889
O O8 0.000000 0.000000 0.500000
O O9 0.312646 0.040898 0.438427
O O10 0.030035 0.693276 0.219895
O O11 0.500000 0.000000 0.500000
O O12 0.556806 0.259080 0.368620
O O13 0.277567 0.207129 0.135172
O O14 0.990749 0.941145 0.187201
O O15 0.137801 0.689736 0.811217
O O16 0.493841 0.810060 0.036588
O O17 0.193919 0.367726 0.701150
#
# Coordination Sequence:
#
# PCOD8023217 Si02
#       8
#     2   2   2   2   2   2   2   2
#     4  11  22  41  66  94 130 170 215 266 322 386
#     4  12  24  42  67  97 136 168 219 271 325 388
#     4  10  24  43  67  93 133 172 215 272 319 386
#     4  11  23  39  63  97 133 167 211 267 327 379
#     4  10  24  43  65  95 129 172 221 263 322 387
#     4  11  23  41  63  95 128 170 212 263 330 382
#     4  11  24  43  67  93 131 175 214 269 322 386
#     4  10  23  41  62  97 132 166 218 258 325 393
#
# _framework density 22.535872000000001
#
# number of rings (size 3 to 8) (size 9 to 14) (size 15 to 20)
#    0.000    1.250    2.500    2.625    3.500    1.000 
#    0.000    5.000    0.000    0.000    0.000    0.000 
#    0.000    0.000    0.000    0.000    0.000    0.000 
#
# Total GULP energy -198381.907673 kJ/mol
# GULP energy per Si atom -12398.869230 kJ/mol
# Density = 2.248458 g / cm^3
# Si number density = 22.535872 Si / 1000 Ang^3
#
#
#
# Elastic Constant Matrix: (Units=GPa)
#
#
# Indices 1 2 3 4 5 6 
#
# 1 73.8523 9.7478 2.3902 -13.4113 3.0453 -1.3515
# 2 9.7478 116.4719 21.4010 -10.8073 7.4173 5.4236
# 3 2.3902 21.4010 62.4791 -12.4876 14.5174 -7.1602
# 4 -13.4113 -10.8073 -12.4876 26.1179 -1.8071 1.3540
# 5 3.0453 7.4173 14.5174 -1.8071 31.6992 -9.4097
# 6 -1.3515 5.4236 -7.1602 1.3540 -9.4097 32.9908
#
#
#
# Elastic Compliance Matrix: (Units=1/GPa)
#
#
# Indices 1 2 3 4 5 6 
#
# 1 0.015131 -0.000742 0.001690 0.008149 -0.001485 0.000351
# 2 -0.000742 0.009596 -0.002739 0.002312 -0.001606 -0.002755
# 3 0.001690 -0.002739 0.020768 0.008998 -0.007797 0.002434
# 4 0.008149 0.002312 0.008998 0.047570 -0.003000 -0.000901
# 5 -0.001485 -0.001606 -0.007797 -0.003000 0.038302 0.009559
# 6 0.000351 -0.002755 0.002434 -0.000901 0.009559 0.034070
#
#
# Mechanical properties :
#
#
# Convention : Reuss Voigt Hill
#
# Bulk Modulus (GPa) = 23.85982 35.54237 29.70109
# Shear Modulus (GPa) = 27.32335 32.77922 30.05129
#
# Velocity S-wave (km/s) = 3.48579 3.81797 3.65566
# Velocity P-wave (km/s) = 5.17797 5.93646 5.57014
#
# Compressibility (1/GPa) = 0.04191147
#
# Stress axis : x y z
#
# Youngs Moduli (GPa) = 66.08770 104.20708 48.15081
#
# Poissons Ratio (x) = 0.07736 -0.08135
# Poissons Ratio (y) = 0.04906 0.13190
# Poissons Ratio (z) = -0.11166 0.28545
#
# Static dielectric constant tensor:
#      x y z
#    x 4.223820 0.027160 -0.099170 
#    y 0.027160 4.402990 -0.020140 
#    z -0.099170 -0.020140 3.920710 
# 
# 
# High freq. dielectric constant tensor:
#      x y z
#    x 1.894740 -0.005520 -0.005770 
#    y -0.005520 1.906770 -0.007510 
#    z -0.005770 -0.007510 1.871250 
# 
# From -- ./inp_files/455261.got.cif
#   From: 2010.06.25/outbox.cif.g09.slc.cpg/sg2_228_cif.got.tgz:455261.got - 2010.06.27 13:26:56.
