data_PCOD8023285
_publ_section_title
;
Structure prediction by ZEFSAII (Michael W. Deem and Ramdas Pophale) SiO2 
 PCOD8023285
Probable space group: P -1
;
_chemical_formula_sum "Si O2"
_cell_formula_units_Z 10
_cell_length_a 5.161157
_cell_length_b 13.892362
_cell_length_c 12.812934
_cell_angle_alpha 30.737311
_cell_angle_beta 110.043869
_cell_angle_gamma 121.544410
_cell_volume 387.920766
_symmetry_space_group_name_H-M "P -1"
_symmetry_group_IT_number 2
_symmetry_cell_setting 'triclinic'
loop_
_space_group_symop_operation_xyz
x,y,z
-x,-y,-z
loop_
_atom_site_type_symbol
_atom_site_label
_atom_site_fract_x
_atom_site_fract_y
_atom_site_fract_z
Si Si1 0.261188 0.177716 0.240473
Si Si2 0.707974 0.718979 0.624527
Si Si3 0.265232 0.706227 0.984997
Si Si4 0.355287 0.617458 0.470783
Si Si5 0.642803 0.820171 0.126881
O O1 0.419234 0.289305 0.268139
O O2 0.532941 0.196090 0.183314
O O3 0.064868 0.292277 0.063371
O O4 0.032854 0.929526 0.455793
O O5 0.441902 0.707704 0.517029
O O6 0.800649 0.534633 0.789375
O O7 0.456467 0.849699 0.977076
O O8 0.519131 0.827428 0.220172
O O9 0.449524 0.430248 0.651976
O O10 0.000000 0.500000 0.500000
O O11 0.000000 0.000000 0.000000
#
# Coordination Sequence:
#
# PCOD8023285 Si02
#       5
#     2   2   2   2   2
#     4  11  25  45  68 103 129 182 221 279 335 402
#     4  10  24  44  68  97 138 173 225 278 334 399
#     4  11  25  43  70  99 136 171 229 275 339 395
#     4  10  23  42  64  96 130 174 220 277 335 396
#     4  10  23  41  64  95 131 176 222 274 333 401
#
# _framework density 25.778462000000001
#
# number of rings (size 3 to 8) (size 9 to 14) (size 15 to 20)
#    0.000    1.600    0.000    2.400    8.400    5.600 
#    7.200    0.000    0.000    0.000    0.000    0.000 
#    0.000    0.000    0.000    0.000    0.000    0.000 
#
# Total GULP energy -123933.665794 kJ/mol
# GULP energy per Si atom -12393.366579 kJ/mol
# Density = 2.571979 g / cm^3
# Si number density = 25.778462 Si / 1000 Ang^3
#
#
#
# Elastic Constant Matrix: (Units=GPa)
#
#
# Indices 1 2 3 4 5 6 
#
# 1 54.8471 23.9254 11.5210 11.7482 -17.5642 4.5856
# 2 23.9254 186.0279 51.0986 43.8542 -14.6740 4.0834
# 3 11.5210 51.0986 105.9041 22.4613 -23.0494 -0.8151
# 4 11.7482 43.8542 22.4613 54.4238 -3.2333 -3.2151
# 5 -17.5642 -14.6740 -23.0494 -3.2333 26.2845 -3.2638
# 6 4.5856 4.0834 -0.8151 -3.2151 -3.2638 32.3903
#
#
#
# Elastic Compliance Matrix: (Units=1/GPa)
#
#
# Indices 1 2 3 4 5 6 
#
# 1 0.025022 -0.001511 0.002728 -0.004386 0.017487 -0.001957
# 2 -0.001511 0.007372 -0.002332 -0.004703 0.000332 -0.001207
# 3 0.002728 -0.002332 0.013700 -0.003570 0.012236 0.001131
# 4 -0.004386 -0.004703 -0.003570 0.024447 -0.005306 0.003016
# 5 0.017487 0.000332 0.012236 -0.005306 0.060409 0.003351
# 6 -0.001957 -0.001207 0.001131 0.003016 0.003351 0.031968
#
#
# Mechanical properties :
#
#
# Convention : Reuss Voigt Hill
#
# Bulk Modulus (GPa) = 22.79796 57.76322 40.28059
# Shear Modulus (GPa) = 27.81338 39.96866 33.89102
#
# Velocity S-wave (km/s) = 3.28828 3.94187 3.62982
# Velocity P-wave (km/s) = 4.82494 6.57069 5.76429
#
# Compressibility (1/GPa) = 0.04386357
#
# Stress axis : x y z
#
# Youngs Moduli (GPa) = 39.96535 135.65054 72.99296
#
# Poissons Ratio (x) = 0.20499 -0.19914
# Poissons Ratio (y) = 0.06039 0.17022
# Poissons Ratio (z) = -0.10903 0.31634
#
# Static dielectric constant tensor:
#      x y z
#    x 13.550520 -7.069910 -6.300490 
#    y -7.069910 10.140500 4.829430 
#    z -6.300490 4.829430 8.840680 
# 
# 
# High freq. dielectric constant tensor:
#      x y z
#    x 2.000810 -0.005350 -0.000260 
#    y -0.005350 2.056820 0.000780 
#    z -0.000260 0.000780 2.059280 
# 
# From -- ./inp_files/18697.got.cif
#   From: 2010.06.25/outbox.cif.g09.slc.cpg/sg2_10_cif.got.tgz:18697.got - 2010.06.27 13:26:56.
