data_PCOD8023884
_publ_section_title
;
Structure prediction by ZEFSAII (Michael W. Deem and Ramdas Pophale) SiO2 
 PCOD8023884
Probable space group: P -1
;
_chemical_formula_sum "Si O2"
_cell_formula_units_Z 16
_cell_length_a 12.718023
_cell_length_b 11.940926
_cell_length_c 9.627036
_cell_angle_alpha 127.084368
_cell_angle_beta 116.014144
_cell_angle_gamma 104.953919
_cell_volume 717.674929
_symmetry_space_group_name_H-M "P -1"
_symmetry_group_IT_number 2
_symmetry_cell_setting 'triclinic'
loop_
_space_group_symop_operation_xyz
x,y,z
-x,-y,-z
loop_
_atom_site_type_symbol
_atom_site_label
_atom_site_fract_x
_atom_site_fract_y
_atom_site_fract_z
Si Si1 0.857222 0.822149 0.678642
Si Si2 0.611416 0.317680 0.677456
Si Si3 0.728741 0.264297 0.440966
Si Si4 0.410777 0.137001 0.874277
Si Si5 0.896038 0.411965 0.087132
Si Si6 0.255956 0.005527 0.393643
Si Si7 0.791763 0.460868 0.328908
Si Si8 0.479082 0.470490 0.305136
O O1 0.834885 0.923068 0.625302
O O2 0.900305 0.702272 0.558929
O O3 0.673755 0.640826 0.501978
O O4 0.000000 0.000000 0.000000
O O5 0.618001 0.252095 0.480765
O O6 0.428766 0.128486 0.499426
O O7 0.631318 0.501442 0.805592
O O8 0.762806 0.395368 0.919983
O O9 0.766430 0.388424 0.418743
O O10 0.913431 0.384998 0.702876
O O11 0.622098 0.028554 0.172004
O O12 0.283011 0.016762 0.581435
O O13 0.599651 0.311843 0.048241
O O14 0.377931 0.242375 0.031356
O O15 0.885398 0.429608 0.261255
O O16 0.870912 0.225962 0.904398
O O17 0.500000 0.500000 0.500000
#
# Coordination Sequence:
#
# PCOD8023884 Si02
#       8
#     2   2   2   2   2   2   2   2
#     4  10  23  42  67  93 127 165 211 264 322 375
#     4  11  22  41  67  90 129 169 213 258 316 383
#     4  12  25  42  64  96 132 167 213 270 316 374
#     4  11  23  42  65  96 126 168 218 257 320 383
#     4  12  24  41  64  98 130 167 214 264 325 371
#     4  11  23  41  68  95 128 169 215 262 315 388
#     4  11  24  42  67  93 129 170 214 262 320 386
#     4  10  24  42  66  94 126 169 213 262 317 383
#
# _framework density 22.294215999999999
#
# number of rings (size 3 to 8) (size 9 to 14) (size 15 to 20)
#    0.000    1.000    2.500    4.500    1.750    4.500 
#    0.000    0.625    0.000    0.000    0.000    0.000 
#    0.000    0.000    0.000    0.000    0.000    0.000 
#
# Total GULP energy -198361.449820 kJ/mol
# GULP energy per Si atom -12397.590614 kJ/mol
# Density = 2.224347 g / cm^3
# Si number density = 22.294216 Si / 1000 Ang^3
#
#
#
# Elastic Constant Matrix: (Units=GPa)
#
#
# Indices 1 2 3 4 5 6 
#
# 1 77.1322 44.0190 36.1881 12.4455 -33.0051 -11.8277
# 2 44.0190 101.4606 40.0751 4.2670 -23.3458 -19.5239
# 3 36.1881 40.0751 103.7599 16.8025 -31.0680 -14.0258
# 4 12.4455 4.2670 16.8025 41.8849 -4.9970 -12.2359
# 5 -33.0051 -23.3458 -31.0680 -4.9970 44.4933 -0.6607
# 6 -11.8277 -19.5239 -14.0258 -12.2359 -0.6607 32.0182
#
#
#
# Elastic Compliance Matrix: (Units=1/GPa)
#
#
# Indices 1 2 3 4 5 6 
#
# 1 0.023663 -0.005964 -0.000857 -0.003384 0.013501 0.003714
# 2 -0.005964 0.015314 -0.002785 0.003751 0.002198 0.007394
# 3 -0.000857 -0.002785 0.014220 -0.003371 0.007500 0.003081
# 4 -0.003384 0.003751 -0.003371 0.029029 0.000523 0.010665
# 5 0.013501 0.002198 0.007500 0.000523 0.039096 0.010619
# 6 0.003714 0.007394 0.003081 0.010665 0.010619 0.042758
#
#
# Mechanical properties :
#
#
# Convention : Reuss Voigt Hill
#
# Bulk Modulus (GPa) = 29.42394 58.10189 43.76291
# Shear Modulus (GPa) = 25.69105 34.48398 30.08751
#
# Velocity S-wave (km/s) = 3.39833 3.93716 3.67763
# Velocity P-wave (km/s) = 5.35022 6.84005 6.14049
#
# Compressibility (1/GPa) = 0.03398593
#
# Stress axis : x y z
#
# Youngs Moduli (GPa) = 42.25982 65.29808 70.32369
#
# Poissons Ratio (x) = 0.38946 0.06026
# Poissons Ratio (y) = 0.25205 0.19582
# Poissons Ratio (z) = 0.03621 0.18183
#
# Static dielectric constant tensor:
#      x y z
#    x 3.400580 -0.057830 0.051900 
#    y -0.057830 4.069920 0.088350 
#    z 0.051900 0.088350 4.114760 
# 
# 
# High freq. dielectric constant tensor:
#      x y z
#    x 1.876820 -0.012040 -0.004550 
#    y -0.012040 1.882810 -0.000620 
#    z -0.004550 -0.000620 1.885980 
# 
# From -- ./inp_files/223791.got.cif
#   From: 2010.06.25/outbox.cif.g09.slc.cpg/sg2_112_cif.got.tgz:223791.got - 2010.06.27 13:26:56.
