data_PCOD8023356
_publ_section_title
;
Structure prediction by ZEFSAII (Michael W. Deem and Ramdas Pophale) SiO2 
 PCOD8023356
Probable space group: P -1
;
_chemical_formula_sum "Si O2"
_cell_formula_units_Z 14
_cell_length_a 5.148044
_cell_length_b 9.708607
_cell_length_c 19.170214
_cell_angle_alpha 132.969471
_cell_angle_beta 76.442572
_cell_angle_gamma 81.417706
_cell_volume 613.878095
_symmetry_space_group_name_H-M "P -1"
_symmetry_group_IT_number 2
_symmetry_cell_setting 'triclinic'
loop_
_space_group_symop_operation_xyz
x,y,z
-x,-y,-z
loop_
_atom_site_type_symbol
_atom_site_label
_atom_site_fract_x
_atom_site_fract_y
_atom_site_fract_z
Si Si1 0.217782 0.575778 0.195093
Si Si2 0.201920 0.009222 0.553589
Si Si3 0.334758 0.748424 0.586320
Si Si4 0.148724 0.539063 0.935089
Si Si5 0.683060 0.736821 0.796999
Si Si6 0.819205 0.696027 0.626920
Si Si7 0.974824 0.002790 0.083979
O O1 0.493625 0.600204 0.148037
O O2 0.351977 0.406738 0.190324
O O3 0.035882 0.492313 0.127711
O O4 0.983189 0.792005 0.317515
O O5 0.321683 0.806608 0.525978
O O6 0.500000 0.000000 0.500000
O O7 0.000000 0.000000 0.500000
O O8 0.500000 0.500000 0.500000
O O9 0.505798 0.840681 0.658738
O O10 0.998523 0.838157 0.667456
O O11 0.127055 0.770237 0.023976
O O12 0.000000 0.500000 0.000000
O O13 0.817599 0.604252 0.672380
O O14 0.873602 0.857407 0.848079
O O15 0.370185 0.902657 0.844444
O O16 0.000000 0.500000 0.500000
O O17 0.000000 0.000000 0.000000
#
# Coordination Sequence:
#
# PCOD8023356 Si02
#       7
#     2   2   2   2   2   2   2
#     4  12  26  46  73 107 144 191 249 288 374 444
#     4  12  28  46  74 106 151 198 240 295 365 437
#     4  10  23  42  66  95 140 180 240 285 346 410
#     4  12  27  48  74 104 148 185 233 317 372 428
#     4  12  24  41  76 106 139 191 242 299 356 436
#     4  10  23  41  66 101 141 179 234 291 354 410
#     4  12  23  45  71 106 139 180 246 299 364 429
#
# _framework density 22.805828999999999
#
# number of rings (size 3 to 8) (size 9 to 14) (size 15 to 20)
#    0.000    0.571    2.857    4.286    8.000    3.429 
#    0.000    0.000    0.000    0.000    0.000    0.000 
#    0.000    0.000    0.000    0.000    0.000    0.000 
#
# Total GULP energy -173467.090951 kJ/mol
# GULP energy per Si atom -12390.506497 kJ/mol
# Density = 2.275392 g / cm^3
# Si number density = 22.805829 Si / 1000 Ang^3
#
#
#
# Elastic Constant Matrix: (Units=GPa)
#
#
# Indices 1 2 3 4 5 6 
#
# 1 211.4310 41.5744 47.4606 -17.6595 -13.1361 0.4087
# 2 41.5744 139.4781 48.4752 -20.6830 -3.9702 1.7165
# 3 47.4606 48.4752 131.4569 -17.2615 -7.9529 3.2795
# 4 -17.6595 -20.6830 -17.2615 44.6789 -3.9826 -1.2760
# 5 -13.1361 -3.9702 -7.9529 -3.9826 44.0903 -15.9963
# 6 0.4087 1.7165 3.2795 -1.2760 -15.9963 39.7188
#
#
#
# Elastic Compliance Matrix: (Units=1/GPa)
#
#
# Indices 1 2 3 4 5 6 
#
# 1 0.005434 -0.000902 -0.001365 0.001380 0.001718 0.000832
# 2 -0.000902 0.008728 -0.002514 0.002744 0.000334 0.000062
# 3 -0.001365 -0.002514 0.009367 0.002020 0.001202 -0.000102
# 4 0.001380 0.002744 0.002020 0.025406 0.004105 0.002170
# 5 0.001718 0.000334 0.001202 0.004105 0.027885 0.011231
# 6 0.000832 0.000062 -0.000102 0.002170 0.011231 0.029767
#
#
# Mechanical properties :
#
#
# Convention : Reuss Voigt Hill
#
# Bulk Modulus (GPa) = 71.59381 84.15404 77.87393
# Shear Modulus (GPa) = 41.38945 48.68799 45.03872
#
# Velocity S-wave (km/s) = 4.26474 4.62550 4.44878
# Velocity P-wave (km/s) = 7.46402 8.09366 7.78521
#
# Compressibility (1/GPa) = 0.01396769
#
# Stress axis : x y z
#
# Youngs Moduli (GPa) = 184.03391 114.57668 106.75462
#
# Poissons Ratio (x) = 0.10335 0.14570
# Poissons Ratio (y) = 0.16601 0.26835
# Poissons Ratio (z) = 0.25117 0.28801
#
# Static dielectric constant tensor:
#      x y z
#    x 3.610380 0.109920 -0.276250 
#    y 0.109920 4.044270 -0.340780 
#    z -0.276250 -0.340780 4.074510 
# 
# 
# High freq. dielectric constant tensor:
#      x y z
#    x 1.935960 -0.000840 -0.005360 
#    y -0.000840 1.891990 -0.021230 
#    z -0.005360 -0.021230 1.901230 
# 
# From -- ./inp_files/547447.got.cif
#   From: 2010.06.25/outbox.cif.g09.slc.cpg/sg2_274_cif.got.tgz:547447.got - 2010.06.27 13:26:56.
