data_PCOD8023401
_publ_section_title
;
Structure prediction by ZEFSAII (Michael W. Deem and Ramdas Pophale) SiO2 
 PCOD8023401
Probable space group: P -1
;
_chemical_formula_sum "Si O2"
_cell_formula_units_Z 16
_cell_length_a 13.186382
_cell_length_b 11.912801
_cell_length_c 13.338164
_cell_angle_alpha 55.431053
_cell_angle_beta 31.236561
_cell_angle_gamma 75.680932
_cell_volume 743.098254
_symmetry_space_group_name_H-M "P -1"
_symmetry_group_IT_number 2
_symmetry_cell_setting 'triclinic'
loop_
_space_group_symop_operation_xyz
x,y,z
-x,-y,-z
loop_
_atom_site_type_symbol
_atom_site_label
_atom_site_fract_x
_atom_site_fract_y
_atom_site_fract_z
Si Si1 0.372064 0.346834 0.762710
Si Si2 0.951363 0.028673 0.812156
Si Si3 0.203707 0.589967 0.504787
Si Si4 0.584919 0.917770 0.679745
Si Si5 0.359291 0.880931 0.090123
Si Si6 0.921304 0.232326 0.897410
Si Si7 0.864763 0.503768 0.015434
Si Si8 0.688779 0.160894 0.318104
O O1 0.500000 0.500000 0.500000
O O2 0.552650 0.327975 0.683543
O O3 0.229972 0.382902 0.943440
O O4 0.191798 0.168789 0.955163
O O5 0.824667 0.083364 0.816764
O O6 0.960147 0.102405 0.877122
O O7 0.219337 0.116547 0.501498
O O8 0.218359 0.697268 0.344420
O O9 0.130034 0.418458 0.602041
O O10 0.015743 0.571648 0.752897
O O11 0.692978 0.105903 0.455896
O O12 0.552793 0.908694 0.830673
O O13 0.328551 0.793865 0.909276
O O14 0.500000 0.000000 0.000000
O O15 0.925325 0.219479 0.023001
O O16 0.652738 0.310433 0.276387
O O17 0.000000 0.500000 0.000000
O O18 0.500000 0.000000 0.500000
#
# Coordination Sequence:
#
# PCOD8023401 Si02
#       8
#     2   2   2   2   2   2   2   2
#     4  12  26  39  66 102 135 172 220 273 334 395
#     4  11  25  43  69  99 132 179 220 272 331 397
#     4  11  25  46  65 100 131 176 224 272 334 385
#     4  10  23  41  66  97 129 176 226 262 332 388
#     4  11  25  44  68  92 138 177 221 276 321 396
#     4   9  23  44  67  97 134 176 215 278 333 393
#     4  11  23  39  63  92 133 169 207 275 326 382
#     4   9  20  38  64  91 130 170 209 260 328 390
#
# _framework density 21.531475
#
# number of rings (size 3 to 8) (size 9 to 14) (size 15 to 20)
#    0.000    1.500    2.500    0.750   10.500    7.000 
#    0.000    1.250    0.000    0.000    0.000    0.000 
#    0.000    0.000    0.000    0.000    0.000    0.000 
#
# Total GULP energy -198252.006888 kJ/mol
# GULP energy per Si atom -12390.750431 kJ/mol
# Density = 2.148247 g / cm^3
# Si number density = 21.531475 Si / 1000 Ang^3
#
#
#
# Elastic Constant Matrix: (Units=GPa)
#
#
# Indices 1 2 3 4 5 6 
#
# 1 56.1756 16.4663 36.6079 0.0727 25.1824 4.4401
# 2 16.4663 136.5227 63.6304 -7.5414 10.9819 14.8644
# 3 36.6079 63.6304 121.6934 -6.2083 21.9071 6.8377
# 4 0.0727 -7.5414 -6.2083 44.5709 -3.0591 -5.3522
# 5 25.1824 10.9819 21.9071 -3.0591 47.3895 1.9580
# 6 4.4401 14.8644 6.8377 -5.3522 1.9580 37.6313
#
#
#
# Elastic Compliance Matrix: (Units=1/GPa)
#
#
# Indices 1 2 3 4 5 6 
#
# 1 0.027179 0.000792 -0.006471 -0.001853 -0.011672 -0.002000
# 2 0.000792 0.010059 -0.005271 0.000594 -0.000153 -0.003017
# 3 -0.006471 -0.005271 0.013183 0.000938 -0.001401 0.000656
# 4 -0.001853 0.000594 0.000938 0.023155 0.001784 0.003014
# 5 -0.011672 -0.000153 -0.001401 0.001784 0.028082 0.000484
# 6 -0.002000 -0.003017 0.000656 0.003014 0.000484 0.028286
#
#
# Mechanical properties :
#
#
# Convention : Reuss Voigt Hill
#
# Bulk Modulus (GPa) = 35.06093 60.86675 47.96384
# Shear Modulus (GPa) = 30.98844 39.09746 35.04295
#
# Velocity S-wave (km/s) = 3.79782 4.26588 4.03863
# Velocity P-wave (km/s) = 5.96239 7.25215 6.63867
#
# Compressibility (1/GPa) = 0.02852178
#
# Stress axis : x y z
#
# Youngs Moduli (GPa) = 36.79332 99.40926 75.85419
#
# Poissons Ratio (x) = -0.07876 0.49087
# Poissons Ratio (y) = -0.02915 0.39982
# Poissons Ratio (z) = 0.23810 0.52398
#
# Static dielectric constant tensor:
#      x y z
#    x 6.942830 0.422750 2.642410 
#    y 0.422750 4.223750 0.126220 
#    z 2.642410 0.126220 6.380760 
# 
# 
# High freq. dielectric constant tensor:
#      x y z
#    x 1.835060 0.015590 0.002910 
#    y 0.015590 1.847380 -0.005350 
#    z 0.002910 -0.005350 1.853030 
# 
# From -- ./inp_files/531709.got.cif
#   From: 2010.06.25/outbox.cif.g09.slc.cpg/sg2_266_cif.got.tgz:531709.got - 2010.06.27 13:26:56.
