data_PCOD8023428
_publ_section_title
;
Structure prediction by ZEFSAII (Michael W. Deem and Ramdas Pophale) SiO2 
 PCOD8023428
Probable space group: P -1
;
_chemical_formula_sum "Si O2"
_cell_formula_units_Z 10
_cell_length_a 9.156387
_cell_length_b 12.102933
_cell_length_c 6.398438
_cell_angle_alpha 117.246030
_cell_angle_beta 130.688230
_cell_angle_gamma 61.177001
_cell_volume 459.933318
_symmetry_space_group_name_H-M "P -1"
_symmetry_group_IT_number 2
_symmetry_cell_setting 'triclinic'
loop_
_space_group_symop_operation_xyz
x,y,z
-x,-y,-z
loop_
_atom_site_type_symbol
_atom_site_label
_atom_site_fract_x
_atom_site_fract_y
_atom_site_fract_z
Si Si1 0.417414 0.199516 0.759617
Si Si2 0.270868 0.842289 0.653988
Si Si3 0.578460 0.338577 0.708086
Si Si4 0.093227 0.055700 0.330864
Si Si5 0.227367 0.475553 0.741476
O O1 0.565354 0.209354 0.712670
O O2 0.261511 0.122880 0.469487
O O3 0.298979 0.347023 0.841976
O O4 0.550531 0.128079 0.016290
O O5 0.361764 0.702150 0.509334
O O6 0.085699 0.838312 0.627722
O O7 0.195635 0.947201 0.497349
O O8 0.364247 0.447559 0.631553
O O9 0.750244 0.396715 0.012571
O O10 0.000000 0.000000 0.000000
O O11 0.000000 0.500000 0.500000
#
# Coordination Sequence:
#
# PCOD8023428 Si02
#       5
#     2   2   2   2   2
#     4  10  23  41  67  89 129 169 204 262 314 362
#     4  11  24  41  64  96 129 159 219 254 313 373
#     4   9  22  41  66  92 127 164 207 258 314 369
#     4  11  26  42  65  93 128 170 209 259 313 376
#     4   9  21  41  67  91 126 166 207 254 318 371
#
# _framework density 21.742281999999999
#
# number of rings (size 3 to 8) (size 9 to 14) (size 15 to 20)
#    1.200    0.800    0.000    1.800    5.600    8.800 
#    0.000    2.000    0.000    0.000    0.000    0.000 
#    0.000    0.000    0.000    0.000    0.000    0.000 
#
# Total GULP energy -123889.566574 kJ/mol
# GULP energy per Si atom -12388.956657 kJ/mol
# Density = 2.169280 g / cm^3
# Si number density = 21.742282 Si / 1000 Ang^3
#
#
#
# Elastic Constant Matrix: (Units=GPa)
#
#
# Indices 1 2 3 4 5 6 
#
# 1 108.4785 32.0287 86.0201 14.7926 11.5908 -14.3827
# 2 32.0287 42.0301 49.3232 1.3210 6.7493 5.8512
# 3 86.0201 49.3232 169.5105 9.9234 25.2301 -1.6903
# 4 14.7926 1.3210 9.9234 44.5970 -1.0808 3.6516
# 5 11.5908 6.7493 25.2301 -1.0808 44.3248 10.5838
# 6 -14.3827 5.8512 -1.6903 3.6516 10.5838 40.6088
#
#
#
# Elastic Compliance Matrix: (Units=1/GPa)
#
#
# Indices 1 2 3 4 5 6 
#
# 1 0.018668 -0.006976 -0.006742 -0.005220 -0.002104 0.008354
# 2 -0.006976 0.040458 -0.009054 0.004019 0.003277 -0.009893
# 3 -0.006742 -0.009054 0.012610 -0.000450 -0.004184 0.000573
# 4 -0.005220 0.004019 -0.000450 0.024650 0.002904 -0.005420
# 5 -0.002104 0.003277 -0.004184 0.002904 0.027148 -0.008728
# 6 0.008354 -0.009893 0.000573 -0.005420 -0.008728 0.031796
#
#
# Mechanical properties :
#
#
# Convention : Reuss Voigt Hill
#
# Bulk Modulus (GPa) = 38.17785 72.75146 55.46465
# Shear Modulus (GPa) = 23.85461 36.08260 29.96860
#
# Velocity S-wave (km/s) = 3.31592 4.07819 3.71665
# Velocity P-wave (km/s) = 5.67960 7.46384 6.63200
#
# Compressibility (1/GPa) = 0.02619320
#
# Stress axis : x y z
#
# Youngs Moduli (GPa) = 53.56708 24.71702 79.30413
#
# Poissons Ratio (x) = 0.17242 0.53463
# Poissons Ratio (y) = 0.37366 0.71803
# Poissons Ratio (z) = 0.36112 0.22379
#
# Static dielectric constant tensor:
#      x y z
#    x 4.076100 -0.268840 0.048440 
#    y -0.268840 3.966920 0.108300 
#    z 0.048440 0.108300 3.725140 
# 
# 
# High freq. dielectric constant tensor:
#      x y z
#    x 1.852390 -0.015860 0.013570 
#    y -0.015860 1.845920 0.003760 
#    z 0.013570 0.003760 1.846360 
# 
# From -- ./inp_files/2516.got.cif
#   From: 2010.06.25/outbox.cif.g09.slc.cpg/sg2_2_cif.got.tgz:2516.got - 2010.06.27 13:26:56.
