data_PCOD8023980
_publ_section_title
;
Structure prediction by ZEFSAII (Michael W. Deem and Ramdas Pophale) SiO2 
 PCOD8023980
Probable space group: P -1
;
_chemical_formula_sum "Si O2"
_cell_formula_units_Z 16
_cell_length_a 5.387685
_cell_length_b 8.919488
_cell_length_c 19.683030
_cell_angle_alpha 50.453550
_cell_angle_beta 64.984350
_cell_angle_gamma 78.875952
_cell_volume 656.999503
_symmetry_space_group_name_H-M "P -1"
_symmetry_group_IT_number 2
_symmetry_cell_setting 'triclinic'
loop_
_space_group_symop_operation_xyz
x,y,z
-x,-y,-z
loop_
_atom_site_type_symbol
_atom_site_label
_atom_site_fract_x
_atom_site_fract_y
_atom_site_fract_z
Si Si1 0.431506 0.945359 0.834616
Si Si2 0.386616 0.803873 0.032863
Si Si3 0.904046 0.700640 0.214421
Si Si4 0.305806 0.095588 0.583103
Si Si5 0.909905 0.261113 0.674862
Si Si6 0.675095 0.469649 0.056027
Si Si7 0.393491 0.405332 0.369653
Si Si8 0.833713 0.900503 0.608828
O O1 0.393448 0.755244 0.843861
O O2 0.215700 0.100373 0.805062
O O3 0.734140 0.049996 0.755029
O O4 0.375991 0.852813 0.941493
O O5 0.582418 0.630204 0.073707
O O6 0.083436 0.732016 0.116681
O O7 0.500000 0.000000 0.000000
O O8 0.681583 0.516696 0.279412
O O9 0.078511 0.660802 0.271645
O O10 0.433372 0.218991 0.467402
O O11 0.194909 0.244236 0.608014
O O12 0.545496 0.997423 0.622753
O O13 0.041377 0.938430 0.638320
O O14 0.762325 0.443623 0.609639
O O15 0.500000 0.500000 0.000000
O O16 0.000000 0.500000 0.000000
O O17 0.240455 0.325390 0.340324
O O18 0.000000 0.000000 0.500000
#
# Coordination Sequence:
#
# PCOD8023980 Si02
#       8
#     2   2   2   2   2   2   2   2
#     4  10  23  44  64  94 137 172 225 277 331 402
#     4  11  21  43  71  96 130 179 220 276 339 393
#     4  11  24  40  69  99 136 175 230 279 339 397
#     4  11  25  44  72  97 136 186 221 276 348 399
#     4  11  25  42  65 101 135 180 224 279 334 404
#     4  10  23  42  68  97 127 172 219 271 330 396
#     4  10  24  43  67  98 137 173 229 284 330 407
#     4  10  23  45  71  99 133 180 228 280 339 403
#
# _framework density 24.35314
#
# number of rings (size 3 to 8) (size 9 to 14) (size 15 to 20)
#    0.000    1.500    1.250    3.000   10.500    2.500 
#    0.000    0.000    0.000    0.000    0.000    0.000 
#    0.000    0.000    0.000    0.000    0.000    0.000 
#
# Total GULP energy -198239.647669 kJ/mol
# GULP energy per Si atom -12389.977979 kJ/mol
# Density = 2.429771 g / cm^3
# Si number density = 24.353140 Si / 1000 Ang^3
#
#
#
# Elastic Constant Matrix: (Units=GPa)
#
#
# Indices 1 2 3 4 5 6 
#
# 1 109.9353 31.4086 23.9530 -15.5561 -30.2949 -9.2389
# 2 31.4086 141.6268 45.4606 -33.5147 -26.9203 -12.1006
# 3 23.9530 45.4606 78.5340 -23.0816 -22.4351 -7.0478
# 4 -15.5561 -33.5147 -23.0816 46.8125 7.3576 -13.0689
# 5 -30.2949 -26.9203 -22.4351 7.3576 36.0390 5.8823
# 6 -9.2389 -12.1006 -7.0478 -13.0689 5.8823 30.0950
#
#
#
# Elastic Compliance Matrix: (Units=1/GPa)
#
#
# Indices 1 2 3 4 5 6 
#
# 1 0.012448 0.000216 0.000290 0.004059 0.009339 0.003914
# 2 0.000216 0.011016 -0.002273 0.008008 0.004283 0.006604
# 3 0.000290 -0.002273 0.019146 0.008273 0.007842 0.005719
# 4 0.004059 0.008008 0.008273 0.038307 0.003061 0.022440
# 5 0.009339 0.004283 0.007842 0.003061 0.043165 -0.000682
# 6 0.003914 0.006604 0.005719 0.022440 -0.000682 0.048302
#
#
# Mechanical properties :
#
#
# Convention : Reuss Voigt Hill
#
# Bulk Modulus (GPa) = 25.59060 59.08228 42.33644
# Shear Modulus (GPa) = 26.46313 37.87424 32.16869
#
# Velocity S-wave (km/s) = 3.30000 3.94789 3.63840
# Velocity P-wave (km/s) = 5.00509 6.71524 5.92222
#
# Compressibility (1/GPa) = 0.03907685
#
# Stress axis : x y z
#
# Youngs Moduli (GPa) = 80.33411 90.77881 52.23147
#
# Poissons Ratio (x) = -0.01964 -0.01516
# Poissons Ratio (y) = -0.01738 0.11871
# Poissons Ratio (z) = -0.02332 0.20633
#
# Static dielectric constant tensor:
#      x y z
#    x 4.604840 0.331810 -0.336800 
#    y 0.331810 5.792140 -0.530980 
#    z -0.336800 -0.530980 3.876610 
# 
# 
# High freq. dielectric constant tensor:
#      x y z
#    x 1.959360 -0.011320 -0.013550 
#    y -0.011320 1.988540 -0.016100 
#    z -0.013550 -0.016100 1.954810 
# 
# From -- ./inp_files/51652.got.cif
#   From: 2010.06.25/outbox.cif.g09.slc.cpg/sg2_26_cif.got.tgz:51652.got - 2010.06.27 13:26:56.
