data_PCOD8023358
_publ_section_title
;
Structure prediction by ZEFSAII (Michael W. Deem and Ramdas Pophale) SiO2 
 PCOD8023358
Probable space group: P -1
;
_chemical_formula_sum "Si O2"
_cell_formula_units_Z 16
_cell_length_a 17.075609
_cell_length_b 8.400807
_cell_length_c 10.732725
_cell_angle_alpha 120.366127
_cell_angle_beta 115.283208
_cell_angle_gamma 32.111569
_cell_volume 706.126724
_symmetry_space_group_name_H-M "P -1"
_symmetry_group_IT_number 2
_symmetry_cell_setting 'triclinic'
loop_
_space_group_symop_operation_xyz
x,y,z
-x,-y,-z
loop_
_atom_site_type_symbol
_atom_site_label
_atom_site_fract_x
_atom_site_fract_y
_atom_site_fract_z
Si Si1 0.363037 0.273101 0.871968
Si Si2 0.346621 0.166123 0.259577
Si Si3 0.985359 0.679771 0.455386
Si Si4 0.039129 0.578244 0.164819
Si Si5 0.469837 0.345881 0.169156
Si Si6 0.543998 0.603187 0.325460
Si Si7 0.839990 0.278197 0.301772
Si Si8 0.676867 0.378624 0.568538
O O1 0.214745 0.542295 0.796625
O O2 0.510558 0.084791 0.828987
O O3 0.388896 0.019750 0.836946
O O4 0.352973 0.432340 0.042385
O O5 0.214638 0.287910 0.150771
O O6 0.286400 0.470587 0.368312
O O7 0.400234 0.974861 0.347673
O O8 0.000000 0.500000 0.500000
O O9 0.013294 0.560053 0.284963
O O10 0.090422 0.675333 0.552024
O O11 0.816639 0.024669 0.481315
O O12 0.958766 0.911913 0.215379
O O13 0.000000 0.500000 0.000000
O O14 0.530246 0.427994 0.176309
O O15 0.369238 0.586535 0.309832
O O16 0.697403 0.438705 0.334311
O O17 0.542194 0.563283 0.456378
#
# Coordination Sequence:
#
# PCOD8023358 Si02
#       8
#     2   2   2   2   2   2   2   2
#     4   9  23  43  68 100 141 179 228 289 353 412
#     4  10  23  42  67  98 136 180 234 286 344 412
#     4  12  28  48  72 102 146 188 235 291 355 425
#     4  12  27  46  72 105 144 186 237 290 354 420
#     4  10  23  41  66 102 142 176 226 291 354 412
#     4  11  23  39  73  97 133 175 238 285 341 408
#     4  11  24  47  74  99 137 187 237 289 347 418
#     4  11  22  44  64 100 134 186 226 290 343 423
#
# _framework density 22.658823999999999
#
# number of rings (size 3 to 8) (size 9 to 14) (size 15 to 20)
#    0.000    1.250    2.500    1.875    7.000    3.000 
#    4.500    1.250    0.000    0.000    0.000    0.000 
#    0.000    0.000    0.000    0.000    0.000    0.000 
#
# Total GULP energy -198297.083897 kJ/mol
# GULP energy per Si atom -12393.567744 kJ/mol
# Density = 2.260725 g / cm^3
# Si number density = 22.658824 Si / 1000 Ang^3
#
#
#
# Elastic Constant Matrix: (Units=GPa)
#
#
# Indices 1 2 3 4 5 6 
#
# 1 71.6676 33.1225 44.7581 5.6774 15.5004 17.6299
# 2 33.1225 113.9604 45.7753 -19.2612 -1.5760 6.5338
# 3 44.7581 45.7753 137.5879 -8.2963 4.5058 0.4918
# 4 5.6774 -19.2612 -8.2963 32.4740 2.6409 -1.6388
# 5 15.5004 -1.5760 4.5058 2.6409 30.9455 -6.3320
# 6 17.6299 6.5338 0.4918 -1.6388 -6.3320 32.8378
#
#
#
# Elastic Compliance Matrix: (Units=1/GPa)
#
#
# Indices 1 2 3 4 5 6 
#
# 1 0.031964 -0.007099 -0.008053 -0.011366 -0.018264 -0.019717
# 2 -0.007099 0.012779 -0.001596 0.008194 0.004256 0.002522
# 3 -0.008053 -0.001596 0.010484 0.003142 0.003235 0.005265
# 4 -0.011366 0.008194 0.003142 0.038491 0.003817 0.007082
# 5 -0.018264 0.004256 0.003235 0.003817 0.044501 0.017682
# 6 -0.019717 0.002522 0.005265 0.007082 0.017682 0.044221
#
#
# Mechanical properties :
#
#
# Convention : Reuss Voigt Hill
#
# Bulk Modulus (GPa) = 46.01973 63.39195 54.70584
# Shear Modulus (GPa) = 22.40350 32.55546 27.47948
#
# Velocity S-wave (km/s) = 3.14782 3.79458 3.48623
# Velocity P-wave (km/s) = 5.79359 6.87284 6.35616
#
# Compressibility (1/GPa) = 0.02172981
#
# Stress axis : x y z
#
# Youngs Moduli (GPa) = 31.28474 78.25546 95.38666
#
# Poissons Ratio (x) = 0.55552 0.76816
# Poissons Ratio (y) = 0.22209 0.15228
# Poissons Ratio (z) = 0.25194 0.12493
#
# Static dielectric constant tensor:
#      x y z
#    x 4.629330 0.621240 0.187270 
#    y 0.621240 4.432220 -0.170240 
#    z 0.187270 -0.170240 4.325550 
# 
# 
# High freq. dielectric constant tensor:
#      x y z
#    x 1.888020 0.014420 0.005820 
#    y 0.014420 1.899540 -0.010980 
#    z 0.005820 -0.010980 1.900770 
# 
# From -- ./inp_files/209233.got.cif
#   From: 2010.06.25/outbox.cif.g09.slc.cpg/sg2_105_cif.got.tgz:209233.got - 2010.06.27 13:26:56.
