data_PCOD8023653
_publ_section_title
;
Structure prediction by ZEFSAII (Michael W. Deem and Ramdas Pophale) SiO2 
 PCOD8023653
Probable space group: P -1
;
_chemical_formula_sum "Si O2"
_cell_formula_units_Z 16
_cell_length_a 22.562409
_cell_length_b 12.246481
_cell_length_c 8.689481
_cell_angle_alpha 62.207590
_cell_angle_beta 147.649339
_cell_angle_gamma 132.218474
_cell_volume 919.813386
_symmetry_space_group_name_H-M "P -1"
_symmetry_group_IT_number 2
_symmetry_cell_setting 'triclinic'
loop_
_space_group_symop_operation_xyz
x,y,z
-x,-y,-z
loop_
_atom_site_type_symbol
_atom_site_label
_atom_site_fract_x
_atom_site_fract_y
_atom_site_fract_z
Si Si1 0.310876 0.385216 0.802873
Si Si2 0.202622 0.715094 0.369007
Si Si3 0.527186 0.057738 0.347613
Si Si4 0.501786 0.311540 0.162595
Si Si5 0.908758 0.600896 0.815619
Si Si6 0.653315 0.244629 0.029478
Si Si7 0.253431 0.543754 0.158673
Si Si8 0.369289 0.495440 0.181840
O O1 0.429917 0.560157 0.903497
O O2 0.167238 0.320816 0.445317
O O3 0.361631 0.282058 0.935345
O O4 0.287714 0.380301 0.937768
O O5 0.309654 0.831756 0.399303
O O6 0.155440 0.545281 0.339745
O O7 0.264793 0.760155 0.646279
O O8 0.070943 0.719066 0.070553
O O9 0.464233 0.152721 0.116967
O O10 0.500000 0.000000 0.500000
O O11 0.463150 0.925848 0.167257
O O12 0.607720 0.359994 0.501358
O O13 0.879884 0.550859 0.964679
O O14 0.754341 0.337830 0.043115
O O15 0.586097 0.333008 0.871171
O O16 0.268428 0.433753 0.150724
O O17 0.500000 0.500000 0.500000
#
# Coordination Sequence:
#
# PCOD8023653 Si02
#       8
#     2   2   2   2   2   2   2   2
#     4  10  17  32  53  77 107 131 179 220 264 309
#     4  11  21  33  53  77 105 146 174 217 267 314
#     4  12  20  36  53  79 112 137 178 213 272 318
#     4  10  18  30  53  80 101 138 172 218 264 309
#     4  10  19  35  52  75 110 138 181 214 262 325
#     4  10  20  32  51  80 109 137 171 222 264 314
#     4   9  17  31  48  82 102 134 169 218 268 304
#     4  10  17  29  49  82 109 129 166 224 275 300
#
# _framework density 17.394832999999998
#
# number of rings (size 3 to 8) (size 9 to 14) (size 15 to 20)
#    0.750    1.000    6.250    0.375    0.000    0.500 
#    0.000    1.250    0.000    1.500    0.000    0.000 
#    0.000    0.000    0.000    0.000    0.000    0.000 
#
# Total GULP energy -198273.377896 kJ/mol
# GULP energy per Si atom -12392.086118 kJ/mol
# Density = 1.735524 g / cm^3
# Si number density = 17.394833 Si / 1000 Ang^3
#
#
#
# Elastic Constant Matrix: (Units=GPa)
#
#
# Indices 1 2 3 4 5 6 
#
# 1 99.0357 27.0337 50.2527 4.1858 10.3932 1.1349
# 2 27.0337 55.4669 32.0673 -0.3632 15.4561 -5.9788
# 3 50.2527 32.0673 90.7044 2.3139 11.7371 4.1658
# 4 4.1858 -0.3632 2.3139 18.0207 -2.7266 0.8307
# 5 10.3932 15.4561 11.7371 -2.7266 33.4708 -6.7649
# 6 1.1349 -5.9788 4.1658 0.8307 -6.7649 26.4742
#
#
#
# Elastic Compliance Matrix: (Units=1/GPa)
#
#
# Indices 1 2 3 4 5 6 
#
# 1 0.014591 -0.002926 -0.006820 -0.002719 -0.001092 -0.000407
# 2 -0.002926 0.026119 -0.006877 0.000695 -0.007648 0.005130
# 3 -0.006820 -0.006877 0.017711 -0.000909 -0.001902 -0.004505
# 4 -0.002719 0.000695 -0.000909 0.057084 0.005498 0.000030
# 5 -0.001092 -0.007648 -0.001902 0.005498 0.036430 0.007755
# 6 -0.000407 0.005130 -0.004505 0.000030 0.007755 0.041638
#
#
# Mechanical properties :
#
#
# Convention : Reuss Voigt Hill
#
# Bulk Modulus (GPa) = 39.72151 51.54605 45.63378
# Shear Modulus (GPa) = 21.25762 24.65004 22.95383
#
# Velocity S-wave (km/s) = 3.49960 3.76851 3.63654
# Velocity P-wave (km/s) = 6.26214 6.97373 6.62749
#
# Compressibility (1/GPa) = 0.02517527
#
# Stress axis : x y z
#
# Youngs Moduli (GPa) = 68.53644 38.28612 56.46329
#
# Poissons Ratio (x) = 0.11202 0.38508
# Poissons Ratio (y) = 0.20053 0.38828
# Poissons Ratio (z) = 0.46742 0.26328
#
# Static dielectric constant tensor:
#      x y z
#    x 3.506030 -0.113880 -0.062710 
#    y -0.113880 3.000540 -0.203750 
#    z -0.062710 -0.203750 3.173980 
# 
# 
# High freq. dielectric constant tensor:
#      x y z
#    x 1.687880 -0.012500 -0.013750 
#    y -0.012500 1.626430 -0.019180 
#    z -0.013750 -0.019180 1.657770 
# 
# From -- ./inp_files/353007.got.cif
#   From: 2010.06.25/outbox.cif.g09.slc.cpg/sg2_177_cif.got.tgz:353007.got - 2010.06.27 13:26:56.
