data_PCOD8023873
_publ_section_title
;
Structure prediction by ZEFSAII (Michael W. Deem and Ramdas Pophale) SiO2 
 PCOD8023873
Probable space group: P -1
;
_chemical_formula_sum "Si O2"
_cell_formula_units_Z 14
_cell_length_a 8.300772
_cell_length_b 15.177039
_cell_length_c 14.740268
_cell_angle_alpha 150.940639
_cell_angle_beta 124.444598
_cell_angle_gamma 74.190581
_cell_volume 619.176415
_symmetry_space_group_name_H-M "P -1"
_symmetry_group_IT_number 2
_symmetry_cell_setting 'triclinic'
loop_
_space_group_symop_operation_xyz
x,y,z
-x,-y,-z
loop_
_atom_site_type_symbol
_atom_site_label
_atom_site_fract_x
_atom_site_fract_y
_atom_site_fract_z
Si Si1 0.388961 0.506620 0.378705
Si Si2 0.991490 0.463250 0.772879
Si Si3 0.800092 0.904570 0.775490
Si Si4 0.194634 0.892824 0.327503
Si Si5 0.321543 0.291597 0.980226
Si Si6 0.739569 0.709778 0.402929
Si Si7 0.422531 0.955080 0.639024
O O1 0.500000 0.500000 0.500000
O O2 0.143544 0.485008 0.300147
O O3 0.567204 0.737870 0.603081
O O4 0.345753 0.326899 0.128847
O O5 0.786988 0.290628 0.620768
O O6 0.129083 0.369311 0.687127
O O7 0.171599 0.690275 0.084725
O O8 0.876240 0.808890 0.631918
O O9 0.696910 0.037351 0.817273
O O10 0.000000 0.000000 0.000000
O O11 0.397614 0.973624 0.539779
O O12 0.947912 0.811916 0.226051
O O13 0.275567 0.106110 0.485689
O O14 0.395552 0.125536 0.838437
O O15 0.477456 0.508614 0.164261
#
# Coordination Sequence:
#
# PCOD8023873 Si02
#       7
#     2   2   2   2   2   2   2
#     4   9  21  41  67  93 134 178 224 277 334 393
#     4  10  23  42  69 101 134 180 226 271 339 400
#     4  10  25  43  65  97 137 167 228 287 320 398
#     4  11  24  46  70  95 146 176 218 279 329 408
#     4  10  23  42  67 103 138 171 225 278 328 407
#     4  11  25  44  67 107 132 178 227 268 342 394
#     4  11  23  46  68  99 135 186 219 271 347 389
#
# _framework density 22.610679000000001
#
# number of rings (size 3 to 8) (size 9 to 14) (size 15 to 20)
#    0.000    1.714    1.429    1.714    6.000    2.286 
#    0.000    5.714    0.000    0.000    0.000    0.000 
#    0.000    0.000    0.000    0.000    0.000    0.000 
#
# Total GULP energy -173442.364694 kJ/mol
# GULP energy per Si atom -12388.740335 kJ/mol
# Density = 2.255922 g / cm^3
# Si number density = 22.610679 Si / 1000 Ang^3
#
#
#
# Elastic Constant Matrix: (Units=GPa)
#
#
# Indices 1 2 3 4 5 6 
#
# 1 106.3625 44.0641 50.0662 -0.6720 -13.1898 -18.8916
# 2 44.0641 135.9004 68.9048 -21.0567 -7.4336 -7.5430
# 3 50.0662 68.9048 112.6368 -7.5126 -10.2224 -18.4059
# 4 -0.6720 -21.0567 -7.5126 46.3300 -1.9571 4.5093
# 5 -13.1898 -7.4336 -10.2224 -1.9571 37.8014 6.9663
# 6 -18.8916 -7.5430 -18.4059 4.5093 6.9663 33.3485
#
#
#
# Elastic Compliance Matrix: (Units=1/GPa)
#
#
# Indices 1 2 3 4 5 6 
#
# 1 0.013156 -0.002367 -0.003546 -0.001830 0.002196 0.004749
# 2 -0.002367 0.011949 -0.006368 0.004671 0.000579 -0.002906
# 3 -0.003546 -0.006368 0.015148 -0.000939 0.000655 0.004901
# 4 -0.001830 0.004671 -0.000939 0.024021 0.002039 -0.004172
# 5 0.002196 0.000579 0.000655 0.002039 0.028443 -0.004481
# 6 0.004749 -0.002906 0.004901 -0.004172 -0.004481 0.036225
#
#
# Mechanical properties :
#
#
# Convention : Reuss Voigt Hill
#
# Bulk Modulus (GPa) = 63.73843 75.66333 69.70088
# Shear Modulus (GPa) = 31.49935 36.28694 33.89314
#
# Velocity S-wave (km/s) = 3.73650 4.01041 3.87588
# Velocity P-wave (km/s) = 6.84587 7.41490 7.13606
#
# Compressibility (1/GPa) = 0.01568912
#
# Stress axis : x y z
#
# Youngs Moduli (GPa) = 76.01050 83.69031 66.01665
#
# Poissons Ratio (x) = 0.19813 0.23411
# Poissons Ratio (y) = 0.17995 0.42040
# Poissons Ratio (z) = 0.26955 0.53294
#
# Static dielectric constant tensor:
#      x y z
#    x 4.228470 0.113170 0.082220 
#    y 0.113170 3.719770 0.281280 
#    z 0.082220 0.281280 4.233020 
# 
# 
# High freq. dielectric constant tensor:
#      x y z
#    x 1.905440 0.001170 0.006610 
#    y 0.001170 1.892560 0.007630 
#    z 0.006610 0.007630 1.896800 
# 
# From -- ./inp_files/315547.got.cif
#   From: 2010.06.25/outbox.cif.g09.slc.cpg/sg2_158_cif.got.tgz:315547.got - 2010.06.27 13:26:56.
