data_PCOD8023117
_publ_section_title
;
Structure prediction by ZEFSAII (Michael W. Deem and Ramdas Pophale) SiO2 
 PCOD8023117
Probable space group: P -1
;
_chemical_formula_sum "Si O2"
_cell_formula_units_Z 12
_cell_length_a 13.164372
_cell_length_b 19.937615
_cell_length_c 12.262899
_cell_angle_alpha 157.711373
_cell_angle_beta 146.446262
_cell_angle_gamma 23.353109
_cell_volume 481.102707
_symmetry_space_group_name_H-M "P -1"
_symmetry_group_IT_number 2
_symmetry_cell_setting 'triclinic'
loop_
_space_group_symop_operation_xyz
x,y,z
-x,-y,-z
loop_
_atom_site_type_symbol
_atom_site_label
_atom_site_fract_x
_atom_site_fract_y
_atom_site_fract_z
Si Si1 0.114437 0.200123 0.539918
Si Si2 0.482569 0.250655 0.912629
Si Si3 0.552657 0.585895 0.541683
Si Si4 0.987591 0.949039 0.170121
Si Si5 0.227447 0.473909 0.563337
Si Si6 0.809552 0.477645 0.160405
O O1 0.283838 0.257671 0.810656
O O2 0.106375 0.062783 0.424196
O O3 0.827924 0.457799 0.642715
O O4 0.248103 0.029421 0.293103
O O5 0.375479 0.381981 0.895920
O O6 0.524675 0.392162 0.239229
O O7 0.539871 0.646467 0.493152
O O8 0.321818 0.835871 0.774090
O O9 0.050770 0.772052 0.860811
O O10 0.110295 0.783313 0.141771
O O11 0.329736 0.361495 0.608722
O O12 0.064865 0.422182 0.290011
#
# Coordination Sequence:
#
# PCOD8023117 Si02
#       6
#     2   2   2   2   2   2
#     4  11  24  42  62  98 128 170 215 255 317 381
#     4  11  23  40  71  91 129 171 212 262 313 383
#     4  12  23  41  69  94 131 168 208 265 320 373
#     4  10  23  40  68  96 126 168 213 262 317 378
#     4   9  20  42  66  93 126 166 210 260 314 377
#     4   9  20  43  64  99 122 167 219 254 321 371
#
# _framework density 24.942699999999999
#
# number of rings (size 3 to 8) (size 9 to 14) (size 15 to 20)
#    1.000    0.667    3.333    1.000    0.000    4.667 
#    0.000    1.667    0.000    0.000    0.000    0.000 
#    0.000    0.000    0.000    0.000    0.000    0.000 
#
# Total GULP energy -148699.514216 kJ/mol
# GULP energy per Si atom -12391.626185 kJ/mol
# Density = 2.488593 g / cm^3
# Si number density = 24.942700 Si / 1000 Ang^3
#
#
#
# Elastic Constant Matrix: (Units=GPa)
#
#
# Indices 1 2 3 4 5 6 
#
# 1 123.0231 27.9752 19.1374 5.9698 32.9148 -21.3915
# 2 27.9752 72.5480 4.7758 7.8146 -1.4376 -17.3273
# 3 19.1374 4.7758 37.2601 -5.3666 15.6058 -7.5946
# 4 5.9698 7.8146 -5.3666 20.7497 -7.4559 4.8553
# 5 32.9148 -1.4376 15.6058 -7.4559 37.2219 -2.4135
# 6 -21.3915 -17.3273 -7.5946 4.8553 -2.4135 37.5984
#
#
#
# Elastic Compliance Matrix: (Units=1/GPa)
#
#
# Indices 1 2 3 4 5 6 
#
# 1 0.014414 -0.003021 -0.001210 -0.009943 -0.013896 0.006956
# 2 -0.003021 0.017528 -0.001506 -0.006670 0.003105 0.007115
# 3 -0.001210 -0.001506 0.034247 0.004413 -0.012192 0.004183
# 4 -0.009943 -0.006670 0.004413 0.064950 0.018720 -0.015025
# 5 -0.013896 0.003105 -0.012192 0.018720 0.047597 -0.008300
# 6 0.006956 0.007115 0.004183 -0.015025 -0.008300 0.036086
#
#
# Mechanical properties :
#
#
# Convention : Reuss Voigt Hill
#
# Bulk Modulus (GPa) = 18.27692 37.40089 27.83890
# Shear Modulus (GPa) = 20.44710 31.17687 25.81198
#
# Velocity S-wave (km/s) = 2.86626 3.53928 3.22040
# Velocity P-wave (km/s) = 4.27754 5.63288 5.00133
#
# Compressibility (1/GPa) = 0.05471383
#
# Stress axis : x y z
#
# Youngs Moduli (GPa) = 69.37903 57.05289 29.19933
#
# Poissons Ratio (x) = 0.17238 0.03533
# Poissons Ratio (y) = 0.20962 0.04397
# Poissons Ratio (z) = 0.08396 0.08591
#
# Static dielectric constant tensor:
#      x y z
#    x 4.722880 -0.180990 0.367900 
#    y -0.180990 4.087300 0.093450 
#    z 0.367900 0.093450 4.252670 
# 
# 
# High freq. dielectric constant tensor:
#      x y z
#    x 2.009660 -0.010540 0.026040 
#    y -0.010540 1.971720 -0.001850 
#    z 0.026040 -0.001850 1.965420 
# 
# From -- ./inp_files/246926.got.cif
#   From: 2010.06.25/outbox.cif.g09.slc.cpg/sg2_124_cif.got.tgz:246926.got - 2010.06.27 13:26:56.
