data_PCOD8023159
_publ_section_title
;
Structure prediction by ZEFSAII (Michael W. Deem and Ramdas Pophale) SiO2 
 PCOD8023159
Probable space group: P -1
;
_chemical_formula_sum "Si O2"
_cell_formula_units_Z 16
_cell_length_a 9.272161
_cell_length_b 11.373871
_cell_length_c 17.641762
_cell_angle_alpha 136.251036
_cell_angle_beta 40.938677
_cell_angle_gamma 140.361065
_cell_volume 732.375427
_symmetry_space_group_name_H-M "P -1"
_symmetry_group_IT_number 2
_symmetry_cell_setting 'triclinic'
loop_
_space_group_symop_operation_xyz
x,y,z
-x,-y,-z
loop_
_atom_site_type_symbol
_atom_site_label
_atom_site_fract_x
_atom_site_fract_y
_atom_site_fract_z
Si Si1 0.782779 0.815634 0.260214
Si Si2 0.830985 0.412133 0.822572
Si Si3 0.365380 0.135839 0.414269
Si Si4 0.372036 0.023802 0.855153
Si Si5 0.126797 0.186298 0.391836
Si Si6 0.713257 0.227228 0.629375
Si Si7 0.642410 0.550491 0.333056
Si Si8 0.924640 0.805971 0.034515
O O1 0.530211 0.827454 0.349857
O O2 0.704134 0.636054 0.264193
O O3 0.905309 0.779963 0.120126
O O4 0.997663 0.015654 0.302808
O O5 0.646382 0.214697 0.851733
O O6 0.742886 0.378838 0.753983
O O7 0.115622 0.454903 0.733676
O O8 0.801254 0.592229 0.946716
O O9 0.137817 0.093244 0.425962
O O10 0.442900 0.334352 0.521286
O O11 0.596986 0.148913 0.277453
O O12 0.297008 0.966506 0.422841
O O13 0.227146 0.086768 0.881775
O O14 0.217287 0.940167 0.955331
O O15 0.409401 0.331790 0.318591
O O16 0.968515 0.304331 0.513665
#
# Coordination Sequence:
#
# PCOD8023159 Si02
#       8
#     2   2   2   2   2   2   2   2
#     4  12  26  46  63 101 150 175 215 279 351 400
#     4  11  23  45  69 101 129 177 233 275 328 391
#     4  11  21  45  71 100 133 171 235 277 331 397
#     4  10  23  40  71 102 123 179 226 283 324 384
#     4  12  25  43  68 104 138 178 224 276 343 409
#     4  11  23  42  73 100 135 180 216 291 339 389
#     4  12  27  43  70 104 135 182 221 281 344 402
#     4  11  24  44  68  99 137 177 231 271 328 410
#
# _framework density 21.846719
#
# number of rings (size 3 to 8) (size 9 to 14) (size 15 to 20)
#    0.000    0.750    5.000    3.750    1.750    2.000 
#    2.250    4.375    0.000    0.000    0.000    0.000 
#    0.000    0.000    0.000    0.000    0.000    0.000 
#
# Total GULP energy -198387.057314 kJ/mol
# GULP energy per Si atom -12399.191082 kJ/mol
# Density = 2.179699 g / cm^3
# Si number density = 21.846719 Si / 1000 Ang^3
#
#
#
# Elastic Constant Matrix: (Units=GPa)
#
#
# Indices 1 2 3 4 5 6 
#
# 1 94.1937 35.8017 22.3955 3.5356 4.0657 10.8824
# 2 35.8017 89.8678 11.2574 -9.5837 6.2942 22.6424
# 3 22.3955 11.2574 79.2752 -2.2524 -0.9018 2.1865
# 4 3.5356 -9.5837 -2.2524 35.3890 6.7955 -2.2171
# 5 4.0657 6.2942 -0.9018 6.7955 32.3878 -4.0474
# 6 10.8824 22.6424 2.1865 -2.2171 -4.0474 30.0780
#
#
#
# Elastic Compliance Matrix: (Units=1/GPa)
#
#
# Indices 1 2 3 4 5 6 
#
# 1 0.013522 -0.004979 -0.003167 -0.002906 -0.000355 -0.001176
# 2 -0.004979 0.016948 -0.000598 0.005346 -0.005209 -0.011220
# 3 -0.003167 -0.000598 0.013608 0.000916 0.000798 0.000782
# 4 -0.002906 0.005346 0.000916 0.031376 -0.007448 -0.001729
# 5 -0.000355 -0.005209 0.000798 -0.007448 0.034529 0.008089
# 6 -0.001176 -0.011220 0.000782 -0.001729 0.008089 0.043023
#
#
# Mechanical properties :
#
#
# Convention : Reuss Voigt Hill
#
# Bulk Modulus (GPa) = 37.60927 44.69397 41.15162
# Shear Modulus (GPa) = 27.87744 32.49641 30.18693
#
# Velocity S-wave (km/s) = 3.57606 3.86096 3.72124
# Velocity P-wave (km/s) = 5.85691 6.35440 6.11072
#
# Compressibility (1/GPa) = 0.02658919
#
# Stress axis : x y z
#
# Youngs Moduli (GPa) = 73.95235 59.00452 73.48888
#
# Poissons Ratio (x) = 0.29378 0.23275
# Poissons Ratio (y) = 0.36821 0.04394
# Poissons Ratio (z) = 0.23422 0.03528
#
# Static dielectric constant tensor:
#      x y z
#    x 3.891850 0.045880 -0.123370 
#    y 0.045880 3.977890 -0.191980 
#    z -0.123370 -0.191980 4.167410 
# 
# 
# High freq. dielectric constant tensor:
#      x y z
#    x 1.847860 0.005540 -0.014240 
#    y 0.005540 1.856650 -0.013140 
#    z -0.014240 -0.013140 1.873370 
# 
# From -- ./inp_files/560001.got.cif
#   From: 2010.06.25/outbox.cif.g09.slc.cpg/sg2_281_cif.got.tgz:560001.got - 2010.06.27 13:26:56.
