data_PCOD8023476
_publ_section_title
;
Structure prediction by ZEFSAII (Michael W. Deem and Ramdas Pophale) SiO2 
 PCOD8023476
Probable space group: P -1
;
_chemical_formula_sum "Si O2"
_cell_formula_units_Z 14
_cell_length_a 9.525419
_cell_length_b 11.994991
_cell_length_c 5.323557
_cell_angle_alpha 78.831046
_cell_angle_beta 99.867764
_cell_angle_gamma 85.665287
_cell_volume 584.171872
_symmetry_space_group_name_H-M "P -1"
_symmetry_group_IT_number 2
_symmetry_cell_setting 'triclinic'
loop_
_space_group_symop_operation_xyz
x,y,z
-x,-y,-z
loop_
_atom_site_type_symbol
_atom_site_label
_atom_site_fract_x
_atom_site_fract_y
_atom_site_fract_z
Si Si1 0.092496 0.197471 0.381403
Si Si2 0.365545 0.846631 0.047797
Si Si3 0.389140 0.059283 0.635527
Si Si4 0.623309 0.579565 0.530341
Si Si5 0.078894 0.460113 0.292643
Si Si6 0.477067 0.366102 0.024230
Si Si7 0.055656 0.870511 0.125822
O O1 0.247089 0.123717 0.436553
O O2 0.121610 0.325677 0.381927
O O3 0.998347 0.160385 0.601730
O O4 0.006957 0.198668 0.091899
O O5 0.520274 0.854785 0.221432
O O6 0.384297 0.726742 0.947670
O O7 0.229469 0.844801 0.193368
O O8 0.329084 0.960075 0.822787
O O9 0.500000 0.000000 0.500000
O O10 0.500000 0.500000 0.500000
O O11 0.765996 0.493517 0.673041
O O12 0.633517 0.644070 0.237713
O O13 0.589041 0.668676 0.714128
O O14 0.000000 0.500000 0.500000
O O15 0.000000 0.500000 0.000000
O O16 0.500000 0.500000 0.000000
O O17 0.000000 0.000000 0.000000
#
# Coordination Sequence:
#
# PCOD8023476 Si02
#       7
#     2   2   2   2   2   2   2
#     4  12  28  47  76 105 151 196 243 303 374 434
#     4  11  26  43  74 106 144 190 248 303 366 440
#     4  11  26  46  73 109 141 191 247 308 373 433
#     4  10  23  45  72  97 144 184 239 292 353 422
#     4  12  27  48  72 108 149 194 241 299 369 444
#     4  10  23  41  68 106 138 181 230 295 355 423
#     4  12  26  49  72 106 146 195 249 304 363 438
#
# _framework density 23.965547999999998
#
# number of rings (size 3 to 8) (size 9 to 14) (size 15 to 20)
#    0.000    0.857    1.429    3.857    8.000    6.857 
#    0.000    0.000    0.000    0.000    0.000    0.000 
#    0.000    0.000    0.000    0.000    0.000    0.000 
#
# Total GULP energy -173463.159517 kJ/mol
# GULP energy per Si atom -12390.225680 kJ/mol
# Density = 2.391100 g / cm^3
# Si number density = 23.965548 Si / 1000 Ang^3
#
#
#
# Elastic Constant Matrix: (Units=GPa)
#
#
# Indices 1 2 3 4 5 6 
#
# 1 165.2012 43.1780 45.7041 3.7194 0.2031 -29.1462
# 2 43.1780 115.9840 14.9029 12.2412 1.0945 -20.4335
# 3 45.7041 14.9029 160.3343 15.9511 -7.6059 -16.6014
# 4 3.7194 12.2412 15.9511 32.9730 -12.3938 -5.3191
# 5 0.2031 1.0945 -7.6059 -12.3938 43.0322 5.6084
# 6 -29.1462 -20.4335 -16.6014 -5.3191 5.6084 36.9049
#
#
#
# Elastic Compliance Matrix: (Units=1/GPa)
#
#
# Indices 1 2 3 4 5 6 
#
# 1 0.007833 -0.002018 -0.001722 0.001235 -0.000528 0.004553
# 2 -0.002018 0.010473 0.000319 -0.003850 -0.001840 0.004074
# 3 -0.001722 0.000319 0.007175 -0.003075 0.000177 0.001575
# 4 0.001235 -0.003850 -0.003075 0.037095 0.010066 0.001277
# 5 -0.000528 -0.001840 0.000177 0.010066 0.026735 -0.003968
# 6 0.004553 0.004074 0.001575 0.001277 -0.003968 0.034443
#
#
# Mechanical properties :
#
#
# Convention : Reuss Voigt Hill
#
# Bulk Modulus (GPa) = 53.64593 72.12105 62.88349
# Shear Modulus (GPa) = 36.54710 45.09766 40.82238
#
# Velocity S-wave (km/s) = 3.90934 4.34264 4.13168
# Velocity P-wave (km/s) = 6.54297 7.43665 7.00408
#
# Compressibility (1/GPa) = 0.01864074
#
# Stress axis : x y z
#
# Youngs Moduli (GPa) = 127.66385 95.47948 139.36398
#
# Poissons Ratio (x) = 0.19269 0.23995
# Poissons Ratio (y) = 0.25764 -0.04449
# Poissons Ratio (z) = 0.21981 -0.03048
#
# Static dielectric constant tensor:
#      x y z
#    x 4.663300 0.076110 -0.387330 
#    y 0.076110 4.474490 0.290380 
#    z -0.387330 0.290380 5.821640 
# 
# 
# High freq. dielectric constant tensor:
#      x y z
#    x 1.955080 -0.009750 -0.004100 
#    y -0.009750 1.958410 0.006590 
#    z -0.004100 0.006590 1.965960 
# 
# From -- ./inp_files/27806.got.cif
#   From: 2010.06.25/outbox.cif.g09.slc.cpg/sg2_14_cif.got.tgz:27806.got - 2010.06.27 13:26:56.
