data_PCOD8023151
_publ_section_title
;
Structure prediction by ZEFSAII (Michael W. Deem and Ramdas Pophale) SiO2 
 PCOD8023151
Probable space group: P -1
;
_chemical_formula_sum "Si O2"
_cell_formula_units_Z 16
_cell_length_a 22.387352
_cell_length_b 5.395568
_cell_length_c 11.742824
_cell_angle_alpha 118.569200
_cell_angle_beta 32.716149
_cell_angle_gamma 103.973288
_cell_volume 633.438107
_symmetry_space_group_name_H-M "P -1"
_symmetry_group_IT_number 2
_symmetry_cell_setting 'triclinic'
loop_
_space_group_symop_operation_xyz
x,y,z
-x,-y,-z
loop_
_atom_site_type_symbol
_atom_site_label
_atom_site_fract_x
_atom_site_fract_y
_atom_site_fract_z
Si Si1 0.156703 0.744765 0.886098
Si Si2 0.301813 0.205999 0.398063
Si Si3 0.476512 0.207457 0.932152
Si Si4 0.164903 0.314300 0.097098
Si Si5 0.318572 0.561280 0.788167
Si Si6 0.891636 0.014546 0.416054
Si Si7 0.541603 0.050132 0.320959
Si Si8 0.911597 0.668635 0.536945
O O1 0.223474 0.550857 0.628579
O O2 0.215605 0.570129 0.867413
O O3 0.017538 0.798749 0.118560
O O4 0.179283 0.061479 0.921372
O O5 0.213250 0.015670 0.500410
O O6 0.406796 0.075185 0.291059
O O7 0.360988 0.187552 0.175344
O O8 0.447800 0.216890 0.844844
O O9 0.500000 0.500000 0.000000
O O10 0.152227 0.175720 0.210578
O O11 0.049908 0.600139 0.318257
O O12 0.278547 0.424861 0.936787
O O13 0.442655 0.344888 0.493060
O O14 0.335264 0.883476 0.853908
O O15 0.869998 0.902372 0.551889
O O16 0.884223 0.358435 0.497730
O O17 0.500000 0.000000 0.500000
#
# Coordination Sequence:
#
# PCOD8023151 Si02
#       8
#     2   2   2   2   2   2   2   2
#     4  11  23  45  72 107 147 193 246 312 385 456
#     4  11  27  48  74 102 145 201 260 313 379 461
#     4  11  28  50  75 103 149 201 255 322 387 450
#     4  10  23  40  70 103 149 199 234 311 380 460
#     4  11  23  42  71 103 146 183 247 309 380 454
#     4  11  25  47  75 113 152 201 253 314 382 467
#     4  11  26  45  73 109 142 191 256 317 379 456
#     4  10  24  43  70 110 156 194 252 302 386 459
#
# _framework density 25.258977000000002
#
# number of rings (size 3 to 8) (size 9 to 14) (size 15 to 20)
#    0.000    1.250    2.500    1.125    8.750    3.500 
#    0.000    1.875    0.000    0.000    0.000    0.000 
#    0.000    0.000    0.000    0.000    0.000    0.000 
#
# Total GULP energy -198356.104050 kJ/mol
# GULP energy per Si atom -12397.256503 kJ/mol
# Density = 2.520149 g / cm^3
# Si number density = 25.258977 Si / 1000 Ang^3
#
#
#
# Elastic Constant Matrix: (Units=GPa)
#
#
# Indices 1 2 3 4 5 6 
#
# 1 91.6435 21.5374 58.8554 -10.8070 14.6345 24.0797
# 2 21.5374 110.7914 47.3288 -24.5292 8.8828 22.9510
# 3 58.8554 47.3288 130.5731 -15.8948 -9.0705 30.2086
# 4 -10.8070 -24.5292 -15.8948 41.3121 3.4433 -1.8008
# 5 14.6345 8.8828 -9.0705 3.4433 44.2008 -2.3600
# 6 24.0797 22.9510 30.2086 -1.8008 -2.3600 43.0867
#
#
#
# Elastic Compliance Matrix: (Units=1/GPa)
#
#
# Indices 1 2 3 4 5 6 
#
# 1 0.019373 0.002865 -0.008347 0.004041 -0.009383 -0.006846
# 2 0.002865 0.013594 -0.004369 0.007343 -0.005457 -0.005771
# 3 -0.008347 -0.004369 0.014021 -0.000024 0.006388 -0.002490
# 4 0.004041 0.007343 -0.000024 0.029839 -0.005421 -0.005203
# 5 -0.009383 -0.005457 0.006388 -0.005421 0.028829 0.005025
# 6 -0.006846 -0.005771 -0.002490 -0.005203 0.005025 0.031912
#
#
# Mechanical properties :
#
#
# Convention : Reuss Voigt Hill
#
# Bulk Modulus (GPa) = 36.64782 65.38346 51.01564
# Shear Modulus (GPa) = 30.05438 39.40569 34.73003
#
# Velocity S-wave (km/s) = 3.45316 3.95405 3.71207
# Velocity P-wave (km/s) = 5.51719 6.84014 6.21397
#
# Compressibility (1/GPa) = 0.02728676
#
# Stress axis : x y z
#
# Youngs Moduli (GPa) = 51.61927 73.56048 71.32088
#
# Poissons Ratio (x) = -0.21073 0.59529
# Poissons Ratio (y) = -0.14787 0.31158
# Poissons Ratio (z) = 0.43085 0.32137
#
# Static dielectric constant tensor:
#      x y z
#    x 4.508770 0.070240 -0.298590 
#    y 0.070240 4.372740 0.031570 
#    z -0.298590 0.031570 4.814350 
# 
# 
# High freq. dielectric constant tensor:
#      x y z
#    x 1.995600 0.005410 -0.022910 
#    y 0.005410 2.000960 0.003070 
#    z -0.022910 0.003070 2.028080 
# 
# From -- ./inp_files/473467.got.cif
#   From: 2010.06.25/outbox.cif.g09.slc.cpg/sg2_237_cif.got.tgz:473467.got - 2010.06.27 13:26:56.
