data_PCOD8023417
_publ_section_title
;
Structure prediction by ZEFSAII (Michael W. Deem and Ramdas Pophale) SiO2 
 PCOD8023417
Probable space group: P -1
;
_chemical_formula_sum "Si O2"
_cell_formula_units_Z 16
_cell_length_a 19.650675
_cell_length_b 9.145936
_cell_length_c 22.501528
_cell_angle_alpha 37.898167
_cell_angle_beta 18.059171
_cell_angle_gamma 35.821092
_cell_volume 730.008118
_symmetry_space_group_name_H-M "P -1"
_symmetry_group_IT_number 2
_symmetry_cell_setting 'triclinic'
loop_
_space_group_symop_operation_xyz
x,y,z
-x,-y,-z
loop_
_atom_site_type_symbol
_atom_site_label
_atom_site_fract_x
_atom_site_fract_y
_atom_site_fract_z
Si Si1 0.864311 0.459501 0.243164
Si Si2 0.954622 0.231423 0.919004
Si Si3 0.675111 0.778130 0.699341
Si Si4 0.455006 0.853432 0.411341
Si Si5 0.448662 0.544147 0.258283
Si Si6 0.662849 0.900535 0.030072
Si Si7 0.683011 0.887972 0.435592
Si Si8 0.818651 0.241433 0.704671
O O1 0.727823 0.689325 0.239094
O O2 0.689446 0.302690 0.451893
O O3 0.928204 0.569567 0.216207
O O4 0.104787 0.280869 0.072257
O O5 0.064296 0.144032 0.791298
O O6 0.682076 0.357333 0.095605
O O7 0.000000 0.000000 0.000000
O O8 0.732718 0.480125 0.743257
O O9 0.904440 0.847123 0.503284
O O10 0.577437 0.893105 0.679396
O O11 0.477433 0.883220 0.878489
O O12 0.361169 0.917909 0.535557
O O13 0.501348 0.737725 0.197942
O O14 0.320915 0.382520 0.452789
O O15 0.284443 0.703095 0.292933
O O16 0.740960 0.019610 0.868840
O O17 0.500000 0.000000 0.500000
#
# Coordination Sequence:
#
# PCOD8023417 Si02
#       8
#     2   2   2   2   2   2   2   2
#     4  10  23  41  66  99 137 166 222 271 338 394
#     4  11  23  43  66  98 135 175 217 274 327 404
#     4  11  25  43  72  92 139 175 227 273 336 390
#     4  11  22  44  67 100 133 182 212 282 333 400
#     4  11  25  41  69 101 132 178 224 277 333 391
#     4  11  25  43  69 100 135 178 223 278 333 392
#     4  12  23  42  69  95 137 178 221 265 343 405
#     4  11  24  48  65  97 138 175 232 276 320 398
#
# _framework density 21.917563000000001
#
# number of rings (size 3 to 8) (size 9 to 14) (size 15 to 20)
#    0.000    1.000    5.000    0.750    1.750    3.000 
#    0.000    0.000    0.000    0.000    0.000    0.000 
#    0.000    0.000    0.000    0.000    0.000    0.000 
#
# Total GULP energy -198446.335001 kJ/mol
# GULP energy per Si atom -12402.895938 kJ/mol
# Density = 2.186768 g / cm^3
# Si number density = 21.917563 Si / 1000 Ang^3
#
#
#
# Elastic Constant Matrix: (Units=GPa)
#
#
# Indices 1 2 3 4 5 6 
#
# 1 90.8367 27.8686 40.1352 8.0659 0.8046 -17.6620
# 2 27.8686 96.2092 38.6269 8.8422 2.4479 -10.4139
# 3 40.1352 38.6269 96.7090 7.0605 10.1150 -6.5219
# 4 8.0659 8.8422 7.0605 43.3882 -1.3346 -4.3391
# 5 0.8046 2.4479 10.1150 -1.3346 32.0881 3.5910
# 6 -17.6620 -10.4139 -6.5219 -4.3391 3.5910 32.7461
#
#
#
# Elastic Compliance Matrix: (Units=1/GPa)
#
#
# Indices 1 2 3 4 5 6 
#
# 1 0.015115 -0.001507 -0.005230 -0.000989 0.000624 0.006432
# 2 -0.001507 0.012925 -0.004291 -0.001428 0.000094 0.002243
# 3 -0.005230 -0.004291 0.014645 -0.000754 -0.004086 -0.000921
# 4 -0.000989 -0.001428 -0.000754 0.023871 0.001152 0.001899
# 5 0.000624 0.000094 -0.004086 0.001152 0.032914 -0.003904
# 6 0.006432 0.002243 -0.000921 0.001899 -0.003904 0.035217
#
#
# Mechanical properties :
#
#
# Convention : Reuss Voigt Hill
#
# Bulk Modulus (GPa) = 48.47734 55.22404 51.85069
# Shear Modulus (GPa) = 30.55848 33.45276 32.00562
#
# Velocity S-wave (km/s) = 3.73801 3.91103 3.82550
# Velocity P-wave (km/s) = 6.38720 6.75617 6.57427
#
# Compressibility (1/GPa) = 0.02062820
#
# Stress axis : x y z
#
# Youngs Moduli (GPa) = 66.15961 77.36824 68.28172
#
# Poissons Ratio (x) = 0.11661 0.35712
# Poissons Ratio (y) = 0.09972 0.29302
# Poissons Ratio (z) = 0.34602 0.33201
#
# Static dielectric constant tensor:
#      x y z
#    x 3.772190 -0.069400 -0.165370 
#    y -0.069400 4.229210 0.167370 
#    z -0.165370 0.167370 4.070990 
# 
# 
# High freq. dielectric constant tensor:
#      x y z
#    x 1.849070 -0.003830 -0.016100 
#    y -0.003830 1.879730 0.000210 
#    z -0.016100 0.000210 1.858670 
# 
# From -- ./inp_files/599701.got.cif
#   From: 2010.06.25/outbox.cif.g09.slc.cpg/sg2_300_cif.got.tgz:599701.got - 2010.06.27 13:26:56.
