data_PCOD8023376
_publ_section_title
;
Structure prediction by ZEFSAII (Michael W. Deem and Ramdas Pophale) SiO2 
 PCOD8023376
Probable space group: P -1
;
_chemical_formula_sum "Si O2"
_cell_formula_units_Z 16
_cell_length_a 15.505103
_cell_length_b 14.414644
_cell_length_c 9.852364
_cell_angle_alpha 93.659282
_cell_angle_beta 117.252796
_cell_angle_gamma 32.506955
_cell_volume 776.447297
_symmetry_space_group_name_H-M "P -1"
_symmetry_group_IT_number 2
_symmetry_cell_setting 'triclinic'
loop_
_space_group_symop_operation_xyz
x,y,z
-x,-y,-z
loop_
_atom_site_type_symbol
_atom_site_label
_atom_site_fract_x
_atom_site_fract_y
_atom_site_fract_z
Si Si1 0.915122 0.984225 0.526237
Si Si2 0.031853 0.689224 0.173179
Si Si3 0.651339 0.108765 0.138320
Si Si4 0.696192 0.861321 0.798643
Si Si5 0.352543 0.556558 0.981228
Si Si6 0.681220 0.768101 0.046741
Si Si7 0.569018 0.517913 0.660453
Si Si8 0.197345 0.357594 0.398709
O O1 0.861162 0.945455 0.384578
O O2 0.677390 0.211657 0.464147
O O3 0.000000 0.000000 0.500000
O O4 0.087869 0.791267 0.747402
O O5 0.228991 0.592961 0.269019
O O6 0.161721 0.496358 0.341331
O O7 0.797883 0.942573 0.099530
O O8 0.911060 0.749724 0.957416
O O9 0.493641 0.339139 0.024816
O O10 0.444708 0.220123 0.049554
O O11 0.726333 0.780650 0.675419
O O12 0.427698 0.147008 0.647935
O O13 0.742205 0.744858 0.936423
O O14 0.500000 0.500000 0.000000
O O15 0.336165 0.598988 0.133300
O O16 0.941477 0.543149 0.294157
O O17 0.500000 0.000000 0.000000
O O18 0.500000 0.500000 0.500000
#
# Coordination Sequence:
#
# PCOD8023376 Si02
#       8
#     2   2   2   2   2   2   2   2
#     4  11  23  46  68  96 130 171 223 278 340 397
#     4  11  23  44  63  98 135 172 222 276 336 393
#     4  11  24  41  70  94 134 178 221 281 335 400
#     4  10  23  41  66  92 135 175 220 272 329 397
#     4  11  25  46  71  95 131 176 227 277 340 404
#     4  11  21  42  62  96 131 172 217 272 323 386
#     4  11  26  44  72  99 133 174 221 283 336 403
#     4  10  23  41  67  91 136 176 222 273 328 399
#
# _framework density 20.606679
#
# number of rings (size 3 to 8) (size 9 to 14) (size 15 to 20)
#    0.000    1.250    5.000    2.250    7.000    4.000 
#    0.000    0.000    0.000    0.000    0.000    0.000 
#    0.000    0.000    0.000    0.000    0.000    0.000 
#
# Total GULP energy -198227.299859 kJ/mol
# GULP energy per Si atom -12389.206241 kJ/mol
# Density = 2.055978 g / cm^3
# Si number density = 20.606679 Si / 1000 Ang^3
#
#
#
# Elastic Constant Matrix: (Units=GPa)
#
#
# Indices 1 2 3 4 5 6 
#
# 1 149.5554 31.8818 52.1926 0.5594 31.9230 -1.5375
# 2 31.8818 78.5809 24.8593 -5.3520 4.2398 0.2634
# 3 52.1926 24.8593 134.3250 -18.7190 6.0359 5.7680
# 4 0.5594 -5.3520 -18.7190 35.8499 -1.6758 7.4284
# 5 31.9230 4.2398 6.0359 -1.6758 35.8781 -6.9799
# 6 -1.5375 0.2634 5.7680 7.4284 -6.9799 33.0316
#
#
#
# Elastic Compliance Matrix: (Units=1/GPa)
#
#
# Indices 1 2 3 4 5 6 
#
# 1 0.010306 -0.002813 -0.003494 -0.002791 -0.008386 -0.000032
# 2 -0.002813 0.014354 -0.001394 0.001534 0.001090 -0.000117
# 3 -0.003494 -0.001394 0.009917 0.005684 0.001310 -0.002885
# 4 -0.002791 0.001534 0.005684 0.032907 0.001275 -0.008266
# 5 -0.008386 0.001090 0.001310 0.001275 0.036361 0.006769
# 6 -0.000032 -0.000117 -0.002885 -0.008266 0.006769 0.034066
#
#
# Mechanical properties :
#
#
# Convention : Reuss Voigt Hill
#
# Bulk Modulus (GPa) = 52.15186 64.48098 58.31642
# Shear Modulus (GPa) = 31.30758 37.85376 34.58067
#
# Velocity S-wave (km/s) = 3.90204 4.29063 4.10094
# Velocity P-wave (km/s) = 6.75754 7.47698 7.12635
#
# Compressibility (1/GPa) = 0.01917477
#
# Stress axis : x y z
#
# Youngs Moduli (GPa) = 97.03212 69.66672 100.83278
#
# Poissons Ratio (x) = 0.19599 0.35235
# Poissons Ratio (y) = 0.27298 0.14051
# Poissons Ratio (z) = 0.33907 0.09708
#
# Static dielectric constant tensor:
#      x y z
#    x 3.591920 0.027440 0.221290 
#    y 0.027440 3.970470 0.027380 
#    z 0.221290 0.027380 4.328420 
# 
# 
# High freq. dielectric constant tensor:
#      x y z
#    x 1.800560 0.000750 0.018760 
#    y 0.000750 1.817560 -0.011850 
#    z 0.018760 -0.011850 1.819940 
# 
# From -- ./inp_files/315280.got.cif
#   From: 2010.06.25/outbox.cif.g09.slc.cpg/sg2_158_cif.got.tgz:315280.got - 2010.06.27 13:26:56.
