data_PCOD8023650
_publ_section_title
;
Structure prediction by ZEFSAII (Michael W. Deem and Ramdas Pophale) SiO2 
 PCOD8023650
Probable space group: P -1
;
_chemical_formula_sum "Si O2"
_cell_formula_units_Z 14
_cell_length_a 11.297931
_cell_length_b 22.608912
_cell_length_c 14.397087
_cell_angle_alpha 159.538198
_cell_angle_beta 30.718099
_cell_angle_gamma 148.533852
_cell_volume 633.040980
_symmetry_space_group_name_H-M "P -1"
_symmetry_group_IT_number 2
_symmetry_cell_setting 'triclinic'
loop_
_space_group_symop_operation_xyz
x,y,z
-x,-y,-z
loop_
_atom_site_type_symbol
_atom_site_label
_atom_site_fract_x
_atom_site_fract_y
_atom_site_fract_z
Si Si1 0.767655 0.341430 0.400591
Si Si2 0.618142 0.877293 0.527784
Si Si3 0.901946 0.327131 0.751695
Si Si4 0.250990 0.442825 0.531123
Si Si5 0.893030 0.222024 0.952840
Si Si6 0.326474 0.037720 0.591336
Si Si7 0.615340 0.644696 0.879246
O O1 0.633623 0.234670 0.422489
O O2 0.585916 0.444506 0.632992
O O3 0.000000 0.500000 0.500000
O O4 0.827300 0.213303 0.093878
O O5 0.551537 0.910464 0.515214
O O6 0.827853 0.776504 0.243321
O O7 0.710529 0.058306 0.786714
O O8 0.065593 0.316525 0.538135
O O9 0.882360 0.144556 0.552215
O O10 0.644651 0.329442 0.892164
O O11 0.000000 0.500000 0.000000
O O12 0.500000 0.500000 0.500000
O O13 0.283369 0.325171 0.248854
O O14 0.144464 0.603607 0.811864
O O15 0.500000 0.000000 0.500000
O O16 0.219348 0.199115 0.937358
#
# Coordination Sequence:
#
# PCOD8023650 Si02
#       7
#     2   2   2   2   2   2   2
#     4  11  24  42  67 100 133 175 223 276 338 403
#     4  11  23  46  69  94 140 175 225 281 335 402
#     4  11  21  40  66  93 129 173 220 270 331 396
#     4  11  22  40  66  98 129 173 218 274 336 390
#     4  10  24  43  69 102 129 178 226 275 344 397
#     4  10  24  41  64  97 130 176 222 269 330 394
#     4  10  23  42  60  95 133 167 228 270 330 401
#
# _framework density 22.115473000000001
#
# number of rings (size 3 to 8) (size 9 to 14) (size 15 to 20)
#    0.000    1.429    1.429    3.000    2.000    8.571 
#    5.143    0.000    0.000    0.000    0.000    0.000 
#    0.000    0.000    0.000    0.000    0.000    0.000 
#
# Total GULP energy -173498.243519 kJ/mol
# GULP energy per Si atom -12392.731680 kJ/mol
# Density = 2.206514 g / cm^3
# Si number density = 22.115473 Si / 1000 Ang^3
#
#
#
# Elastic Constant Matrix: (Units=GPa)
#
#
# Indices 1 2 3 4 5 6 
#
# 1 103.3858 45.1079 32.1771 -6.1306 28.0339 -17.3960
# 2 45.1079 153.9176 43.6475 -14.0613 26.6539 -22.8637
# 3 32.1771 43.6475 102.2159 -3.3576 41.3402 -2.2035
# 4 -6.1306 -14.0613 -3.3576 37.8723 2.3623 7.1404
# 5 28.0339 26.6539 41.3402 2.3623 43.8205 -8.8584
# 6 -17.3960 -22.8637 -2.2035 7.1404 -8.8584 37.4004
#
#
#
# Elastic Compliance Matrix: (Units=1/GPa)
#
#
# Indices 1 2 3 4 5 6 
#
# 1 0.012947 -0.002008 -0.000806 0.001032 -0.005711 0.003198
# 2 -0.002008 0.008701 -0.002533 0.002064 -0.001001 0.003605
# 3 -0.000806 -0.002533 0.017331 0.002373 -0.015434 -0.005011
# 4 0.001032 0.002064 0.002373 0.028961 -0.006778 -0.005253
# 5 -0.005711 -0.001001 -0.015434 -0.006778 0.043509 0.007422
# 6 0.003198 0.003605 -0.005011 -0.005253 0.007422 0.032894
#
#
# Mechanical properties :
#
#
# Convention : Reuss Voigt Hill
#
# Bulk Modulus (GPa) = 35.35406 66.82049 51.08727
# Shear Modulus (GPa) = 30.40149 39.72442 35.06295
#
# Velocity S-wave (km/s) = 3.71168 4.24279 3.98609
# Velocity P-wave (km/s) = 5.86426 7.36761 6.65850
#
# Compressibility (1/GPa) = 0.02828530
#
# Stress axis : x y z
#
# Youngs Moduli (GPa) = 77.23804 114.92874 57.70046
#
# Poissons Ratio (x) = 0.23073 0.04651
# Poissons Ratio (y) = 0.15506 0.14617
# Poissons Ratio (z) = 0.06225 0.29114
#
# Static dielectric constant tensor:
#      x y z
#    x 4.137530 0.120010 0.293360 
#    y 0.120010 4.899260 1.283860 
#    z 0.293360 1.283860 5.899920 
# 
# 
# High freq. dielectric constant tensor:
#      x y z
#    x 1.872420 -0.007130 0.008950 
#    y -0.007130 1.862840 0.002970 
#    z 0.008950 0.002970 1.892160 
# 
# From -- ./inp_files/417125.got.cif
#   From: 2010.06.25/outbox.cif.g09.slc.cpg/sg2_209_cif.got.tgz:417125.got - 2010.06.27 13:26:56.
