data_PCOD8023344
_publ_section_title
;
Structure prediction by ZEFSAII (Michael W. Deem and Ramdas Pophale) SiO2 
 PCOD8023344
Probable space group: P -1
;
_chemical_formula_sum "Si O2"
_cell_formula_units_Z 14
_cell_length_a 11.602982
_cell_length_b 14.184977
_cell_length_c 11.725508
_cell_angle_alpha 139.355893
_cell_angle_beta 144.092862
_cell_angle_gamma 65.291468
_cell_volume 632.118612
_symmetry_space_group_name_H-M "P -1"
_symmetry_group_IT_number 2
_symmetry_cell_setting 'triclinic'
loop_
_space_group_symop_operation_xyz
x,y,z
-x,-y,-z
loop_
_atom_site_type_symbol
_atom_site_label
_atom_site_fract_x
_atom_site_fract_y
_atom_site_fract_z
Si Si1 0.431844 0.891775 0.734249
Si Si2 0.135034 0.024565 0.952387
Si Si3 0.557774 0.662307 0.374503
Si Si4 0.744355 0.469655 0.769198
Si Si5 0.928951 0.672673 0.557206
Si Si6 0.002791 0.778234 0.130252
Si Si7 0.162545 0.644195 0.927165
O O1 0.411075 0.712193 0.581843
O O2 0.206793 0.865821 0.466481
O O3 0.646559 0.992734 0.915858
O O4 0.500000 0.000000 0.000000
O O5 0.035831 0.074419 0.810039
O O6 0.215164 0.172243 0.244398
O O7 0.944608 0.840296 0.672960
O O8 0.369458 0.542374 0.208613
O O9 0.673904 0.568978 0.317188
O O10 0.431246 0.722904 0.241027
O O11 0.000000 0.500000 0.000000
O O12 0.767265 0.629283 0.864742
O O13 0.947233 0.557789 0.367909
O O14 0.129110 0.723397 0.857808
O O15 0.050842 0.681800 0.979702
#
# Coordination Sequence:
#
# PCOD8023344 Si02
#       7
#     2   2   2   2   2   2   2
#     4  10  23  41  65  98 129 164 216 266 319 378
#     4  11  24  42  64  96 131 167 214 265 319 377
#     4  11  21  41  66  96 124 168 219 262 314 385
#     4   9  19  39  67  92 122 166 208 263 315 382
#     4  11  26  41  63  99 130 170 215 270 305 382
#     4  11  22  43  68  94 126 176 206 259 331 378
#     4  11  23  43  65  92 131 171 219 253 324 372
#
# _framework density 22.147742000000001
#
# number of rings (size 3 to 8) (size 9 to 14) (size 15 to 20)
#    0.000    1.429    5.714    0.857    2.000    4.571 
#    0.000    1.429    0.000    0.000    0.000    0.000 
#    0.000    0.000    0.000    0.000    0.000    0.000 
#
# Total GULP energy -173447.137331 kJ/mol
# GULP energy per Si atom -12389.081238 kJ/mol
# Density = 2.209733 g / cm^3
# Si number density = 22.147742 Si / 1000 Ang^3
#
#
#
# Elastic Constant Matrix: (Units=GPa)
#
#
# Indices 1 2 3 4 5 6 
#
# 1 83.8946 25.7871 44.7052 11.7459 0.0693 3.5630
# 2 25.7871 148.0378 46.3699 1.0096 3.5714 15.5273
# 3 44.7052 46.3699 89.8895 -8.8293 -11.7919 14.7230
# 4 11.7459 1.0096 -8.8293 29.2522 5.8797 3.3382
# 5 0.0693 3.5714 -11.7919 5.8797 31.2735 -5.7744
# 6 3.5630 15.5273 14.7230 3.3382 -5.7744 21.4381
#
#
#
# Elastic Compliance Matrix: (Units=1/GPa)
#
#
# Indices 1 2 3 4 5 6 
#
# 1 0.019971 -0.000248 -0.012286 -0.012297 -0.001057 0.006928
# 2 -0.000248 0.008597 -0.004075 -0.000295 -0.003240 -0.004213
# 3 -0.012286 -0.004075 0.023059 0.012394 0.004734 -0.011497
# 4 -0.012297 -0.000295 0.012394 0.045961 -0.006717 -0.015221
# 5 -0.001057 -0.003240 0.004734 -0.006717 0.037310 0.010367
# 6 0.006928 -0.004213 -0.011497 -0.015221 0.010367 0.061605
#
#
# Mechanical properties :
#
#
# Convention : Reuss Voigt Hill
#
# Bulk Modulus (GPa) = 54.32211 61.72736 58.02473
# Shear Modulus (GPa) = 21.19929 30.05675 25.62802
#
# Velocity S-wave (km/s) = 3.09718 3.68788 3.40537
# Velocity P-wave (km/s) = 6.11314 6.78714 6.45893
#
# Compressibility (1/GPa) = 0.01840871
#
# Stress axis : x y z
#
# Youngs Moduli (GPa) = 50.07293 116.32151 43.36759
#
# Poissons Ratio (x) = 0.02883 0.53280
# Poissons Ratio (y) = 0.01241 0.17674
# Poissons Ratio (z) = 0.61518 0.47406
#
# Static dielectric constant tensor:
#      x y z
#    x 3.613100 0.359230 0.296220 
#    y 0.359230 4.054010 -0.269820 
#    z 0.296220 -0.269820 3.874170 
# 
# 
# High freq. dielectric constant tensor:
#      x y z
#    x 1.874690 -0.007360 -0.000070 
#    y -0.007360 1.865150 -0.015410 
#    z -0.000070 -0.015410 1.860790 
# 
# From -- ./inp_files/378418.got.cif
#   From: 2010.06.25/outbox.cif.g09.slc.cpg/sg2_190_cif.got.tgz:378418.got - 2010.06.27 13:26:56.
