data_PCOD8023432
_publ_section_title
;
Structure prediction by ZEFSAII (Michael W. Deem and Ramdas Pophale) SiO2 
 PCOD8023432
Probable space group: P -1
;
_chemical_formula_sum "Si O2"
_cell_formula_units_Z 12
_cell_length_a 11.756331
_cell_length_b 9.040633
_cell_length_c 9.302499
_cell_angle_alpha 62.994593
_cell_angle_beta 99.418254
_cell_angle_gamma 140.116405
_cell_volume 534.499342
_symmetry_space_group_name_H-M "P -1"
_symmetry_group_IT_number 2
_symmetry_cell_setting 'triclinic'
loop_
_space_group_symop_operation_xyz
x,y,z
-x,-y,-z
loop_
_atom_site_type_symbol
_atom_site_label
_atom_site_fract_x
_atom_site_fract_y
_atom_site_fract_z
Si Si1 0.303905 0.580387 0.298002
Si Si2 0.312331 0.318280 0.207135
Si Si3 0.104292 0.124161 0.675033
Si Si4 0.399675 0.904563 0.674847
Si Si5 0.665526 0.535015 0.159543
Si Si6 0.045595 0.677755 0.801125
O O1 0.377779 0.571294 0.173702
O O2 0.246722 0.363039 0.485422
O O3 0.134898 0.512834 0.254919
O O4 0.463398 0.870482 0.274712
O O5 0.463931 0.351812 0.272471
O O6 0.301320 0.306482 0.037341
O O7 0.101085 0.037264 0.339613
O O8 0.164973 0.252715 0.788270
O O9 0.103051 0.923308 0.765527
O O10 0.335149 0.649942 0.821841
O O11 0.213958 0.806029 0.677454
O O12 0.500000 0.000000 0.500000
O O13 0.000000 0.500000 0.000000
#
# Coordination Sequence:
#
# PCOD8023432 Si02
#       6
#     2   2   2   2   2   2
#     4  11  25  44  70  94 132 179 221 267 328 396
#     4  10  23  41  67  93 128 173 222 264 327 396
#     4  11  23  43  70  93 130 174 221 267 323 395
#     4  12  26  41  66 100 137 168 220 278 331 385
#     4  11  24  41  64  99 131 170 215 274 329 387
#     4  11  26  45  70  98 133 177 223 270 332 397
#
# _framework density 22.450917
#
# number of rings (size 3 to 8) (size 9 to 14) (size 15 to 20)
#    0.000    1.000    1.667    5.500    4.667    8.667 
#    0.000    0.000    0.000    0.000    0.000    0.000 
#    0.000    0.000    0.000    0.000    0.000    0.000 
#
# Total GULP energy -148800.385647 kJ/mol
# GULP energy per Si atom -12400.032137 kJ/mol
# Density = 2.239982 g / cm^3
# Si number density = 22.450917 Si / 1000 Ang^3
#
#
#
# Elastic Constant Matrix: (Units=GPa)
#
#
# Indices 1 2 3 4 5 6 
#
# 1 128.1180 64.3447 3.8553 -4.2734 -10.3141 2.0916
# 2 64.3447 143.3188 -4.5210 17.1794 0.8121 -6.3910
# 3 3.8553 -4.5210 52.4683 7.4065 2.6465 -9.9002
# 4 -4.2734 17.1794 7.4065 35.8076 -3.8824 6.2125
# 5 -10.3141 0.8121 2.6465 -3.8824 40.4915 -2.5874
# 6 2.0916 -6.3910 -9.9002 6.2125 -2.5874 27.8961
#
#
#
# Elastic Compliance Matrix: (Units=1/GPa)
#
#
# Indices 1 2 3 4 5 6 
#
# 1 0.011655 -0.006317 -0.003335 0.006298 0.003625 -0.004571
# 2 -0.006317 0.011205 0.003853 -0.008240 -0.002492 0.006012
# 3 -0.003335 0.003853 0.023186 -0.009266 -0.002616 0.011182
# 4 0.006298 -0.008240 -0.009266 0.037446 0.005102 -0.013515
# 5 0.003625 -0.002492 -0.002616 0.005102 0.026300 -0.000468
# 6 -0.004571 0.006012 0.011182 -0.013515 -0.000468 0.044502
#
#
# Mechanical properties :
#
#
# Convention : Reuss Voigt Hill
#
# Bulk Modulus (GPa) = 29.02956 50.14036 39.58496
# Shear Modulus (GPa) = 28.18879 38.18744 33.18812
#
# Velocity S-wave (km/s) = 3.54725 4.12871 3.84898
# Velocity P-wave (km/s) = 5.45304 6.71641 6.11742
#
# Compressibility (1/GPa) = 0.03444764
#
# Stress axis : x y z
#
# Youngs Moduli (GPa) = 85.80170 89.24592 43.12926
#
# Poissons Ratio (x) = 0.56377 0.14384
# Poissons Ratio (y) = 0.54201 -0.16617
# Poissons Ratio (z) = 0.28615 -0.34385
#
# Static dielectric constant tensor:
#      x y z
#    x 4.309960 0.100380 -0.137360 
#    y 0.100380 4.140530 0.012630 
#    z -0.137360 0.012630 3.944740 
# 
# 
# High freq. dielectric constant tensor:
#      x y z
#    x 1.892390 0.004950 -0.006040 
#    y 0.004950 1.891800 0.007670 
#    z -0.006040 0.007670 1.882390 
# 
# From -- ./inp_files/151853.got.cif
#   From: 2010.06.25/outbox.cif.g09.slc.cpg/sg2_76_cif.got.tgz:151853.got - 2010.06.27 13:26:56.
