data_PCOD8023659
_publ_section_title
;
Structure prediction by ZEFSAII (Michael W. Deem and Ramdas Pophale) SiO2 
 PCOD8023659
Probable space group: P -1
;
_chemical_formula_sum "Si O2"
_cell_formula_units_Z 16
_cell_length_a 12.359859
_cell_length_b 11.673627
_cell_length_c 8.673795
_cell_angle_alpha 88.329460
_cell_angle_beta 121.013061
_cell_angle_gamma 128.871623
_cell_volume 749.521948
_symmetry_space_group_name_H-M "P -1"
_symmetry_group_IT_number 2
_symmetry_cell_setting 'triclinic'
loop_
_space_group_symop_operation_xyz
x,y,z
-x,-y,-z
loop_
_atom_site_type_symbol
_atom_site_label
_atom_site_fract_x
_atom_site_fract_y
_atom_site_fract_z
Si Si1 0.812038 0.784230 0.321784
Si Si2 0.209295 0.664186 0.139611
Si Si3 0.261745 0.450945 0.250741
Si Si4 0.486183 0.871902 0.080602
Si Si5 0.856576 0.131375 0.863701
Si Si6 0.342293 0.160674 0.042438
Si Si7 0.188878 0.999635 0.494943
Si Si8 0.450505 0.510208 0.684386
O O1 0.656495 0.587578 0.232106
O O2 0.003996 0.843216 0.453597
O O3 0.790550 0.851948 0.455139
O O4 0.795413 0.845756 0.149398
O O5 0.300350 0.613058 0.289526
O O6 0.290916 0.728191 0.023642
O O7 0.240475 0.807796 0.239611
O O8 0.000000 0.500000 0.000000
O O9 0.300899 0.417339 0.443789
O O10 0.404771 0.496545 0.231305
O O11 0.064237 0.289330 0.051845
O O12 0.644830 0.967362 0.321508
O O13 0.512529 0.791827 0.974970
O O14 0.500000 0.000000 0.000000
O O15 0.831677 0.034788 0.701110
O O16 0.766093 0.011078 0.948110
O O17 0.450535 0.303680 0.242372
#
# Coordination Sequence:
#
# PCOD8023659 Si02
#       8
#     2   2   2   2   2   2   2   2
#     4  10  23  42  61  95 140 171 209 278 339 392
#     4  10  23  44  67  91 133 174 218 270 333 381
#     4  10  24  41  64  96 134 172 215 281 329 388
#     4  11  23  43  66  97 134 172 215 277 330 386
#     4  11  24  42  68  96 129 174 232 267 321 398
#     4  11  24  40  69  97 130 176 221 273 330 391
#     4  10  24  38  67  96 129 170 221 268 330 391
#     4  11  24  39  65  96 133 170 220 273 336 394
#
# _framework density 21.346938999999999
#
# number of rings (size 3 to 8) (size 9 to 14) (size 15 to 20)
#    0.000    1.500    1.250    2.625   10.500    4.500 
#    0.000    0.000    0.000    6.000    0.000    0.000 
#    0.000    0.000    0.000    0.000    0.000    0.000 
#
# Total GULP energy -198312.746903 kJ/mol
# GULP energy per Si atom -12394.546681 kJ/mol
# Density = 2.129835 g / cm^3
# Si number density = 21.346939 Si / 1000 Ang^3
#
#
#
# Elastic Constant Matrix: (Units=GPa)
#
#
# Indices 1 2 3 4 5 6 
#
# 1 109.0370 43.8173 40.6538 -2.7782 5.1326 11.2628
# 2 43.8173 134.2313 32.4464 -4.2188 14.5281 14.3621
# 3 40.6538 32.4464 91.3220 3.9708 -3.8316 0.5521
# 4 -2.7782 -4.2188 3.9708 16.6800 1.2489 2.3032
# 5 5.1326 14.5281 -3.8316 1.2489 32.7222 2.5835
# 6 11.2628 14.3621 0.5521 2.3032 2.5835 38.4053
#
#
#
# Elastic Compliance Matrix: (Units=1/GPa)
#
#
# Indices 1 2 3 4 5 6 
#
# 1 0.012339 -0.002312 -0.004848 0.003111 -0.001376 -0.002778
# 2 -0.002312 0.009731 -0.002736 0.003434 -0.004185 -0.002846
# 3 -0.004848 -0.002736 0.014462 -0.005539 0.003697 0.002320
# 4 0.003111 0.003434 -0.005539 0.063783 -0.004651 -0.005629
# 5 -0.001376 -0.004185 0.003697 -0.004651 0.033248 -0.000042
# 6 -0.002778 -0.002846 0.002320 -0.005629 -0.000042 0.028224
#
#
# Mechanical properties :
#
#
# Convention : Reuss Voigt Hill
#
# Bulk Modulus (GPa) = 59.73297 63.15838 61.44567
# Shear Modulus (GPa) = 26.71534 32.07301 29.39418
#
# Velocity S-wave (km/s) = 3.54147 3.88037 3.71479
# Velocity P-wave (km/s) = 6.69069 7.05175 6.87359
#
# Compressibility (1/GPa) = 0.01674117
#
# Stress axis : x y z
#
# Youngs Moduli (GPa) = 81.04588 102.76206 69.14563
#
# Poissons Ratio (x) = 0.23759 0.33519
# Poissons Ratio (y) = 0.18738 0.18917
# Poissons Ratio (z) = 0.39287 0.28115
#
# Static dielectric constant tensor:
#      x y z
#    x 4.218340 -0.093740 0.163590 
#    y -0.093740 3.877240 0.028820 
#    z 0.163590 0.028820 3.659790 
# 
# 
# High freq. dielectric constant tensor:
#      x y z
#    x 1.849200 0.004600 0.008720 
#    y 0.004600 1.844650 0.003720 
#    z 0.008720 0.003720 1.819560 
# 
# From -- ./inp_files/262586.got.cif
#   From: 2010.06.25/outbox.cif.g09.slc.cpg/sg2_132_cif.got.tgz:262586.got - 2010.06.27 13:26:56.
