data_PCOD8023029
_publ_section_title
;
Structure prediction by ZEFSAII (Michael W. Deem and Ramdas Pophale) SiO2 
 PCOD8023029
Probable space group: P -1
;
_chemical_formula_sum "Si O2"
_cell_formula_units_Z 14
_cell_length_a 17.804771
_cell_length_b 12.944476
_cell_length_c 9.269467
_cell_angle_alpha 151.116001
_cell_angle_beta 133.461639
_cell_angle_gamma 38.097969
_cell_volume 636.713606
_symmetry_space_group_name_H-M "P -1"
_symmetry_group_IT_number 2
_symmetry_cell_setting 'triclinic'
loop_
_space_group_symop_operation_xyz
x,y,z
-x,-y,-z
loop_
_atom_site_type_symbol
_atom_site_label
_atom_site_fract_x
_atom_site_fract_y
_atom_site_fract_z
Si Si1 0.040244 0.557438 0.473218
Si Si2 0.199017 0.090194 0.591379
Si Si3 0.764530 0.381936 0.086454
Si Si4 0.756751 0.844088 0.945164
Si Si5 0.537477 0.365526 0.235617
Si Si6 0.588904 0.639324 0.400819
Si Si7 0.373488 0.150224 0.695359
O O1 0.104922 0.715249 0.785884
O O2 0.131070 0.301517 0.193947
O O3 0.000000 0.500000 0.500000
O O4 0.927179 0.720305 0.419687
O O5 0.304470 0.123787 0.707389
O O6 0.190259 0.150607 0.822205
O O7 0.227710 0.806698 0.257026
O O8 0.667944 0.409964 0.114344
O O9 0.722942 0.669732 0.333678
O O10 0.674455 0.719517 0.692590
O O11 0.674354 0.127064 0.123818
O O12 0.500000 0.500000 0.500000
O O13 0.525576 0.558853 0.335314
O O14 0.434531 0.304570 0.004841
O O15 0.480605 0.870274 0.446241
#
# Coordination Sequence:
#
# PCOD8023029 Si02
#       7
#     2   2   2   2   2   2   2
#     4  11  24  47  68  89 130 173 217 271 319 372
#     4  12  24  42  68  94 131 168 217 266 320 377
#     4  11  24  41  66  96 127 171 216 267 323 380
#     4  10  24  43  67  97 130 171 212 264 322 382
#     4  11  22  40  65  97 134 168 212 259 323 387
#     4  10  23  40  65  95 134 170 210 262 323 386
#     4  11  22  38  64  96 134 168 213 258 324 380
#
# _framework density 21.987908000000001
#
# number of rings (size 3 to 8) (size 9 to 14) (size 15 to 20)
#    0.000    1.143    1.429    4.714    2.000    5.714 
#    0.000    0.714    0.000    0.000    0.000    0.000 
#    0.000    0.000    0.000    0.000    0.000    0.000 
#
# Total GULP energy -173567.059404 kJ/mol
# GULP energy per Si atom -12397.647100 kJ/mol
# Density = 2.193786 g / cm^3
# Si number density = 21.987908 Si / 1000 Ang^3
#
#
#
# Elastic Constant Matrix: (Units=GPa)
#
#
# Indices 1 2 3 4 5 6 
#
# 1 123.8017 35.2057 54.9140 4.0477 -8.0119 -6.8882
# 2 35.2057 128.8981 45.1135 3.1524 1.0969 -9.3577
# 3 54.9140 45.1135 118.5644 -3.0286 -14.0444 -3.7649
# 4 4.0477 3.1524 -3.0286 36.4253 2.6103 -4.6467
# 5 -8.0119 1.0969 -14.0444 2.6103 35.7073 1.5103
# 6 -6.8882 -9.3577 -3.7649 -4.6467 1.5103 32.2544
#
#
#
# Elastic Compliance Matrix: (Units=1/GPa)
#
#
# Indices 1 2 3 4 5 6 
#
# 1 0.010493 -0.001255 -0.004291 -0.001321 0.000753 0.001150
# 2 -0.001255 0.009387 -0.003158 -0.000535 -0.001862 0.002097
# 3 -0.004291 -0.003158 0.012098 0.001433 0.003804 -0.000392
# 4 -0.001321 -0.000535 0.001433 0.028405 -0.001958 0.003914
# 5 0.000753 -0.001862 0.003804 -0.001958 0.029940 -0.001619
# 6 0.001150 0.002097 -0.000392 0.003914 -0.001619 0.032451
#
#
# Mechanical properties :
#
#
# Convention : Reuss Voigt Hill
#
# Bulk Modulus (GPa) = 68.62845 71.30339 69.96592
# Shear Modulus (GPa) = 34.47328 36.61281 35.54304
#
# Velocity S-wave (km/s) = 3.96388 4.08503 4.02491
# Velocity P-wave (km/s) = 7.22699 7.39925 7.31363
#
# Compressibility (1/GPa) = 0.01457122
#
# Stress axis : x y z
#
# Youngs Moduli (GPa) = 95.29776 106.52640 82.65848
#
# Poissons Ratio (x) = 0.13368 0.35465
# Poissons Ratio (y) = 0.11959 0.26105
# Poissons Ratio (z) = 0.40888 0.33643
#
# Static dielectric constant tensor:
#      x y z
#    x 3.880360 -0.042540 -0.008910 
#    y -0.042540 4.082390 0.077750 
#    z -0.008910 0.077750 4.008160 
# 
# 
# High freq. dielectric constant tensor:
#      x y z
#    x 1.866190 -0.013000 -0.002920 
#    y -0.013000 1.878990 -0.002130 
#    z -0.002920 -0.002130 1.867650 
# 
# From -- ./inp_files/28413.got.cif
#   From: 2010.06.25/outbox.cif.g09.slc.cpg/sg2_15_cif.got.tgz:28413.got - 2010.06.27 13:26:56.
