data_PCOD8023488
_publ_section_title
;
Structure prediction by ZEFSAII (Michael W. Deem and Ramdas Pophale) SiO2 
 PCOD8023488
Probable space group: P -1
;
_chemical_formula_sum "Si O2"
_cell_formula_units_Z 16
_cell_length_a 25.170755
_cell_length_b 16.485735
_cell_length_c 25.052938
_cell_angle_alpha 20.597502
_cell_angle_beta 168.316838
_cell_angle_gamma 159.114083
_cell_volume 717.615405
_symmetry_space_group_name_H-M "P -1"
_symmetry_group_IT_number 2
_symmetry_cell_setting 'triclinic'
loop_
_space_group_symop_operation_xyz
x,y,z
-x,-y,-z
loop_
_atom_site_type_symbol
_atom_site_label
_atom_site_fract_x
_atom_site_fract_y
_atom_site_fract_z
Si Si1 0.155955 0.704157 0.854319
Si Si2 0.689792 0.894897 0.324956
Si Si3 0.996254 0.277216 0.893339
Si Si4 0.882524 0.838408 0.120218
Si Si5 0.391127 0.215199 0.565079
Si Si6 0.473047 0.724597 0.638135
Si Si7 0.144330 0.999151 0.893623
Si Si8 0.319259 0.554264 0.706796
O O1 0.899213 0.743964 0.608341
O O2 0.096821 0.427366 0.952832
O O3 0.216846 0.846775 0.770144
O O4 0.398851 0.762440 0.098604
O O5 0.671228 0.909349 0.361609
O O6 0.743852 0.366167 0.566573
O O7 0.238916 0.326099 0.059502
O O8 0.913345 0.997246 0.998965
O O9 0.122651 0.707162 0.442465
O O10 0.891533 0.021864 0.064893
O O11 0.601298 0.637615 0.964748
O O12 0.500000 0.500000 0.500000
O O13 0.117090 0.155688 0.298168
O O14 0.603581 0.099264 0.815694
O O15 0.357584 0.585153 0.662825
O O16 0.500000 0.000000 0.500000
O O17 0.188005 0.278052 0.754405
#
# Coordination Sequence:
#
# PCOD8023488 Si02
#       8
#     2   2   2   2   2   2   2   2
#     4  10  23  41  68  95 126 171 208 272 317 402
#     4  10  23  44  65  94 131 162 217 266 338 373
#     4  12  24  38  67  95 133 171 215 263 326 395
#     4  12  24  44  68  98 136 176 226 269 324 385
#     4  12  28  47  71  98 134 172 220 281 330 395
#     4  12  23  41  60  98 133 171 207 260 331 379
#     4  12  28  46  71  98 129 181 225 269 333 386
#     4  12  25  44  70  96 137 175 220 279 318 398
#
# _framework density 22.296064999999999
#
# number of rings (size 3 to 8) (size 9 to 14) (size 15 to 20)
#    0.000    0.500    2.500    5.250    7.000    0.000 
#    0.000    0.000    0.000    0.000    0.000    0.000 
#    0.000    0.000    0.000    0.000    0.000    0.000 
#
# Total GULP energy -198470.410595 kJ/mol
# GULP energy per Si atom -12404.400662 kJ/mol
# Density = 2.224532 g / cm^3
# Si number density = 22.296065 Si / 1000 Ang^3
#
#
#
# Elastic Constant Matrix: (Units=GPa)
#
#
# Indices 1 2 3 4 5 6 
#
# 1 112.8681 19.3229 31.7073 4.0656 8.4420 2.3492
# 2 19.3229 81.8784 14.6388 14.8329 5.3600 -9.6917
# 3 31.7073 14.6388 101.7778 22.3435 16.0223 3.8708
# 4 4.0656 14.8329 22.3435 45.6247 -9.0794 -3.1155
# 5 8.4420 5.3600 16.0223 -9.0794 35.5934 1.4340
# 6 2.3492 -9.6917 3.8708 -3.1155 1.4340 30.9326
#
#
#
# Elastic Compliance Matrix: (Units=1/GPa)
#
#
# Indices 1 2 3 4 5 6 
#
# 1 0.010070 -0.002128 -0.002974 0.001106 -0.000410 -0.000929
# 2 -0.002128 0.014288 -0.000041 -0.004741 -0.003011 0.004306
# 3 -0.002974 -0.000041 0.013789 -0.008098 -0.007481 -0.001981
# 4 0.001106 -0.004741 -0.008098 0.029768 0.011614 0.001904
# 5 -0.000410 -0.003011 -0.007481 0.011614 0.034993 -0.000429
# 6 -0.000929 0.004306 -0.001981 0.001904 -0.000429 0.034208
#
#
# Mechanical properties :
#
#
# Convention : Reuss Voigt Hill
#
# Bulk Modulus (GPa) = 35.89337 47.54026 41.71682
# Shear Modulus (GPa) = 31.91036 37.82047 34.86541
#
# Velocity S-wave (km/s) = 3.78724 4.12307 3.95871
# Velocity P-wave (km/s) = 5.93782 6.63587 6.29653
#
# Compressibility (1/GPa) = 0.02786029
#
# Stress axis : x y z
#
# Youngs Moduli (GPa) = 99.30634 69.98669 72.52313
#
# Poissons Ratio (x) = 0.14895 0.21569
# Poissons Ratio (y) = 0.21135 0.00298
# Poissons Ratio (z) = 0.29534 0.00287
#
# Static dielectric constant tensor:
#      x y z
#    x 3.788680 0.058490 0.130580 
#    y 0.058490 4.036010 0.165240 
#    z 0.130580 0.165240 4.295810 
# 
# 
# High freq. dielectric constant tensor:
#      x y z
#    x 1.890100 0.000430 0.002580 
#    y 0.000430 1.882270 0.009620 
#    z 0.002580 0.009620 1.892430 
# 
# From -- ./inp_files/621355.got.cif
#   From: 2010.06.25/outbox.cif.g09.slc.cpg/sg2_311_cif.got.tgz:621355.got - 2010.06.27 13:26:56.
