data_PCOD8023194
_publ_section_title
;
Structure prediction by ZEFSAII (Michael W. Deem and Ramdas Pophale) SiO2 
 PCOD8023194
Probable space group: P -1
;
_chemical_formula_sum "Si O2"
_cell_formula_units_Z 16
_cell_length_a 11.404659
_cell_length_b 9.781747
_cell_length_c 11.626650
_cell_angle_alpha 58.501754
_cell_angle_beta 126.831224
_cell_angle_gamma 110.919211
_cell_volume 883.361867
_symmetry_space_group_name_H-M "P -1"
_symmetry_group_IT_number 2
_symmetry_cell_setting 'triclinic'
loop_
_space_group_symop_operation_xyz
x,y,z
-x,-y,-z
loop_
_atom_site_type_symbol
_atom_site_label
_atom_site_fract_x
_atom_site_fract_y
_atom_site_fract_z
Si Si1 0.342925 0.844796 0.569514
Si Si2 0.937786 0.573024 0.750817
Si Si3 0.909985 0.718361 0.305042
Si Si4 0.189608 0.552445 0.481777
Si Si5 0.867380 0.011244 0.003634
Si Si6 0.927755 0.151114 0.445350
Si Si7 0.929263 0.715955 0.921700
Si Si8 0.670272 0.916923 0.745802
O O1 0.305081 0.689912 0.534118
O O2 0.246442 0.864807 0.619853
O O3 0.509662 0.836340 0.714024
O O4 0.326489 0.998609 0.412663
O O5 0.043213 0.692236 0.683802
O O6 0.797518 0.505253 0.619090
O O7 0.879681 0.668326 0.784118
O O8 0.036125 0.435438 0.914977
O O9 0.793100 0.598750 0.355968
O O10 0.023187 0.609635 0.354280
O O11 0.002129 0.832185 0.396032
O O12 0.832147 0.842249 0.123149
O O13 0.922086 0.161679 0.050726
O O14 0.722000 0.037898 0.828929
O O15 0.000000 0.000000 0.000000
O O16 0.000000 0.000000 0.500000
O O17 0.789001 0.783568 0.870736
#
# Coordination Sequence:
#
# PCOD8023194 Si02
#       8
#     2   2   2   2   2   2   2   2
#     4  10  20  33  50  73  99 132 166 200 243 295
#     4  10  19  30  52  77  98 126 164 205 247 284
#     4   9  17  27  47  72  93 122 164 203 242 285
#     4   9  16  30  46  69  99 124 159 204 238 283
#     4  10  17  29  49  70  93 126 164 205 243 280
#     4  10  18  32  53  75  98 127 164 206 244 285
#     4  10  19  32  50  76 102 126 164 207 243 289
#     4  10  20  33  50  72 100 132 166 200 245 295
#
# _framework density 18.112622000000002
#
# number of rings (size 3 to 8) (size 9 to 14) (size 15 to 20)
#    0.000    2.250    0.000    7.500    0.000    0.000 
#    0.000    3.125    0.000    9.000    0.000    0.000 
#    0.000    0.000    0.000    0.000    0.000    0.000 
#
# Total GULP energy -198231.122885 kJ/mol
# GULP energy per Si atom -12389.445180 kJ/mol
# Density = 1.807140 g / cm^3
# Si number density = 18.112622 Si / 1000 Ang^3
#
#
#
# Elastic Constant Matrix: (Units=GPa)
#
#
# Indices 1 2 3 4 5 6 
#
# 1 77.8382 44.9686 35.3756 9.9317 2.9023 7.2695
# 2 44.9686 107.0836 34.9751 13.0137 4.7510 -2.4074
# 3 35.3756 34.9751 78.9647 6.2228 -5.0484 4.9315
# 4 9.9317 13.0137 6.2228 34.0432 5.2553 -2.4850
# 5 2.9023 4.7510 -5.0484 5.2553 27.5013 4.8705
# 6 7.2695 -2.4074 4.9315 -2.4850 4.8705 24.0414
#
#
#
# Elastic Compliance Matrix: (Units=1/GPa)
#
#
# Indices 1 2 3 4 5 6 
#
# 1 0.019939 -0.006321 -0.005597 -0.002714 -0.000513 -0.005691
# 2 -0.006321 0.013585 -0.003473 -0.001981 -0.002705 0.004327
# 3 -0.005597 -0.003473 0.017355 -0.001267 0.005221 -0.003404
# 4 -0.002714 -0.001981 -0.001267 0.032622 -0.006836 0.005639
# 5 -0.000513 -0.002705 0.005221 -0.006836 0.040953 -0.010190
# 6 -0.005691 0.004327 -0.003404 0.005639 -0.010190 0.047094
#
#
# Mechanical properties :
#
#
# Convention : Reuss Voigt Hill
#
# Bulk Modulus (GPa) = 49.75126 54.94721 52.34924
# Shear Modulus (GPa) = 23.92019 27.02165 25.47092
#
# Velocity S-wave (km/s) = 3.63800 3.86666 3.75407
# Velocity P-wave (km/s) = 6.72117 7.09486 6.91054
#
# Compressibility (1/GPa) = 0.02009999
#
# Stress axis : x y z
#
# Youngs Moduli (GPa) = 50.15282 73.61060 57.61886
#
# Poissons Ratio (x) = 0.46526 0.32247
# Poissons Ratio (y) = 0.31700 0.20009
# Poissons Ratio (z) = 0.28068 0.25562
#
# Static dielectric constant tensor:
#      x y z
#    x 3.412670 -0.222620 -0.283790 
#    y -0.222620 3.983340 0.248300 
#    z -0.283790 0.248300 3.429490 
# 
# 
# High freq. dielectric constant tensor:
#      x y z
#    x 1.657330 -0.000820 -0.031880 
#    y -0.000820 1.716320 0.000150 
#    z -0.031880 0.000150 1.698320 
# 
# From -- ./inp_files/345226.got.cif
#   From: 2010.06.25/outbox.cif.g09.slc.cpg/sg2_173_cif.got.tgz:345226.got - 2010.06.27 13:26:56.
