data_PCOD8023594
_publ_section_title
;
Structure prediction by ZEFSAII (Michael W. Deem and Ramdas Pophale) SiO2 
 PCOD8023594
Probable space group: P -1
;
_chemical_formula_sum "Si O2"
_cell_formula_units_Z 16
_cell_length_a 15.914285
_cell_length_b 8.507214
_cell_length_c 9.137954
_cell_angle_alpha 126.600689
_cell_angle_beta 106.578082
_cell_angle_gamma 104.000498
_cell_volume 803.913359
_symmetry_space_group_name_H-M "P -1"
_symmetry_group_IT_number 2
_symmetry_cell_setting 'triclinic'
loop_
_space_group_symop_operation_xyz
x,y,z
-x,-y,-z
loop_
_atom_site_type_symbol
_atom_site_label
_atom_site_fract_x
_atom_site_fract_y
_atom_site_fract_z
Si Si1 0.040391 0.766179 0.692596
Si Si2 0.582299 0.731091 0.083404
Si Si3 0.211920 0.984283 0.128945
Si Si4 0.182220 0.117733 0.719899
Si Si5 0.571107 0.742411 0.744189
Si Si6 0.250850 0.584605 0.949494
Si Si7 0.847073 0.781339 0.534514
Si Si8 0.522538 0.064448 0.715249
O O1 0.000000 0.500000 0.500000
O O2 0.948601 0.813830 0.679049
O O3 0.119835 0.908108 0.681104
O O4 0.100949 0.858410 0.925360
O O5 0.700694 0.813413 0.207405
O O6 0.574219 0.934675 0.265914
O O7 0.500000 0.500000 0.000000
O O8 0.548401 0.709875 0.886299
O O9 0.305854 0.147615 0.156558
O O10 0.215476 0.155905 0.349459
O O11 0.224200 0.777368 0.082132
O O12 0.189927 0.359887 0.903645
O O13 0.123732 0.043013 0.491247
O O14 0.500000 0.500000 0.500000
O O15 0.538376 0.900067 0.736122
O O16 0.221465 0.484445 0.710834
O O17 0.371971 0.683702 0.086359
O O18 0.500000 0.000000 0.500000
#
# Coordination Sequence:
#
# PCOD8023594 Si02
#       8
#     2   2   2   2   2   2   2   2
#     4  12  22  45  69  97 136 174 224 285 342 391
#     4  12  22  42  68  95 136 179 219 271 341 399
#     4  11  23  44  68 100 132 174 229 278 338 405
#     4  10  23  42  67  96 133 175 221 274 339 402
#     4  11  26  41  64 101 141 172 226 280 337 410
#     4   9  22  42  67  92 137 170 221 273 335 394
#     4  10  23  41  71  92 128 180 222 275 338 397
#     4  11  24  40  69  97 136 177 224 275 340 410
#
# _framework density 19.902640999999999
#
# number of rings (size 3 to 8) (size 9 to 14) (size 15 to 20)
#    0.750    0.500    3.750    1.875    7.000    0.000 
#    2.250    3.750    0.000    0.000    0.000    0.000 
#    0.000    0.000    0.000    0.000    0.000    0.000 
#
# Total GULP energy -198238.949908 kJ/mol
# GULP energy per Si atom -12389.934369 kJ/mol
# Density = 1.985734 g / cm^3
# Si number density = 19.902641 Si / 1000 Ang^3
#
#
#
# Elastic Constant Matrix: (Units=GPa)
#
#
# Indices 1 2 3 4 5 6 
#
# 1 115.9810 38.0580 44.4332 6.1221 -7.8776 -8.2855
# 2 38.0580 123.0116 31.4857 4.3369 -3.7887 8.3470
# 3 44.4332 31.4857 103.9180 4.0981 -5.0893 -0.2674
# 4 6.1221 4.3369 4.0981 34.4769 0.8213 5.5933
# 5 -7.8776 -3.7887 -5.0893 0.8213 38.4364 -3.3203
# 6 -8.2855 8.3470 -0.2674 5.5933 -3.3203 26.6108
#
#
#
# Elastic Compliance Matrix: (Units=1/GPa)
#
#
# Indices 1 2 3 4 5 6 
#
# 1 0.011683 -0.002818 -0.003941 -0.002144 0.002089 0.005193
# 2 -0.002818 0.009713 -0.001764 0.000141 -0.000202 -0.003997
# 3 -0.003941 -0.001764 0.011887 -0.000441 0.000568 -0.000391
# 4 -0.002144 0.000141 -0.000441 0.030660 -0.001777 -0.007382
# 5 0.002089 -0.000202 0.000568 -0.001777 0.026923 0.004452
# 6 0.005193 -0.003997 -0.000391 -0.007382 0.004452 0.042553
#
#
# Mechanical properties :
#
#
# Convention : Reuss Voigt Hill
#
# Bulk Modulus (GPa) = 61.59073 63.42939 62.51006
# Shear Modulus (GPa) = 32.07676 35.16707 33.62192
#
# Velocity S-wave (km/s) = 4.01893 4.20808 4.11459
# Velocity P-wave (km/s) = 7.24907 7.45316 7.35182
#
# Compressibility (1/GPa) = 0.01623621
#
# Stress axis : x y z
#
# Youngs Moduli (GPa) = 85.59568 102.95916 84.12758
#
# Poissons Ratio (x) = 0.29016 0.33157
# Poissons Ratio (y) = 0.24122 0.14836
# Poissons Ratio (z) = 0.33735 0.18157
#
# Static dielectric constant tensor:
#      x y z
#    x 3.763550 -0.127850 0.130670 
#    y -0.127850 3.662060 0.054580 
#    z 0.130670 0.054580 3.602810 
# 
# 
# High freq. dielectric constant tensor:
#      x y z
#    x 1.783410 -0.019500 0.011520 
#    y -0.019500 1.774190 0.003310 
#    z 0.011520 0.003310 1.775840 
# 
# From -- ./inp_files/296819.got.cif
#   From: 2010.06.25/outbox.cif.g09.slc.cpg/sg2_149_cif.got.tgz:296819.got - 2010.06.27 13:26:56.
