data_PCOD8023490
_publ_section_title
;
Structure prediction by ZEFSAII (Michael W. Deem and Ramdas Pophale) SiO2 
 PCOD8023490
Probable space group: P -1
;
_chemical_formula_sum "Si O2"
_cell_formula_units_Z 16
_cell_length_a 8.229943
_cell_length_b 9.090654
_cell_length_c 17.830538
_cell_angle_alpha 86.262721
_cell_angle_beta 148.320629
_cell_angle_gamma 93.573307
_cell_volume 699.021768
_symmetry_space_group_name_H-M "P -1"
_symmetry_group_IT_number 2
_symmetry_cell_setting 'triclinic'
loop_
_space_group_symop_operation_xyz
x,y,z
-x,-y,-z
loop_
_atom_site_type_symbol
_atom_site_label
_atom_site_fract_x
_atom_site_fract_y
_atom_site_fract_z
Si Si1 0.936243 0.161973 0.337495
Si Si2 0.941136 0.341034 0.862778
Si Si3 0.501362 0.162603 0.027701
Si Si4 0.368261 0.398692 0.713489
Si Si5 0.579737 0.425207 0.954421
Si Si6 0.736480 0.291295 0.402706
Si Si7 0.286434 0.889057 0.466938
Si Si8 0.565681 0.347925 0.569671
O O1 0.761631 0.192476 0.190895
O O2 0.725766 0.204347 0.323446
O O3 0.245680 0.260595 0.460212
O O4 0.994731 0.986242 0.373510
O O5 0.684614 0.303740 0.827866
O O6 0.736674 0.387105 0.710884
O O7 0.172323 0.208553 0.935280
O O8 0.112902 0.489392 0.954728
O O9 0.602370 0.254443 0.990441
O O10 0.500000 0.000000 0.000000
O O11 0.338122 0.438451 0.789215
O O12 0.397697 0.547157 0.669238
O O13 0.076861 0.303389 0.574165
O O14 0.500000 0.500000 0.000000
O O15 0.549998 0.187105 0.393007
O O16 0.199548 0.752576 0.383043
O O17 0.500000 0.000000 0.500000
O O18 0.500000 0.500000 0.500000
#
# Coordination Sequence:
#
# PCOD8023490 Si02
#       8
#     2   2   2   2   2   2   2   2
#     4  11  23  44  64 101 136 181 229 277 354 406
#     4  11  22  43  64  97 135 175 230 282 345 403
#     4  11  25  44  68  99 139 189 228 274 342 424
#     4  11  24  41  69 104 133 178 232 290 350 402
#     4  10  23  41  68  95 135 182 227 281 342 412
#     4  11  23  41  70 101 137 175 232 290 350 408
#     4  10  24  41  65 100 138 181 221 287 345 414
#     4  11  22  39  68 100 134 172 231 288 339 404
#
# _framework density 22.889130000000002
#
# number of rings (size 3 to 8) (size 9 to 14) (size 15 to 20)
#    0.000    1.250    1.250    4.500    7.000    1.000 
#    0.000    0.625    0.000    0.000    0.000    0.000 
#    0.000    0.000    0.000    0.000    0.000    0.000 
#
# Total GULP energy -198213.357982 kJ/mol
# GULP energy per Si atom -12388.334874 kJ/mol
# Density = 2.283703 g / cm^3
# Si number density = 22.889130 Si / 1000 Ang^3
#
#
#
# Elastic Constant Matrix: (Units=GPa)
#
#
# Indices 1 2 3 4 5 6 
#
# 1 64.6228 34.4896 5.3831 -3.9224 -16.0095 -3.6095
# 2 34.4896 136.2813 25.2566 -8.1271 -4.0004 -1.1452
# 3 5.3831 25.2566 105.1592 2.6350 -20.6729 3.3821
# 4 -3.9224 -8.1271 2.6350 31.2512 -0.7280 -7.2147
# 5 -16.0095 -4.0004 -20.6729 -0.7280 39.6036 -11.0868
# 6 -3.6095 -1.1452 3.3821 -7.2147 -11.0868 40.2618
#
#
#
# Elastic Compliance Matrix: (Units=1/GPa)
#
#
# Indices 1 2 3 4 5 6 
#
# 1 0.021114 -0.005218 0.002012 0.002501 0.010478 0.004909
# 2 -0.005218 0.009143 -0.002461 0.001783 -0.002545 -0.000382
# 3 0.002012 -0.002461 0.011309 -0.000996 0.006680 0.000821
# 4 0.002501 0.001783 -0.000996 0.034674 0.003411 0.007511
# 5 0.010478 -0.002545 0.006680 0.003411 0.035794 0.010774
# 6 0.004909 -0.000382 0.000821 0.007511 0.010774 0.029510
#
#
# Mechanical properties :
#
#
# Convention : Reuss Voigt Hill
#
# Bulk Modulus (GPa) = 33.07958 48.48021 40.77990
# Shear Modulus (GPa) = 30.68294 38.28559 34.48427
#
# Velocity S-wave (km/s) = 3.66526 4.09425 3.88568
# Velocity P-wave (km/s) = 5.69172 6.60128 6.16330
#
# Compressibility (1/GPa) = 0.03023013
#
# Stress axis : x y z
#
# Youngs Moduli (GPa) = 47.36255 109.37387 88.42319
#
# Poissons Ratio (x) = 0.57074 -0.17789
# Poissons Ratio (y) = 0.24715 0.21765
# Poissons Ratio (z) = -0.09529 0.26922
#
# Static dielectric constant tensor:
#      x y z
#    x 4.841050 -0.340860 -0.142530 
#    y -0.340860 5.208220 0.035670 
#    z -0.142530 0.035670 4.164790 
# 
# 
# High freq. dielectric constant tensor:
#      x y z
#    x 1.908500 -0.008250 -0.019340 
#    y -0.008250 1.908540 0.002700 
#    z -0.019340 0.002700 1.894710 
# 
# From -- ./inp_files/216334.got.cif
#   From: 2010.06.25/outbox.cif.g09.slc.cpg/sg2_109_cif.got.tgz:216334.got - 2010.06.27 13:26:56.
