data_PCOD8023603
_publ_section_title
;
Structure prediction by ZEFSAII (Michael W. Deem and Ramdas Pophale) SiO2 
 PCOD8023603
Probable space group: P -1
;
_chemical_formula_sum "Si O2"
_cell_formula_units_Z 16
_cell_length_a 17.819274
_cell_length_b 23.418134
_cell_length_c 13.877494
_cell_angle_alpha 19.043099
_cell_angle_beta 149.083037
_cell_angle_gamma 159.110467
_cell_volume 657.697652
_symmetry_space_group_name_H-M "P -1"
_symmetry_group_IT_number 2
_symmetry_cell_setting 'triclinic'
loop_
_space_group_symop_operation_xyz
x,y,z
-x,-y,-z
loop_
_atom_site_type_symbol
_atom_site_label
_atom_site_fract_x
_atom_site_fract_y
_atom_site_fract_z
Si Si1 0.745799 0.735724 0.421182
Si Si2 0.171299 0.588172 0.969550
Si Si3 0.025351 0.103312 0.758028
Si Si4 0.558174 0.648945 0.925028
Si Si5 0.032921 0.547983 0.674295
Si Si6 0.248930 0.948471 0.936789
Si Si7 0.634411 0.154828 0.593039
Si Si8 0.658336 0.427904 0.525498
O O1 0.500000 0.500000 0.500000
O O2 0.867325 0.928185 0.154665
O O3 0.781796 0.887417 0.312188
O O4 0.853321 0.641456 0.707108
O O5 0.121746 0.641586 0.730095
O O6 0.415317 0.851695 0.843619
O O7 0.000000 0.500000 0.000000
O O8 0.201414 0.412635 0.476121
O O9 0.792627 0.952349 0.699588
O O10 0.000000 0.000000 0.000000
O O11 0.389589 0.656746 0.742166
O O12 0.500000 0.500000 0.000000
O O13 0.554380 0.509642 0.231957
O O14 0.223170 0.782885 0.439951
O O15 0.817397 0.480157 0.538695
O O16 0.955608 0.281692 0.988132
O O17 0.464986 0.131961 0.817274
O O18 0.243686 0.789228 0.264224
#
# Coordination Sequence:
#
# PCOD8023603 Si02
#       8
#     2   2   2   2   2   2   2   2
#     4  12  24  45  77 105 142 189 245 299 355 435
#     4  12  27  50  75 108 145 194 245 297 361 435
#     4  10  23  41  71  98 135 186 243 284 354 425
#     4  11  26  43  71 105 148 186 239 298 364 427
#     4  12  28  45  75 109 148 187 241 307 364 426
#     4  12  27  47  75 107 149 190 243 298 374 427
#     4  12  26  47  72 109 148 187 246 297 360 431
#     4  11  24  48  73 100 143 199 243 287 365 439
#
# _framework density 24.327286999999998
#
# number of rings (size 3 to 8) (size 9 to 14) (size 15 to 20)
#    0.000    0.500    2.500    4.875    7.000    2.500 
#    0.000    0.000    0.000    0.000    0.000    0.000 
#    0.000    0.000    0.000    0.000    0.000    0.000 
#
# Total GULP energy -198333.652811 kJ/mol
# GULP energy per Si atom -12395.853301 kJ/mol
# Density = 2.427192 g / cm^3
# Si number density = 24.327287 Si / 1000 Ang^3
#
#
#
# Elastic Constant Matrix: (Units=GPa)
#
#
# Indices 1 2 3 4 5 6 
#
# 1 148.3467 32.4506 34.2427 -2.9483 -11.2509 28.7975
# 2 32.4506 64.7363 13.5688 -11.6898 -4.2310 2.2601
# 3 34.2427 13.5688 86.3215 14.4221 4.7960 14.9733
# 4 -2.9483 -11.6898 14.4221 50.7475 5.1820 3.6742
# 5 -11.2509 -4.2310 4.7960 5.1820 51.2169 -8.9977
# 6 28.7975 2.2601 14.9733 3.6742 -8.9977 49.6276
#
#
#
# Elastic Compliance Matrix: (Units=1/GPa)
#
#
# Indices 1 2 3 4 5 6 
#
# 1 0.009013 -0.003692 -0.002426 0.000551 0.001114 -0.004169
# 2 -0.003692 0.018666 -0.002614 0.004605 0.000842 0.001893
# 3 -0.002426 -0.002614 0.014304 -0.004383 -0.002146 -0.002854
# 4 0.000551 0.004605 -0.004383 0.022284 -0.001542 -0.001136
# 5 0.001114 0.000842 -0.002146 -0.001542 0.020875 0.003862
# 6 -0.004169 0.001893 -0.002854 -0.001136 0.003862 0.024128
#
#
# Mechanical properties :
#
#
# Convention : Reuss Voigt Hill
#
# Bulk Modulus (GPa) = 40.78279 51.10319 45.94299
# Shear Modulus (GPa) = 37.06245 44.92789 40.99517
#
# Velocity S-wave (km/s) = 3.90743 4.30212 4.10951
# Velocity P-wave (km/s) = 6.09573 6.76238 6.43769
#
# Compressibility (1/GPa) = 0.02452015
#
# Stress axis : x y z
#
# Youngs Moduli (GPa) = 110.94814 53.57218 69.90897
#
# Poissons Ratio (x) = 0.19778 0.16959
# Poissons Ratio (y) = 0.40960 0.18275
# Poissons Ratio (z) = 0.26915 0.14005
#
# Static dielectric constant tensor:
#      x y z
#    x 4.584560 0.046360 0.081330 
#    y 0.046360 4.560770 -0.159050 
#    z 0.081330 -0.159050 4.454190 
# 
# 
# High freq. dielectric constant tensor:
#      x y z
#    x 1.982650 0.003210 -0.001050 
#    y 0.003210 1.968040 -0.009420 
#    z -0.001050 -0.009420 1.963800 
# 
# From -- ./inp_files/539280.got.cif
#   From: 2010.06.25/outbox.cif.g09.slc.cpg/sg2_270_cif.got.tgz:539280.got - 2010.06.27 13:26:56.
