data_PCOD8023266
_publ_section_title
;
Structure prediction by ZEFSAII (Michael W. Deem and Ramdas Pophale) SiO2 
 PCOD8023266
Probable space group: P -1
;
_chemical_formula_sum "Si O2"
_cell_formula_units_Z 12
_cell_length_a 18.636338
_cell_length_b 21.746914
_cell_length_c 11.526351
_cell_angle_alpha 29.562258
_cell_angle_beta 22.333473
_cell_angle_gamma 19.167671
_cell_volume 582.551474
_symmetry_space_group_name_H-M "P -1"
_symmetry_group_IT_number 2
_symmetry_cell_setting 'triclinic'
loop_
_space_group_symop_operation_xyz
x,y,z
-x,-y,-z
loop_
_atom_site_type_symbol
_atom_site_label
_atom_site_fract_x
_atom_site_fract_y
_atom_site_fract_z
Si Si1 0.979714 0.643884 0.102869
Si Si2 0.554313 0.243955 0.224587
Si Si3 0.636118 0.429284 0.160236
Si Si4 0.751775 0.593046 0.130132
Si Si5 0.679808 0.995876 0.824147
Si Si6 0.911457 0.085177 0.174513
O O1 0.733161 0.692671 0.459039
O O2 0.218129 0.563064 0.970108
O O3 0.121591 0.480555 0.066695
O O4 0.861781 0.825048 0.920405
O O5 0.652314 0.200527 0.282460
O O6 0.512510 0.405009 0.979886
O O7 0.787155 0.057421 0.105309
O O8 0.392100 0.464856 0.521976
O O9 0.872434 0.230711 0.066825
O O10 0.527842 0.815659 0.098750
O O11 0.000000 0.500000 0.000000
O O12 0.899314 0.971784 0.462865
O O13 0.500000 0.000000 0.000000
#
# Coordination Sequence:
#
# PCOD8023266 Si02
#       6
#     2   2   2   2   2   2
#     4  12  24  40  63  95 125 163 200 256 314 358
#     4  11  23  41  64  87 129 164 207 247 303 371
#     4  11  25  41  61  93 130 158 205 255 308 366
#     4  11  23  40  67  91 119 164 208 253 306 359
#     4  11  21  41  66  89 122 156 211 257 297 364
#     4  10  23  41  64  91 118 168 208 252 303 358
#
# _framework density 20.599038
#
# number of rings (size 3 to 8) (size 9 to 14) (size 15 to 20)
#    0.000    1.000    3.333    3.500    0.000    6.000 
#    0.000    0.000    0.000    0.000    0.000    0.000 
#    0.000    0.000    0.000    0.000    0.000    0.000 
#
# Total GULP energy -148895.167202 kJ/mol
# GULP energy per Si atom -12407.930600 kJ/mol
# Density = 2.055215 g / cm^3
# Si number density = 20.599038 Si / 1000 Ang^3
#
#
#
# Elastic Constant Matrix: (Units=GPa)
#
#
# Indices 1 2 3 4 5 6 
#
# 1 80.0459 23.6937 31.7480 10.8623 -6.5140 25.0273
# 2 23.6937 82.3345 28.4788 -6.8876 10.6945 8.9309
# 3 31.7480 28.4788 108.7488 17.2239 -8.4421 11.3287
# 4 10.8623 -6.8876 17.2239 29.5485 0.1415 6.5232
# 5 -6.5140 10.6945 -8.4421 0.1415 30.5341 -1.4305
# 6 25.0273 8.9309 11.3287 6.5232 -1.4305 34.5950
#
#
#
# Elastic Compliance Matrix: (Units=1/GPa)
#
#
# Indices 1 2 3 4 5 6 
#
# 1 0.019073 -0.004501 -0.002206 -0.004391 0.004546 -0.010898
# 2 -0.004501 0.017257 -0.005139 0.009062 -0.008541 -0.001578
# 3 -0.002206 -0.005139 0.012782 -0.007959 0.004921 0.000441
# 4 -0.004391 0.009062 -0.007959 0.043346 -0.006747 -0.005009
# 5 0.004546 -0.008541 0.004921 -0.006747 0.038111 0.000153
# 6 -0.010898 -0.001578 0.000441 -0.005009 0.000153 0.038004
#
#
# Mechanical properties :
#
#
# Convention : Reuss Voigt Hill
#
# Bulk Modulus (GPa) = 39.33977 48.77446 44.05711
# Shear Modulus (GPa) = 24.90801 31.41610 28.16206
#
# Velocity S-wave (km/s) = 3.48110 3.90952 3.70152
# Velocity P-wave (km/s) = 5.94111 6.64143 6.30101
#
# Compressibility (1/GPa) = 0.02541957
#
# Stress axis : x y z
#
# Youngs Moduli (GPa) = 52.42934 57.94693 78.23608
#
# Poissons Ratio (x) = 0.26084 0.17257
# Poissons Ratio (y) = 0.23601 0.40206
# Poissons Ratio (z) = 0.11565 0.29779
#
# Static dielectric constant tensor:
#      x y z
#    x 3.785270 0.305600 0.099870 
#    y 0.305600 7.324850 -0.856220 
#    z 0.099870 -0.856220 3.977890 
# 
# 
# High freq. dielectric constant tensor:
#      x y z
#    x 1.806510 0.006850 0.006200 
#    y 0.006850 1.817410 0.000260 
#    z 0.006200 0.000260 1.812910 
# 
# From -- ./inp_files/149301.got.cif
#   From: 2010.06.25/outbox.cif.g09.slc.cpg/sg2_75_cif.got.tgz:149301.got - 2010.06.27 13:26:56.
