data_PCOD8023341
_publ_section_title
;
Structure prediction by ZEFSAII (Michael W. Deem and Ramdas Pophale) SiO2 
 PCOD8023341
Probable space group: P -1
;
_chemical_formula_sum "Si O2"
_cell_formula_units_Z 16
_cell_length_a 14.695210
_cell_length_b 9.522427
_cell_length_c 8.544402
_cell_angle_alpha 91.446666
_cell_angle_beta 88.705769
_cell_angle_gamma 35.686525
_cell_volume 695.355808
_symmetry_space_group_name_H-M "P -1"
_symmetry_group_IT_number 2
_symmetry_cell_setting 'triclinic'
loop_
_space_group_symop_operation_xyz
x,y,z
-x,-y,-z
loop_
_atom_site_type_symbol
_atom_site_label
_atom_site_fract_x
_atom_site_fract_y
_atom_site_fract_z
Si Si1 0.102547 0.491627 0.744532
Si Si2 0.751387 0.589549 0.564520
Si Si3 0.665291 0.240562 0.668147
Si Si4 0.119271 0.753334 0.895593
Si Si5 0.314134 0.507425 0.167441
Si Si6 0.608953 0.976928 0.078708
Si Si7 0.663226 0.441907 0.384876
Si Si8 0.776320 0.819526 0.757997
O O1 0.118690 0.516125 0.562273
O O2 0.041023 0.705027 0.848169
O O3 0.268732 0.231071 0.800615
O O4 0.963389 0.550448 0.762011
O O5 0.803387 0.422239 0.701738
O O6 0.635771 0.631748 0.469862
O O7 0.685040 0.811944 0.663240
O O8 0.698513 0.309310 0.806915
O O9 0.694643 0.279909 0.503680
O O10 0.490224 0.402280 0.701871
O O11 0.776069 0.966826 0.668605
O O12 0.186956 0.746065 0.739881
O O13 0.263592 0.531372 0.995827
O O14 0.000000 0.000000 0.000000
O O15 0.493730 0.230951 0.178698
O O16 0.704333 0.931981 0.935137
O O17 0.500000 0.000000 0.000000
#
# Coordination Sequence:
#
# PCOD8023341 Si02
#       8
#     2   2   2   2   2   2   2   2
#     4  11  25  42  64 101 131 170 222 272 324 381
#     4  10  23  42  67  90 133 175 221 263 320 389
#     4  10  23  41  65  97 134 165 220 276 323 377
#     4  11  22  39  66  93 133 173 214 260 333 392
#     4  11  23  43  66  97 128 176 218 267 325 387
#     4  12  24  44  68  96 128 174 219 272 320 394
#     4   9  22  42  62  95 131 176 220 262 320 392
#     4  12  24  42  67  99 135 169 219 274 326 383
#
# _framework density 23.009803999999999
#
# number of rings (size 3 to 8) (size 9 to 14) (size 15 to 20)
#    0.000    1.250    2.500    2.250    1.750    8.000 
#    0.000    5.000    0.000    0.000    0.000    0.000 
#    0.000    0.000    0.000    0.000    0.000    0.000 
#
# Total GULP energy -198244.976596 kJ/mol
# GULP energy per Si atom -12390.311037 kJ/mol
# Density = 2.295743 g / cm^3
# Si number density = 23.009804 Si / 1000 Ang^3
#
#
#
# Elastic Constant Matrix: (Units=GPa)
#
#
# Indices 1 2 3 4 5 6 
#
# 1 103.3239 33.5985 40.8610 -5.8085 -5.9539 12.8354
# 2 33.5985 97.1089 28.7322 3.9694 -1.4465 8.3672
# 3 40.8610 28.7322 119.0092 6.5745 -6.1288 3.8824
# 4 -5.8085 3.9694 6.5745 27.6926 4.8059 4.5250
# 5 -5.9539 -1.4465 -6.1288 4.8059 32.9174 9.3276
# 6 12.8354 8.3672 3.8824 4.5250 9.3276 38.0171
#
#
#
# Elastic Compliance Matrix: (Units=1/GPa)
#
#
# Indices 1 2 3 4 5 6 
#
# 1 0.013110 -0.003207 -0.003719 0.004440 0.002134 -0.004393
# 2 -0.003207 0.012086 -0.001660 -0.001853 0.000268 -0.001253
# 3 -0.003719 -0.001660 0.010323 -0.003350 0.001496 0.000599
# 4 0.004440 -0.001853 -0.003350 0.039588 -0.004443 -0.004371
# 5 0.002134 0.000268 0.001496 -0.004443 0.034196 -0.008793
# 6 -0.004393 -0.001253 0.000599 -0.004371 -0.008793 0.030679
#
#
# Mechanical properties :
#
#
# Convention : Reuss Voigt Hill
#
# Bulk Modulus (GPa) = 54.50296 58.42505 56.46400
# Shear Modulus (GPa) = 30.62409 34.14211 32.38310
#
# Velocity S-wave (km/s) = 3.65213 3.85620 3.75555
# Velocity P-wave (km/s) = 6.44378 6.72856 6.58771
#
# Compressibility (1/GPa) = 0.01834763
#
# Stress axis : x y z
#
# Youngs Moduli (GPa) = 76.27685 82.74030 96.87119
#
# Poissons Ratio (x) = 0.26533 0.36028
# Poissons Ratio (y) = 0.24460 0.16080
# Poissons Ratio (z) = 0.28368 0.13734
#
# Static dielectric constant tensor:
#      x y z
#    x 4.310270 0.056890 0.077470 
#    y 0.056890 3.925080 -0.090680 
#    z 0.077470 -0.090680 4.329870 
# 
# 
# High freq. dielectric constant tensor:
#      x y z
#    x 1.918080 0.010340 0.000160 
#    y 0.010340 1.879750 -0.003150 
#    z 0.000160 -0.003150 1.922830 
# 
# From -- ./inp_files/283330.got.cif
#   From: 2010.06.25/outbox.cif.g09.slc.cpg/sg2_142_cif.got.tgz:283330.got - 2010.06.27 13:26:56.
