data_PCOD8023099
_publ_section_title
;
Structure prediction by ZEFSAII (Michael W. Deem and Ramdas Pophale) SiO2 
 PCOD8023099
Probable space group: P -1
;
_chemical_formula_sum "Si O2"
_cell_formula_units_Z 16
_cell_length_a 20.353369
_cell_length_b 10.317847
_cell_length_c 11.981438
_cell_angle_alpha 36.421606
_cell_angle_beta 144.688645
_cell_angle_gamma 145.546647
_cell_volume 753.013767
_symmetry_space_group_name_H-M "P -1"
_symmetry_group_IT_number 2
_symmetry_cell_setting 'triclinic'
loop_
_space_group_symop_operation_xyz
x,y,z
-x,-y,-z
loop_
_atom_site_type_symbol
_atom_site_label
_atom_site_fract_x
_atom_site_fract_y
_atom_site_fract_z
Si Si1 0.081513 0.570707 0.308103
Si Si2 0.296681 0.482553 0.735348
Si Si3 0.262495 0.180148 0.670897
Si Si4 0.470269 0.998266 0.331146
Si Si5 0.046418 0.274293 0.247523
Si Si6 0.219316 0.989782 0.045966
Si Si7 0.407326 0.529449 0.437330
Si Si8 0.817596 0.379761 0.005525
O O1 0.173827 0.534003 0.550532
O O2 0.054681 0.366460 0.319134
O O3 0.932294 0.510650 0.171592
O O4 0.170100 0.854231 0.189860
O O5 0.298181 0.370553 0.692647
O O6 0.433156 0.731387 0.773604
O O7 0.290256 0.289395 0.955298
O O8 0.128408 0.128017 0.461021
O O9 0.368119 0.316493 0.624704
O O10 0.257031 0.921186 0.877427
O O11 0.500000 0.000000 0.500000
O O12 0.488266 0.795498 0.426991
O O13 0.317597 0.918126 0.167834
O O14 0.101147 0.515049 0.072578
O O15 0.898860 0.067219 0.161939
O O16 0.500000 0.500000 0.500000
O O17 0.286238 0.520924 0.204922
#
# Coordination Sequence:
#
# PCOD8023099 Si02
#       8
#     2   2   2   2   2   2   2   2
#     4  10  17  29  48  79 117 137 170 220 271 319
#     4  11  20  30  53  82 111 143 172 217 272 323
#     4  10  18  33  55  81 108 135 179 222 268 318
#     4  12  21  38  53  78 115 143 178 221 263 316
#     4   9  17  28  47  81 116 138 167 221 272 316
#     4  11  19  30  50  81 116 144 171 214 276 320
#     4  11  24  40  56  76 107 145 183 223 262 311
#     4  10  19  32  54  80 107 143 177 222 268 313
#
# _framework density 21.247952999999999
#
# number of rings (size 3 to 8) (size 9 to 14) (size 15 to 20)
#    0.000    1.500    2.500    7.125    0.000    2.500 
#    0.000    0.000    0.000    0.750    0.000    8.750 
#    0.000    0.000    0.000    0.000    0.000    0.000 
#
# Total GULP energy -198234.876476 kJ/mol
# GULP energy per Si atom -12389.679780 kJ/mol
# Density = 2.119959 g / cm^3
# Si number density = 21.247953 Si / 1000 Ang^3
#
#
#
# Elastic Constant Matrix: (Units=GPa)
#
#
# Indices 1 2 3 4 5 6 
#
# 1 71.9385 42.3758 37.9936 -3.7849 16.7801 10.6481
# 2 42.3758 110.3510 30.4804 -13.7976 10.2910 21.8494
# 3 37.9936 30.4804 88.9920 -15.9603 6.8100 9.8076
# 4 -3.7849 -13.7976 -15.9603 38.8559 12.8296 -3.5110
# 5 16.7801 10.2910 6.8100 12.8296 22.8953 1.3909
# 6 10.6481 21.8494 9.8076 -3.5110 1.3909 19.5943
#
#
#
# Elastic Compliance Matrix: (Units=1/GPa)
#
#
# Indices 1 2 3 4 5 6 
#
# 1 0.024627 -0.005420 -0.006849 0.002298 -0.014714 -0.002455
# 2 -0.005420 0.014636 -0.000096 0.005089 -0.004696 -0.012082
# 3 -0.006849 -0.000096 0.015940 0.006674 -0.003253 -0.002723
# 4 0.002298 0.005089 0.006674 0.039691 -0.028127 -0.001155
# 5 -0.014714 -0.004696 -0.003253 -0.028127 0.073019 0.004637
# 6 -0.002455 -0.012082 -0.002723 -0.001155 0.004637 0.066669
#
#
# Mechanical properties :
#
#
# Convention : Reuss Voigt Hill
#
# Bulk Modulus (GPa) = 32.81467 54.77569 43.79518
# Shear Modulus (GPa) = 18.55501 26.96456 22.75978
#
# Velocity S-wave (km/s) = 2.95830 3.56623 3.27640
# Velocity P-wave (km/s) = 5.21018 6.54160 5.91348
#
# Compressibility (1/GPa) = 0.03047418
#
# Stress axis : x y z
#
# Youngs Moduli (GPa) = 40.60584 68.32463 62.73576
#
# Poissons Ratio (x) = 0.37029 0.42969
# Poissons Ratio (y) = 0.22006 0.00600
# Poissons Ratio (z) = 0.27812 0.00654
#
# Static dielectric constant tensor:
#      x y z
#    x 3.190640 0.611520 0.146810 
#    y 0.611520 4.328200 0.472450 
#    z 0.146810 0.472450 4.891300 
# 
# 
# High freq. dielectric constant tensor:
#      x y z
#    x 1.744230 0.048220 -0.000820 
#    y 0.048220 1.840340 0.000750 
#    z -0.000820 0.000750 1.864550 
# 
# From -- ./inp_files/542843.got.cif
#   From: 2010.06.25/outbox.cif.g09.slc.cpg/sg2_272_cif.got.tgz:542843.got - 2010.06.27 13:26:56.
