data_PCOD8023867
_publ_section_title
;
Structure prediction by ZEFSAII (Michael W. Deem and Ramdas Pophale) SiO2 
 PCOD8023867
Probable space group: P -1
;
_chemical_formula_sum "Si O2"
_cell_formula_units_Z 16
_cell_length_a 8.466066
_cell_length_b 6.467638
_cell_length_c 19.079630
_cell_angle_alpha 94.206230
_cell_angle_beta 42.474496
_cell_angle_gamma 97.271347
_cell_volume 699.469830
_symmetry_space_group_name_H-M "P -1"
_symmetry_group_IT_number 2
_symmetry_cell_setting 'triclinic'
loop_
_space_group_symop_operation_xyz
x,y,z
-x,-y,-z
loop_
_atom_site_type_symbol
_atom_site_label
_atom_site_fract_x
_atom_site_fract_y
_atom_site_fract_z
Si Si1 0.426202 0.674460 0.977920
Si Si2 0.043346 0.866228 0.667916
Si Si3 0.529141 0.672295 0.792983
Si Si4 0.593306 0.404237 0.396756
Si Si5 0.148246 0.967892 0.881643
Si Si6 0.149798 0.990759 0.136599
Si Si7 0.243425 0.013987 0.462643
Si Si8 0.563592 0.689565 0.288252
O O1 0.402412 0.584684 0.904391
O O2 0.613003 0.876661 0.913412
O O3 0.500000 0.500000 0.000000
O O4 0.192627 0.763302 0.086270
O O5 0.168347 0.690141 0.663001
O O6 0.791618 0.779547 0.718003
O O7 0.013770 0.042753 0.741302
O O8 0.206582 0.963267 0.555246
O O9 0.365390 0.835526 0.817653
O O10 0.562603 0.483616 0.726062
O O11 0.500000 0.500000 0.500000
O O12 0.396868 0.239069 0.418770
O O13 0.664597 0.584138 0.321055
O O14 0.963564 0.865816 0.881680
O O15 0.230330 0.187802 0.822039
O O16 0.000000 0.000000 0.000000
O O17 0.379420 0.842781 0.376600
O O18 0.000000 0.000000 0.500000
#
# Coordination Sequence:
#
# PCOD8023867 Si02
#       8
#     2   2   2   2   2   2   2   2
#     4  10  23  42  67 100 138 182 242 299 360 426
#     4  11  24  47  75 103 152 190 240 301 364 434
#     4  11  26  46  68 111 141 194 246 295 368 440
#     4  12  27  48  75 111 148 191 251 295 363 437
#     4  12  26  47  73 102 145 191 241 304 368 438
#     4  10  23  43  68  96 142 183 236 297 359 426
#     4  12  27  47  75 112 152 194 240 300 367 434
#     4  12  27  46  74 103 152 191 240 303 365 433
#
# _framework density 22.874468
#
# number of rings (size 3 to 8) (size 9 to 14) (size 15 to 20)
#    0.000    0.750    2.500    4.125    5.250    5.500 
#    0.000    0.000    0.000    0.000    0.000    0.000 
#    0.000    0.000    0.000    0.000    0.000    0.000 
#
# Total GULP energy -198329.561104 kJ/mol
# GULP energy per Si atom -12395.597569 kJ/mol
# Density = 2.282240 g / cm^3
# Si number density = 22.874468 Si / 1000 Ang^3
#
#
#
# Elastic Constant Matrix: (Units=GPa)
#
#
# Indices 1 2 3 4 5 6 
#
# 1 129.4595 48.7415 54.1417 15.5601 5.2809 -17.1498
# 2 48.7415 108.8678 64.9369 10.7182 9.1046 -15.7903
# 3 54.1417 64.9369 158.8093 12.6984 26.2407 -4.0929
# 4 15.5601 10.7182 12.6984 36.0226 -7.8913 12.9445
# 5 5.2809 9.1046 26.2407 -7.8913 55.8285 5.4103
# 6 -17.1498 -15.7903 -4.0929 12.9445 5.4103 38.8060
#
#
#
# Elastic Compliance Matrix: (Units=1/GPa)
#
#
# Indices 1 2 3 4 5 6 
#
# 1 0.010877 -0.002177 -0.002046 -0.005621 -0.001062 0.005729
# 2 -0.002177 0.014106 -0.004351 -0.004086 -0.001194 0.005848
# 3 -0.002046 -0.004351 0.009530 -0.001817 -0.003781 -0.000536
# 4 -0.005621 -0.004086 -0.001817 0.041163 0.009753 -0.019429
# 5 -0.001062 -0.001194 -0.003781 0.009753 0.022108 -0.007689
# 6 0.005729 0.005848 -0.000536 -0.019429 -0.007689 0.038177
#
#
# Mechanical properties :
#
#
# Convention : Reuss Voigt Hill
#
# Bulk Modulus (GPa) = 57.58463 81.41965 69.50214
# Shear Modulus (GPa) = 31.46735 41.41917 36.44326
#
# Velocity S-wave (km/s) = 3.71300 4.25987 3.99580
# Velocity P-wave (km/s) = 6.60384 7.73736 7.19296
#
# Compressibility (1/GPa) = 0.01736575
#
# Stress axis : x y z
#
# Youngs Moduli (GPa) = 91.93486 70.89425 104.93661
#
# Poissons Ratio (x) = 0.15431 0.21467
# Poissons Ratio (y) = 0.20010 0.45658
# Poissons Ratio (z) = 0.18807 0.30846
#
# Static dielectric constant tensor:
#      x y z
#    x 4.457200 0.048780 0.208230 
#    y 0.048780 4.044610 0.178270 
#    z 0.208230 0.178270 4.630460 
# 
# 
# High freq. dielectric constant tensor:
#      x y z
#    x 1.924120 -0.004460 0.012640 
#    y -0.004460 1.887300 0.011920 
#    z 0.012640 0.011920 1.928050 
# 
# From -- ./inp_files/585676.got.cif
#   From: 2010.06.25/outbox.cif.g09.slc.cpg/sg2_293_cif.got.tgz:585676.got - 2010.06.27 13:26:56.
