data_PCOD8023892
_publ_section_title
;
Structure prediction by ZEFSAII (Michael W. Deem and Ramdas Pophale) SiO2 
 PCOD8023892
Probable space group: P -1
;
_chemical_formula_sum "Si O2"
_cell_formula_units_Z 14
_cell_length_a 8.646607
_cell_length_b 14.658473
_cell_length_c 14.870531
_cell_angle_alpha 39.650308
_cell_angle_beta 145.552446
_cell_angle_gamma 141.924353
_cell_volume 616.805871
_symmetry_space_group_name_H-M "P -1"
_symmetry_group_IT_number 2
_symmetry_cell_setting 'triclinic'
loop_
_space_group_symop_operation_xyz
x,y,z
-x,-y,-z
loop_
_atom_site_type_symbol
_atom_site_label
_atom_site_fract_x
_atom_site_fract_y
_atom_site_fract_z
Si Si1 0.606462 0.184842 0.897889
Si Si2 0.442501 0.305844 0.414442
Si Si3 0.718949 0.129779 0.803959
Si Si4 0.226818 0.777109 0.860111
Si Si5 0.300414 0.404039 0.560952
Si Si6 0.638381 0.694811 0.006005
Si Si7 0.358250 0.637391 0.731419
O O1 0.769791 0.229714 0.845879
O O2 0.341303 0.244721 0.722623
O O3 0.820548 0.270387 0.020643
O O4 0.500000 0.000000 0.000000
O O5 0.581415 0.200152 0.609308
O O6 0.610499 0.486422 0.390461
O O7 0.482785 0.287228 0.342529
O O8 0.087931 0.238796 0.319401
O O9 0.491082 0.950045 0.842434
O O10 0.062308 0.157721 0.924028
O O11 0.344210 0.663489 0.949612
O O12 0.500000 0.500000 0.500000
O O13 0.950651 0.344959 0.416957
O O14 0.576249 0.731619 0.846014
O O15 0.711293 0.544702 0.160218
#
# Coordination Sequence:
#
# PCOD8023892 Si02
#       7
#     2   2   2   2   2   2   2
#     4  10  23  42  67  94 135 173 221 267 337 395
#     4  12  24  41  67 100 134 171 227 277 332 395
#     4  11  23  44  66  93 137 177 219 279 334 395
#     4  11  25  42  67  96 132 180 225 271 335 397
#     4  12  22  41  71 101 133 174 223 278 334 395
#     4  11  23  44  66  97 131 175 225 274 335 399
#     4  11  25  41  68  98 136 168 223 283 334 391
#
# _framework density 22.697579999999999
#
# number of rings (size 3 to 8) (size 9 to 14) (size 15 to 20)
#    0.000    0.857    2.857    3.857    2.000    4.571 
#    0.000    0.714    0.000    0.000    0.000    0.000 
#    0.000    0.000    0.000    0.000    0.000    0.000 
#
# Total GULP energy -173585.417664 kJ/mol
# GULP energy per Si atom -12398.958405 kJ/mol
# Density = 2.264592 g / cm^3
# Si number density = 22.697580 Si / 1000 Ang^3
#
#
#
# Elastic Constant Matrix: (Units=GPa)
#
#
# Indices 1 2 3 4 5 6 
#
# 1 85.4527 -7.2854 47.8206 2.5475 -1.9468 1.4604
# 2 -7.2854 55.9425 44.8881 2.8489 13.5703 7.8120
# 3 47.8206 44.8881 163.3984 12.7161 6.6663 7.5814
# 4 2.5475 2.8489 12.7161 41.4118 4.7856 8.7662
# 5 -1.9468 13.5703 6.6663 4.7856 45.9036 10.0430
# 6 1.4604 7.8120 7.5814 8.7662 10.0430 32.5084
#
#
#
# Elastic Compliance Matrix: (Units=1/GPa)
#
#
# Indices 1 2 3 4 5 6 
#
# 1 0.016224 0.007886 -0.006912 0.000870 -0.000491 -0.001095
# 2 0.007886 0.028784 -0.009958 0.002067 -0.006156 -0.003605
# 3 -0.006912 -0.009958 0.011003 -0.002501 0.001218 0.000436
# 4 0.000870 0.002067 -0.002501 0.026286 -0.001513 -0.006573
# 5 -0.000491 -0.006156 0.001218 -0.001513 0.024891 -0.006065
# 6 -0.001095 -0.003605 0.000436 -0.006573 -0.006065 0.035221
#
#
# Mechanical properties :
#
#
# Convention : Reuss Voigt Hill
#
# Bulk Modulus (GPa) = 26.28466 52.84892 39.56679
# Shear Modulus (GPa) = 28.89197 38.58943 33.74070
#
# Velocity S-wave (km/s) = 3.57166 4.12777 3.85974
# Velocity P-wave (km/s) = 5.34925 6.78620 6.11011
#
# Compressibility (1/GPa) = 0.03804500
#
# Stress axis : x y z
#
# Youngs Moduli (GPa) = 61.63640 34.74150 90.88320
#
# Poissons Ratio (x) = -0.27398 0.62815
# Poissons Ratio (y) = -0.48609 0.90501
# Poissons Ratio (z) = 0.42601 0.34595
#
# Static dielectric constant tensor:
#      x y z
#    x 4.478860 -0.289130 -0.114550 
#    y -0.289130 3.782070 0.125220 
#    z -0.114550 0.125220 4.354400 
# 
# 
# High freq. dielectric constant tensor:
#      x y z
#    x 1.907240 -0.008880 0.000890 
#    y -0.008880 1.872430 0.006900 
#    z 0.000890 0.006900 1.915810 
# 
# From -- ./inp_files/157115.got.cif
#   From: 2010.06.25/outbox.cif.g09.slc.cpg/sg2_79_cif.got.tgz:157115.got - 2010.06.27 13:26:56.
