data_PCOD8023272
_publ_section_title
;
Structure prediction by ZEFSAII (Michael W. Deem and Ramdas Pophale) SiO2 
 PCOD8023272
Probable space group: P -1
;
_chemical_formula_sum "Si O2"
_cell_formula_units_Z 12
_cell_length_a 9.977508
_cell_length_b 11.751686
_cell_length_c 9.116106
_cell_angle_alpha 104.581571
_cell_angle_beta 89.387022
_cell_angle_gamma 143.178554
_cell_volume 585.457139
_symmetry_space_group_name_H-M "P -1"
_symmetry_group_IT_number 2
_symmetry_cell_setting 'triclinic'
loop_
_space_group_symop_operation_xyz
x,y,z
-x,-y,-z
loop_
_atom_site_type_symbol
_atom_site_label
_atom_site_fract_x
_atom_site_fract_y
_atom_site_fract_z
Si Si1 0.662682 0.727925 0.541860
Si Si2 0.935522 0.655328 0.190979
Si Si3 0.531606 0.029623 0.682547
Si Si4 0.596443 0.278752 0.259463
Si Si5 0.829192 0.852862 0.266832
Si Si6 0.508676 0.243022 0.929893
O O1 0.500000 0.500000 0.500000
O O2 0.565907 0.770655 0.640140
O O3 0.664492 0.757537 0.378983
O O4 0.931616 0.896589 0.645575
O O5 0.838108 0.526360 0.302978
O O6 0.899923 0.768373 0.230207
O O7 0.206387 0.817618 0.219338
O O8 0.778544 0.489054 0.004260
O O9 0.475354 0.119374 0.767717
O O10 0.500000 0.000000 0.500000
O O11 0.350974 0.809588 0.695230
O O12 0.454127 0.157277 0.067692
O O13 0.676689 0.785668 0.108166
#
# Coordination Sequence:
#
# PCOD8023272 Si02
#       6
#     2   2   2   2   2   2
#     4  11  21  38  64  96 131 165 211 262 318 371
#     4  10  23  42  67  92 134 164 214 266 316 381
#     4  12  24  44  67  90 130 175 215 264 319 376
#     4  10  23  41  64  92 129 166 220 256 317 381
#     4  11  22  41  67  95 132 167 212 266 318 381
#     4  10  24  42  66  96 130 171 212 259 326 380
#
# _framework density 20.496805999999999
#
# number of rings (size 3 to 8) (size 9 to 14) (size 15 to 20)
#    1.000    0.333    3.333    2.500    2.333    1.333 
#    3.000    0.000    0.000    0.000    0.000    0.000 
#    0.000    0.000    0.000    0.000    0.000    0.000 
#
# Total GULP energy -148750.001064 kJ/mol
# GULP energy per Si atom -12395.833422 kJ/mol
# Density = 2.045015 g / cm^3
# Si number density = 20.496806 Si / 1000 Ang^3
#
#
#
# Elastic Constant Matrix: (Units=GPa)
#
#
# Indices 1 2 3 4 5 6 
#
# 1 86.5311 31.1421 16.5269 7.9882 -2.9248 -16.0870
# 2 31.1421 107.0910 16.1997 10.1980 1.6480 -23.9355
# 3 16.5269 16.1997 68.9568 5.9528 -6.7645 -24.6283
# 4 7.9882 10.1980 5.9528 29.2499 3.2822 -1.4454
# 5 -2.9248 1.6480 -6.7645 3.2822 41.5255 -5.0479
# 6 -16.0870 -23.9355 -24.6283 -1.4454 -5.0479 26.3717
#
#
#
# Elastic Compliance Matrix: (Units=1/GPa)
#
#
# Indices 1 2 3 4 5 6 
#
# 1 0.013973 -0.002326 0.000057 -0.002924 0.002133 0.006714
# 2 -0.002326 0.012813 0.002584 -0.003910 0.001603 0.012716
# 3 0.000057 0.002584 0.024533 -0.005449 0.007542 0.026437
# 4 -0.002924 -0.003910 -0.005449 0.037564 -0.005041 -0.009328
# 5 0.002133 0.001603 0.007542 -0.005041 0.027595 0.014806
# 6 0.006714 0.012716 0.026437 -0.009328 0.014806 0.080569
#
#
# Mechanical properties :
#
#
# Convention : Reuss Voigt Hill
#
# Bulk Modulus (GPa) = 19.24920 43.36848 31.30884
# Shear Modulus (GPa) = 23.39366 32.67676 28.03521
#
# Velocity S-wave (km/s) = 3.38203 3.99712 3.70237
# Velocity P-wave (km/s) = 4.96614 6.51976 5.79524
#
# Compressibility (1/GPa) = 0.05195020
#
# Stress axis : x y z
#
# Youngs Moduli (GPa) = 71.56692 78.04501 40.76074
#
# Poissons Ratio (x) = 0.18150 -0.00233
# Poissons Ratio (y) = 0.16644 -0.10532
# Poissons Ratio (z) = -0.00409 -0.20165
#
# Static dielectric constant tensor:
#      x y z
#    x 3.594750 -0.136460 -0.104880 
#    y -0.136460 3.765930 0.076860 
#    z -0.104880 0.076860 3.659130 
# 
# 
# High freq. dielectric constant tensor:
#      x y z
#    x 1.796340 -0.010170 -0.010260 
#    y -0.010170 1.803420 0.003080 
#    z -0.010260 0.003080 1.796490 
# 
# From -- ./inp_files/189328.got.cif
#   From: 2010.06.25/outbox.cif.g09.slc.cpg/sg2_95_cif.got.tgz:189328.got - 2010.06.27 13:26:56.
