data_PCOD8023149
_publ_section_title
;
Structure prediction by ZEFSAII (Michael W. Deem and Ramdas Pophale) SiO2 
 PCOD8023149
Probable space group: P -1
;
_chemical_formula_sum "Si O2"
_cell_formula_units_Z 16
_cell_length_a 8.558232
_cell_length_b 8.727341
_cell_length_c 11.338315
_cell_angle_alpha 96.851152
_cell_angle_beta 79.149085
_cell_angle_gamma 125.796145
_cell_volume 674.569173
_symmetry_space_group_name_H-M "P -1"
_symmetry_group_IT_number 2
_symmetry_cell_setting 'triclinic'
loop_
_space_group_symop_operation_xyz
x,y,z
-x,-y,-z
loop_
_atom_site_type_symbol
_atom_site_label
_atom_site_fract_x
_atom_site_fract_y
_atom_site_fract_z
Si Si1 0.436574 0.113794 0.188698
Si Si2 0.095501 0.068647 0.120243
Si Si3 0.229153 0.220034 0.700069
Si Si4 0.175642 0.505427 0.838992
Si Si5 0.435417 0.762785 0.211408
Si Si6 0.781915 0.302069 0.533349
Si Si7 0.136679 0.429519 0.095972
Si Si8 0.371664 0.121403 0.459245
O O1 0.281398 0.058615 0.101546
O O2 0.628119 0.302884 0.134771
O O3 0.355880 0.143953 0.324551
O O4 0.492764 0.967263 0.185471
O O5 0.149453 0.277052 0.149556
O O6 0.972614 0.959514 0.242844
O O7 0.000000 0.000000 0.000000
O O8 0.215818 0.398379 0.724829
O O9 0.382136 0.231634 0.769676
O O10 0.273625 0.203783 0.556523
O O11 0.024526 0.549155 0.818660
O O12 0.090920 0.377963 0.958716
O O13 0.270095 0.672211 0.326424
O O14 0.346844 0.627340 0.098629
O O15 0.605530 0.252113 0.465203
O O16 0.000000 0.500000 0.500000
O O17 0.759885 0.103110 0.510799
#
# Coordination Sequence:
#
# PCOD8023149 Si02
#       8
#     2   2   2   2   2   2   2   2
#     4  11  25  45  68 102 138 182 227 288 344 413
#     4  12  26  44  69  96 137 179 232 286 348 407
#     4  11  23  45  69 100 141 179 222 290 341 415
#     4  11  25  43  69  96 137 179 229 287 341 413
#     4  10  23  40  70 103 136 176 229 277 348 417
#     4   9  19  38  68 104 141 187 231 282 344 416
#     4  11  25  44  67  99 130 182 235 277 349 414
#     4   9  22  42  66 103 145 180 235 284 348 416
#
# _framework density 23.718841999999999
#
# number of rings (size 3 to 8) (size 9 to 14) (size 15 to 20)
#    0.000    1.500    1.250    3.000    7.000    2.500 
#    0.000    0.000    0.000    0.000    0.000    0.000 
#    0.000    0.000    0.000    0.000    0.000    0.000 
#
# Total GULP energy -198277.487615 kJ/mol
# GULP energy per Si atom -12392.342976 kJ/mol
# Density = 2.366486 g / cm^3
# Si number density = 23.718842 Si / 1000 Ang^3
#
#
#
# Elastic Constant Matrix: (Units=GPa)
#
#
# Indices 1 2 3 4 5 6 
#
# 1 59.4310 19.1703 79.5805 -1.9558 -42.7405 -2.3820
# 2 19.1703 117.0499 43.8778 -6.3583 -25.4933 16.0628
# 3 79.5805 43.8778 -75.6704 28.6776 74.0603 -17.1908
# 4 -1.9558 -6.3583 28.6776 33.8001 -7.4950 -1.4633
# 5 -42.7405 -25.4933 74.0603 -7.4950 -5.2422 11.0814
# 6 -2.3820 16.0628 -17.1908 -1.4633 11.0814 39.1615
#
#
#
# Elastic Compliance Matrix: (Units=1/GPa)
#
#
# Indices 1 2 3 4 5 6 
#
# 1 0.011390 -0.004778 0.003582 -0.003759 -0.003138 0.004973
# 2 -0.004778 0.009377 0.001019 0.000389 -0.000360 -0.003573
# 3 0.003582 0.001019 0.003595 -0.000025 0.012248 -0.002089
# 4 -0.003759 0.000389 -0.000025 0.028124 -0.006527 0.002498
# 5 -0.003138 -0.000360 0.012248 -0.006527 0.018588 -0.000170
# 6 0.004973 -0.003573 -0.002089 0.002498 -0.000170 0.026528
#
#
# Mechanical properties :
#
#
# Convention : Reuss Voigt Hill
#
# Bulk Modulus (GPa) = 41.65595 42.89640 42.27618
# Shear Modulus (GPa) = 47.18819 10.75602 28.97211
#
# Velocity S-wave (km/s) = 4.46520 2.13182 3.49876
# Velocity P-wave (km/s) = 6.64714 4.91774 5.84674
#
# Compressibility (1/GPa) = 0.02400618
#
# Stress axis : x y z
#
# Youngs Moduli (GPa) = 87.79660 106.64295 278.19256
#
# Poissons Ratio (x) = 0.50957 -0.99642
# Poissons Ratio (y) = 0.41952 -0.28341
# Poissons Ratio (z) = -0.31447 -0.10864
#
# Static dielectric constant tensor:
#      x y z
#    x 5.520000 -0.029760 -0.309430 
#    y -0.029760 4.325320 0.097070 
#    z -0.309430 0.097070 4.194380 
# 
# 
# High freq. dielectric constant tensor:
#      x y z
#    x 1.937600 0.004510 -0.000430 
#    y 0.004510 1.946220 0.005610 
#    z -0.000430 0.005610 1.937260 
# 
# From -- ./inp_files/382605.got.cif
#   From: 2010.06.25/outbox.cif.g09.slc.cpg/sg2_192_cif.got.tgz:382605.got - 2010.06.27 13:26:56.
