data_PCOD8023709
_publ_section_title
;
Structure prediction by ZEFSAII (Michael W. Deem and Ramdas Pophale) SiO2 
 PCOD8023709
Probable space group: P -1
;
_chemical_formula_sum "Si O2"
_cell_formula_units_Z 14
_cell_length_a 11.375252
_cell_length_b 12.148796
_cell_length_c 21.604630
_cell_angle_alpha 22.259916
_cell_angle_beta 38.532886
_cell_angle_gamma 50.016667
_cell_volume 661.339257
_symmetry_space_group_name_H-M "P -1"
_symmetry_group_IT_number 2
_symmetry_cell_setting 'triclinic'
loop_
_space_group_symop_operation_xyz
x,y,z
-x,-y,-z
loop_
_atom_site_type_symbol
_atom_site_label
_atom_site_fract_x
_atom_site_fract_y
_atom_site_fract_z
Si Si1 0.643689 0.275004 0.985230
Si Si2 0.794047 0.795761 0.563143
Si Si3 0.773835 0.790498 0.857540
Si Si4 0.613328 0.300158 0.409435
Si Si5 0.469392 0.313775 0.867468
Si Si6 0.125346 0.118790 0.947610
Si Si7 0.234026 0.829217 0.872798
O O1 0.403659 0.173955 0.130589
O O2 0.694588 0.233543 0.056156
O O3 0.722237 0.071027 0.010449
O O4 0.750332 0.631547 0.734179
O O5 0.673181 0.556052 0.685569
O O6 0.718648 0.085175 0.445466
O O7 0.029474 0.909297 0.390960
O O8 0.712119 0.763932 0.968344
O O9 0.820542 0.482868 0.981390
O O10 0.592103 0.542163 0.242386
O O11 0.749471 0.511619 0.298268
O O12 0.400715 0.104669 0.626886
O O13 0.500000 0.000000 0.000000
O O14 0.962285 0.066740 0.097190
O O15 0.000000 0.000000 0.000000
#
# Coordination Sequence:
#
# PCOD8023709 Si02
#       7
#     2   2   2   2   2   2   2
#     4  10  23  42  64 100 142 166 220 274 321 389
#     4  11  24  41  70 100 126 179 222 267 331 387
#     4  11  23  42  68  97 130 175 223 269 325 389
#     4  12  23  42  71  96 135 174 221 271 328 390
#     4  11  26  46  66  97 135 167 223 283 325 387
#     4  10  24  43  63  99 136 171 217 272 323 388
#     4  11  23  41  68  99 133 178 218 269 329 388
#
# _framework density 21.169165
#
# number of rings (size 3 to 8) (size 9 to 14) (size 15 to 20)
#    0.000    1.143    4.286    2.571    0.000    9.714 
#    0.000    0.000    0.000    0.000    0.000    0.000 
#    0.000    0.000    0.000    0.000    0.000    0.000 
#
# Total GULP energy -173588.915972 kJ/mol
# GULP energy per Si atom -12399.208284 kJ/mol
# Density = 2.112098 g / cm^3
# Si number density = 21.169165 Si / 1000 Ang^3
#
#
#
# Elastic Constant Matrix: (Units=GPa)
#
#
# Indices 1 2 3 4 5 6 
#
# 1 46.6277 34.0181 52.0536 -3.4665 -2.2253 3.7416
# 2 34.0181 158.8900 56.1331 -9.1081 -8.2848 -8.3551
# 3 52.0536 56.1331 129.1726 2.4516 -18.5442 -7.9812
# 4 -3.4665 -9.1081 2.4516 49.8134 -3.7142 -8.3689
# 5 -2.2253 -8.2848 -18.5442 -3.7142 49.9944 3.0302
# 6 3.7416 -8.3551 -7.9812 -8.3689 3.0302 35.0451
#
#
#
# Elastic Compliance Matrix: (Units=1/GPa)
#
#
# Indices 1 2 3 4 5 6 
#
# 1 0.044330 -0.003984 -0.017353 0.001378 -0.004481 -0.008918
# 2 -0.003984 0.007985 -0.001681 0.001691 0.000508 0.002306
# 3 -0.017353 -0.001681 0.016439 -0.001219 0.004683 0.004500
# 4 0.001378 0.001691 -0.001219 0.021469 0.001181 0.005003
# 5 -0.004481 0.000508 0.004683 0.001181 0.021708 0.000071
# 6 -0.008918 0.002306 0.004500 0.005003 0.000071 0.032250
#
#
# Mechanical properties :
#
#
# Convention : Reuss Voigt Hill
#
# Bulk Modulus (GPa) = 44.02003 68.78887 56.40445
# Shear Modulus (GPa) = 25.27953 39.80295 32.54124
#
# Velocity S-wave (km/s) = 3.45942 4.34087 3.92497
# Velocity P-wave (km/s) = 6.06600 7.59537 6.87335
#
# Compressibility (1/GPa) = 0.02271693
#
# Stress axis : x y z
#
# Youngs Moduli (GPa) = 22.55825 125.23043 60.83263
#
# Poissons Ratio (x) = 0.49891 1.05563
# Poissons Ratio (y) = 0.08987 0.10228
# Poissons Ratio (z) = 0.39145 0.21055
#
# Static dielectric constant tensor:
#      x y z
#    x 3.822580 -0.094610 -0.116720 
#    y -0.094610 4.681040 0.042870 
#    z -0.116720 0.042870 3.964850 
# 
# 
# High freq. dielectric constant tensor:
#      x y z
#    x 1.824820 -0.004530 -0.013000 
#    y -0.004530 1.851290 -0.003120 
#    z -0.013000 -0.003120 1.830720 
# 
# From -- ./inp_files/274319.got.cif
#   From: 2010.06.25/outbox.cif.g09.slc.cpg/sg2_138_cif.got.tgz:274319.got - 2010.06.27 13:26:56.
