data_PCOD8023558
_publ_section_title
;
Structure prediction by ZEFSAII (Michael W. Deem and Ramdas Pophale) SiO2 
 PCOD8023558
Probable space group: P -1
;
_chemical_formula_sum "Si O2"
_cell_formula_units_Z 16
_cell_length_a 10.489934
_cell_length_b 10.045172
_cell_length_c 9.042386
_cell_angle_alpha 133.918091
_cell_angle_beta 91.413168
_cell_angle_gamma 99.951080
_cell_volume 661.850467
_symmetry_space_group_name_H-M "P -1"
_symmetry_group_IT_number 2
_symmetry_cell_setting 'triclinic'
loop_
_space_group_symop_operation_xyz
x,y,z
-x,-y,-z
loop_
_atom_site_type_symbol
_atom_site_label
_atom_site_fract_x
_atom_site_fract_y
_atom_site_fract_z
Si Si1 0.418314 0.250681 0.665687
Si Si2 0.284092 0.733550 0.792360
Si Si3 0.823267 0.955902 0.866431
Si Si4 0.869986 0.434550 0.847786
Si Si5 0.531320 0.725200 0.641537
Si Si6 0.108056 0.414815 0.362872
Si Si7 0.138179 0.980900 0.425637
Si Si8 0.370385 0.632248 0.021856
O O1 0.472728 0.209123 0.477562
O O2 0.264001 0.148410 0.610740
O O3 0.516636 0.207628 0.762441
O O4 0.438291 0.479051 0.836794
O O5 0.427206 0.823159 0.793726
O O6 0.235493 0.527585 0.549576
O O7 0.305015 0.727052 0.964327
O O8 0.177518 0.864026 0.884190
O O9 0.676529 0.821610 0.779020
O O10 0.916541 0.817401 0.809401
O O11 0.867699 0.029632 0.760160
O O12 0.886578 0.539095 0.773246
O O13 0.745883 0.481149 0.960011
O O14 0.836110 0.207871 0.648360
O O15 0.000000 0.500000 0.000000
O O16 0.500000 0.500000 0.500000
O O17 0.000000 0.500000 0.500000
O O18 0.000000 0.000000 0.500000
#
# Coordination Sequence:
#
# PCOD8023558 Si02
#       8
#     2   2   2   2   2   2   2   2
#     4  10  23  41  70 107 145 192 247 300 369 440
#     4  12  23  46  72 103 146 192 239 300 372 435
#     4  11  25  45  75 108 139 191 250 300 360 446
#     4  12  26  47  72 101 143 194 241 304 377 437
#     4  11  20  42  70 100 148 191 233 299 370 432
#     4  12  27  48  74 102 147 190 244 306 367 441
#     4  11  23  47  73 103 146 193 244 307 366 433
#     4  11  22  42  69 106 146 187 243 305 367 443
#
# _framework density 24.174645999999999
#
# number of rings (size 3 to 8) (size 9 to 14) (size 15 to 20)
#    0.000    0.750    3.750    4.125    0.000    1.000 
#    9.000    0.000    0.000    0.000    0.000    0.000 
#    0.000    0.000    0.000    0.000    0.000    0.000 
#
# Total GULP energy -198305.238056 kJ/mol
# GULP energy per Si atom -12394.077379 kJ/mol
# Density = 2.411962 g / cm^3
# Si number density = 24.174646 Si / 1000 Ang^3
#
#
#
# Elastic Constant Matrix: (Units=GPa)
#
#
# Indices 1 2 3 4 5 6 
#
# 1 117.9506 30.6935 21.3265 -24.3409 -21.8913 9.7027
# 2 30.6935 98.2967 41.6792 -11.6121 -10.6321 -9.0013
# 3 21.3265 41.6792 91.4533 -8.7170 -11.7323 -5.0037
# 4 -24.3409 -11.6121 -8.7170 42.3289 -5.8492 -6.8191
# 5 -21.8913 -10.6321 -11.7323 -5.8492 53.4669 -3.0090
# 6 9.7027 -9.0013 -5.0037 -6.8191 -3.0090 42.4797
#
#
#
# Elastic Compliance Matrix: (Units=1/GPa)
#
#
# Indices 1 2 3 4 5 6 
#
# 1 0.011476 -0.002279 -0.000542 0.006216 0.004703 -0.001837
# 2 -0.002279 0.013754 -0.005229 0.002052 0.001061 0.003224
# 3 -0.000542 -0.005229 0.013910 0.001566 0.002021 0.001049
# 4 0.006216 0.002052 0.001566 0.029742 0.006802 0.004456
# 5 0.004703 0.001061 0.002021 0.006802 0.022143 0.002049
# 6 -0.001837 0.003224 0.001049 0.004456 0.002049 0.025627
#
#
# Mechanical properties :
#
#
# Convention : Reuss Voigt Hill
#
# Bulk Modulus (GPa) = 43.40192 55.01099 49.20646
# Shear Modulus (GPa) = 35.60428 41.92185 38.76307
#
# Velocity S-wave (km/s) = 3.84186 4.16880 4.00867
# Velocity P-wave (km/s) = 6.13778 6.78063 6.46720
#
# Compressibility (1/GPa) = 0.02304045
#
# Stress axis : x y z
#
# Youngs Moduli (GPa) = 87.13845 72.70464 71.89038
#
# Poissons Ratio (x) = 0.16566 0.03899
# Poissons Ratio (y) = 0.19855 0.37592
# Poissons Ratio (z) = 0.04725 0.38018
#
# Static dielectric constant tensor:
#      x y z
#    x 4.675110 0.150210 -0.040020 
#    y 0.150210 4.355010 0.106350 
#    z -0.040020 0.106350 4.560900 
# 
# 
# High freq. dielectric constant tensor:
#      x y z
#    x 1.981470 0.004800 -0.007260 
#    y 0.004800 1.947240 0.002550 
#    z -0.007260 0.002550 1.967190 
# 
# From -- ./inp_files/246008.got.cif
#   From: 2010.06.25/outbox.cif.g09.slc.cpg/sg2_124_cif.got.tgz:246008.got - 2010.06.27 13:26:56.
