data_PCOD8023445
_publ_section_title
;
Structure prediction by ZEFSAII (Michael W. Deem and Ramdas Pophale) SiO2 
 PCOD8023445
Probable space group: P -1
;
_chemical_formula_sum "Si O2"
_cell_formula_units_Z 16
_cell_length_a 6.566978
_cell_length_b 10.535545
_cell_length_c 26.095787
_cell_angle_alpha 33.810951
_cell_angle_beta 132.663673
_cell_angle_gamma 121.744541
_cell_volume 735.759080
_symmetry_space_group_name_H-M "P -1"
_symmetry_group_IT_number 2
_symmetry_cell_setting 'triclinic'
loop_
_space_group_symop_operation_xyz
x,y,z
-x,-y,-z
loop_
_atom_site_type_symbol
_atom_site_label
_atom_site_fract_x
_atom_site_fract_y
_atom_site_fract_z
Si Si1 0.769039 0.269610 0.920362
Si Si2 0.411870 0.751072 0.692561
Si Si3 0.211384 0.145261 0.596522
Si Si4 0.398048 0.894350 0.467342
Si Si5 0.868779 0.589059 0.607346
Si Si6 0.300798 0.870159 0.241818
Si Si7 0.118931 0.744430 0.941400
Si Si8 0.635369 0.930233 0.925785
O O1 0.618091 0.524631 0.811491
O O2 0.612842 0.104679 0.911668
O O3 0.765691 0.188082 0.005857
O O4 0.092352 0.253470 0.962157
O O5 0.149713 0.703989 0.628821
O O6 0.290477 0.882405 0.678875
O O7 0.594221 0.927773 0.637069
O O8 0.218175 0.340746 0.488778
O O9 0.411163 0.206859 0.655633
O O10 0.910174 0.175077 0.559723
O O11 0.610172 0.671982 0.571110
O O12 0.500000 0.000000 0.500000
O O13 0.912784 0.321699 0.718799
O O14 0.354367 0.918426 0.174784
O O15 0.155072 0.089378 0.172879
O O16 0.366602 0.782184 0.930677
O O17 0.000000 0.500000 0.000000
#
# Coordination Sequence:
#
# PCOD8023445 Si02
#       8
#     2   2   2   2   2   2   2   2
#     4  10  23  41  67  96 123 168 210 259 314 373
#     4  11  22  38  67  94 123 167 213 260 311 371
#     4  11  23  42  62  92 133 166 212 259 311 375
#     4  11  21  39  63  93 127 165 210 260 309 363
#     4  11  23  40  62  93 129 166 213 261 308 373
#     4  11  26  41  65  95 125 172 208 257 322 373
#     4  11  24  45  67  92 131 163 206 264 319 377
#     4  10  24  44  64  94 129 159 215 262 311 380
#
# _framework density 21.746248999999999
#
# number of rings (size 3 to 8) (size 9 to 14) (size 15 to 20)
#    0.000    1.250    2.500    3.000    1.750   10.500 
#    0.000    0.000    0.000    0.000    0.000    0.000 
#    0.000    0.000    0.000    0.000    0.000    0.000 
#
# Total GULP energy -198333.063246 kJ/mol
# GULP energy per Si atom -12395.816453 kJ/mol
# Density = 2.169675 g / cm^3
# Si number density = 21.746249 Si / 1000 Ang^3
#
#
#
# Elastic Constant Matrix: (Units=GPa)
#
#
# Indices 1 2 3 4 5 6 
#
# 1 113.2834 35.0203 41.2611 -6.5540 0.3796 17.5570
# 2 35.0203 77.6934 27.3020 -0.3859 -15.5474 12.8520
# 3 41.2611 27.3020 104.1859 -9.0530 -1.9227 5.4393
# 4 -6.5540 -0.3859 -9.0530 44.4595 -1.9415 -1.2720
# 5 0.3796 -15.5474 -1.9227 -1.9415 25.3150 -2.6814
# 6 17.5570 12.8520 5.4393 -1.2720 -2.6814 32.7813
#
#
#
# Elastic Compliance Matrix: (Units=1/GPa)
#
#
# Indices 1 2 3 4 5 6 
#
# 1 0.012146 -0.004189 -0.003473 0.000767 -0.003440 -0.004539
# 2 -0.004189 0.018531 -0.002864 -0.000674 0.010783 -0.003691
# 3 -0.003473 -0.002864 0.011822 0.001876 -0.000554 0.001049
# 4 0.000767 -0.000674 0.001876 0.023065 0.001545 0.000564
# 5 -0.003440 0.010783 -0.000554 0.001545 0.046419 0.001564
# 6 -0.004539 -0.003691 0.001049 0.000564 0.001564 0.034359
#
#
# Mechanical properties :
#
#
# Convention : Reuss Voigt Hill
#
# Bulk Modulus (GPa) = 46.62320 55.81436 51.21878
# Shear Modulus (GPa) = 28.64647 33.28312 30.96479
#
# Velocity S-wave (km/s) = 3.63341 3.91643 3.77757
# Velocity P-wave (km/s) = 6.25207 6.79509 6.52923
#
# Compressibility (1/GPa) = 0.02144855
#
# Stress axis : x y z
#
# Youngs Moduli (GPa) = 82.32874 53.96498 84.58720
#
# Poissons Ratio (x) = 0.22603 0.29374
# Poissons Ratio (y) = 0.34484 0.24226
# Poissons Ratio (z) = 0.28590 0.15456
#
# Static dielectric constant tensor:
#      x y z
#    x 2.699820 -0.439870 -0.077150 
#    y -0.439870 3.695540 -0.033440 
#    z -0.077150 -0.033440 3.934460 
# 
# 
# High freq. dielectric constant tensor:
#      x y z
#    x 1.861870 0.002690 0.010090 
#    y 0.002690 1.849760 0.002890 
#    z 0.010090 0.002890 1.860850 
# 
# From -- ./inp_files/53075.got.cif
#   From: 2010.06.25/outbox.cif.g09.slc.cpg/sg2_27_cif.got.tgz:53075.got - 2010.06.27 13:26:56.
