data_PCOD8023449
_publ_section_title
;
Structure prediction by ZEFSAII (Michael W. Deem and Ramdas Pophale) SiO2 
 PCOD8023449
Probable space group: P -1
;
_chemical_formula_sum "Si O2"
_cell_formula_units_Z 16
_cell_length_a 16.511209
_cell_length_b 9.473138
_cell_length_c 6.640899
_cell_angle_alpha 55.326037
_cell_angle_beta 106.100569
_cell_angle_gamma 124.063104
_cell_volume 706.374453
_symmetry_space_group_name_H-M "P -1"
_symmetry_group_IT_number 2
_symmetry_cell_setting 'triclinic'
loop_
_space_group_symop_operation_xyz
x,y,z
-x,-y,-z
loop_
_atom_site_type_symbol
_atom_site_label
_atom_site_fract_x
_atom_site_fract_y
_atom_site_fract_z
Si Si1 0.595341 0.574913 0.868055
Si Si2 0.678788 0.375717 0.338335
Si Si3 0.887262 0.562897 0.456870
Si Si4 0.083161 0.783270 0.183086
Si Si5 0.234307 0.020456 0.446291
Si Si6 0.617826 0.059874 0.251463
Si Si7 0.104369 0.083320 0.603660
Si Si8 0.429886 0.693542 0.285897
O O1 0.659655 0.813221 0.704761
O O2 0.562408 0.468432 0.713917
O O3 0.500000 0.500000 0.000000
O O4 0.672242 0.524712 0.059155
O O5 0.790639 0.426909 0.370132
O O6 0.609808 0.150187 0.388686
O O7 0.648612 0.411990 0.506822
O O8 0.913901 0.415724 0.718353
O O9 0.862352 0.697362 0.472860
O O10 0.975763 0.712291 0.252319
O O11 0.163076 0.889860 0.325771
O O12 0.102950 0.931832 0.892821
O O13 0.182934 0.114410 0.464185
O O14 0.271354 0.904131 0.711980
O O15 0.534376 0.828345 0.358654
O O16 0.605365 0.177068 0.964341
O O17 0.000000 0.000000 0.500000
#
# Coordination Sequence:
#
# PCOD8023449 Si02
#       8
#     2   2   2   2   2   2   2   2
#     4  11  26  43  68 100 141 185 232 294 358 427
#     4  11  22  42  68  97 133 186 229 289 356 417
#     4  11  24  47  72 103 146 191 236 293 358 422
#     4  11  26  48  71 104 146 190 237 296 352 425
#     4  12  25  46  70 104 138 185 237 286 357 424
#     4  10  23  41  67  96 138 175 232 291 348 419
#     4  12  27  45  72 107 142 189 236 296 354 421
#     4  10  23  43  66 101 134 179 233 287 353 423
#
# _framework density 22.650874999999999
#
# number of rings (size 3 to 8) (size 9 to 14) (size 15 to 20)
#    0.000    1.000    2.500    3.000    3.500    6.500 
#    0.000    0.000    0.000    0.000    0.000    0.000 
#    0.000    0.000    0.000    0.000    0.000    0.000 
#
# Total GULP energy -198360.242559 kJ/mol
# GULP energy per Si atom -12397.515160 kJ/mol
# Density = 2.259932 g / cm^3
# Si number density = 22.650875 Si / 1000 Ang^3
#
#
#
# Elastic Constant Matrix: (Units=GPa)
#
#
# Indices 1 2 3 4 5 6 
#
# 1 110.5307 33.8576 41.2644 14.9768 5.4110 8.3588
# 2 33.8576 114.3623 44.3409 5.9771 -7.0881 1.7692
# 3 41.2644 44.3409 71.9151 10.8181 0.5972 5.7187
# 4 14.9768 5.9771 10.8181 29.6473 2.5329 6.7118
# 5 5.4110 -7.0881 0.5972 2.5329 38.9585 2.2643
# 6 8.3588 1.7692 5.7187 6.7118 2.2643 48.5563
#
#
#
# Elastic Compliance Matrix: (Units=1/GPa)
#
#
# Indices 1 2 3 4 5 6 
#
# 1 0.012141 -0.001353 -0.005523 -0.003523 -0.001571 -0.000830
# 2 -0.001353 0.011839 -0.006639 0.000421 0.002392 0.000414
# 3 -0.005523 -0.006639 0.021779 -0.003583 -0.000492 -0.000854
# 4 -0.003523 0.000421 -0.003583 0.037805 -0.001597 -0.004138
# 5 -0.001571 0.002392 -0.000492 -0.001597 0.026478 -0.000773
# 6 -0.000830 0.000414 -0.000854 -0.004138 -0.000773 0.021431
#
#
# Mechanical properties :
#
#
# Convention : Reuss Voigt Hill
#
# Bulk Modulus (GPa) = 53.39692 59.52598 56.46145
# Shear Modulus (GPa) = 30.34986 35.25544 32.80265
#
# Velocity S-wave (km/s) = 3.66443 3.94949 3.80963
# Velocity P-wave (km/s) = 6.44431 6.86548 6.65823
#
# Compressibility (1/GPa) = 0.01872767
#
# Stress axis : x y z
#
# Youngs Moduli (GPa) = 82.36803 84.46820 45.91642
#
# Poissons Ratio (x) = 0.11432 0.25359
# Poissons Ratio (y) = 0.11147 0.30484
# Poissons Ratio (z) = 0.45490 0.56079
#
# Static dielectric constant tensor:
#      x y z
#    x 4.163680 0.153580 0.281350 
#    y 0.153580 3.867060 0.133990 
#    z 0.281350 0.133990 3.948220 
# 
# 
# High freq. dielectric constant tensor:
#      x y z
#    x 1.907980 0.002660 0.024580 
#    y 0.002660 1.905660 0.000000 
#    z 0.024580 0.000000 1.885510 
# 
# From -- ./inp_files/47366.got.cif
#   From: 2010.06.25/outbox.cif.g09.slc.cpg/sg2_24_cif.got.tgz:47366.got - 2010.06.27 13:26:56.
