data_PCOD8023333
_publ_section_title
;
Structure prediction by ZEFSAII (Michael W. Deem and Ramdas Pophale) SiO2 
 PCOD8023333
Probable space group: P -1
;
_chemical_formula_sum "Si O2"
_cell_formula_units_Z 14
_cell_length_a 12.060234
_cell_length_b 8.556529
_cell_length_c 9.295830
_cell_angle_alpha 107.721006
_cell_angle_beta 134.031929
_cell_angle_gamma 73.672762
_cell_volume 653.548310
_symmetry_space_group_name_H-M "P -1"
_symmetry_group_IT_number 2
_symmetry_cell_setting 'triclinic'
loop_
_space_group_symop_operation_xyz
x,y,z
-x,-y,-z
loop_
_atom_site_type_symbol
_atom_site_label
_atom_site_fract_x
_atom_site_fract_y
_atom_site_fract_z
Si Si1 0.934515 0.826102 0.369417
Si Si2 0.347713 0.978352 0.942096
Si Si3 0.626632 0.447571 0.884815
Si Si4 0.492444 0.867083 0.335240
Si Si5 0.973043 0.512584 0.148087
Si Si6 0.819405 0.678146 0.506684
Si Si7 0.346203 0.628591 0.788527
O O1 0.025503 0.685111 0.308927
O O2 0.918496 0.748018 0.489576
O O3 0.771482 0.862133 0.148221
O O4 0.000000 0.000000 0.500000
O O5 0.272986 0.818266 0.760586
O O6 0.389176 0.956475 0.140638
O O7 0.500000 0.000000 0.000000
O O8 0.590552 0.287111 0.714479
O O9 0.487565 0.596695 0.789698
O O10 0.791719 0.506352 0.017361
O O11 0.593341 0.382085 0.996531
O O12 0.667910 0.803725 0.430045
O O13 0.500000 0.000000 0.500000
O O14 0.071641 0.352718 0.262711
O O15 0.000000 0.500000 0.000000
O O16 0.782132 0.496176 0.377998
#
# Coordination Sequence:
#
# PCOD8023333 Si02
#       7
#     2   2   2   2   2   2   2
#     4  12  26  42  68 101 131 174 225 276 329 396
#     4  11  21  39  66  98 129 158 220 281 323 382
#     4   9  19  39  68  91 122 173 220 264 322 390
#     4  10  23  41  65  96 131 172 214 273 337 383
#     4  12  27  44  64  97 140 179 219 269 341 405
#     4  11  23  45  67  92 131 177 226 270 326 409
#     4   9  18  39  70  94 116 168 227 271 317 381
#
# _framework density 21.421522
#
# number of rings (size 3 to 8) (size 9 to 14) (size 15 to 20)
#    0.000    1.429    2.857    3.000    6.000    1.143 
#    2.571    2.857    0.000    0.000    0.000    0.000 
#    0.000    0.000    0.000    0.000    0.000    0.000 
#
# Total GULP energy -173475.301684 kJ/mol
# GULP energy per Si atom -12391.092977 kJ/mol
# Density = 2.137277 g / cm^3
# Si number density = 21.421522 Si / 1000 Ang^3
#
#
#
# Elastic Constant Matrix: (Units=GPa)
#
#
# Indices 1 2 3 4 5 6 
#
# 1 80.6553 35.6792 36.2620 5.0488 -5.8113 8.7998
# 2 35.6792 104.4178 52.4515 2.1177 -15.5459 -4.4166
# 3 36.2620 52.4515 93.7977 -0.6656 -19.6852 1.3740
# 4 5.0488 2.1177 -0.6656 56.1368 0.0689 5.5161
# 5 -5.8113 -15.5459 -19.6852 0.0689 32.0232 3.5288
# 6 8.7998 -4.4166 1.3740 5.5161 3.5288 28.0938
#
#
#
# Elastic Compliance Matrix: (Units=1/GPa)
#
#
# Indices 1 2 3 4 5 6 
#
# 1 0.016641 -0.003809 -0.004436 -0.000884 -0.000970 -0.005299
# 2 -0.003809 0.014499 -0.006251 -0.000639 0.002105 0.003639
# 3 -0.004436 -0.006251 0.017371 0.000981 0.007003 -0.001515
# 4 -0.000884 -0.000639 0.000981 0.018274 0.000481 -0.003520
# 5 -0.000970 0.002105 0.007003 0.000481 0.036866 -0.004433
# 6 -0.005299 0.003639 -0.001515 -0.003520 -0.004433 0.039149
#
#
# Mechanical properties :
#
#
# Convention : Reuss Voigt Hill
#
# Bulk Modulus (GPa) = 51.23213 58.62849 54.93031
# Shear Modulus (GPa) = 28.04302 33.54929 30.79615
#
# Velocity S-wave (km/s) = 3.62208 3.96175 3.79572
# Velocity P-wave (km/s) = 6.43900 6.95383 6.70136
#
# Compressibility (1/GPa) = 0.01951900
#
# Stress axis : x y z
#
# Youngs Moduli (GPa) = 60.09203 68.97140 57.56784
#
# Poissons Ratio (x) = 0.26268 0.25536
# Poissons Ratio (y) = 0.22887 0.35988
# Poissons Ratio (z) = 0.26656 0.43117
#
# Static dielectric constant tensor:
#      x y z
#    x 3.657370 0.483710 -0.084390 
#    y 0.483710 8.718190 -1.584900 
#    z -0.084390 -1.584900 4.523510 
# 
# 
# High freq. dielectric constant tensor:
#      x y z
#    x 1.817890 -0.005530 0.020070 
#    y -0.005530 1.861360 -0.001090 
#    z 0.020070 -0.001090 1.836160 
# 
# From -- ./inp_files/186804.got.cif
#   From: 2010.06.25/outbox.cif.g09.slc.cpg/sg2_94_cif.got.tgz:186804.got - 2010.06.27 13:26:56.
