data_PCOD8023595
_publ_section_title
;
Structure prediction by ZEFSAII (Michael W. Deem and Ramdas Pophale) SiO2 
 PCOD8023595
Probable space group: P -1
;
_chemical_formula_sum "Si O2"
_cell_formula_units_Z 14
_cell_length_a 5.109014
_cell_length_b 13.704756
_cell_length_c 13.208786
_cell_angle_alpha 127.814890
_cell_angle_beta 97.002881
_cell_angle_gamma 106.688337
_cell_volume 643.308471
_symmetry_space_group_name_H-M "P -1"
_symmetry_group_IT_number 2
_symmetry_cell_setting 'triclinic'
loop_
_space_group_symop_operation_xyz
x,y,z
-x,-y,-z
loop_
_atom_site_type_symbol
_atom_site_label
_atom_site_fract_x
_atom_site_fract_y
_atom_site_fract_z
Si Si1 0.785604 0.515945 0.080482
Si Si2 0.927323 0.185794 0.613076
Si Si3 0.294011 0.081156 0.435699
Si Si4 0.663919 0.424476 0.406747
Si Si5 0.532330 0.316583 0.124105
Si Si6 0.248856 0.118508 0.228657
Si Si7 0.884756 0.145979 0.056666
O O1 0.669679 0.387526 0.070320
O O2 0.951107 0.661339 0.238477
O O3 0.500000 0.500000 0.000000
O O4 0.000000 0.500000 0.000000
O O5 0.651385 0.155704 0.506765
O O6 0.184053 0.173886 0.554532
O O7 0.831163 0.076116 0.630535
O O8 0.169950 0.069453 0.309162
O O9 0.500000 0.500000 0.500000
O O10 0.626006 0.433948 0.290313
O O11 0.540300 0.265943 0.336222
O O12 0.000000 0.500000 0.500000
O O13 0.173999 0.229900 0.051484
O O14 0.670282 0.215376 0.095493
O O15 0.984924 0.135979 0.170071
O O16 0.309051 0.006410 0.097277
#
# Coordination Sequence:
#
# PCOD8023595 Si02
#       7
#     2   2   2   2   2   2   2
#     4  12  27  44  72  97 133 181 223 270 343 391
#     4  10  24  45  61 102 129 168 230 269 327 395
#     4  10  23  41  71  92 134 172 217 281 321 386
#     4  11  25  41  65  98 133 169 215 259 335 403
#     4  11  25  44  68  97 139 171 217 288 320 391
#     4  10  24  42  73  96 133 180 218 269 337 387
#     4  10  24  45  66 104 131 170 232 270 325 400
#
# _framework density 21.762498999999998
#
# number of rings (size 3 to 8) (size 9 to 14) (size 15 to 20)
#    0.000    1.429    0.000    3.429    8.000    9.714 
#    0.000    0.000    0.000    0.000    0.000    0.000 
#    0.000    0.000    0.000    0.000    0.000    0.000 
#
# Total GULP energy -173630.943450 kJ/mol
# GULP energy per Si atom -12402.210246 kJ/mol
# Density = 2.171297 g / cm^3
# Si number density = 21.762499 Si / 1000 Ang^3
#
#
#
# Elastic Constant Matrix: (Units=GPa)
#
#
# Indices 1 2 3 4 5 6 
#
# 1 122.9377 29.0127 38.2815 11.5270 -5.0922 -2.5807
# 2 29.0127 110.0578 63.5885 -12.4863 -0.3969 1.1955
# 3 38.2815 63.5885 120.8263 9.5253 0.8647 -2.2003
# 4 11.5270 -12.4863 9.5253 48.3567 2.6671 -3.6781
# 5 -5.0922 -0.3969 0.8647 2.6671 33.5246 6.9760
# 6 -2.5807 1.1955 -2.2003 -3.6781 6.9760 26.1200
#
#
#
# Elastic Compliance Matrix: (Units=1/GPa)
#
#
# Indices 1 2 3 4 5 6 
#
# 1 0.009415 -0.001613 -0.001959 -0.002360 0.001635 0.000070
# 2 -0.001613 0.014539 -0.007592 0.005597 -0.000192 -0.000625
# 3 -0.001959 -0.007592 0.013228 -0.004001 -0.000590 0.000862
# 4 -0.002360 0.005597 -0.004001 0.023877 -0.002770 0.003276
# 5 0.001635 -0.000192 -0.000590 -0.002770 0.032153 -0.008857
# 6 0.000070 -0.000625 0.000862 0.003276 -0.008857 0.041220
#
#
# Mechanical properties :
#
#
# Convention : Reuss Voigt Hill
#
# Bulk Modulus (GPa) = 67.31688 68.39858 67.85773
# Shear Modulus (GPa) = 30.91956 36.46287 33.69121
#
# Velocity S-wave (km/s) = 3.77340 4.09772 3.93890
# Velocity P-wave (km/s) = 7.06997 7.34072 7.20661
#
# Compressibility (1/GPa) = 0.01485512
#
# Stress axis : x y z
#
# Youngs Moduli (GPa) = 106.21158 68.78204 75.60000
#
# Poissons Ratio (x) = 0.11094 0.14806
# Poissons Ratio (y) = 0.17132 0.57393
# Poissons Ratio (z) = 0.20802 0.52217
#
# Static dielectric constant tensor:
#      x y z
#    x 3.605470 -0.287250 0.096040 
#    y -0.287250 3.705490 0.146560 
#    z 0.096040 0.146560 4.089480 
# 
# 
# High freq. dielectric constant tensor:
#      x y z
#    x 1.865330 0.000960 -0.000960 
#    y 0.000960 1.860630 0.004580 
#    z -0.000960 0.004580 1.865410 
# 
# From -- ./inp_files/363457.got.cif
#   From: 2010.06.25/outbox.cif.g09.slc.cpg/sg2_182_cif.got.tgz:363457.got - 2010.06.27 13:26:56.
