data_PCOD8023393
_publ_section_title
;
Structure prediction by ZEFSAII (Michael W. Deem and Ramdas Pophale) SiO2 
 PCOD8023393
Probable space group: P -1
;
_chemical_formula_sum "Si O2"
_cell_formula_units_Z 16
_cell_length_a 8.517060
_cell_length_b 16.524209
_cell_length_c 15.633716
_cell_angle_alpha 35.892223
_cell_angle_beta 105.118717
_cell_angle_gamma 131.952788
_cell_volume 733.942649
_symmetry_space_group_name_H-M "P -1"
_symmetry_group_IT_number 2
_symmetry_cell_setting 'triclinic'
loop_
_space_group_symop_operation_xyz
x,y,z
-x,-y,-z
loop_
_atom_site_type_symbol
_atom_site_label
_atom_site_fract_x
_atom_site_fract_y
_atom_site_fract_z
Si Si1 0.314449 0.493504 0.589091
Si Si2 0.286417 0.330287 0.191329
Si Si3 0.179988 0.822501 0.099671
Si Si4 0.830555 0.421830 0.807046
Si Si5 0.402292 0.932876 0.447227
Si Si6 0.335477 0.164806 0.494817
Si Si7 0.267529 0.628557 0.974388
Si Si8 0.586368 0.746308 0.240846
O O1 0.533398 0.669792 0.545513
O O2 0.398699 0.630686 0.397900
O O3 0.295812 0.321232 0.706332
O O4 0.008053 0.333630 0.709366
O O5 0.399788 0.299123 0.303985
O O6 0.500000 0.500000 0.000000
O O7 0.258686 0.458057 0.124091
O O8 0.993471 0.075458 0.331643
O O9 0.053106 0.642545 0.160157
O O10 0.500000 0.000000 0.000000
O O11 0.160620 0.972920 0.947603
O O12 0.580547 0.314505 0.811756
O O13 0.073382 0.699880 0.601956
O O14 0.724658 0.310638 0.980575
O O15 0.538269 0.900880 0.441531
O O16 0.500000 0.000000 0.500000
O O17 0.470768 0.126953 0.246975
O O18 0.000000 0.500000 0.000000
#
# Coordination Sequence:
#
# PCOD8023393 Si02
#       8
#     2   2   2   2   2   2   2   2
#     4  11  23  44  69  95 136 175 227 281 339 405
#     4  11  25  43  66  98 139 177 222 274 335 403
#     4  10  23  41  66  96 129 173 226 278 333 399
#     4  11  24  42  65  97 132 172 222 278 336 396
#     4  12  23  41  69  96 134 176 220 274 336 399
#     4  11  24  42  67  99 133 179 221 276 333 402
#     4  12  24  40  65  96 133 172 223 273 330 406
#     4  10  25  43  67  97 132 175 226 282 342 398
#
# _framework density 21.800069000000001
#
# number of rings (size 3 to 8) (size 9 to 14) (size 15 to 20)
#    0.000    1.000    3.750    1.875    1.750    8.000 
#    0.000    3.750    0.000    0.000    0.000    0.000 
#    0.000    0.000    0.000    0.000    0.000    0.000 
#
# Total GULP energy -198375.118088 kJ/mol
# GULP energy per Si atom -12398.444881 kJ/mol
# Density = 2.175045 g / cm^3
# Si number density = 21.800069 Si / 1000 Ang^3
#
#
#
# Elastic Constant Matrix: (Units=GPa)
#
#
# Indices 1 2 3 4 5 6 
#
# 1 58.0938 18.6149 15.8785 3.9662 -10.7816 -11.9454
# 2 18.6149 98.4542 43.7429 15.6214 -11.5858 -12.0421
# 3 15.8785 43.7429 140.5852 5.9232 -11.8887 -7.9290
# 4 3.9662 15.6214 5.9232 42.2990 -7.6697 -0.3061
# 5 -10.7816 -11.5858 -11.8887 -7.6697 42.0507 3.4049
# 6 -11.9454 -12.0421 -7.9290 -0.3061 3.4049 35.1769
#
#
#
# Elastic Compliance Matrix: (Units=1/GPa)
#
#
# Indices 1 2 3 4 5 6 
#
# 1 0.020019 -0.002227 -0.000932 -0.000200 0.003777 0.005458
# 2 -0.002227 0.013217 -0.003436 -0.003963 0.001146 0.002848
# 3 -0.000932 -0.003436 0.008391 0.000408 0.001238 0.000282
# 4 -0.000200 -0.003963 0.000408 0.025742 0.003787 -0.001475
# 5 0.003777 0.001146 0.001238 0.003787 0.026150 -0.000544
# 6 0.005458 0.002848 0.000282 -0.001475 -0.000544 0.031360
#
#
# Mechanical properties :
#
#
# Convention : Reuss Voigt Hill
#
# Bulk Modulus (GPa) = 35.16767 50.40065 42.78416
# Shear Modulus (GPa) = 33.88715 38.49844 36.19279
#
# Velocity S-wave (km/s) = 3.94693 4.20691 4.07899
# Velocity P-wave (km/s) = 6.07766 6.83865 6.46936
#
# Compressibility (1/GPa) = 0.02843521
#
# Stress axis : x y z
#
# Youngs Moduli (GPa) = 49.95268 75.66134 119.17413
#
# Poissons Ratio (x) = 0.16849 0.11113
# Poissons Ratio (y) = 0.11124 0.40953
# Poissons Ratio (z) = 0.04658 0.26000
#
# Static dielectric constant tensor:
#      x y z
#    x 4.160550 -0.700770 0.539850 
#    y -0.700770 5.125250 -0.965770 
#    z 0.539850 -0.965770 4.986600 
# 
# 
# High freq. dielectric constant tensor:
#      x y z
#    x 1.852990 -0.021160 0.002750 
#    y -0.021160 1.854400 -0.007750 
#    z 0.002750 -0.007750 1.879470 
# 
# From -- ./inp_files/505289.got.cif
#   From: 2010.06.25/outbox.cif.g09.slc.cpg/sg2_253_cif.got.tgz:505289.got - 2010.06.27 13:26:56.
