data_PCOD8023994
_publ_section_title
;
Structure prediction by ZEFSAII (Michael W. Deem and Ramdas Pophale) SiO2 
 PCOD8023994
Probable space group: P -1
;
_chemical_formula_sum "Si O2"
_cell_formula_units_Z 14
_cell_length_a 9.217509
_cell_length_b 12.621625
_cell_length_c 18.288605
_cell_angle_alpha 151.009082
_cell_angle_beta 37.223198
_cell_angle_gamma 129.773755
_cell_volume 612.016988
_symmetry_space_group_name_H-M "P -1"
_symmetry_group_IT_number 2
_symmetry_cell_setting 'triclinic'
loop_
_space_group_symop_operation_xyz
x,y,z
-x,-y,-z
loop_
_atom_site_type_symbol
_atom_site_label
_atom_site_fract_x
_atom_site_fract_y
_atom_site_fract_z
Si Si1 0.986505 0.058464 0.126182
Si Si2 0.971903 0.666192 0.265767
Si Si3 0.014458 0.999902 0.658675
Si Si4 0.315228 0.615834 0.234507
Si Si5 0.506325 0.300118 0.432190
Si Si6 0.194627 0.232820 0.859082
Si Si7 0.524065 0.878695 0.069681
O O1 0.763931 0.270058 0.354959
O O2 0.932000 0.857517 0.074849
O O3 0.252981 0.112467 0.071019
O O4 0.000000 0.000000 0.000000
O O5 0.957378 0.902852 0.375487
O O6 0.715516 0.642295 0.388475
O O7 0.193356 0.613166 0.202618
O O8 0.039880 0.483317 0.063490
O O9 0.180663 0.088046 0.705195
O O10 0.732251 0.065053 0.837375
O O11 0.110646 0.734377 0.447291
O O12 0.521241 0.767817 0.240577
O O13 0.433126 0.365567 0.059274
O O14 0.500000 0.500000 0.500000
O O15 0.500193 0.065074 0.254591
#
# Coordination Sequence:
#
# PCOD8023994 Si02
#       7
#     2   2   2   2   2   2   2
#     4  10  23  42  68  99 135 182 229 283 344 410
#     4  12  23  41  74 105 135 186 240 287 339 411
#     4  12  27  44  70 104 147 182 230 289 358 410
#     4  12  25  44  75 103 138 184 239 288 339 412
#     4  11  22  42  72 107 137 176 238 292 341 410
#     4  12  26  46  68 104 147 184 227 292 353 414
#     4  11  24  45  71 101 141 179 236 287 346 409
#
# _framework density 22.875181999999999
#
# number of rings (size 3 to 8) (size 9 to 14) (size 15 to 20)
#    0.000    0.571    2.857    6.857    4.000    0.571 
#    0.000    0.714    0.000    0.000    0.000    0.000 
#    0.000    0.000    0.000    0.000    0.000    0.000 
#
# Total GULP energy -173569.036602 kJ/mol
# GULP energy per Si atom -12397.788329 kJ/mol
# Density = 2.282312 g / cm^3
# Si number density = 22.875182 Si / 1000 Ang^3
#
#
#
# Elastic Constant Matrix: (Units=GPa)
#
#
# Indices 1 2 3 4 5 6 
#
# 1 74.3576 36.1089 45.7891 -8.1078 -4.2149 13.3470
# 2 36.1089 123.1870 24.0746 -12.5268 -19.0739 19.3001
# 3 45.7891 24.0746 125.2694 10.6247 -12.4291 7.5591
# 4 -8.1078 -12.5268 10.6247 39.4118 13.8386 -11.5286
# 5 -4.2149 -19.0739 -12.4291 13.8386 35.9262 -5.9250
# 6 13.3470 19.3001 7.5591 -11.5286 -5.9250 24.7686
#
#
#
# Elastic Compliance Matrix: (Units=1/GPa)
#
#
# Indices 1 2 3 4 5 6 
#
# 1 0.021445 -0.004328 -0.007761 0.005727 -0.005405 -0.004443
# 2 -0.004328 0.010825 0.000376 -0.000829 0.004789 -0.005458
# 3 -0.007761 0.000376 0.012076 -0.007365 0.006009 -0.001787
# 4 0.005727 -0.000829 -0.007365 0.037365 -0.014443 0.013745
# 5 -0.005405 0.004789 0.006009 -0.014443 0.037311 -0.000450
# 6 -0.004443 -0.005458 -0.001787 0.013745 -0.000450 0.053856
#
#
# Mechanical properties :
#
#
# Convention : Reuss Voigt Hill
#
# Bulk Modulus (GPa) = 47.79785 59.41767 53.60776
# Shear Modulus (GPa) = 24.59704 34.47740 29.53722
#
# Velocity S-wave (km/s) = 3.28269 3.88648 3.59727
# Velocity P-wave (km/s) = 5.94210 6.79490 6.38276
#
# Compressibility (1/GPa) = 0.02092144
#
# Stress axis : x y z
#
# Youngs Moduli (GPa) = 46.63171 92.37792 82.80873
#
# Poissons Ratio (x) = 0.39979 0.64266
# Poissons Ratio (y) = 0.20181 -0.03117
# Poissons Ratio (z) = 0.36190 -0.03477
#
# Static dielectric constant tensor:
#      x y z
#    x 4.136170 0.540380 -0.552490 
#    y 0.540380 4.437430 -0.286070 
#    z -0.552490 -0.286070 4.519780 
# 
# 
# High freq. dielectric constant tensor:
#      x y z
#    x 1.878850 0.018450 -0.028390 
#    y 0.018450 1.905870 -0.005940 
#    z -0.028390 -0.005940 1.922600 
# 
# From -- ./inp_files/461856.got.cif
#   From: 2010.06.25/outbox.cif.g09.slc.cpg/sg2_231_cif.got.tgz:461856.got - 2010.06.27 13:26:56.
