data_PCOD8023651
_publ_section_title
;
Structure prediction by ZEFSAII (Michael W. Deem and Ramdas Pophale) SiO2 
 PCOD8023651
Probable space group: P -1
;
_chemical_formula_sum "Si O2"
_cell_formula_units_Z 14
_cell_length_a 7.779370
_cell_length_b 6.280546
_cell_length_c 13.187250
_cell_angle_alpha 120.259983
_cell_angle_beta 90.980921
_cell_angle_gamma 99.343103
_cell_volume 545.427962
_symmetry_space_group_name_H-M "P -1"
_symmetry_group_IT_number 2
_symmetry_cell_setting 'triclinic'
loop_
_space_group_symop_operation_xyz
x,y,z
-x,-y,-z
loop_
_atom_site_type_symbol
_atom_site_label
_atom_site_fract_x
_atom_site_fract_y
_atom_site_fract_z
Si Si1 0.206584 0.268519 0.578063
Si Si2 0.151699 0.723540 0.500351
Si Si3 0.595620 0.316441 0.823038
Si Si4 0.216605 0.103116 0.753413
Si Si5 0.919550 0.211833 0.910200
Si Si6 0.578600 0.501177 0.659202
Si Si7 0.357268 0.138223 0.079015
O O1 0.191610 0.299708 0.709019
O O2 0.394474 0.423605 0.578804
O O3 0.059784 0.385228 0.541206
O O4 0.186370 0.968803 0.483285
O O5 0.260164 0.512304 0.417578
O O6 0.205081 0.824866 0.638881
O O7 0.402538 0.191554 0.834375
O O8 0.746486 0.183138 0.832055
O O9 0.581019 0.286576 0.693927
O O10 0.646779 0.612650 0.927479
O O11 0.063546 0.081225 0.828817
O O12 0.835709 0.049021 0.969018
O O13 0.000000 0.500000 0.000000
O O14 0.597045 0.770288 0.780731
O O15 0.500000 0.000000 0.000000
#
# Coordination Sequence:
#
# PCOD8023651 Si02
#       7
#     2   2   2   2   2   2   2
#     4   8  16  27  57  88 119 148 197 234 282 345
#     4   9  15  28  56  91 115 150 195 234 284 348
#     4   9  22  41  63  84 123 157 194 240 300 343
#     4   9  19  35  58  93 119 153 201 240 285 354
#     4  12  25  40  63  88 118 154 201 247 296 347
#     4   9  18  35  57  85 116 156 192 232 293 350
#     4  10  23  42  61  86 118 155 202 244 292 355
#
# _framework density 25.667919000000001
#
# number of rings (size 3 to 8) (size 9 to 14) (size 15 to 20)
#    1.714    0.857    0.000    2.143    0.000    2.857 
#    0.000    3.571    0.000    1.714    0.000    0.000 
#    0.000    0.000    0.000    0.000    0.000    0.000 
#
# Total GULP energy -173447.841894 kJ/mol
# GULP energy per Si atom -12389.131564 kJ/mol
# Density = 2.560950 g / cm^3
# Si number density = 25.667919 Si / 1000 Ang^3
#
#
#
# Elastic Constant Matrix: (Units=GPa)
#
#
# Indices 1 2 3 4 5 6 
#
# 1 178.6390 46.3807 64.7636 0.0430 -8.6400 50.2458
# 2 46.3807 61.5382 25.3622 22.3970 -4.4483 33.1643
# 3 64.7636 25.3622 117.6702 16.1967 -29.2174 23.6554
# 4 0.0430 22.3970 16.1967 33.3393 6.3789 6.4838
# 5 -8.6400 -4.4483 -29.2174 6.3789 55.2312 -7.1589
# 6 50.2458 33.1643 23.6554 6.4838 -7.1589 48.5735
#
#
#
# Elastic Compliance Matrix: (Units=1/GPa)
#
#
# Indices 1 2 3 4 5 6 
#
# 1 0.010546 -0.005795 -0.005332 0.008272 -0.003365 -0.005956
# 2 -0.005795 0.038026 0.002922 -0.024364 0.004246 -0.017513
# 3 -0.005332 0.002922 0.014425 -0.010334 0.008105 -0.000930
# 4 0.008272 -0.024364 -0.010334 0.052758 -0.011664 0.004349
# 5 -0.003365 0.004246 0.008105 -0.011664 0.023776 0.001696
# 6 -0.005956 -0.017513 -0.000930 0.004349 0.001696 0.038828
#
#
# Mechanical properties :
#
#
# Convention : Reuss Voigt Hill
#
# Bulk Modulus (GPa) = 21.46527 70.09559 45.78043
# Shear Modulus (GPa) = 23.77580 42.18486 32.98033
#
# Velocity S-wave (km/s) = 3.04679 4.05839 3.58842
# Velocity P-wave (km/s) = 4.55611 7.02343 5.91974
#
# Compressibility (1/GPa) = 0.04658688
#
# Stress axis : x y z
#
# Youngs Moduli (GPa) = 94.82269 26.29791 69.32322
#
# Poissons Ratio (x) = 0.15239 0.36964
# Poissons Ratio (y) = 0.54949 -0.20256
# Poissons Ratio (z) = 0.50561 -0.07684
#
# Static dielectric constant tensor:
#      x y z
#    x 4.453410 0.252250 0.180970 
#    y 0.252250 4.533780 0.168730 
#    z 0.180970 0.168730 4.172100 
# 
# 
# High freq. dielectric constant tensor:
#      x y z
#    x 2.025970 0.015080 0.009390 
#    y 0.015080 2.029830 0.011090 
#    z 0.009390 0.011090 1.999350 
# 
# From -- ./inp_files/582066.got.cif
#   From: 2010.06.25/outbox.cif.g09.slc.cpg/sg2_292_cif.got.tgz:582066.got - 2010.06.27 13:26:56.
