data_PCOD8023865
_publ_section_title
;
Structure prediction by ZEFSAII (Michael W. Deem and Ramdas Pophale) SiO2 
 PCOD8023865
Probable space group: P -1
;
_chemical_formula_sum "Si O2"
_cell_formula_units_Z 14
_cell_length_a 12.179891
_cell_length_b 12.489925
_cell_length_c 9.321816
_cell_angle_alpha 38.957611
_cell_angle_beta 45.749366
_cell_angle_gamma 57.146033
_cell_volume 638.660298
_symmetry_space_group_name_H-M "P -1"
_symmetry_group_IT_number 2
_symmetry_cell_setting 'triclinic'
loop_
_space_group_symop_operation_xyz
x,y,z
-x,-y,-z
loop_
_atom_site_type_symbol
_atom_site_label
_atom_site_fract_x
_atom_site_fract_y
_atom_site_fract_z
Si Si1 0.609463 0.876540 0.945044
Si Si2 0.584131 0.145616 0.353265
Si Si3 0.950326 0.299556 0.588451
Si Si4 0.958950 0.685381 0.184848
Si Si5 0.401255 0.686444 0.115640
Si Si6 0.619715 0.687327 0.411604
Si Si7 0.865267 0.010582 0.385176
O O1 0.767939 0.970185 0.659280
O O2 0.521076 0.814192 0.948339
O O3 0.648558 0.725519 0.177958
O O4 0.500000 0.000000 0.000000
O O5 0.505272 0.187521 0.533625
O O6 0.500000 0.000000 0.500000
O O7 0.754553 0.077427 0.291556
O O8 0.582740 0.307422 0.078512
O O9 0.002651 0.492695 0.296599
O O10 0.774785 0.267988 0.732777
O O11 0.971655 0.274293 0.764807
O O12 0.051228 0.163139 0.554130
O O13 0.775769 0.701304 0.345380
O O14 0.018890 0.828579 0.867374
O O15 0.447659 0.501324 0.320874
#
# Coordination Sequence:
#
# PCOD8023865 Si02
#       7
#     2   2   2   2   2   2   2
#     4  12  26  46  63  97 134 179 223 268 339 398
#     4  12  22  40  68 104 128 170 228 275 334 386
#     4  10  23  42  67 103 133 170 220 277 334 394
#     4  10  23  42  67 100 136 172 217 274 337 391
#     4  11  24  44  70  97 130 175 224 281 329 391
#     4  11  25  45  66  96 138 176 221 275 329 401
#     4  12  24  39  70  96 133 174 216 277 329 394
#
# _framework density 21.920887
#
# number of rings (size 3 to 8) (size 9 to 14) (size 15 to 20)
#    0.000    0.857    4.286    2.143    4.000    1.714 
#    2.571    1.429    0.000    0.000    0.000    0.000 
#    0.000    0.000    0.000    0.000    0.000    0.000 
#
# Total GULP energy -173577.425129 kJ/mol
# GULP energy per Si atom -12398.387509 kJ/mol
# Density = 2.187099 g / cm^3
# Si number density = 21.920887 Si / 1000 Ang^3
#
#
#
# Elastic Constant Matrix: (Units=GPa)
#
#
# Indices 1 2 3 4 5 6 
#
# 1 56.0022 18.4270 6.5591 -0.2392 3.8139 -3.2671
# 2 18.4270 114.3634 57.0172 -0.6612 -5.3255 -16.1238
# 3 6.5591 57.0172 154.3585 -0.2693 7.5169 2.1391
# 4 -0.2392 -0.6612 -0.2693 28.8679 0.6888 3.6813
# 5 3.8139 -5.3255 7.5169 0.6888 43.2028 2.8911
# 6 -3.2671 -16.1238 2.1391 3.6813 2.8911 25.3949
#
#
#
# Elastic Compliance Matrix: (Units=1/GPa)
#
#
# Indices 1 2 3 4 5 6 
#
# 1 0.019086 -0.003374 0.000537 0.000074 -0.002230 0.000511
# 2 -0.003374 0.012946 -0.004860 -0.000858 0.002213 0.008068
# 3 0.000537 -0.004860 0.008392 0.000472 -0.001875 -0.003578
# 4 0.000074 -0.000858 0.000472 0.035356 -0.000380 -0.005657
# 5 -0.002230 0.002213 -0.001875 -0.000380 0.024043 -0.001406
# 6 0.000511 0.008068 -0.003578 -0.005657 -0.001406 0.045848
#
#
# Mechanical properties :
#
#
# Convention : Reuss Voigt Hill
#
# Bulk Modulus (GPa) = 39.95165 54.30340 47.12753
# Shear Modulus (GPa) = 29.51446 35.67452 32.59449
#
# Velocity S-wave (km/s) = 3.67332 4.03851 3.86024
# Velocity P-wave (km/s) = 6.02130 6.82439 6.43538
#
# Compressibility (1/GPa) = 0.02503025
#
# Stress axis : x y z
#
# Youngs Moduli (GPa) = 52.39498 77.24304 119.15525
#
# Poissons Ratio (x) = 0.26065 -0.06399
# Poissons Ratio (y) = 0.17680 0.57906
# Poissons Ratio (z) = -0.02814 0.37538
#
# Static dielectric constant tensor:
#      x y z
#    x 4.146460 -0.024540 0.358200 
#    y -0.024540 3.774030 0.014610 
#    z 0.358200 0.014610 4.860290 
# 
# 
# High freq. dielectric constant tensor:
#      x y z
#    x 1.861250 -0.018030 0.000740 
#    y -0.018030 1.842640 -0.014710 
#    z 0.000740 -0.014710 1.883610 
# 
# From -- ./inp_files/154081.got.cif
#   From: 2010.06.25/outbox.cif.g09.slc.cpg/sg2_78_cif.got.tgz:154081.got - 2010.06.27 13:26:56.
