data_PCOD8023866
_publ_section_title
;
Structure prediction by ZEFSAII (Michael W. Deem and Ramdas Pophale) SiO2 
 PCOD8023866
Probable space group: P -1
;
_chemical_formula_sum "Si O2"
_cell_formula_units_Z 14
_cell_length_a 16.047248
_cell_length_b 10.670325
_cell_length_c 7.902233
_cell_angle_alpha 58.468967
_cell_angle_beta 89.728408
_cell_angle_gamma 42.020143
_cell_volume 571.285756
_symmetry_space_group_name_H-M "P -1"
_symmetry_group_IT_number 2
_symmetry_cell_setting 'triclinic'
loop_
_space_group_symop_operation_xyz
x,y,z
-x,-y,-z
loop_
_atom_site_type_symbol
_atom_site_label
_atom_site_fract_x
_atom_site_fract_y
_atom_site_fract_z
Si Si1 0.531521 0.778489 0.131203
Si Si2 0.625024 0.054837 0.339481
Si Si3 0.785862 0.508366 0.791277
Si Si4 0.013059 0.363821 0.395229
Si Si5 0.606582 0.524961 0.642208
Si Si6 0.145883 0.663232 0.731400
Si Si7 0.109173 0.136898 0.909492
O O1 0.492183 0.739984 0.326516
O O2 0.731756 0.467186 0.323213
O O3 0.436941 0.845527 0.925793
O O4 0.500000 0.000000 0.000000
O O5 0.501413 0.317196 0.294567
O O6 0.654109 0.840869 0.532687
O O7 0.799361 0.875276 0.485332
O O8 0.745681 0.440532 0.708392
O O9 0.981248 0.255258 0.956954
O O10 0.747525 0.500077 0.981719
O O11 0.020315 0.257791 0.642123
O O12 0.928880 0.386411 0.244983
O O13 0.882466 0.700481 0.170472
O O14 0.705531 0.218904 0.832526
O O15 0.000000 0.000000 0.500000
#
# Coordination Sequence:
#
# PCOD8023866 Si02
#       7
#     2   2   2   2   2   2   2
#     4  12  25  44  74 103 143 185 235 288 352 409
#     4  11  25  46  67 108 142 187 227 292 355 409
#     4  11  21  42  71 101 142 179 238 287 347 409
#     4  10  25  47  69  97 148 183 228 290 356 414
#     4  12  22  43  72 105 140 182 239 290 336 420
#     4  12  25  45  74 106 134 184 242 289 343 423
#     4  10  23  42  67 100 137 189 228 286 349 409
#
# _framework density 24.506125000000001
#
# number of rings (size 3 to 8) (size 9 to 14) (size 15 to 20)
#    0.000    0.857    2.857    4.286    4.000    2.857 
#    2.571    0.714    0.000    0.000    0.000    0.000 
#    0.000    0.000    0.000    0.000    0.000    0.000 
#
# Total GULP energy -173582.572925 kJ/mol
# GULP energy per Si atom -12398.755209 kJ/mol
# Density = 2.445035 g / cm^3
# Si number density = 24.506125 Si / 1000 Ang^3
#
#
#
# Elastic Constant Matrix: (Units=GPa)
#
#
# Indices 1 2 3 4 5 6 
#
# 1 47.6412 12.1866 20.4657 -2.5536 2.8217 1.9090
# 2 12.1866 129.9037 53.1976 -8.5606 -0.1700 5.4421
# 3 20.4657 53.1976 127.4809 -4.4453 -5.9062 22.3178
# 4 -2.5536 -8.5606 -4.4453 55.8438 3.7508 -3.0580
# 5 2.8217 -0.1700 -5.9062 3.7508 29.1686 -1.8737
# 6 1.9090 5.4421 22.3178 -3.0580 -1.8737 21.2904
#
#
#
# Elastic Compliance Matrix: (Units=1/GPa)
#
#
# Indices 1 2 3 4 5 6 
#
# 1 0.022966 -0.000579 -0.003912 0.000965 -0.003009 0.002064
# 2 -0.000579 0.009478 -0.004236 0.001260 -0.000768 0.002183
# 3 -0.003912 -0.004236 0.012310 -0.000618 0.002196 -0.011366
# 4 0.000965 0.001260 -0.000618 0.018403 -0.002406 0.002671
# 5 -0.003009 -0.000768 0.002196 -0.002406 0.035384 0.000933
# 6 0.002064 0.002183 -0.011366 0.002671 0.000933 0.058607
#
#
# Mechanical properties :
#
#
# Convention : Reuss Voigt Hill
#
# Bulk Modulus (GPa) = 36.63109 52.96952 44.80030
# Shear Modulus (GPa) = 27.21800 35.87227 31.54513
#
# Velocity S-wave (km/s) = 3.33627 3.83013 3.59170
# Velocity P-wave (km/s) = 5.46087 6.42040 5.95998
#
# Compressibility (1/GPa) = 0.02729922
#
# Stress axis : x y z
#
# Youngs Moduli (GPa) = 43.54205 105.51224 81.23485
#
# Poissons Ratio (x) = 0.06111 0.31782
# Poissons Ratio (y) = 0.02522 0.34410
# Poissons Ratio (z) = 0.17035 0.44693
#
# Static dielectric constant tensor:
#      x y z
#    x 4.121310 0.026920 -0.053020 
#    y 0.026920 4.407580 -0.033940 
#    z -0.053020 -0.033940 4.222990 
# 
# 
# High freq. dielectric constant tensor:
#      x y z
#    x 1.971010 -0.004240 -0.000320 
#    y -0.004240 1.983360 0.000420 
#    z -0.000320 0.000420 1.975550 
# 
# From -- ./inp_files/331606.got.cif
#   From: 2010.06.25/outbox.cif.g09.slc.cpg/sg2_166_cif.got.tgz:331606.got - 2010.06.27 13:26:56.
