data_PCOD8023678
_publ_section_title
;
Structure prediction by ZEFSAII (Michael W. Deem and Ramdas Pophale) SiO2 
 PCOD8023678
Probable space group: P -1
;
_chemical_formula_sum "Si O2"
_cell_formula_units_Z 16
_cell_length_a 7.883518
_cell_length_b 15.921675
_cell_length_c 18.683125
_cell_angle_alpha 32.424978
_cell_angle_beta 145.786384
_cell_angle_gamma 136.891950
_cell_volume 703.017927
_symmetry_space_group_name_H-M "P -1"
_symmetry_group_IT_number 2
_symmetry_cell_setting 'triclinic'
loop_
_space_group_symop_operation_xyz
x,y,z
-x,-y,-z
loop_
_atom_site_type_symbol
_atom_site_label
_atom_site_fract_x
_atom_site_fract_y
_atom_site_fract_z
Si Si1 0.930519 0.322084 0.407737
Si Si2 0.276039 0.377986 0.635557
Si Si3 0.337983 0.972530 0.653636
Si Si4 0.192876 0.003666 0.733714
Si Si5 0.047987 0.633373 0.134819
Si Si6 0.815427 0.123734 0.885332
Si Si7 0.254660 0.727088 0.389198
Si Si8 0.328230 0.216819 0.210391
O O1 0.561196 0.286415 0.303588
O O2 0.066596 0.378580 0.490901
O O3 0.073256 0.164950 0.546617
O O4 0.004049 0.459075 0.276441
O O5 0.595056 0.311359 0.787166
O O6 0.348653 0.554915 0.564141
O O7 0.091213 0.266440 0.709275
O O8 0.472353 0.850773 0.734412
O O9 0.322191 0.915822 0.772533
O O10 0.540612 0.138459 0.593648
O O11 0.000000 0.000000 0.500000
O O12 0.489228 0.042621 0.860244
O O13 0.920746 0.909283 0.749978
O O14 0.962830 0.778529 0.050913
O O15 0.852333 0.643912 0.986541
O O16 0.722485 0.249890 0.704158
O O17 0.000000 0.000000 0.000000
#
# Coordination Sequence:
#
# PCOD8023678 Si02
#       8
#     2   2   2   2   2   2   2   2
#     4  12  23  45  71  99 135 185 232 273 343 419
#     4  11  23  41  75  95 133 177 234 279 338 414
#     4  11  23  42  68  96 141 183 228 280 343 408
#     4  11  24  44  71 100 134 188 234 279 336 422
#     4  12  24  43  69 102 136 180 222 291 351 399
#     4  11  23  41  69  96 140 173 226 290 351 402
#     4  10  23  42  63 106 127 176 232 286 329 411
#     4  12  28  44  69 106 142 181 231 285 348 412
#
# _framework density 22.759021000000001
#
# number of rings (size 3 to 8) (size 9 to 14) (size 15 to 20)
#    0.000    0.750    3.750    4.875    3.500    0.500 
#    0.000    0.000    0.000    5.250    0.000    0.000 
#    0.000    0.000    0.000    0.000    0.000    0.000 
#
# Total GULP energy -198264.122566 kJ/mol
# GULP energy per Si atom -12391.507660 kJ/mol
# Density = 2.270722 g / cm^3
# Si number density = 22.759021 Si / 1000 Ang^3
#
#
#
# Elastic Constant Matrix: (Units=GPa)
#
#
# Indices 1 2 3 4 5 6 
#
# 1 95.2584 21.3331 19.6964 -4.5588 10.6324 22.1871
# 2 21.3331 80.7853 32.3087 14.4477 12.7445 20.3612
# 3 19.6964 32.3087 95.6103 18.4296 8.2859 10.1653
# 4 -4.5588 14.4477 18.4296 36.1050 0.0258 3.9326
# 5 10.6324 12.7445 8.2859 0.0258 20.5323 6.4731
# 6 22.1871 20.3612 10.1653 3.9326 6.4731 36.3360
#
#
#
# Elastic Compliance Matrix: (Units=1/GPa)
#
#
# Indices 1 2 3 4 5 6 
#
# 1 0.013315 -0.001177 -0.002117 0.003969 -0.003190 -0.006740
# 2 -0.001177 0.017656 -0.003535 -0.004702 -0.006883 -0.006451
# 3 -0.002117 -0.003535 0.013327 -0.005716 -0.002259 0.000566
# 4 0.003969 -0.004702 -0.005716 0.033265 0.003912 -0.002487
# 5 -0.003190 -0.006883 -0.002259 0.003912 0.056831 -0.004111
# 6 -0.006740 -0.006451 0.000566 -0.002487 -0.004111 0.036094
#
#
# Mechanical properties :
#
#
# Convention : Reuss Voigt Hill
#
# Bulk Modulus (GPa) = 32.63866 46.48117 39.55992
# Shear Modulus (GPa) = 25.72547 31.81572 28.77060
#
# Velocity S-wave (km/s) = 3.36570 3.74296 3.55933
# Velocity P-wave (km/s) = 5.42919 6.25677 5.85761
#
# Compressibility (1/GPa) = 0.03063851
#
# Stress axis : x y z
#
# Youngs Moduli (GPa) = 75.10342 56.63884 75.03486
#
# Poissons Ratio (x) = 0.06668 0.15887
# Poissons Ratio (y) = 0.08842 0.26525
# Poissons Ratio (z) = 0.15901 0.20022
#
# Static dielectric constant tensor:
#      x y z
#    x 4.649660 0.015570 -0.189620 
#    y 0.015570 4.378230 0.316150 
#    z -0.189620 0.316150 4.228730 
# 
# 
# High freq. dielectric constant tensor:
#      x y z
#    x 1.895060 0.012610 0.012520 
#    y 0.012610 1.908640 0.011870 
#    z 0.012520 0.011870 1.887640 
# 
# From -- ./inp_files/591223.got.cif
#   From: 2010.06.25/outbox.cif.g09.slc.cpg/sg2_296_cif.got.tgz:591223.got - 2010.06.27 13:26:56.
