data_PCOD8023576
_publ_section_title
;
Structure prediction by ZEFSAII (Michael W. Deem and Ramdas Pophale) SiO2 
 PCOD8023576
Probable space group: P -1
;
_chemical_formula_sum "Si O2"
_cell_formula_units_Z 16
_cell_length_a 16.175787
_cell_length_b 9.406907
_cell_length_c 17.385794
_cell_angle_alpha 152.311543
_cell_angle_beta 139.305485
_cell_angle_gamma 38.884527
_cell_volume 749.824155
_symmetry_space_group_name_H-M "P -1"
_symmetry_group_IT_number 2
_symmetry_cell_setting 'triclinic'
loop_
_space_group_symop_operation_xyz
x,y,z
-x,-y,-z
loop_
_atom_site_type_symbol
_atom_site_label
_atom_site_fract_x
_atom_site_fract_y
_atom_site_fract_z
Si Si1 0.832477 0.238407 0.607919
Si Si2 0.927486 0.619369 0.741085
Si Si3 0.634909 0.784696 0.827697
Si Si4 0.656946 0.418246 0.224131
Si Si5 0.788920 0.362379 0.013401
Si Si6 0.059778 0.639284 0.539083
Si Si7 0.571701 0.617098 0.858336
Si Si8 0.362311 0.165791 0.738053
O O1 0.872609 0.349600 0.607672
O O2 0.764634 0.556165 0.764132
O O3 0.735996 0.038020 0.426008
O O4 0.966482 0.013346 0.638434
O O5 0.939547 0.584116 0.641033
O O6 0.824217 0.976134 0.861728
O O7 0.075234 0.553901 0.849541
O O8 0.598624 0.555942 0.756865
O O9 0.511271 0.926149 0.749650
O O10 0.671944 0.074408 0.031379
O O11 0.790238 0.372867 0.344717
O O12 0.530027 0.547244 0.255705
O O13 0.633670 0.697683 0.278320
O O14 0.715256 0.490000 0.942045
O O15 0.687419 0.534525 0.093533
O O16 0.000000 0.500000 0.500000
O O17 0.500000 0.000000 0.000000
#
# Coordination Sequence:
#
# PCOD8023576 Si02
#       8
#     2   2   2   2   2   2   2   2
#     4  12  27  43  70 101 137 181 221 280 339 400
#     4  11  27  44  74  99 133 181 227 275 337 406
#     4  11  26  44  68 104 134 177 231 274 332 402
#     4  11  24  43  74  96 134 187 219 275 340 396
#     4  11  23  46  73  99 133 176 232 274 334 396
#     4  12  26  47  67 101 141 173 222 281 341 393
#     4  10  23  41  70  99 132 174 225 280 326 393
#     4  12  23  46  71  97 142 172 227 277 337 401
#
# _framework density 21.338336999999999
#
# number of rings (size 3 to 8) (size 9 to 14) (size 15 to 20)
#    0.000    0.750    5.000    1.875    8.750    1.500 
#    0.000    1.250    0.000    0.000    0.000    0.000 
#    0.000    0.000    0.000    0.000    0.000    0.000 
#
# Total GULP energy -198479.538700 kJ/mol
# GULP energy per Si atom -12404.971169 kJ/mol
# Density = 2.128977 g / cm^3
# Si number density = 21.338337 Si / 1000 Ang^3
#
#
#
# Elastic Constant Matrix: (Units=GPa)
#
#
# Indices 1 2 3 4 5 6 
#
# 1 113.8687 47.1395 44.9601 7.0939 8.7197 10.8099
# 2 47.1395 148.4439 54.3361 -24.8156 2.9221 4.3721
# 3 44.9601 54.3361 93.0329 -9.5712 14.2657 4.8744
# 4 7.0939 -24.8156 -9.5712 35.0360 -2.4082 7.6423
# 5 8.7197 2.9221 14.2657 -2.4082 33.5629 7.0889
# 6 10.8099 4.3721 4.8744 7.6423 7.0889 25.9554
#
#
#
# Elastic Compliance Matrix: (Units=1/GPa)
#
#
# Indices 1 2 3 4 5 6 
#
# 1 0.012493 -0.003199 -0.004493 -0.005693 -0.001075 -0.001851
# 2 -0.003199 0.010594 -0.004123 0.007816 0.002802 -0.002745
# 3 -0.004493 -0.004123 0.016336 0.002003 -0.005351 0.000370
# 4 -0.005693 0.007816 0.002003 0.038803 0.005307 -0.012197
# 5 -0.001075 0.002802 -0.005351 0.005307 0.034605 -0.010033
# 6 -0.001851 -0.002745 0.000370 -0.012197 -0.010033 0.046023
#
#
# Mechanical properties :
#
#
# Convention : Reuss Voigt Hill
#
# Bulk Modulus (GPa) = 63.32096 72.02408 67.67252
# Shear Modulus (GPa) = 26.63150 32.83817 29.73483
#
# Velocity S-wave (km/s) = 3.53662 3.92717 3.73700
# Velocity P-wave (km/s) = 6.81293 7.37497 7.09952
#
# Compressibility (1/GPa) = 0.01579256
#
# Stress axis : x y z
#
# Youngs Moduli (GPa) = 80.04516 94.39441 61.21480
#
# Poissons Ratio (x) = 0.30192 0.27505
# Poissons Ratio (y) = 0.25603 0.25241
# Poissons Ratio (z) = 0.35966 0.38922
#
# Static dielectric constant tensor:
#      x y z
#    x 4.301520 -0.029860 0.015880 
#    y -0.029860 3.949950 -0.057320 
#    z 0.015880 -0.057320 3.743510 
# 
# 
# High freq. dielectric constant tensor:
#      x y z
#    x 1.850060 0.001290 0.005830 
#    y 0.001290 1.855680 -0.002460 
#    z 0.005830 -0.002460 1.825910 
# 
# From -- ./inp_files/242945.got.cif
#   From: 2010.06.25/outbox.cif.g09.slc.cpg/sg2_122_cif.got.tgz:242945.got - 2010.06.27 13:26:56.
