data_PCOD8023847
_publ_section_title
;
Structure prediction by ZEFSAII (Michael W. Deem and Ramdas Pophale) SiO2 
 PCOD8023847
Probable space group: P -1
;
_chemical_formula_sum "Si O2"
_cell_formula_units_Z 16
_cell_length_a 9.250976
_cell_length_b 11.026319
_cell_length_c 12.381094
_cell_angle_alpha 50.739016
_cell_angle_beta 130.681665
_cell_angle_gamma 96.284441
_cell_volume 635.129194
_symmetry_space_group_name_H-M "P -1"
_symmetry_group_IT_number 2
_symmetry_cell_setting 'triclinic'
loop_
_space_group_symop_operation_xyz
x,y,z
-x,-y,-z
loop_
_atom_site_type_symbol
_atom_site_label
_atom_site_fract_x
_atom_site_fract_y
_atom_site_fract_z
Si Si1 0.028711 0.477774 0.272575
Si Si2 0.342741 0.410496 0.650543
Si Si3 0.290375 0.621304 0.906177
Si Si4 0.762012 0.870844 0.978718
Si Si5 0.036292 0.813947 0.343935
Si Si6 0.627191 0.076212 0.587328
Si Si7 0.679816 0.521590 0.759945
Si Si8 0.633748 0.083172 0.131793
O O1 0.232483 0.379880 0.509721
O O2 0.091383 0.550498 0.153152
O O3 0.936037 0.342144 0.282108
O O4 0.827640 0.660160 0.124648
O O5 0.539533 0.438978 0.686487
O O6 0.451225 0.225931 0.876964
O O7 0.167900 0.590873 0.535299
O O8 0.299452 0.518642 0.079584
O O9 0.266329 0.815511 0.807473
O O10 0.500000 0.500000 0.000000
O O11 0.779234 0.939118 0.831563
O O12 0.931683 0.887797 0.132324
O O13 0.503437 0.982855 0.826368
O O14 0.203086 0.884324 0.419517
O O15 0.833819 0.899658 0.280790
O O16 0.441108 0.263718 0.443238
O O17 0.500000 0.000000 0.500000
#
# Coordination Sequence:
#
# PCOD8023847 Si02
#       8
#     2   2   2   2   2   2   2   2
#     4  11  22  40  71 100 131 174 227 271 343 396
#     4   9  23  44  70 102 134 170 230 287 322 401
#     4  11  23  43  67  99 136 177 223 280 337 405
#     4  11  24  44  66 100 135 176 225 278 335 400
#     4  10  24  45  71  97 134 182 224 276 343 392
#     4  11  25  43  65  97 139 172 222 286 330 400
#     4  10  23  42  66  98 130 175 226 271 337 404
#     4  11  24  45  71  96 138 181 224 277 340 407
#
# _framework density 25.191724000000001
#
# number of rings (size 3 to 8) (size 9 to 14) (size 15 to 20)
#    0.000    1.500    1.250    2.250    7.000    2.000 
#    4.500    0.625    0.000    0.000    0.000    0.000 
#    0.000    0.000    0.000    0.000    0.000    0.000 
#
# Total GULP energy -198362.269941 kJ/mol
# GULP energy per Si atom -12397.641871 kJ/mol
# Density = 2.513439 g / cm^3
# Si number density = 25.191724 Si / 1000 Ang^3
#
#
#
# Elastic Constant Matrix: (Units=GPa)
#
#
# Indices 1 2 3 4 5 6 
#
# 1 108.0705 31.0435 27.5129 6.6098 25.2476 -6.0943
# 2 31.0435 60.2244 23.0944 35.5169 10.6855 10.8728
# 3 27.5129 23.0944 63.2333 22.6830 13.9242 7.7397
# 4 6.6098 35.5169 22.6830 47.6395 5.2485 12.0980
# 5 25.2476 10.6855 13.9242 5.2485 35.3476 -0.1507
# 6 -6.0943 10.8728 7.7397 12.0980 -0.1507 41.0947
#
#
#
# Elastic Compliance Matrix: (Units=1/GPa)
#
#
# Indices 1 2 3 4 5 6 
#
# 1 0.014309 -0.009121 -0.004221 0.006728 -0.006785 0.003325
# 2 -0.009121 0.037060 0.000231 -0.025416 -0.001021 -0.003723
# 3 -0.004221 0.000231 0.022049 -0.009043 -0.004408 -0.002194
# 4 0.006728 -0.025416 -0.009043 0.044241 -0.000145 -0.003600
# 5 -0.006785 -0.001021 -0.004408 -0.000145 0.035204 0.000266
# 6 0.003325 -0.003723 -0.002194 -0.003600 0.000266 0.027286
#
#
# Mechanical properties :
#
#
# Convention : Reuss Voigt Hill
#
# Bulk Modulus (GPa) = 21.18800 43.86996 32.52898
# Shear Modulus (GPa) = 22.51203 34.80821 28.66012
#
# Velocity S-wave (km/s) = 2.99260 3.72120 3.37661
# Velocity P-wave (km/s) = 4.51330 5.99294 5.30496
#
# Compressibility (1/GPa) = 0.04719653
#
# Stress axis : x y z
#
# Youngs Moduli (GPa) = 69.88601 26.98350 45.35298
#
# Poissons Ratio (x) = 0.24612 0.19142
# Poissons Ratio (y) = 0.63745 -0.01049
# Poissons Ratio (z) = 0.29497 -0.00624
#
# Static dielectric constant tensor:
#      x y z
#    x 4.462140 0.046120 0.234470 
#    y 0.046120 4.573540 0.209920 
#    z 0.234470 0.209920 4.418730 
# 
# 
# High freq. dielectric constant tensor:
#      x y z
#    x 2.008170 0.008640 0.012020 
#    y 0.008640 2.008420 0.007110 
#    z 0.012020 0.007110 1.998660 
# 
# From -- ./inp_files/392383.got.cif
#   From: 2010.06.25/outbox.cif.g09.slc.cpg/sg2_197_cif.got.tgz:392383.got - 2010.06.27 13:26:56.
