data_PCOD8023134
_publ_section_title
;
Structure prediction by ZEFSAII (Michael W. Deem and Ramdas Pophale) SiO2 
 PCOD8023134
Probable space group: P -1
;
_chemical_formula_sum "Si O2"
_cell_formula_units_Z 16
_cell_length_a 9.618394
_cell_length_b 19.649198
_cell_length_c 22.824760
_cell_angle_alpha 17.631390
_cell_angle_beta 142.431481
_cell_angle_gamma 142.419535
_cell_volume 780.397984
_symmetry_space_group_name_H-M "P -1"
_symmetry_group_IT_number 2
_symmetry_cell_setting 'triclinic'
loop_
_space_group_symop_operation_xyz
x,y,z
-x,-y,-z
loop_
_atom_site_type_symbol
_atom_site_label
_atom_site_fract_x
_atom_site_fract_y
_atom_site_fract_z
Si Si1 0.252792 0.088376 0.038183
Si Si2 0.920686 0.745341 0.706230
Si Si3 0.760226 0.607953 0.889912
Si Si4 0.869517 0.651493 0.505016
Si Si5 0.764041 0.601140 0.114782
Si Si6 0.569022 0.396987 0.801270
Si Si7 0.552318 0.353076 0.551817
Si Si8 0.969985 0.159505 0.102851
O O1 0.398767 0.888870 0.254339
O O2 0.240064 0.184166 0.020503
O O3 0.386111 0.293527 0.874414
O O4 0.000000 0.000000 0.000000
O O5 0.792048 0.739079 0.730777
O O6 0.746934 0.614454 0.707237
O O7 0.000000 0.000000 0.500000
O O8 0.141823 0.626439 0.885990
O O9 0.489840 0.538848 0.871583
O O10 0.892053 0.785442 0.835624
O O11 0.738851 0.456456 0.578176
O O12 0.708429 0.683702 0.479985
O O13 0.101903 0.578031 0.664077
O O14 0.942696 0.891876 0.298445
O O15 0.890510 0.691692 0.023380
O O16 0.423109 0.474492 0.635999
O O17 0.710159 0.208730 0.979944
#
# Coordination Sequence:
#
# PCOD8023134 Si02
#       8
#     2   2   2   2   2   2   2   2
#     4  12  26  45  68 101 141 175 222 291 335 390
#     4  10  23  40  69 101 135 179 225 273 342 407
#     4  10  24  43  64 100 139 172 225 282 334 397
#     4  11  25  43  68 101 130 180 229 270 334 409
#     4  12  25  45  66 103 138 173 227 284 338 392
#     4  11  24  43  71  99 133 182 228 270 341 409
#     4  11  25  43  70  97 135 177 225 274 337 404
#     4  11  25  43  71  95 134 183 225 276 334 402
#
# _framework density 20.502359999999999
#
# number of rings (size 3 to 8) (size 9 to 14) (size 15 to 20)
#    0.000    1.000    5.000    0.375    5.250    3.500 
#    0.000    0.000    0.000    0.000    0.000    0.000 
#    0.000    0.000    0.000    0.000    0.000    0.000 
#
# Total GULP energy -198523.869051 kJ/mol
# GULP energy per Si atom -12407.741816 kJ/mol
# Density = 2.045570 g / cm^3
# Si number density = 20.502360 Si / 1000 Ang^3
#
#
#
# Elastic Constant Matrix: (Units=GPa)
#
#
# Indices 1 2 3 4 5 6 
#
# 1 78.5825 12.0822 19.9125 2.5727 -2.6136 -0.1102
# 2 12.0822 49.2169 24.0458 2.2091 6.5299 11.7799
# 3 19.9125 24.0458 113.0267 -6.4520 -2.2216 -0.0714
# 4 2.5727 2.2091 -6.4520 33.8458 0.8200 -1.6066
# 5 -2.6136 6.5299 -2.2216 0.8200 36.5269 -0.8831
# 6 -0.1102 11.7799 -0.0714 -1.6066 -0.8831 37.3061
#
#
#
# Elastic Compliance Matrix: (Units=1/GPa)
#
#
# Indices 1 2 3 4 5 6 
#
# 1 0.013717 -0.002810 -0.001859 -0.001205 0.001420 0.000906
# 2 -0.002810 0.026585 -0.005435 -0.002837 -0.005430 -0.008664
# 3 -0.001859 -0.005435 0.010507 0.002552 0.001466 0.001875
# 4 -0.001205 -0.002837 0.002552 0.030415 -0.000053 0.002206
# 5 0.001420 -0.005430 0.001466 -0.000053 0.028598 0.002396
# 6 0.000906 -0.008664 0.001875 0.002206 0.002396 0.029699
#
#
# Mechanical properties :
#
#
# Convention : Reuss Voigt Hill
#
# Bulk Modulus (GPa) = 32.67940 39.21188 35.94564
# Shear Modulus (GPa) = 29.42421 33.85482 31.63951
#
# Velocity S-wave (km/s) = 3.79246 4.06798 3.93264
# Velocity P-wave (km/s) = 5.92883 6.42119 6.17991
#
# Compressibility (1/GPa) = 0.03060032
#
# Stress axis : x y z
#
# Youngs Moduli (GPa) = 72.90465 37.61545 95.17552
#
# Poissons Ratio (x) = 0.10570 0.17693
# Poissons Ratio (y) = 0.20487 0.51727
# Poissons Ratio (z) = 0.13553 0.20443
#
# Static dielectric constant tensor:
#      x y z
#    x 3.708070 0.144170 0.083600 
#    y 0.144170 3.447920 0.027730 
#    z 0.083600 0.027730 3.697860 
# 
# 
# High freq. dielectric constant tensor:
#      x y z
#    x 1.809710 0.000370 -0.001040 
#    y 0.000370 1.808320 0.002540 
#    z -0.001040 0.002540 1.806050 
# 
# From -- ./inp_files/37341.got.cif
#   From: 2010.06.25/outbox.cif.g09.slc.cpg/sg2_19_cif.got.tgz:37341.got - 2010.06.27 13:26:56.
