data_PCOD8023243
_publ_section_title
;
Structure prediction by ZEFSAII (Michael W. Deem and Ramdas Pophale) SiO2 
 PCOD8023243
Probable space group: P -1
;
_chemical_formula_sum "Si O2"
_cell_formula_units_Z 16
_cell_length_a 11.794896
_cell_length_b 18.914498
_cell_length_c 7.715276
_cell_angle_alpha 123.659820
_cell_angle_beta 57.177400
_cell_angle_gamma 147.426493
_cell_volume 760.447571
_symmetry_space_group_name_H-M "P -1"
_symmetry_group_IT_number 2
_symmetry_cell_setting 'triclinic'
loop_
_space_group_symop_operation_xyz
x,y,z
-x,-y,-z
loop_
_atom_site_type_symbol
_atom_site_label
_atom_site_fract_x
_atom_site_fract_y
_atom_site_fract_z
Si Si1 0.290975 0.786276 0.341291
Si Si2 0.074067 0.442439 0.889796
Si Si3 0.182925 0.558720 0.301703
Si Si4 0.449539 0.378545 0.910184
Si Si5 0.243025 0.940607 0.745133
Si Si6 0.999115 0.102724 0.807816
Si Si7 0.027211 0.103490 0.395756
Si Si8 0.530182 0.610221 0.685399
O O1 0.276129 0.688147 0.311324
O O2 0.260931 0.847987 0.584993
O O3 0.105906 0.708243 0.242630
O O4 0.524160 0.903722 0.223556
O O5 0.301947 0.542149 0.740878
O O6 0.094058 0.444425 0.083681
O O7 0.000000 0.500000 0.000000
O O8 0.373037 0.598772 0.289062
O O9 0.000000 0.500000 0.500000
O O10 0.240224 0.251517 0.808450
O O11 0.500000 0.500000 0.000000
O O12 0.416574 0.350722 0.104151
O O13 0.108422 0.915159 0.664171
O O14 0.138286 0.901652 0.965924
O O15 0.922541 0.070029 0.626557
O O16 0.979190 0.000219 0.771133
O O17 0.274702 0.253116 0.394983
O O18 0.500000 0.500000 0.500000
#
# Coordination Sequence:
#
# PCOD8023243 Si02
#       8
#     2   2   2   2   2   2   2   2
#     4  10  23  43  64  94 124 180 225 257 345 393
#     4   9  21  38  62  89 123 167 216 255 322 393
#     4  10  23  41  63  95 133 172 214 278 331 395
#     4  11  24  40  65 100 134 172 224 277 336 398
#     4  11  23  44  69  90 136 175 220 281 319 406
#     4  11  25  41  66 101 131 175 223 278 334 397
#     4  11  24  42  67  99 133 173 223 274 339 395
#     4  11  22  39  66  98 130 172 213 280 332 392
#
# _framework density 21.040240000000001
#
# number of rings (size 3 to 8) (size 9 to 14) (size 15 to 20)
#    0.000    1.500    1.250    2.625    7.000    4.000 
#    4.500    1.250    0.000    0.000    0.000    0.000 
#    0.000    0.000    0.000    0.000    0.000    0.000 
#
# Total GULP energy -198351.854792 kJ/mol
# GULP energy per Si atom -12396.990925 kJ/mol
# Density = 2.099235 g / cm^3
# Si number density = 21.040240 Si / 1000 Ang^3
#
#
#
# Elastic Constant Matrix: (Units=GPa)
#
#
# Indices 1 2 3 4 5 6 
#
# 1 66.9082 37.2306 26.1373 -9.5840 -13.2054 2.9535
# 2 37.2306 150.0886 46.2807 2.8784 -10.9565 13.2874
# 3 26.1373 46.2807 111.6584 -19.0796 -9.9175 4.7176
# 4 -9.5840 2.8784 -19.0796 40.0920 0.9531 -7.6803
# 5 -13.2054 -10.9565 -9.9175 0.9531 33.6211 3.0426
# 6 2.9535 13.2874 4.7176 -7.6803 3.0426 35.3510
#
#
#
# Elastic Compliance Matrix: (Units=1/GPa)
#
#
# Indices 1 2 3 4 5 6 
#
# 1 0.019548 -0.004027 -0.001721 0.004106 0.005695 0.000512
# 2 -0.004027 0.009125 -0.003276 -0.003882 0.000859 -0.003574
# 3 -0.001721 -0.003276 0.011760 0.005554 0.001488 0.000884
# 4 0.004106 -0.003882 0.005554 0.030152 0.000509 0.006882
# 5 0.005695 0.000859 0.001488 0.000509 0.033022 -0.003729
# 6 0.000512 -0.003574 0.000884 0.006882 -0.003729 0.031286
#
#
# Mechanical properties :
#
#
# Convention : Reuss Voigt Hill
#
# Bulk Modulus (GPa) = 44.66856 60.88362 52.77609
# Shear Modulus (GPa) = 31.17126 36.41327 33.79226
#
# Velocity S-wave (km/s) = 3.85321 4.16462 4.01194
# Velocity P-wave (km/s) = 6.40878 7.21976 6.82633
#
# Compressibility (1/GPa) = 0.02238711
#
# Stress axis : x y z
#
# Youngs Moduli (GPa) = 51.15500 109.58688 85.03114
#
# Poissons Ratio (x) = 0.44127 0.14635
# Poissons Ratio (y) = 0.20599 0.27853
# Poissons Ratio (z) = 0.08804 0.35896
#
# Static dielectric constant tensor:
#      x y z
#    x 3.939810 0.532420 0.190090 
#    y 0.532420 4.393280 0.429650 
#    z 0.190090 0.429650 4.256270 
# 
# 
# High freq. dielectric constant tensor:
#      x y z
#    x 1.815150 0.010780 -0.009610 
#    y 0.010780 1.831340 0.007140 
#    z -0.009610 0.007140 1.840850 
# 
# From -- ./inp_files/282238.got.cif
#   From: 2010.06.25/outbox.cif.g09.slc.cpg/sg2_142_cif.got.tgz:282238.got - 2010.06.27 13:26:56.
