data_PCOD8023545
_publ_section_title
;
Structure prediction by ZEFSAII (Michael W. Deem and Ramdas Pophale) SiO2 
 PCOD8023545
Probable space group: P -1
;
_chemical_formula_sum "Si O2"
_cell_formula_units_Z 16
_cell_length_a 9.569401
_cell_length_b 5.577967
_cell_length_c 19.410250
_cell_angle_alpha 64.508393
_cell_angle_beta 103.128549
_cell_angle_gamma 128.955770
_cell_volume 725.856179
_symmetry_space_group_name_H-M "P -1"
_symmetry_group_IT_number 2
_symmetry_cell_setting 'triclinic'
loop_
_space_group_symop_operation_xyz
x,y,z
-x,-y,-z
loop_
_atom_site_type_symbol
_atom_site_label
_atom_site_fract_x
_atom_site_fract_y
_atom_site_fract_z
Si Si1 0.332807 0.291236 0.200215
Si Si2 0.794662 0.319796 0.514567
Si Si3 0.092020 0.383311 0.369961
Si Si4 0.055032 0.248566 0.753269
Si Si5 0.654049 0.465478 0.139315
Si Si6 0.766251 0.728934 0.363751
Si Si7 0.376369 0.355230 0.350786
Si Si8 0.575159 0.960633 0.082415
O O1 0.445597 0.212788 0.173558
O O2 0.370168 0.226476 0.289556
O O3 0.412722 0.676186 0.148440
O O4 0.118601 0.072767 0.188002
O O5 0.712006 0.376941 0.431403
O O6 0.000000 0.500000 0.500000
O O7 0.796105 0.501185 0.561012
O O8 0.685173 0.927046 0.563728
O O9 0.024875 0.596656 0.316658
O O10 0.234337 0.437685 0.322816
O O11 0.911230 0.004272 0.399776
O O12 0.203582 0.496961 0.795130
O O13 0.149603 0.168639 0.716358
O O14 0.697560 0.835200 0.091206
O O15 0.677360 0.312961 0.091709
O O16 0.579572 0.684320 0.347598
O O17 0.500000 0.000000 0.000000
#
# Coordination Sequence:
#
# PCOD8023545 Si02
#       8
#     2   2   2   2   2   2   2   2
#     4  10  23  41  69  99 139 176 224 283 340 408
#     4  12  23  45  60  87 131 175 225 292 353 407
#     4  12  25  39  68  85 136 168 237 283 355 394
#     4  12  24  43  66 101 132 182 227 288 336 412
#     4  10  25  42  74 103 143 180 232 274 340 413
#     4  12  25  42  64  90 130 175 231 289 346 410
#     4  12  25  42  62  97 126 173 232 282 348 412
#     4  10  23  47  75 104 146 183 220 277 345 411
#
# _framework density 22.042932
#
# number of rings (size 3 to 8) (size 9 to 14) (size 15 to 20)
#    0.750    0.000    6.250    1.125    5.250    1.500 
#    0.000    1.250    0.000    0.000    0.000    0.000 
#    0.000    0.000    0.000    0.000    0.000    0.000 
#
# Total GULP energy -198229.959520 kJ/mol
# GULP energy per Si atom -12389.372470 kJ/mol
# Density = 2.199276 g / cm^3
# Si number density = 22.042932 Si / 1000 Ang^3
#
#
#
# Elastic Constant Matrix: (Units=GPa)
#
#
# Indices 1 2 3 4 5 6 
#
# 1 88.2181 52.0221 3.6032 -3.7532 -5.6760 20.3056
# 2 52.0221 84.8976 15.9809 15.5608 -2.5775 7.0822
# 3 3.6032 15.9809 66.2986 8.7825 8.7801 4.5142
# 4 -3.7532 15.5608 8.7825 32.4014 -2.8247 -1.5201
# 5 -5.6760 -2.5775 8.7801 -2.8247 12.8648 1.8973
# 6 20.3056 7.0822 4.5142 -1.5201 1.8973 46.5089
#
#
#
# Elastic Compliance Matrix: (Units=1/GPa)
#
#
# Indices 1 2 3 4 5 6 
#
# 1 0.023268 -0.015230 0.000151 0.010519 0.010592 -0.007942
# 2 -0.015230 0.023603 -0.003015 -0.012409 -0.003110 0.003069
# 3 0.000151 -0.003015 0.018350 -0.004772 -0.013965 -0.000974
# 4 0.010519 -0.012409 -0.004772 0.040531 0.014533 -0.001508
# 5 0.010592 -0.003110 -0.013965 0.014533 0.095420 -0.006213
# 6 -0.007942 0.003069 -0.000974 -0.001508 -0.006213 0.024800
#
#
# Mechanical properties :
#
#
# Convention : Reuss Voigt Hill
#
# Bulk Modulus (GPa) = 34.44387 42.51408 38.47897
# Shear Modulus (GPa) = 18.39348 29.54222 23.96785
#
# Velocity S-wave (km/s) = 2.89180 3.66486 3.30104
# Velocity P-wave (km/s) = 5.17781 6.10222 5.65892
#
# Compressibility (1/GPa) = 0.02903274
#
# Stress axis : x y z
#
# Youngs Moduli (GPa) = 42.97834 42.36804 54.49711
#
# Poissons Ratio (x) = 0.64526 -0.00823
# Poissons Ratio (y) = 0.65455 0.16430
# Poissons Ratio (z) = -0.00649 0.12773
#
# Static dielectric constant tensor:
#      x y z
#    x 4.031290 0.119380 -0.092670 
#    y 0.119380 4.432700 0.071130 
#    z -0.092670 0.071130 4.454040 
# 
# 
# High freq. dielectric constant tensor:
#      x y z
#    x 1.865170 0.005150 0.000320 
#    y 0.005150 1.857220 0.002470 
#    z 0.000320 0.002470 1.847910 
# 
# From -- ./inp_files/585159.got.cif
#   From: 2010.06.25/outbox.cif.g09.slc.cpg/sg2_293_cif.got.tgz:585159.got - 2010.06.27 13:26:56.
