data_PCOD8023640
_publ_section_title
;
Structure prediction by ZEFSAII (Michael W. Deem and Ramdas Pophale) SiO2 
 PCOD8023640
Probable space group: P -1
;
_chemical_formula_sum "Si O2"
_cell_formula_units_Z 16
_cell_length_a 20.248914
_cell_length_b 8.550975
_cell_length_c 10.904586
_cell_angle_alpha 52.813002
_cell_angle_beta 29.233494
_cell_angle_gamma 44.798031
_cell_volume 649.115592
_symmetry_space_group_name_H-M "P -1"
_symmetry_group_IT_number 2
_symmetry_cell_setting 'triclinic'
loop_
_space_group_symop_operation_xyz
x,y,z
-x,-y,-z
loop_
_atom_site_type_symbol
_atom_site_label
_atom_site_fract_x
_atom_site_fract_y
_atom_site_fract_z
Si Si1 0.274908 0.969257 0.418218
Si Si2 0.336823 0.142736 0.758783
Si Si3 0.093092 0.250194 0.927218
Si Si4 0.289235 0.310035 0.384246
Si Si5 0.047942 0.670885 0.276100
Si Si6 0.383339 0.845108 0.028603
Si Si7 0.861835 0.216833 0.680588
Si Si8 0.192825 0.637960 0.804823
O O1 0.312434 0.886656 0.258005
O O2 0.298374 0.762023 0.565864
O O3 0.357954 0.113559 0.260880
O O4 0.098990 0.141099 0.637846
O O5 0.194769 0.103982 0.949048
O O6 0.287793 0.401434 0.696454
O O7 0.500000 0.000000 0.500000
O O8 0.353914 0.079504 0.905024
O O9 0.229427 0.209747 0.633701
O O10 0.000000 0.500000 0.000000
O O11 0.965400 0.200556 0.091515
O O12 0.148950 0.547670 0.459820
O O13 0.437258 0.333123 0.176995
O O14 0.115856 0.782047 0.210275
O O15 0.000000 0.500000 0.500000
O O16 0.167335 0.578944 0.013278
O O17 0.301715 0.754693 0.108497
O O18 0.000000 0.000000 0.500000
#
# Coordination Sequence:
#
# PCOD8023640 Si02
#       8
#     2   2   2   2   2   2   2   2
#     4  12  26  47  78 106 152 197 253 304 377 449
#     4  11  25  46  72 109 149 191 244 310 373 440
#     4  10  23  41  75 102 148 183 249 302 376 423
#     4  12  26  50  73 107 151 204 244 309 383 443
#     4  12  23  48  78 113 150 192 253 311 373 438
#     4  12  28  47  76 108 153 199 249 308 379 447
#     4  12  28  43  77 111 149 191 256 312 367 444
#     4  11  26  45  79 110 147 195 253 308 373 449
#
# _framework density 24.648921999999999
#
# number of rings (size 3 to 8) (size 9 to 14) (size 15 to 20)
#    0.000    0.500    5.000    1.875    8.750    1.000 
#    0.000    0.625    0.000    0.000    0.000    0.000 
#    0.000    0.000    0.000    0.000    0.000    0.000 
#
# Total GULP energy -198230.481129 kJ/mol
# GULP energy per Si atom -12389.405071 kJ/mol
# Density = 2.459282 g / cm^3
# Si number density = 24.648922 Si / 1000 Ang^3
#
#
#
# Elastic Constant Matrix: (Units=GPa)
#
#
# Indices 1 2 3 4 5 6 
#
# 1 122.1705 29.8744 32.9204 8.9237 -0.5339 1.8448
# 2 29.8744 107.2867 35.4213 2.8699 2.8964 -4.1434
# 3 32.9204 35.4213 82.6886 4.6110 5.9159 -1.0229
# 4 8.9237 2.8699 4.6110 37.2727 -4.5882 -2.5626
# 5 -0.5339 2.8964 5.9159 -4.5882 45.7415 -5.5631
# 6 1.8448 -4.1434 -1.0229 -2.5626 -5.5631 39.6027
#
#
#
# Elastic Compliance Matrix: (Units=1/GPa)
#
#
# Indices 1 2 3 4 5 6 
#
# 1 0.009549 -0.001650 -0.003028 -0.001796 0.000334 -0.000765
# 2 -0.001650 0.011184 -0.004123 0.000117 -0.000044 0.001142
# 3 -0.003028 -0.004123 0.015258 -0.001093 -0.001886 -0.000232
# 4 -0.001796 0.000117 -0.001093 0.027939 0.003198 0.002325
# 5 0.000334 -0.000044 -0.001886 0.003198 0.022840 0.003347
# 6 -0.000765 0.001142 -0.000232 0.002325 0.003347 0.026020
#
#
# Mechanical properties :
#
#
# Convention : Reuss Voigt Hill
#
# Bulk Modulus (GPa) = 54.38128 56.50867 55.44498
# Shear Modulus (GPa) = 36.62401 38.78538 37.70469
#
# Velocity S-wave (km/s) = 3.85882 3.97106 3.91534
# Velocity P-wave (km/s) = 6.47798 6.63332 6.55611
#
# Compressibility (1/GPa) = 0.01838868
#
# Stress axis : x y z
#
# Youngs Moduli (GPa) = 104.72453 89.41640 65.53753
#
# Poissons Ratio (x) = 0.14751 0.19846
# Poissons Ratio (y) = 0.17276 0.27023
# Poissons Ratio (z) = 0.31713 0.36869
#
# Static dielectric constant tensor:
#      x y z
#    x 4.651780 0.063770 -0.487370 
#    y 0.063770 4.608370 -0.141730 
#    z -0.487370 -0.141730 4.140100 
# 
# 
# High freq. dielectric constant tensor:
#      x y z
#    x 1.993150 -0.001970 0.001120 
#    y -0.001970 1.983730 -0.005390 
#    z 0.001120 -0.005390 1.968310 
# 
# From -- ./inp_files/469814.got.cif
#   From: 2010.06.25/outbox.cif.g09.slc.cpg/sg2_235_cif.got.tgz:469814.got - 2010.06.27 13:26:56.
