data_PCOD8023621
_publ_section_title
;
Structure prediction by ZEFSAII (Michael W. Deem and Ramdas Pophale) SiO2 
 PCOD8023621
Probable space group: P -1
;
_chemical_formula_sum "Si O2"
_cell_formula_units_Z 16
_cell_length_a 15.460304
_cell_length_b 5.023488
_cell_length_c 25.378715
_cell_angle_alpha 118.983020
_cell_angle_beta 155.509283
_cell_angle_gamma 68.249347
_cell_volume 701.159784
_symmetry_space_group_name_H-M "P -1"
_symmetry_group_IT_number 2
_symmetry_cell_setting 'triclinic'
loop_
_space_group_symop_operation_xyz
x,y,z
-x,-y,-z
loop_
_atom_site_type_symbol
_atom_site_label
_atom_site_fract_x
_atom_site_fract_y
_atom_site_fract_z
Si Si1 0.704329 0.440927 0.677346
Si Si2 0.531085 0.363275 0.059262
Si Si3 0.667999 0.247388 0.293940
Si Si4 0.905009 0.827316 0.532062
Si Si5 0.008784 0.354064 0.048648
Si Si6 0.231907 0.222095 0.360509
Si Si7 0.008575 0.485063 0.348599
Si Si8 0.407987 0.597585 0.114379
O O1 0.449323 0.374712 0.525826
O O2 0.782428 0.708818 0.703174
O O3 0.778419 0.530823 0.787121
O O4 0.801353 0.144839 0.685963
O O5 0.765794 0.516816 0.223895
O O6 0.369207 0.486065 0.021573
O O7 0.500000 0.500000 0.000000
O O8 0.500000 0.000000 0.000000
O O9 0.892937 0.185801 0.393539
O O10 0.522691 0.327486 0.173976
O O11 0.705602 0.559319 0.380234
O O12 0.548297 0.945654 0.230523
O O13 0.946419 0.772904 0.610792
O O14 0.850648 0.170814 0.529167
O O15 0.813733 0.418695 0.981235
O O16 0.000000 0.500000 0.000000
O O17 0.000000 0.000000 0.000000
O O18 0.047068 0.358400 0.299907
#
# Coordination Sequence:
#
# PCOD8023621 Si02
#       8
#     2   2   2   2   2   2   2   2
#     4  10  23  47  66  96 130 169 227 280 349 390
#     4  12  26  41  63  98 139 177 218 268 333 410
#     4  11  22  42  64  93 132 179 220 258 339 391
#     4  11  22  39  63  94 137 173 212 277 314 405
#     4  12  28  47  71 100 134 181 237 285 337 407
#     4  10  23  41  72  96 129 173 215 290 339 400
#     4  12  23  40  64 103 133 167 229 262 336 407
#     4  12  25  45  68  96 138 180 219 276 333 401
#
# _framework density 22.819334000000001
#
# number of rings (size 3 to 8) (size 9 to 14) (size 15 to 20)
#    0.000    0.750    2.500    4.500    3.500    5.000 
#    0.000    0.000    0.000    0.000    0.000    0.000 
#    0.000    0.000    0.000    0.000    0.000    0.000 
#
# Total GULP energy -198382.010741 kJ/mol
# GULP energy per Si atom -12398.875671 kJ/mol
# Density = 2.276740 g / cm^3
# Si number density = 22.819334 Si / 1000 Ang^3
#
#
#
# Elastic Constant Matrix: (Units=GPa)
#
#
# Indices 1 2 3 4 5 6 
#
# 1 127.3316 39.7622 38.7111 -3.1246 -15.0965 -2.2963
# 2 39.7622 117.2081 18.5191 13.5934 1.3864 7.8353
# 3 38.7111 18.5191 90.2223 6.3199 -20.2761 4.7626
# 4 -3.1246 13.5934 6.3199 37.0148 5.8999 -6.2516
# 5 -15.0965 1.3864 -20.2761 5.8999 32.0879 1.1594
# 6 -2.2963 7.8353 4.7626 -6.2516 1.1594 43.4886
#
#
#
# Elastic Compliance Matrix: (Units=1/GPa)
#
#
# Indices 1 2 3 4 5 6 
#
# 1 0.010359 -0.003421 -0.003530 0.002696 0.002227 0.001878
# 2 -0.003421 0.010466 -0.000605 -0.004211 -0.001577 -0.002563
# 3 -0.003530 -0.000605 0.015174 -0.004526 0.008881 -0.002627
# 4 0.002696 -0.004211 -0.004526 0.031796 -0.007479 0.006167
# 5 0.002227 -0.001577 0.008881 -0.007479 0.039365 -0.002695
# 6 0.001878 -0.002563 -0.002627 0.006167 -0.002695 0.024802
#
#
# Mechanical properties :
#
#
# Convention : Reuss Voigt Hill
#
# Bulk Modulus (GPa) = 47.87389 58.74965 53.31177
# Shear Modulus (GPa) = 32.46002 38.36956 35.41479
#
# Velocity S-wave (km/s) = 3.77567 4.10500 3.94377
# Velocity P-wave (km/s) = 6.32713 6.94762 6.64463
#
# Compressibility (1/GPa) = 0.02088821
#
# Stress axis : x y z
#
# Youngs Moduli (GPa) = 96.53386 95.54478 65.90288
#
# Poissons Ratio (x) = 0.32686 0.23263
# Poissons Ratio (y) = 0.33025 0.03984
# Poissons Ratio (z) = 0.34075 0.05777
#
# Static dielectric constant tensor:
#      x y z
#    x 4.085940 0.169840 -0.089790 
#    y 0.169840 4.136540 0.029580 
#    z -0.089790 0.029580 4.306920 
# 
# 
# High freq. dielectric constant tensor:
#      x y z
#    x 1.899350 0.010250 -0.011370 
#    y 0.010250 1.917170 0.007830 
#    z -0.011370 0.007830 1.893340 
# 
# From -- ./inp_files/611212.got.cif
#   From: 2010.06.25/outbox.cif.g09.slc.cpg/sg2_306_cif.got.tgz:611212.got - 2010.06.27 13:26:56.
