data_PCOD8023130
_publ_section_title
;
Structure prediction by ZEFSAII (Michael W. Deem and Ramdas Pophale) SiO2 
 PCOD8023130
Probable space group: P -1
;
_chemical_formula_sum "Si O2"
_cell_formula_units_Z 16
_cell_length_a 20.639665
_cell_length_b 5.030081
_cell_length_c 8.578873
_cell_angle_alpha 115.104093
_cell_angle_beta 100.519416
_cell_angle_gamma 106.480115
_cell_volume 724.799040
_symmetry_space_group_name_H-M "P -1"
_symmetry_group_IT_number 2
_symmetry_cell_setting 'triclinic'
loop_
_space_group_symop_operation_xyz
x,y,z
-x,-y,-z
loop_
_atom_site_type_symbol
_atom_site_label
_atom_site_fract_x
_atom_site_fract_y
_atom_site_fract_z
Si Si1 0.671059 0.291795 0.553044
Si Si2 0.794516 0.227983 0.761200
Si Si3 0.661935 0.886863 0.830497
Si Si4 0.939384 0.556966 0.083532
Si Si5 0.717447 0.184500 0.241943
Si Si6 0.804033 0.878070 0.386200
Si Si7 0.059189 0.790421 0.687768
Si Si8 0.550712 0.851733 0.559045
O O1 0.752804 0.394546 0.679474
O O2 0.635651 0.513450 0.675504
O O3 0.673617 0.323623 0.374022
O O4 0.615932 0.920961 0.478087
O O5 0.741874 0.052922 0.835632
O O6 0.814730 0.988359 0.599295
O O7 0.868254 0.483038 0.929414
O O8 0.601578 0.010917 0.773325
O O9 0.666211 0.950383 0.031590
O O10 0.919800 0.337274 0.175126
O O11 0.970983 0.937003 0.227543
O O12 0.000000 0.500000 0.000000
O O13 0.782248 0.494502 0.272680
O O14 0.741452 0.956969 0.301729
O O15 0.874150 0.058352 0.360673
O O16 0.000000 0.500000 0.500000
O O17 0.500000 0.500000 0.500000
O O18 0.500000 0.000000 0.500000
#
# Coordination Sequence:
#
# PCOD8023130 Si02
#       8
#     2   2   2   2   2   2   2   2
#     4  10  23  44  69 101 137 177 221 284 331 402
#     4  10  23  40  68  99 131 172 228 279 346 398
#     4  11  22  42  71  97 135 178 224 276 334 401
#     4  12  27  45  69  96 134 183 231 285 348 419
#     4  11  25  40  67 103 133 170 228 277 340 394
#     4  11  23  42  64  97 133 169 216 295 337 398
#     4  12  26  45  65  94 132 179 230 284 351 416
#     4  11  23  42  70  99 138 182 222 271 335 397
#
# _framework density 22.075084
#
# number of rings (size 3 to 8) (size 9 to 14) (size 15 to 20)
#    0.000    1.000    2.500    3.750    7.000    1.000 
#    0.000    1.250    0.000    0.000    0.000    0.000 
#    0.000    0.000    0.000    0.000    0.000    0.000 
#
# Total GULP energy -198220.577592 kJ/mol
# GULP energy per Si atom -12388.786099 kJ/mol
# Density = 2.202484 g / cm^3
# Si number density = 22.075084 Si / 1000 Ang^3
#
#
#
# Elastic Constant Matrix: (Units=GPa)
#
#
# Indices 1 2 3 4 5 6 
#
# 1 105.7991 42.6799 69.8107 1.6120 16.7501 2.6078
# 2 42.6799 121.4612 56.4198 -1.8921 -1.9598 8.7670
# 3 69.8107 56.4198 155.2544 -10.7282 -8.6648 8.5340
# 4 1.6120 -1.8921 -10.7282 35.8559 -4.3573 0.2396
# 5 16.7501 -1.9598 -8.6648 -4.3573 27.4961 7.8920
# 6 2.6078 8.7670 8.5340 0.2396 7.8920 39.0003
#
#
#
# Elastic Compliance Matrix: (Units=1/GPa)
#
#
# Indices 1 2 3 4 5 6 
#
# 1 0.019699 -0.003335 -0.009322 -0.006021 -0.017584 0.005068
# 2 -0.003335 0.010563 -0.002019 0.000469 0.002881 -0.002295
# 3 -0.009322 -0.002019 0.012615 0.005517 0.011548 -0.004054
# 4 -0.006021 0.000469 0.005517 0.031240 0.011367 -0.003402
# 5 -0.017584 0.002881 0.011548 0.011367 0.056608 -0.013524
# 6 0.005068 -0.002295 -0.004054 -0.003402 -0.013524 0.029463
#
#
# Mechanical properties :
#
#
# Convention : Reuss Voigt Hill
#
# Bulk Modulus (GPa) = 73.94345 80.03729 76.99037
# Shear Modulus (GPa) = 25.76690 34.71073 30.23882
#
# Velocity S-wave (km/s) = 3.42019 3.96964 3.70512
# Velocity P-wave (km/s) = 7.01185 7.57274 7.29768
#
# Compressibility (1/GPa) = 0.01352385
#
# Stress axis : x y z
#
# Youngs Moduli (GPa) = 50.76425 94.67415 79.27093
#
# Poissons Ratio (x) = 0.31576 0.73894
# Poissons Ratio (y) = 0.16931 0.16008
# Poissons Ratio (z) = 0.47321 0.19118
#
# Static dielectric constant tensor:
#      x y z
#    x 4.120430 0.318440 0.136450 
#    y 0.318440 4.341180 -0.095510 
#    z 0.136450 -0.095510 4.073950 
# 
# 
# High freq. dielectric constant tensor:
#      x y z
#    x 1.860840 0.004550 0.005530 
#    y 0.004550 1.883450 -0.012060 
#    z 0.005530 -0.012060 1.863520 
# 
# From -- ./inp_files/340671.got.cif
#   From: 2010.06.25/outbox.cif.g09.slc.cpg/sg2_171_cif.got.tgz:340671.got - 2010.06.27 13:26:56.
