data_PCOD8023586
_publ_section_title
;
Structure prediction by ZEFSAII (Michael W. Deem and Ramdas Pophale) SiO2 
 PCOD8023586
Probable space group: P -1
;
_chemical_formula_sum "Si O2"
_cell_formula_units_Z 14
_cell_length_a 16.458518
_cell_length_b 8.345887
_cell_length_c 22.415791
_cell_angle_alpha 132.350443
_cell_angle_beta 23.062521
_cell_angle_gamma 144.311188
_cell_volume 666.147884
_symmetry_space_group_name_H-M "P -1"
_symmetry_group_IT_number 2
_symmetry_cell_setting 'triclinic'
loop_
_space_group_symop_operation_xyz
x,y,z
-x,-y,-z
loop_
_atom_site_type_symbol
_atom_site_label
_atom_site_fract_x
_atom_site_fract_y
_atom_site_fract_z
Si Si1 0.924408 0.191515 0.113589
Si Si2 0.187354 0.814751 0.681418
Si Si3 0.942956 0.737510 0.548094
Si Si4 0.529974 0.183356 0.760541
Si Si5 0.625360 0.124654 0.013166
Si Si6 0.259220 0.177142 0.061161
Si Si7 0.956640 0.224154 0.643210
O O1 0.795156 0.091730 0.240460
O O2 0.186062 0.532552 0.023288
O O3 0.687232 0.101103 0.204788
O O4 0.000000 0.000000 0.000000
O O5 0.023338 0.879300 0.768852
O O6 0.044491 0.480684 0.690916
O O7 0.500000 0.000000 0.500000
O O8 0.667647 0.482202 0.707079
O O9 0.216667 0.796199 0.392579
O O10 0.881734 0.657619 0.499196
O O11 0.014986 0.036720 0.589426
O O12 0.357012 0.141940 0.923954
O O13 0.793650 0.035179 0.903658
O O14 0.500000 0.000000 0.000000
O O15 0.374769 0.986729 0.194668
O O16 0.500000 0.500000 0.000000
#
# Coordination Sequence:
#
# PCOD8023586 Si02
#       7
#     2   2   2   2   2   2   2
#     4  12  25  44  70 104 142 185 231 296 356 420
#     4  12  26  46  69 103 146 182 236 296 359 412
#     4  10  23  41  71 101 142 183 234 295 354 423
#     4  11  23  44  66 104 141 186 236 288 358 421
#     4  12  25  45  73 100 135 185 244 290 349 429
#     4  12  24  45  74 102 139 190 241 288 350 432
#     4  11  22  44  68 101 136 189 237 285 354 423
#
# _framework density 21.016354
#
# number of rings (size 3 to 8) (size 9 to 14) (size 15 to 20)
#    0.000    0.571    5.714    1.714    2.000    4.000 
#    0.000    1.429    0.000    0.000    0.000    0.000 
#    0.000    0.000    0.000    0.000    0.000    0.000 
#
# Total GULP energy -173553.158291 kJ/mol
# GULP energy per Si atom -12396.654164 kJ/mol
# Density = 2.096852 g / cm^3
# Si number density = 21.016354 Si / 1000 Ang^3
#
#
#
# Elastic Constant Matrix: (Units=GPa)
#
#
# Indices 1 2 3 4 5 6 
#
# 1 120.6629 68.0566 46.2286 3.1011 3.4695 1.7033
# 2 68.0566 155.0096 54.8596 3.2884 -6.7119 2.7104
# 3 46.2286 54.8596 121.2315 -3.3332 -8.0334 -1.1923
# 4 3.1011 3.2884 -3.3332 37.7420 3.0556 -2.5143
# 5 3.4695 -6.7119 -8.0334 3.0556 32.0018 0.0281
# 6 1.7033 2.7104 -1.1923 -2.5143 0.0281 36.2567
#
#
#
# Elastic Compliance Matrix: (Units=1/GPa)
#
#
# Indices 1 2 3 4 5 6 
#
# 1 0.011909 -0.004346 -0.002784 -0.000640 -0.002840 -0.000368
# 2 -0.004346 0.009348 -0.002478 -0.000872 0.001894 -0.000638
# 3 -0.002784 -0.002478 0.010627 0.001244 0.002330 0.000750
# 4 -0.000640 -0.000872 0.001244 0.027062 -0.002387 0.002015
# 5 -0.002840 0.001894 0.002330 -0.002387 0.032766 -0.000122
# 6 -0.000368 -0.000638 0.000750 0.002015 -0.000122 0.027811
#
#
# Mechanical properties :
#
#
# Convention : Reuss Voigt Hill
#
# Bulk Modulus (GPa) = 78.93340 81.68818 80.31079
# Shear Modulus (GPa) = 34.97468 36.38407 35.67937
#
# Velocity S-wave (km/s) = 4.08384 4.16531 4.12478
# Velocity P-wave (km/s) = 7.73800 7.87949 7.80907
#
# Compressibility (1/GPa) = 0.01266891
#
# Stress axis : x y z
#
# Youngs Moduli (GPa) = 83.97176 106.97586 94.09684
#
# Poissons Ratio (x) = 0.46494 0.26194
# Poissons Ratio (y) = 0.36496 0.23313
# Poissons Ratio (z) = 0.23376 0.26504
#
# Static dielectric constant tensor:
#      x y z
#    x -1.872420 3.852030 -1.756080 
#    y 3.852030 1.643550 1.127200 
#    z -1.756080 1.127200 3.537490 
# 
# 
# High freq. dielectric constant tensor:
#      x y z
#    x 1.829410 -0.002160 0.001280 
#    y -0.002160 1.826070 0.007760 
#    z 0.001280 0.007760 1.834130 
# 
# From -- ./inp_files/225939.got.cif
#   From: 2010.06.25/outbox.cif.g09.slc.cpg/sg2_113_cif.got.tgz:225939.got - 2010.06.27 13:26:56.
