data_PCOD8023250
_publ_section_title
;
Structure prediction by ZEFSAII (Michael W. Deem and Ramdas Pophale) SiO2 
 PCOD8023250
Probable space group: P -1
;
_chemical_formula_sum "Si O2"
_cell_formula_units_Z 14
_cell_length_a 18.485836
_cell_length_b 16.430582
_cell_length_c 8.719168
_cell_angle_alpha 124.755037
_cell_angle_beta 136.857782
_cell_angle_gamma 23.689143
_cell_volume 679.616796
_symmetry_space_group_name_H-M "P -1"
_symmetry_group_IT_number 2
_symmetry_cell_setting 'triclinic'
loop_
_space_group_symop_operation_xyz
x,y,z
-x,-y,-z
loop_
_atom_site_type_symbol
_atom_site_label
_atom_site_fract_x
_atom_site_fract_y
_atom_site_fract_z
Si Si1 0.244917 0.925973 0.605183
Si Si2 0.385543 0.439107 0.978552
Si Si3 0.610730 0.366011 0.677739
Si Si4 0.079672 0.524050 0.549650
Si Si5 0.602129 0.010413 0.250609
Si Si6 0.789574 0.613613 0.726892
Si Si7 0.250320 0.573581 0.571539
O O1 0.231658 0.857899 0.370242
O O2 0.400212 0.890663 0.754438
O O3 0.363352 0.781594 0.787638
O O4 0.980539 0.170460 0.491658
O O5 0.241420 0.462296 0.832475
O O6 0.393331 0.434598 0.800673
O O7 0.259857 0.646843 0.059593
O O8 0.500000 0.500000 0.500000
O O9 0.414111 0.496635 0.630827
O O10 0.212767 0.368741 0.441084
O O11 0.000000 0.500000 0.500000
O O12 0.868675 0.769211 0.438209
O O13 0.455500 0.148041 0.326740
O O14 0.500000 0.000000 0.000000
O O15 0.824717 0.468489 0.664042
O O16 0.000000 0.500000 0.000000
#
# Coordination Sequence:
#
# PCOD8023250 Si02
#       7
#     2   2   2   2   2   2   2
#     4  11  22  42  67  91 129 174 216 260 325 380
#     4  10  23  41  63  98 128 169 216 267 318 378
#     4  10  23  41  66  95 129 172 219 266 320 383
#     4  11  24  42  63  97 135 162 217 271 319 389
#     4  12  21  40  68  91 126 175 211 262 331 381
#     4  11  22  38  65  95 123 171 216 258 327 386
#     4  11  22  43  64  93 132 166 219 268 319 384
#
# _framework density 20.599843
#
# number of rings (size 3 to 8) (size 9 to 14) (size 15 to 20)
#    0.000    1.143    5.714    1.286    0.000    3.429 
#    0.000   10.000    0.000    0.000    0.000    0.000 
#    0.000    0.000    0.000    0.000    0.000    0.000 
#
# Total GULP energy -173514.117199 kJ/mol
# GULP energy per Si atom -12393.865514 kJ/mol
# Density = 2.055296 g / cm^3
# Si number density = 20.599843 Si / 1000 Ang^3
#
#
#
# Elastic Constant Matrix: (Units=GPa)
#
#
# Indices 1 2 3 4 5 6 
#
# 1 124.8714 44.7319 43.3493 18.2198 -2.0204 1.2447
# 2 44.7319 133.6207 42.6064 21.3989 -6.0494 -12.9009
# 3 43.3493 42.6064 98.0844 25.7388 3.6433 4.7250
# 4 18.2198 21.3989 25.7388 42.5489 16.1203 5.1037
# 5 -2.0204 -6.0494 3.6433 16.1203 26.7267 6.1558
# 6 1.2447 -12.9009 4.7250 5.1037 6.1558 38.9684
#
#
#
# Elastic Compliance Matrix: (Units=1/GPa)
#
#
# Indices 1 2 3 4 5 6 
#
# 1 0.010174 -0.002031 -0.003077 -0.002239 0.002237 -0.000684
# 2 -0.002031 0.010381 -0.002663 -0.004967 0.004695 0.003733
# 3 -0.003077 -0.002663 0.014432 -0.006414 0.001511 -0.001932
# 4 -0.002239 -0.004967 -0.006414 0.040276 -0.024194 -0.002248
# 5 0.002237 0.004695 0.001511 -0.024194 0.053968 -0.004057
# 6 -0.000684 0.003733 -0.001932 -0.002248 -0.004057 0.028089
#
#
# Mechanical properties :
#
#
# Convention : Reuss Voigt Hill
#
# Bulk Modulus (GPa) = 51.42348 68.66129 60.04239
# Shear Modulus (GPa) = 27.87964 36.70808 32.29386
#
# Velocity S-wave (km/s) = 3.68284 4.22591 3.96368
# Velocity P-wave (km/s) = 6.56518 7.56402 7.08223
#
# Compressibility (1/GPa) = 0.01944637
#
# Stress axis : x y z
#
# Youngs Moduli (GPa) = 98.29394 96.32690 69.29150
#
# Poissons Ratio (x) = 0.19564 0.21318
# Poissons Ratio (y) = 0.19963 0.18450
# Poissons Ratio (z) = 0.30241 0.25648
#
# Static dielectric constant tensor:
#      x y z
#    x 27.758510 48.780090 5.243260 
#    y 48.780090 104.692400 10.812160 
#    z 5.243260 10.812160 4.621020 
# 
# 
# High freq. dielectric constant tensor:
#      x y z
#    x 1.817140 0.008430 0.010550 
#    y 0.008430 1.806360 0.024770 
#    z 0.010550 0.024770 1.805610 
# 
# From -- ./inp_files/200088.got.cif
#   From: 2010.06.25/outbox.cif.g09.slc.cpg/sg2_101_cif.got.tgz:200088.got - 2010.06.27 13:26:56.
