data_PCOD8023348
_publ_section_title
;
Structure prediction by ZEFSAII (Michael W. Deem and Ramdas Pophale) SiO2 
 PCOD8023348
Probable space group: P -1
;
_chemical_formula_sum "Si O2"
_cell_formula_units_Z 14
_cell_length_a 7.087547
_cell_length_b 8.299540
_cell_length_c 15.761446
_cell_angle_alpha 96.878778
_cell_angle_beta 135.593100
_cell_angle_gamma 81.042711
_cell_volume 640.805871
_symmetry_space_group_name_H-M "P -1"
_symmetry_group_IT_number 2
_symmetry_cell_setting 'triclinic'
loop_
_space_group_symop_operation_xyz
x,y,z
-x,-y,-z
loop_
_atom_site_type_symbol
_atom_site_label
_atom_site_fract_x
_atom_site_fract_y
_atom_site_fract_z
Si Si1 0.509880 0.806394 0.652372
Si Si2 0.498085 0.348059 0.744443
Si Si3 0.019942 0.950797 0.771093
Si Si4 0.005723 0.796934 0.364917
Si Si5 0.041977 0.138479 0.953612
Si Si6 0.330758 0.534373 0.363701
Si Si7 0.441030 0.716001 0.807748
O O1 0.251984 0.810523 0.509229
O O2 0.713725 0.638964 0.702153
O O3 0.401729 0.820944 0.714449
O O4 0.706303 0.940638 0.696744
O O5 0.771877 0.261057 0.866051
O O6 0.513091 0.365302 0.648761
O O7 0.424755 0.523809 0.776142
O O8 0.266066 0.227219 0.673494
O O9 0.202995 0.779941 0.801611
O O10 0.030023 0.041331 0.691029
O O11 0.142610 0.050882 0.892667
O O12 0.055973 0.642029 0.307780
O O13 0.268771 0.253258 0.059946
O O14 0.000000 0.000000 0.000000
O O15 0.500000 0.500000 0.500000
#
# Coordination Sequence:
#
# PCOD8023348 Si02
#       7
#     2   2   2   2   2   2   2
#     4  10  23  41  65  98 137 172 217 273 325 395
#     4  11  24  44  68 100 133 173 221 272 328 392
#     4  12  24  43  67  99 134 173 222 273 332 388
#     4  11  23  40  68 101 134 175 218 268 336 393
#     4  12  24  47  70  93 136 173 223 278 326 385
#     4   9  20  40  65  93 134 173 217 263 324 386
#     4  11  25  44  67  99 129 176 221 271 329 389
#
# _framework density 21.847491000000002
#
# number of rings (size 3 to 8) (size 9 to 14) (size 15 to 20)
#    0.000    1.143    2.857    3.000    0.000    8.000 
#    0.000    1.429    0.000    0.000    0.000    0.000 
#    0.000    0.000    0.000    0.000    0.000    0.000 
#
# Total GULP energy -173562.114957 kJ/mol
# GULP energy per Si atom -12397.293926 kJ/mol
# Density = 2.179777 g / cm^3
# Si number density = 21.847491 Si / 1000 Ang^3
#
#
#
# Elastic Constant Matrix: (Units=GPa)
#
#
# Indices 1 2 3 4 5 6 
#
# 1 103.9601 26.9344 43.8053 -6.9299 -3.0610 5.7255
# 2 26.9344 66.7043 33.1577 -16.5501 -6.0235 8.0245
# 3 43.8053 33.1577 104.7989 -0.4111 -1.9530 7.0611
# 4 -6.9299 -16.5501 -0.4111 32.6973 1.9159 4.0597
# 5 -3.0610 -6.0235 -1.9530 1.9159 32.7651 3.7049
# 6 5.7255 8.0245 7.0611 4.0597 3.7049 47.7364
#
#
#
# Elastic Compliance Matrix: (Units=1/GPa)
#
#
# Indices 1 2 3 4 5 6 
#
# 1 0.012170 -0.002320 -0.004300 0.001398 0.000439 -0.000587
# 2 -0.002320 0.022246 -0.005708 0.010975 0.003322 -0.003808
# 3 -0.004300 -0.005708 0.013131 -0.003593 -0.000444 -0.000127
# 4 0.001398 0.010975 -0.003593 0.036949 0.000299 -0.004647
# 5 0.000439 0.003322 -0.000444 0.000299 0.031469 -0.003013
# 6 -0.000587 -0.003808 -0.000127 -0.004647 -0.003013 0.022307
#
#
# Mechanical properties :
#
#
# Convention : Reuss Voigt Hill
#
# Bulk Modulus (GPa) = 43.67954 53.69537 48.68746
# Shear Modulus (GPa) = 29.31539 34.07747 31.69643
#
# Velocity S-wave (km/s) = 3.66706 3.95370 3.81307
# Velocity P-wave (km/s) = 6.16166 6.74337 6.45907
#
# Compressibility (1/GPa) = 0.02289401
#
# Stress axis : x y z
#
# Youngs Moduli (GPa) = 82.16661 44.95101 76.15277
#
# Poissons Ratio (x) = 0.10427 0.32746
# Poissons Ratio (y) = 0.19059 0.43464
# Poissons Ratio (z) = 0.35332 0.25656
#
# Static dielectric constant tensor:
#      x y z
#    x 4.434360 -0.529920 -0.417680 
#    y -0.529920 4.485450 0.191940 
#    z -0.417680 0.191940 3.999350 
# 
# 
# High freq. dielectric constant tensor:
#      x y z
#    x 1.871770 -0.008880 -0.009480 
#    y -0.008880 1.870430 -0.002890 
#    z -0.009480 -0.002890 1.848340 
# 
# From -- ./inp_files/26802.got.cif
#   From: 2010.06.25/outbox.cif.g09.slc.cpg/sg2_14_cif.got.tgz:26802.got - 2010.06.27 13:26:56.
