data_PCOD8023153
_publ_section_title
;
Structure prediction by ZEFSAII (Michael W. Deem and Ramdas Pophale) SiO2 
 PCOD8023153
Probable space group: P -1
;
_chemical_formula_sum "Si O2"
_cell_formula_units_Z 16
_cell_length_a 15.595091
_cell_length_b 9.254786
_cell_length_c 13.607369
_cell_angle_alpha 135.690678
_cell_angle_beta 124.648969
_cell_angle_gamma 90.272477
_cell_volume 787.559131
_symmetry_space_group_name_H-M "P -1"
_symmetry_group_IT_number 2
_symmetry_cell_setting 'triclinic'
loop_
_space_group_symop_operation_xyz
x,y,z
-x,-y,-z
loop_
_atom_site_type_symbol
_atom_site_label
_atom_site_fract_x
_atom_site_fract_y
_atom_site_fract_z
Si Si1 0.142868 0.719489 0.264717
Si Si2 0.330686 0.287096 0.203046
Si Si3 0.495035 0.257648 0.909980
Si Si4 0.210255 0.655528 0.478560
Si Si5 0.003726 0.289434 0.347426
Si Si6 0.373031 0.469647 0.525364
Si Si7 0.422005 0.875658 0.492548
Si Si8 0.761353 0.701641 0.433382
O O1 0.114374 0.567214 0.276034
O O2 0.268125 0.769083 0.314861
O O3 0.190147 0.024666 0.459826
O O4 0.000000 0.500000 0.000000
O O5 0.327602 0.244653 0.298972
O O6 0.444990 0.281359 0.225751
O O7 0.399130 0.607043 0.377395
O O8 0.164127 0.029969 0.928613
O O9 0.337557 0.012326 0.747710
O O10 0.503251 0.119375 0.752415
O O11 0.500000 0.500000 0.000000
O O12 0.630888 0.399211 0.141377
O O13 0.314532 0.603183 0.510571
O O14 0.085782 0.453646 0.379835
O O15 0.000000 0.500000 0.500000
O O16 0.097387 0.250990 0.448513
O O17 0.295004 0.310742 0.500964
O O18 0.500000 0.000000 0.500000
#
# Coordination Sequence:
#
# PCOD8023153 Si02
#       8
#     2   2   2   2   2   2   2   2
#     4  11  22  42  65  96 130 169 219 261 331 397
#     4  11  23  43  63 100 135 164 221 276 325 390
#     4  11  22  43  68  98 131 166 228 270 319 398
#     4  10  23  44  65  95 126 176 215 270 323 387
#     4  11  28  43  64  95 135 173 218 272 337 389
#     4  10  23  40  70  94 126 173 218 267 329 383
#     4  11  23  43  69  99 129 172 220 277 323 378
#     4  11  24  41  69  95 125 180 215 268 333 393
#
# _framework density 20.315937000000002
#
# number of rings (size 3 to 8) (size 9 to 14) (size 15 to 20)
#    0.000    1.250    5.000    1.500    5.250    2.000 
#    2.250    0.625    0.000    0.000    0.000    0.000 
#    0.000    0.000    0.000    0.000    0.000    0.000 
#
# Total GULP energy -198267.163832 kJ/mol
# GULP energy per Si atom -12391.697740 kJ/mol
# Density = 2.026970 g / cm^3
# Si number density = 20.315937 Si / 1000 Ang^3
#
#
#
# Elastic Constant Matrix: (Units=GPa)
#
#
# Indices 1 2 3 4 5 6 
#
# 1 112.2873 50.4139 31.1880 -8.9756 4.5841 -9.2744
# 2 50.4139 122.8919 44.8232 -9.9974 3.1075 -8.0317
# 3 31.1880 44.8232 127.2521 -25.6375 4.3567 -5.1725
# 4 -8.9756 -9.9974 -25.6375 41.5022 -8.9890 5.0491
# 5 4.5841 3.1075 4.3567 -8.9890 29.6827 -7.4426
# 6 -9.2744 -8.0317 -5.1725 5.0491 -7.4426 29.6664
#
#
#
# Elastic Compliance Matrix: (Units=1/GPa)
#
#
# Indices 1 2 3 4 5 6 
#
# 1 0.011251 -0.004013 -0.001166 0.000387 -0.000520 0.002031
# 2 -0.004013 0.010884 -0.002826 -0.000107 0.000179 0.001262
# 3 -0.001166 -0.002826 0.010228 0.005535 0.000618 -0.000133
# 4 0.000387 -0.000107 0.005535 0.029457 0.007542 -0.002064
# 5 -0.000520 0.000179 0.000618 0.007542 0.038012 0.008246
# 6 0.002031 0.001262 -0.000133 -0.002064 0.008246 0.037082
#
#
# Mechanical properties :
#
#
# Convention : Reuss Voigt Hill
#
# Bulk Modulus (GPa) = 61.15148 68.36460 64.75804
# Shear Modulus (GPa) = 31.57045 35.90399 33.73722
#
# Velocity S-wave (km/s) = 3.94632 4.20847 4.07950
# Velocity P-wave (km/s) = 7.13654 7.57223 7.35761
#
# Compressibility (1/GPa) = 0.01635283
#
# Stress axis : x y z
#
# Youngs Moduli (GPa) = 88.87977 91.88055 97.76715
#
# Poissons Ratio (x) = 0.36872 0.11397
# Poissons Ratio (y) = 0.35668 0.27634
# Poissons Ratio (z) = 0.10361 0.25970
#
# Static dielectric constant tensor:
#      x y z
#    x 3.624000 -0.090860 -0.013460 
#    y -0.090860 3.966090 -0.152770 
#    z -0.013460 -0.152770 3.829140 
# 
# 
# High freq. dielectric constant tensor:
#      x y z
#    x 1.789740 -0.006540 0.007660 
#    y -0.006540 1.813150 -0.007930 
#    z 0.007660 -0.007930 1.791270 
# 
# From -- ./inp_files/530249.got.cif
#   From: 2010.06.25/outbox.cif.g09.slc.cpg/sg2_266_cif.got.tgz:530249.got - 2010.06.27 13:26:56.
