data_PCOD8023387
_publ_section_title
;
Structure prediction by ZEFSAII (Michael W. Deem and Ramdas Pophale) SiO2 
 PCOD8023387
Probable space group: P -1
;
_chemical_formula_sum "Si O2"
_cell_formula_units_Z 14
_cell_length_a 8.389106
_cell_length_b 19.822204
_cell_length_c 11.600685
_cell_angle_alpha 32.482091
_cell_angle_beta 65.876439
_cell_angle_gamma 43.767652
_cell_volume 603.324840
_symmetry_space_group_name_H-M "P -1"
_symmetry_group_IT_number 2
_symmetry_cell_setting 'triclinic'
loop_
_space_group_symop_operation_xyz
x,y,z
-x,-y,-z
loop_
_atom_site_type_symbol
_atom_site_label
_atom_site_fract_x
_atom_site_fract_y
_atom_site_fract_z
Si Si1 0.240078 0.965639 0.471289
Si Si2 0.484080 0.517036 0.343281
Si Si3 0.801415 0.112108 0.761792
Si Si4 0.019378 0.315128 0.887381
Si Si5 0.650192 0.727208 0.499674
Si Si6 0.393230 0.969976 0.896559
Si Si7 0.349705 0.858507 0.845699
O O1 0.492737 0.774640 0.595222
O O2 0.351570 0.924084 0.627306
O O3 0.000000 0.000000 0.500000
O O4 0.112540 0.162021 0.174319
O O5 0.500000 0.500000 0.500000
O O6 0.727665 0.298573 0.533009
O O7 0.196263 0.620027 0.233832
O O8 0.541009 0.627857 0.124040
O O9 0.561932 0.165197 0.696817
O O10 0.813123 0.026387 0.002973
O O11 0.058624 0.959332 0.823152
O O12 0.905668 0.495294 0.735130
O O13 0.293188 0.205306 0.893498
O O14 0.751068 0.815881 0.350717
O O15 0.438112 0.917588 0.822988
#
# Coordination Sequence:
#
# PCOD8023387 Si02
#       7
#     2   2   2   2   2   2   2
#     4  11  21  43  70  91 127 167 216 267 309 378
#     4  11  23  40  63  95 127 164 215 261 313 377
#     4  11  23  41  65  93 129 172 211 259 321 381
#     4  10  24  43  65  96 128 168 214 260 323 379
#     4  10  23  41  66  95 122 172 213 258 324 376
#     4  11  24  41  62  96 133 171 204 265 321 381
#     4  12  24  42  66  97 129 168 216 264 315 372
#
# _framework density 23.204744999999999
#
# number of rings (size 3 to 8) (size 9 to 14) (size 15 to 20)
#    0.000    1.143    4.286    1.714    0.000    8.571 
#    0.000    1.429    0.000    0.000    0.000    0.000 
#    0.000    0.000    0.000    0.000    0.000    0.000 
#
# Total GULP energy -173595.095268 kJ/mol
# GULP energy per Si atom -12399.649662 kJ/mol
# Density = 2.315193 g / cm^3
# Si number density = 23.204745 Si / 1000 Ang^3
#
#
#
# Elastic Constant Matrix: (Units=GPa)
#
#
# Indices 1 2 3 4 5 6 
#
# 1 77.0837 10.7551 38.1567 -9.6819 -23.0849 22.0418
# 2 10.7551 100.8987 44.8433 -3.1347 -11.0351 5.6877
# 3 38.1567 44.8433 125.9368 -11.3065 -16.1019 15.8272
# 4 -9.6819 -3.1347 -11.3065 30.5618 15.6961 -1.3568
# 5 -23.0849 -11.0351 -16.1019 15.6961 37.1729 1.0653
# 6 22.0418 5.6877 15.8272 -1.3568 1.0653 46.5111
#
#
#
# Elastic Compliance Matrix: (Units=1/GPa)
#
#
# Indices 1 2 3 4 5 6 
#
# 1 0.021048 0.001511 -0.004317 -0.001648 0.012605 -0.009027
# 2 0.001511 0.012052 -0.004366 -0.001657 0.003348 -0.000829
# 3 -0.004317 -0.004366 0.011142 0.002302 -0.000090 -0.001142
# 4 -0.001648 -0.001657 0.002302 0.042466 -0.018503 0.001863
# 5 0.012605 0.003348 -0.000090 -0.018503 0.043723 -0.007893
# 6 -0.009027 -0.000829 -0.001142 0.001863 -0.007893 0.026504
#
#
# Mechanical properties :
#
#
# Convention : Reuss Voigt Hill
#
# Bulk Modulus (GPa) = 33.44649 54.60326 44.02488
# Shear Modulus (GPa) = 27.58733 36.86008 32.22371
#
# Velocity S-wave (km/s) = 3.45173 3.98989 3.73053
# Velocity P-wave (km/s) = 5.50735 6.69386 6.12938
#
# Compressibility (1/GPa) = 0.02989850
#
# Stress axis : x y z
#
# Youngs Moduli (GPa) = 47.50999 82.97680 89.75242
#
# Poissons Ratio (x) = -0.12541 0.38749
# Poissons Ratio (y) = -0.07181 0.39182
# Poissons Ratio (z) = 0.20512 0.36224
#
# Static dielectric constant tensor:
#      x y z
#    x 4.471440 -0.134540 -0.057910 
#    y -0.134540 5.125800 0.047630 
#    z -0.057910 0.047630 4.338730 
# 
# 
# High freq. dielectric constant tensor:
#      x y z
#    x 1.937880 0.011830 -0.003520 
#    y 0.011830 1.912570 -0.006550 
#    z -0.003520 -0.006550 1.912420 
# 
# From -- ./inp_files/259733.got.cif
#   From: 2010.06.25/outbox.cif.g09.slc.cpg/sg2_130_cif.got.tgz:259733.got - 2010.06.27 13:26:56.
