data_PCOD8023231
_publ_section_title
;
Structure prediction by ZEFSAII (Michael W. Deem and Ramdas Pophale) SiO2 
 PCOD8023231
Probable space group: P -1
;
_chemical_formula_sum "Si O2"
_cell_formula_units_Z 16
_cell_length_a 5.154590
_cell_length_b 12.472620
_cell_length_c 12.667168
_cell_angle_alpha 102.436473
_cell_angle_beta 86.740025
_cell_angle_gamma 75.033561
_cell_volume 762.820029
_symmetry_space_group_name_H-M "P -1"
_symmetry_group_IT_number 2
_symmetry_cell_setting 'triclinic'
loop_
_space_group_symop_operation_xyz
x,y,z
-x,-y,-z
loop_
_atom_site_type_symbol
_atom_site_label
_atom_site_fract_x
_atom_site_fract_y
_atom_site_fract_z
Si Si1 0.888251 0.136092 0.554263
Si Si2 0.207387 0.210785 0.901297
Si Si3 0.703180 0.266274 0.795860
Si Si4 0.922314 0.657167 0.859043
Si Si5 0.135105 0.972867 0.878707
Si Si6 0.413328 0.117535 0.458855
Si Si7 0.293440 0.139996 0.224770
Si Si8 0.490022 0.484315 0.123164
O O1 0.804845 0.172631 0.682876
O O2 0.628829 0.186719 0.496352
O O3 0.121701 0.192128 0.523704
O O4 0.000000 0.000000 0.500000
O O5 0.501516 0.218736 0.862344
O O6 0.956111 0.289907 0.858549
O O7 0.181320 0.085679 0.849957
O O8 0.171624 0.242482 0.031220
O O9 0.546298 0.394672 0.790223
O O10 0.857858 0.725362 0.763320
O O11 0.762273 0.563071 0.853590
O O12 0.239667 0.599956 0.853692
O O13 0.438006 0.887479 0.861631
O O14 0.925483 0.929571 0.803737
O O15 0.000000 0.000000 0.000000
O O16 0.404752 0.104252 0.331503
O O17 0.500000 0.000000 0.500000
O O18 0.500000 0.500000 0.000000
#
# Coordination Sequence:
#
# PCOD8023231 Si02
#       8
#     2   2   2   2   2   2   2   2
#     4  10  23  41  63  93 128 164 216 277 338 390
#     4  12  24  37  63  97 136 175 212 261 330 404
#     4  12  25  40  67  98 133 173 213 282 336 374
#     4  12  24  42  64  95 136 177 222 262 325 400
#     4  12  26  39  60  96 140 179 214 253 328 424
#     4  10  23  42  64  90 122 168 221 273 322 389
#     4  12  26  43  64  92 135 185 217 269 334 391
#     4  12  23  42  67  97 133 175 224 273 319 387
#
# _framework density 20.974805
#
# number of rings (size 3 to 8) (size 9 to 14) (size 15 to 20)
#    0.000    0.500    3.750    4.500   12.250    0.000 
#    0.000    0.000    0.000    4.500    0.000    0.000 
#    0.000    0.000    0.000    0.000    0.000    0.000 
#
# Total GULP energy -198289.994364 kJ/mol
# GULP energy per Si atom -12393.124648 kJ/mol
# Density = 2.092707 g / cm^3
# Si number density = 20.974805 Si / 1000 Ang^3
#
#
#
# Elastic Constant Matrix: (Units=GPa)
#
#
# Indices 1 2 3 4 5 6 
#
# 1 154.2754 18.4159 24.6890 1.1071 7.6939 -1.7967
# 2 18.4159 86.9539 39.1701 -6.4630 5.7766 -1.8463
# 3 24.6890 39.1701 78.0958 -0.3793 5.1244 -9.0546
# 4 1.1071 -6.4630 -0.3793 26.2421 -4.5461 2.7612
# 5 7.6939 5.7766 5.1244 -4.5461 30.6727 5.5534
# 6 -1.7967 -1.8463 -9.0546 2.7612 5.5534 34.8801
#
#
#
# Elastic Compliance Matrix: (Units=1/GPa)
#
#
# Indices 1 2 3 4 5 6 
#
# 1 0.006919 -0.000626 -0.001763 -0.000741 -0.001461 0.000157
# 2 -0.000626 0.015347 -0.007599 0.003727 -0.000661 -0.001382
# 3 -0.001763 -0.007599 0.017860 -0.002437 -0.002324 0.004706
# 4 -0.000741 0.003727 -0.002437 0.040699 0.006788 -0.004776
# 5 -0.001461 -0.000661 -0.002324 0.006788 0.035745 -0.006942
# 6 0.000157 -0.001382 0.004706 -0.004776 -0.006942 0.031310
#
#
# Mechanical properties :
#
#
# Convention : Reuss Voigt Hill
#
# Bulk Modulus (GPa) = 49.62525 53.76389 51.69457
# Shear Modulus (GPa) = 28.64166 34.16233 31.40200
#
# Velocity S-wave (km/s) = 3.69931 4.04013 3.87347
# Velocity P-wave (km/s) = 6.47745 6.88853 6.68615
#
# Compressibility (1/GPa) = 0.02015103
#
# Stress axis : x y z
#
# Youngs Moduli (GPa) = 144.53438 65.15725 55.99235
#
# Poissons Ratio (x) = 0.04078 0.09871
# Poissons Ratio (y) = 0.09046 0.42547
# Poissons Ratio (z) = 0.25480 0.49511
#
# Static dielectric constant tensor:
#      x y z
#    x -1.346130 -0.519020 -0.018890 
#    y -0.519020 3.724400 0.073430 
#    z -0.018890 0.073430 3.577660 
# 
# 
# High freq. dielectric constant tensor:
#      x y z
#    x 1.865550 -0.000540 0.004850 
#    y -0.000540 1.796940 -0.001810 
#    z 0.004850 -0.001810 1.794090 
# 
# From -- ./inp_files/364777.got.cif
#   From: 2010.06.25/outbox.cif.g09.slc.cpg/sg2_183_cif.got.tgz:364777.got - 2010.06.27 13:26:56.
