data_PCOD8023020
_publ_section_title
;
Structure prediction by ZEFSAII (Michael W. Deem and Ramdas Pophale) SiO2 
 PCOD8023020
Probable space group: P -1
;
_chemical_formula_sum "Si O2"
_cell_formula_units_Z 16
_cell_length_a 9.438968
_cell_length_b 7.942633
_cell_length_c 15.608519
_cell_angle_alpha 54.023707
_cell_angle_beta 107.986302
_cell_angle_gamma 72.566172
_cell_volume 703.169615
_symmetry_space_group_name_H-M "P -1"
_symmetry_group_IT_number 2
_symmetry_cell_setting 'triclinic'
loop_
_space_group_symop_operation_xyz
x,y,z
-x,-y,-z
loop_
_atom_site_type_symbol
_atom_site_label
_atom_site_fract_x
_atom_site_fract_y
_atom_site_fract_z
Si Si1 0.343767 0.473950 0.394779
Si Si2 0.793692 0.666310 0.872481
Si Si3 0.898704 0.089939 0.364707
Si Si4 0.110524 0.349343 0.480651
Si Si5 0.206233 0.717205 0.125914
Si Si6 0.754698 0.088032 0.632212
Si Si7 0.772351 0.631066 0.198435
Si Si8 0.376794 0.004008 0.091998
O O1 0.282418 0.354381 0.489140
O O2 0.229712 0.545810 0.263643
O O3 0.570826 0.257054 0.484635
O O4 0.294161 0.744942 0.340423
O O5 0.754251 0.461448 0.896834
O O6 0.790517 0.817509 0.743747
O O7 0.646795 0.875219 0.854667
O O8 0.000000 0.500000 0.000000
O O9 0.747712 0.409523 0.232933
O O10 0.794828 0.956379 0.385771
O O11 0.000000 0.000000 0.500000
O O12 0.060248 0.969565 0.358001
O O13 0.000000 0.500000 0.500000
O O14 0.967343 0.480145 0.333396
O O15 0.357108 0.771918 0.150573
O O16 0.000000 0.000000 0.000000
O O17 0.594078 0.868202 0.149188
O O18 0.776797 0.761091 0.072894
#
# Coordination Sequence:
#
# PCOD8023020 Si02
#       8
#     2   2   2   2   2   2   2   2
#     4  11  25  42  69 104 144 178 238 292 343 423
#     4  12  25  43  72 100 141 181 235 288 353 413
#     4  10  23  40  65  91 136 180 226 273 347 413
#     4  11  23  41  67 100 138 182 226 284 344 419
#     4  12  25  43  71 104 140 182 233 285 355 412
#     4  11  24  43  67 103 140 189 230 294 354 409
#     4  10  25  45  68  93 139 180 233 281 355 412
#     4  11  24  48  70  98 138 183 228 298 338 419
#
# _framework density 22.754111000000002
#
# number of rings (size 3 to 8) (size 9 to 14) (size 15 to 20)
#    0.000    1.000    3.750    1.500    8.750    1.500 
#    2.250    1.250    0.000    0.000    0.000    0.000 
#    0.000    0.000    0.000    0.000    0.000    0.000 
#
# Total GULP energy -198346.198682 kJ/mol
# GULP energy per Si atom -12396.637418 kJ/mol
# Density = 2.270232 g / cm^3
# Si number density = 22.754111 Si / 1000 Ang^3
#
#
#
# Elastic Constant Matrix: (Units=GPa)
#
#
# Indices 1 2 3 4 5 6 
#
# 1 68.2488 30.1801 17.8518 -3.4038 -14.6692 6.1171
# 2 30.1801 128.1145 32.6334 -5.8980 -10.2704 19.7410
# 3 17.8518 32.6334 100.4786 -4.8149 -10.6540 -1.9779
# 4 -3.4038 -5.8980 -4.8149 34.5848 2.0429 -2.8012
# 5 -14.6692 -10.2704 -10.6540 2.0429 37.8881 -5.7272
# 6 6.1171 19.7410 -1.9779 -2.8012 -5.7272 36.5877
#
#
#
# Elastic Compliance Matrix: (Units=1/GPa)
#
#
# Indices 1 2 3 4 5 6 
#
# 1 0.017728 -0.003273 -0.001484 0.000627 0.005469 -0.000374
# 2 -0.003273 0.010074 -0.002771 0.000611 -0.000106 -0.005008
# 3 -0.001484 -0.002771 0.011462 0.001070 0.002263 0.002799
# 4 0.000627 0.000611 0.001070 0.029409 -0.000608 0.001780
# 5 0.005469 -0.000106 0.002263 -0.000608 0.029737 0.003873
# 6 -0.000374 -0.005008 0.002799 0.001780 0.003873 0.030990
#
#
# Mechanical properties :
#
#
# Convention : Reuss Voigt Hill
#
# Bulk Modulus (GPa) = 41.30878 50.90804 46.10841
# Shear Modulus (GPa) = 32.78143 36.22390 34.50266
#
# Velocity S-wave (km/s) = 3.79975 3.99428 3.89823
# Velocity P-wave (km/s) = 6.11920 6.61015 6.36941
#
# Compressibility (1/GPa) = 0.02420793
#
# Stress axis : x y z
#
# Youngs Moduli (GPa) = 56.40732 99.26924 87.24326
#
# Poissons Ratio (x) = 0.32494 0.12947
# Poissons Ratio (y) = 0.18464 0.24172
# Poissons Ratio (z) = 0.08371 0.27504
#
# Static dielectric constant tensor:
#      x y z
#    x 4.442230 0.957080 -0.840600 
#    y 0.957080 5.270590 -0.891720 
#    z -0.840600 -0.891720 4.787420 
# 
# 
# High freq. dielectric constant tensor:
#      x y z
#    x 1.886250 0.001760 -0.015990 
#    y 0.001760 1.905810 -0.009210 
#    z -0.015990 -0.009210 1.901670 
# 
# From -- ./inp_files/494407.got.cif
#   From: 2010.06.25/outbox.cif.g09.slc.cpg/sg2_248_cif.got.tgz:494407.got - 2010.06.27 13:26:56.
