data_PCOD8023718
_publ_section_title
;
Structure prediction by ZEFSAII (Michael W. Deem and Ramdas Pophale) SiO2 
 PCOD8023718
Probable space group: P -1
;
_chemical_formula_sum "Si O2"
_cell_formula_units_Z 16
_cell_length_a 8.631217
_cell_length_b 18.071010
_cell_length_c 6.854266
_cell_angle_alpha 64.134391
_cell_angle_beta 51.819898
_cell_angle_gamma 58.045241
_cell_volume 703.430134
_symmetry_space_group_name_H-M "P -1"
_symmetry_group_IT_number 2
_symmetry_cell_setting 'triclinic'
loop_
_space_group_symop_operation_xyz
x,y,z
-x,-y,-z
loop_
_atom_site_type_symbol
_atom_site_label
_atom_site_fract_x
_atom_site_fract_y
_atom_site_fract_z
Si Si1 0.773335 0.541757 0.226750
Si Si2 0.473433 0.873779 0.440298
Si Si3 0.043383 0.909802 0.955607
Si Si4 0.741084 0.824690 0.660210
Si Si5 0.407182 0.544821 0.224206
Si Si6 0.808072 0.965239 0.714917
Si Si7 0.450738 0.260880 0.788066
Si Si8 0.163363 0.733643 0.309399
O O1 0.608120 0.529025 0.220171
O O2 0.750063 0.496931 0.502547
O O3 0.733927 0.643666 0.181634
O O4 0.000000 0.500000 0.000000
O O5 0.251178 0.884996 0.693892
O O6 0.636955 0.872619 0.484570
O O7 0.562566 0.782143 0.358960
O O8 0.421466 0.955353 0.231983
O O9 0.837346 0.924370 0.958622
O O10 0.078891 0.827589 0.160607
O O11 0.000000 0.000000 0.000000
O O12 0.830041 0.890280 0.626611
O O13 0.943835 0.733139 0.572578
O O14 0.572691 0.799199 0.945358
O O15 0.273175 0.649944 0.178103
O O16 0.500000 0.500000 0.000000
O O17 0.000000 0.000000 0.500000
O O18 0.677489 0.269341 0.634197
#
# Coordination Sequence:
#
# PCOD8023718 Si02
#       8
#     2   2   2   2   2   2   2   2
#     4  10  23  45  70 102 141 178 226 286 348 415
#     4  11  24  43  65  98 133 175 228 278 334 400
#     4  11  22  42  71  94 134 184 222 274 343 395
#     4  12  25  43  67 100 132 178 231 278 335 406
#     4  10  24  43  70 104 137 182 230 282 349 418
#     4  10  23  42  64  93 134 177 222 276 335 394
#     4  11  25  44  69  99 137 177 222 283 339 406
#     4  11  23  44  67  98 140 177 225 280 341 406
#
# _framework density 22.745685000000002
#
# number of rings (size 3 to 8) (size 9 to 14) (size 15 to 20)
#    0.000    1.250    1.250    4.875    3.500    2.000 
#    2.250    0.000    0.000    0.000    0.000    0.000 
#    0.000    0.000    0.000    0.000    0.000    0.000 
#
# Total GULP energy -198372.616811 kJ/mol
# GULP energy per Si atom -12398.288551 kJ/mol
# Density = 2.269392 g / cm^3
# Si number density = 22.745685 Si / 1000 Ang^3
#
#
#
# Elastic Constant Matrix: (Units=GPa)
#
#
# Indices 1 2 3 4 5 6 
#
# 1 114.8892 56.5254 34.6696 15.9714 21.0555 -6.7844
# 2 56.5254 169.5733 62.8570 17.1472 17.2197 -0.9379
# 3 34.6696 62.8570 110.9249 13.6971 13.7619 0.8624
# 4 15.9714 17.1472 13.6971 42.7596 0.4239 1.8004
# 5 21.0555 17.2197 13.7619 0.4239 38.8889 10.5572
# 6 -6.7844 -0.9379 0.8624 1.8004 10.5572 35.7995
#
#
#
# Elastic Compliance Matrix: (Units=1/GPa)
#
#
# Indices 1 2 3 4 5 6 
#
# 1 0.012186 -0.002653 -0.001180 -0.003227 -0.006120 0.004235
# 2 -0.002653 0.008352 -0.003633 -0.001191 -0.001007 0.000160
# 3 -0.001180 -0.003633 0.011921 -0.001905 -0.001970 0.000071
# 4 -0.003227 -0.001191 -0.001905 0.025768 0.003459 -0.002913
# 5 -0.006120 -0.001007 -0.001970 0.003459 0.033142 -0.011086
# 6 0.004235 0.000160 0.000071 -0.002913 -0.011086 0.032154
#
#
# Mechanical properties :
#
#
# Convention : Reuss Voigt Hill
#
# Bulk Modulus (GPa) = 57.05611 78.16570 67.61090
# Shear Modulus (GPa) = 34.65042 39.57864 37.11453
#
# Velocity S-wave (km/s) = 3.90729 4.17592 4.04383
# Velocity P-wave (km/s) = 6.74498 7.59544 7.18281
#
# Compressibility (1/GPa) = 0.01752661
#
# Stress axis : x y z
#
# Youngs Moduli (GPa) = 82.06164 119.73658 83.88238
#
# Poissons Ratio (x) = 0.31770 0.09901
# Poissons Ratio (y) = 0.21773 0.30471
# Poissons Ratio (z) = 0.09686 0.43495
#
# Static dielectric constant tensor:
#      x y z
#    x 4.215040 -0.183010 0.037400 
#    y -0.183010 4.260490 0.009320 
#    z 0.037400 0.009320 4.361940 
# 
# 
# High freq. dielectric constant tensor:
#      x y z
#    x 1.902640 -0.010040 -0.005290 
#    y -0.010040 1.902840 0.006820 
#    z -0.005290 0.006820 1.904400 
# 
# From -- ./inp_files/46961.got.cif
#   From: 2010.06.25/outbox.cif.g09.slc.cpg/sg2_24_cif.got.tgz:46961.got - 2010.06.27 13:26:56.
