data_PCOD8023127
_publ_section_title
;
Structure prediction by ZEFSAII (Michael W. Deem and Ramdas Pophale) SiO2 
 PCOD8023127
Probable space group: P -1
;
_chemical_formula_sum "Si O2"
_cell_formula_units_Z 16
_cell_length_a 8.015559
_cell_length_b 14.506456
_cell_length_c 6.863047
_cell_angle_alpha 70.917638
_cell_angle_beta 89.095845
_cell_angle_gamma 111.282782
_cell_volume 694.493290
_symmetry_space_group_name_H-M "P -1"
_symmetry_group_IT_number 2
_symmetry_cell_setting 'triclinic'
loop_
_space_group_symop_operation_xyz
x,y,z
-x,-y,-z
loop_
_atom_site_type_symbol
_atom_site_label
_atom_site_fract_x
_atom_site_fract_y
_atom_site_fract_z
Si Si1 0.509699 0.642515 0.928655
Si Si2 0.137492 0.619143 0.957248
Si Si3 0.223113 0.180097 0.986878
Si Si4 0.204597 0.777090 0.512034
Si Si5 0.604552 0.496387 0.310130
Si Si6 0.098370 0.935943 0.656274
Si Si7 0.060747 0.331095 0.746729
Si Si8 0.568011 0.931036 0.191856
O O1 0.315619 0.613581 0.059211
O O2 0.476672 0.618749 0.711846
O O3 0.641506 0.765275 0.872410
O O4 0.604593 0.573673 0.079518
O O5 0.222363 0.691234 0.717610
O O6 0.000000 0.500000 0.000000
O O7 0.058984 0.687970 0.042694
O O8 0.193279 0.267469 0.790044
O O9 0.313765 0.116841 0.902789
O O10 0.025541 0.109531 0.120760
O O11 0.115882 0.850666 0.565341
O O12 0.395168 0.842911 0.359350
O O13 0.063976 0.702863 0.412361
O O14 0.500000 0.500000 0.500000
O O15 0.814917 0.541678 0.344623
O O16 0.301554 0.001651 0.684616
O O17 0.000000 0.000000 0.500000
O O18 0.500000 0.000000 0.000000
#
# Coordination Sequence:
#
# PCOD8023127 Si02
#       8
#     2   2   2   2   2   2   2   2
#     4  10  24  41  67  98 140 187 239 302 360 420
#     4  12  26  46  70 103 151 195 244 300 360 433
#     4  11  24  46  75 100 148 187 235 311 368 442
#     4  12  28  45  78 106 150 196 245 301 374 445
#     4  10  23  40  68  98 139 185 247 300 357 430
#     4  12  26  46  76 110 145 190 250 310 379 448
#     4  11  24  46  68 106 141 193 245 301 360 438
#     4  12  27  49  77 111 150 189 248 314 383 444
#
# _framework density 23.03838
#
# number of rings (size 3 to 8) (size 9 to 14) (size 15 to 20)
#    0.000    0.750    2.500    3.750    7.000    3.500 
#    0.000    0.000    0.000    0.000    0.000    0.000 
#    0.000    0.000    0.000    0.000    0.000    0.000 
#
# Total GULP energy -198283.422817 kJ/mol
# GULP energy per Si atom -12392.713926 kJ/mol
# Density = 2.298594 g / cm^3
# Si number density = 23.038380 Si / 1000 Ang^3
#
#
#
# Elastic Constant Matrix: (Units=GPa)
#
#
# Indices 1 2 3 4 5 6 
#
# 1 103.9925 28.7830 18.2337 18.3081 -11.8360 8.8564
# 2 28.7830 94.2999 34.9854 23.2063 -0.4216 10.8450
# 3 18.2337 34.9854 90.7985 19.6472 -18.9431 6.0945
# 4 18.3081 23.2063 19.6472 37.9656 0.1146 -1.7174
# 5 -11.8360 -0.4216 -18.9431 0.1146 45.1929 8.0736
# 6 8.8564 10.8450 6.0945 -1.7174 8.0736 58.4560
#
#
#
# Elastic Compliance Matrix: (Units=1/GPa)
#
#
# Indices 1 2 3 4 5 6 
#
# 1 0.011546 -0.002340 0.000419 -0.004455 0.003542 -0.001979
# 2 -0.002340 0.014441 -0.004149 -0.005627 -0.001882 -0.001798
# 3 0.000419 -0.004149 0.015332 -0.005712 0.006871 -0.002009
# 4 -0.004455 -0.005627 -0.005712 0.035076 -0.004409 0.003954
# 5 0.003542 -0.001882 0.006871 -0.004409 0.026774 -0.004731
# 6 -0.001979 -0.001798 -0.002009 0.003954 -0.004731 0.018719
#
#
# Mechanical properties :
#
#
# Convention : Reuss Voigt Hill
#
# Bulk Modulus (GPa) = 34.27031 50.34389 42.30710
# Shear Modulus (GPa) = 34.78152 42.12882 38.45517
#
# Velocity S-wave (km/s) = 3.88973 4.28090 4.08999
# Velocity P-wave (km/s) = 5.92291 6.80694 6.38025
#
# Compressibility (1/GPa) = 0.02917977
#
# Stress axis : x y z
#
# Youngs Moduli (GPa) = 86.60805 69.24753 65.22249
#
# Poissons Ratio (x) = 0.16203 -0.02731
# Poissons Ratio (y) = 0.20266 0.27058
# Poissons Ratio (z) = -0.03626 0.28728
#
# Static dielectric constant tensor:
#      x y z
#    x 4.805260 0.354870 -0.009360 
#    y 0.354870 4.645350 0.149170 
#    z -0.009360 0.149170 4.028890 
# 
# 
# High freq. dielectric constant tensor:
#      x y z
#    x 1.931570 0.007850 -0.005390 
#    y 0.007850 1.923980 0.014970 
#    z -0.005390 0.014970 1.898390 
# 
# From -- ./inp_files/37956.got.cif
#   From: 2010.06.25/outbox.cif.g09.slc.cpg/sg2_19_cif.got.tgz:37956.got - 2010.06.27 13:26:56.
