data_PCOD8023688
_publ_section_title
;
Structure prediction by ZEFSAII (Michael W. Deem and Ramdas Pophale) SiO2 
 PCOD8023688
Probable space group: P -1
;
_chemical_formula_sum "Si O2"
_cell_formula_units_Z 14
_cell_length_a 14.775092
_cell_length_b 13.642825
_cell_length_c 10.725870
_cell_angle_alpha 58.268721
_cell_angle_beta 123.085553
_cell_angle_gamma 160.648358
_cell_volume 599.803528
_symmetry_space_group_name_H-M "P -1"
_symmetry_group_IT_number 2
_symmetry_cell_setting 'triclinic'
loop_
_space_group_symop_operation_xyz
x,y,z
-x,-y,-z
loop_
_atom_site_type_symbol
_atom_site_label
_atom_site_fract_x
_atom_site_fract_y
_atom_site_fract_z
Si Si1 0.358219 0.204673 0.393072
Si Si2 0.421342 0.743053 0.270296
Si Si3 0.119777 0.122720 0.646715
Si Si4 0.684487 0.227442 0.311543
Si Si5 0.930669 0.394867 0.877512
Si Si6 0.223279 0.872785 0.351536
Si Si7 0.141853 0.883039 0.845910
O O1 0.394657 0.148851 0.568470
O O2 0.597927 0.532076 0.360284
O O3 0.319323 0.096828 0.306418
O O4 0.084019 0.009564 0.329272
O O5 0.350635 0.803395 0.233877
O O6 0.123388 0.390942 0.261221
O O7 0.587454 0.906795 0.156504
O O8 0.181277 0.055849 0.789640
O O9 0.000000 0.000000 0.500000
O O10 0.686088 0.116568 0.471718
O O11 0.806643 0.316156 0.206198
O O12 0.894187 0.533535 0.314866
O O13 0.374166 0.980013 0.262775
O O14 0.884951 0.211786 0.979152
O O15 0.000000 0.500000 0.000000
#
# Coordination Sequence:
#
# PCOD8023688 Si02
#       7
#     2   2   2   2   2   2   2
#     4  12  23  37  65  90 127 161 212 265 311 365
#     4  11  22  36  60  91 131 161 199 255 318 378
#     4  12  22  38  61  91 128 170 207 264 311 366
#     4  10  23  42  63  91 129 161 210 256 317 375
#     4  10  25  40  65  96 130 167 199 257 324 390
#     4  10  24  40  64  92 123 168 209 263 308 366
#     4  11  23  40  56  90 132 168 204 244 319 382
#
# _framework density 23.340976000000001
#
# number of rings (size 3 to 8) (size 9 to 14) (size 15 to 20)
#    0.000    1.143    2.857    2.571   12.000    2.286 
#    0.000    0.000    0.000    5.143    0.000    0.000 
#    0.000    0.000    0.000    0.000    0.000    0.000 
#
# Total GULP energy -173547.818582 kJ/mol
# GULP energy per Si atom -12396.272756 kJ/mol
# Density = 2.328785 g / cm^3
# Si number density = 23.340976 Si / 1000 Ang^3
#
#
#
# Elastic Constant Matrix: (Units=GPa)
#
#
# Indices 1 2 3 4 5 6 
#
# 1 188.0614 72.8948 44.9273 -21.9516 12.0030 8.7571
# 2 72.8948 148.4596 2.2551 -21.6513 13.1347 15.1360
# 3 44.9273 2.2551 96.0894 -14.1250 12.7366 14.2247
# 4 -21.9516 -21.6513 -14.1250 29.3598 0.2723 -3.9103
# 5 12.0030 13.1347 12.7366 0.2723 32.8655 -6.6681
# 6 8.7571 15.1360 14.2247 -3.9103 -6.6681 49.8940
#
#
#
# Elastic Compliance Matrix: (Units=1/GPa)
#
#
# Indices 1 2 3 4 5 6 
#
# 1 0.007652 -0.003575 -0.003405 0.001559 0.000113 0.000850
# 2 -0.003575 0.010120 0.003505 0.006039 -0.004882 -0.003621
# 3 -0.003405 0.003505 0.014510 0.006415 -0.006851 -0.005015
# 4 0.001559 0.006039 0.006415 0.042634 -0.006108 -0.001409
# 5 0.000113 -0.004882 -0.006851 -0.006108 0.036631 0.007831
# 6 0.000850 -0.003621 -0.005015 -0.001409 0.007831 0.023358
#
#
# Mechanical properties :
#
#
# Convention : Reuss Voigt Hill
#
# Bulk Modulus (GPa) = 39.47733 74.75163 57.11448
# Shear Modulus (GPa) = 33.26701 43.25939 38.26320
#
# Velocity S-wave (km/s) = 3.77936 4.30975 4.05324
# Velocity P-wave (km/s) = 5.99957 7.54060 6.81379
#
# Compressibility (1/GPa) = 0.02533099
#
# Stress axis : x y z
#
# Youngs Moduli (GPa) = 130.69077 98.81851 68.91591
#
# Poissons Ratio (x) = 0.35324 0.23468
# Poissons Ratio (y) = 0.46717 -0.24153
# Poissons Ratio (z) = 0.44505 -0.34632
#
# Static dielectric constant tensor:
#      x y z
#    x 4.559390 -0.013980 0.235900 
#    y -0.013980 4.563690 -0.130350 
#    z 0.235900 -0.130350 4.684850 
# 
# 
# High freq. dielectric constant tensor:
#      x y z
#    x 1.933940 -0.005970 0.001810 
#    y -0.005970 1.955910 -0.000310 
#    z 0.001810 -0.000310 1.895400 
# 
# From -- ./inp_files/454659.got.cif
#   From: 2010.06.25/outbox.cif.g09.slc.cpg/sg2_228_cif.got.tgz:454659.got - 2010.06.27 13:26:56.
