data_PCOD8023131
_publ_section_title
;
Structure prediction by ZEFSAII (Michael W. Deem and Ramdas Pophale) SiO2 
 PCOD8023131
Probable space group: P -1
;
_chemical_formula_sum "Si O2"
_cell_formula_units_Z 14
_cell_length_a 14.234668
_cell_length_b 15.092124
_cell_length_c 10.082761
_cell_angle_alpha 46.458338
_cell_angle_beta 70.488495
_cell_angle_gamma 32.271382
_cell_volume 642.766949
_symmetry_space_group_name_H-M "P -1"
_symmetry_group_IT_number 2
_symmetry_cell_setting 'triclinic'
loop_
_space_group_symop_operation_xyz
x,y,z
-x,-y,-z
loop_
_atom_site_type_symbol
_atom_site_label
_atom_site_fract_x
_atom_site_fract_y
_atom_site_fract_z
Si Si1 0.630526 0.437217 0.268345
Si Si2 0.328265 0.122448 0.551705
Si Si3 0.883120 0.006503 0.097841
Si Si4 0.023507 0.142881 0.268385
Si Si5 0.050005 0.270608 0.871676
Si Si6 0.006907 0.274266 0.426949
Si Si7 0.521969 0.804002 0.054455
O O1 0.751257 0.185298 0.536259
O O2 0.594317 0.580785 0.248588
O O3 0.799827 0.302270 0.212862
O O4 0.385513 0.669787 0.084636
O O5 0.147422 0.416256 0.398415
O O6 0.193222 0.168474 0.487241
O O7 0.500000 0.000000 0.500000
O O8 0.475629 0.898545 0.828938
O O9 0.926393 0.852330 0.130073
O O10 0.986802 0.848757 0.350949
O O11 0.000000 0.000000 0.000000
O O12 0.064295 0.166237 0.363643
O O13 0.981825 0.287876 0.025298
O O14 0.295186 0.070472 0.976488
O O15 0.748753 0.619582 0.196996
#
# Coordination Sequence:
#
# PCOD8023131 Si02
#       7
#     2   2   2   2   2   2   2
#     4   9  20  42  63  93 142 173 216 273 341 392
#     4  12  25  47  71  96 140 180 225 279 336 401
#     4  11  26  42  67 101 140 176 223 279 337 403
#     4  10  23  40  69 100 131 182 223 273 340 401
#     4  11  25  44  70  97 137 181 223 277 346 388
#     4  11  25  46  66 103 135 178 231 272 335 404
#     4  10  23  44  68  98 136 177 222 286 330 395
#
# _framework density 21.780830999999999
#
# number of rings (size 3 to 8) (size 9 to 14) (size 15 to 20)
#    0.000    1.429    2.857    2.143    8.000    5.714 
#    0.000    0.000    0.000    0.000    0.000    0.000 
#    0.000    0.000    0.000    0.000    0.000    0.000 
#
# Total GULP energy -173591.280776 kJ/mol
# GULP energy per Si atom -12399.377198 kJ/mol
# Density = 2.173126 g / cm^3
# Si number density = 21.780831 Si / 1000 Ang^3
#
#
#
# Elastic Constant Matrix: (Units=GPa)
#
#
# Indices 1 2 3 4 5 6 
#
# 1 83.7212 25.4733 48.0396 -8.9267 4.4987 -23.9799
# 2 25.4733 88.8182 32.2418 -16.1909 3.8327 -16.1803
# 3 48.0396 32.2418 99.3030 -15.4902 15.0649 -8.2002
# 4 -8.9267 -16.1909 -15.4902 47.1397 -1.7268 3.3076
# 5 4.4987 3.8327 15.0649 -1.7268 33.0482 -10.2261
# 6 -23.9799 -16.1803 -8.2002 3.3076 -10.2261 40.8707
#
#
#
# Elastic Compliance Matrix: (Units=1/GPa)
#
#
# Indices 1 2 3 4 5 6 
#
# 1 0.020567 -0.000604 -0.009616 -0.000070 0.005111 0.011183
# 2 -0.000604 0.014135 -0.003663 0.003272 0.001730 0.004675
# 3 -0.009616 -0.003663 0.017008 0.002636 -0.007681 -0.005815
# 4 -0.000070 0.003272 0.002636 0.023189 -0.000422 -0.000199
# 5 0.005111 0.001730 -0.007681 -0.000422 0.036328 0.011266
# 6 0.011183 0.004675 -0.005815 -0.000199 0.011266 0.034548
#
#
# Mechanical properties :
#
#
# Convention : Reuss Voigt Hill
#
# Bulk Modulus (GPa) = 41.76557 53.70575 47.73566
# Shear Modulus (GPa) = 27.54458 35.28422 31.41440
#
# Velocity S-wave (km/s) = 3.56001 4.02925 3.80188
# Velocity P-wave (km/s) = 6.00960 6.80862 6.42155
#
# Compressibility (1/GPa) = 0.02394316
#
# Stress axis : x y z
#
# Youngs Moduli (GPa) = 48.62113 70.74401 58.79588
#
# Poissons Ratio (x) = 0.04272 0.56541
# Poissons Ratio (y) = 0.02936 0.21539
# Poissons Ratio (z) = 0.46756 0.25916
#
# Static dielectric constant tensor:
#      x y z
#    x 3.958520 -0.308410 0.047680 
#    y -0.308410 4.059980 -0.278030 
#    z 0.047680 -0.278030 4.303340 
# 
# 
# High freq. dielectric constant tensor:
#      x y z
#    x 1.846240 -0.015360 -0.003900 
#    y -0.015360 1.859610 -0.016830 
#    z -0.003900 -0.016830 1.868860 
# 
# From -- ./inp_files/314614.got.cif
#   From: 2010.06.25/outbox.cif.g09.slc.cpg/sg2_158_cif.got.tgz:314614.got - 2010.06.27 13:26:56.
