data_PCOD8023649
_publ_section_title
;
Structure prediction by ZEFSAII (Michael W. Deem and Ramdas Pophale) SiO2 
 PCOD8023649
Probable space group: P -1
;
_chemical_formula_sum "Si O2"
_cell_formula_units_Z 14
_cell_length_a 15.065680
_cell_length_b 8.369936
_cell_length_c 9.105771
_cell_angle_alpha 49.025849
_cell_angle_beta 108.757726
_cell_angle_gamma 129.217879
_cell_volume 663.093993
_symmetry_space_group_name_H-M "P -1"
_symmetry_group_IT_number 2
_symmetry_cell_setting 'triclinic'
loop_
_space_group_symop_operation_xyz
x,y,z
-x,-y,-z
loop_
_atom_site_type_symbol
_atom_site_label
_atom_site_fract_x
_atom_site_fract_y
_atom_site_fract_z
Si Si1 0.768310 0.972909 0.979414
Si Si2 0.551049 0.800030 0.804118
Si Si3 0.017819 0.472602 0.858162
Si Si4 0.470056 0.155935 0.569391
Si Si5 0.899927 0.992840 0.532518
Si Si6 0.679880 0.733507 0.391594
Si Si7 0.114149 0.179657 0.046886
O O1 0.670671 0.987873 0.843522
O O2 0.774673 0.757807 0.022752
O O3 0.893407 0.247182 0.858981
O O4 0.742879 0.898241 0.180060
O O5 0.574568 0.840846 0.618397
O O6 0.473568 0.904144 0.744262
O O7 0.500000 0.500000 0.000000
O O8 0.073256 0.727554 0.638719
O O9 0.000000 0.500000 0.000000
O O10 0.120767 0.436688 0.927344
O O11 0.596656 0.426924 0.495494
O O12 0.384831 0.147973 0.647194
O O13 0.775654 0.768666 0.532105
O O14 0.897970 0.956616 0.725063
O O15 0.000000 0.000000 0.500000
O O16 0.000000 0.000000 0.000000
#
# Coordination Sequence:
#
# PCOD8023649 Si02
#       7
#     2   2   2   2   2   2   2
#     4  11  23  42  65  95 132 170 213 274 323 388
#     4  11  23  45  66  94 127 168 220 272 332 381
#     4  11  22  42  63  97 133 169 218 261 326 390
#     4  10  25  45  67  95 132 171 221 273 323 391
#     4  12  23  40  70  96 131 172 214 269 323 386
#     4  11  23  45  66  98 132 173 222 268 327 388
#     4  10  23  42  60  93 134 168 214 262 318 391
#
# _framework density 21.113143999999998
#
# number of rings (size 3 to 8) (size 9 to 14) (size 15 to 20)
#    0.000    1.143    4.286    1.714    2.000    4.000 
#    2.571    0.000    0.000    0.000    0.000    0.000 
#    0.000    0.000    0.000    0.000    0.000    0.000 
#
# Total GULP energy -173552.858500 kJ/mol
# GULP energy per Si atom -12396.632750 kJ/mol
# Density = 2.106509 g / cm^3
# Si number density = 21.113144 Si / 1000 Ang^3
#
#
#
# Elastic Constant Matrix: (Units=GPa)
#
#
# Indices 1 2 3 4 5 6 
#
# 1 98.3150 11.3587 39.9044 10.6790 4.2534 -22.7839
# 2 11.3587 83.7035 39.0801 15.6351 8.4238 4.4094
# 3 39.9044 39.0801 140.7431 17.3567 12.7144 -12.6397
# 4 10.6790 15.6351 17.3567 45.1808 -6.3608 6.8750
# 5 4.2534 8.4238 12.7144 -6.3608 37.2151 2.1489
# 6 -22.7839 4.4094 -12.6397 6.8750 2.1489 44.8915
#
#
#
# Elastic Compliance Matrix: (Units=1/GPa)
#
#
# Indices 1 2 3 4 5 6 
#
# 1 0.013171 -0.000172 -0.002553 -0.003287 -0.001535 0.006560
# 2 -0.000172 0.014665 -0.003476 -0.003800 -0.002658 -0.001797
# 3 -0.002553 -0.003476 0.009569 -0.002605 -0.002767 0.002271
# 4 -0.003287 -0.003800 -0.002605 0.027229 0.007157 -0.006541
# 5 -0.001535 -0.002658 -0.002767 0.007157 0.030038 -0.003831
# 6 0.006560 -0.001797 0.002271 -0.006541 -0.003831 0.027606
#
#
# Mechanical properties :
#
#
# Convention : Reuss Voigt Hill
#
# Bulk Modulus (GPa) = 39.99631 55.93866 47.96748
# Shear Modulus (GPa) = 34.96104 40.95204 37.95654
#
# Velocity S-wave (km/s) = 4.07368 4.40892 4.24461
# Velocity P-wave (km/s) = 6.41182 7.24364 6.84038
#
# Compressibility (1/GPa) = 0.02500231
#
# Stress axis : x y z
#
# Youngs Moduli (GPa) = 75.92284 68.18912 104.49881
#
# Poissons Ratio (x) = 0.01175 0.26684
# Poissons Ratio (y) = 0.01309 0.36323
# Poissons Ratio (z) = 0.19387 0.23702
#
# Static dielectric constant tensor:
#      x y z
#    x 4.636250 -0.368450 0.585280 
#    y -0.368450 4.117730 -0.077610 
#    z 0.585280 -0.077610 4.247020 
# 
# 
# High freq. dielectric constant tensor:
#      x y z
#    x 1.842950 -0.007780 0.006720 
#    y -0.007780 1.835860 0.015640 
#    z 0.006720 0.015640 1.823970 
# 
# From -- ./inp_files/38416.got.cif
#   From: 2010.06.25/outbox.cif.g09.slc.cpg/sg2_20_cif.got.tgz:38416.got - 2010.06.27 13:26:56.
