data_PCOD8023189
_publ_section_title
;
Structure prediction by ZEFSAII (Michael W. Deem and Ramdas Pophale) SiO2 
 PCOD8023189
Probable space group: P -1
;
_chemical_formula_sum "Si O2"
_cell_formula_units_Z 12
_cell_length_a 8.756050
_cell_length_b 15.278976
_cell_length_c 11.632178
_cell_angle_alpha 155.033667
_cell_angle_beta 53.087988
_cell_angle_gamma 125.880184
_cell_volume 521.177430
_symmetry_space_group_name_H-M "P -1"
_symmetry_group_IT_number 2
_symmetry_cell_setting 'triclinic'
loop_
_space_group_symop_operation_xyz
x,y,z
-x,-y,-z
loop_
_atom_site_type_symbol
_atom_site_label
_atom_site_fract_x
_atom_site_fract_y
_atom_site_fract_z
Si Si1 0.136123 0.637004 0.254744
Si Si2 0.216738 0.308532 0.130069
Si Si3 0.719408 0.754335 0.228309
Si Si4 0.100296 0.773409 0.185050
Si Si5 0.151780 0.767439 0.659426
Si Si6 0.498489 0.054271 0.800656
O O1 0.158191 0.788137 0.313396
O O2 0.122258 0.765918 0.532220
O O3 0.943220 0.469977 0.125099
O O4 0.314496 0.492440 0.012281
O O5 0.207126 0.553569 0.433156
O O6 0.045635 0.181507 0.131587
O O7 0.195001 0.223963 0.911123
O O8 0.423143 0.256625 0.019291
O O9 0.900826 0.874118 0.365075
O O10 0.532431 0.870534 0.472714
O O11 0.295542 0.869001 0.141725
O O12 0.328789 0.941749 0.824225
#
# Coordination Sequence:
#
# PCOD8023189 Si02
#       6
#     2   2   2   2   2   2
#     4   8  19  38  62  83 123 160 186 235 310 342
#     4  10  23  41  61  85 123 157 195 241 298 349
#     4   9  20  38  61  88 120 150 194 244 295 343
#     4   9  20  38  59  92 121 150 194 247 296 344
#     4  10  23  41  62  84 122 159 195 242 294 349
#     4  12  23  35  65  96 110 153 208 245 282 348
#
# _framework density 23.024788999999998
#
# number of rings (size 3 to 8) (size 9 to 14) (size 15 to 20)
#    1.000    1.333    0.000    1.500    7.000    1.333 
#    0.000    1.667    3.667    0.000    0.000    0.000 
#    0.000    0.000    0.000    0.000    0.000    0.000 
#
# Total GULP energy -148669.602569 kJ/mol
# GULP energy per Si atom -12389.133547 kJ/mol
# Density = 2.297238 g / cm^3
# Si number density = 23.024789 Si / 1000 Ang^3
#
#
#
# Elastic Constant Matrix: (Units=GPa)
#
#
# Indices 1 2 3 4 5 6 
#
# 1 53.0303 28.4446 19.1621 -5.1162 -31.2692 -2.0704
# 2 28.4446 87.6862 1.2042 -6.9046 -13.9709 7.5330
# 3 19.1621 1.2042 71.5057 -13.2026 -28.9230 -2.9605
# 4 -5.1162 -6.9046 -13.2026 19.2271 5.5831 0.2554
# 5 -31.2692 -13.9709 -28.9230 5.5831 35.8696 1.1920
# 6 -2.0704 7.5330 -2.9605 0.2554 1.1920 36.6798
#
#
#
# Elastic Compliance Matrix: (Units=1/GPa)
#
#
# Indices 1 2 3 4 5 6 
#
# 1 0.045456 -0.008812 0.004057 0.000256 0.039312 0.003424
# 2 -0.008812 0.014855 0.002764 0.005031 -0.000338 -0.003349
# 3 0.004057 0.002764 0.024072 0.012173 0.022103 0.000801
# 4 0.000256 0.005031 0.012173 0.061543 0.002437 -0.000544
# 5 0.039312 -0.000338 0.022103 0.002437 0.079411 0.001475
# 6 0.003424 -0.003349 0.000801 -0.000544 0.001475 0.028165
#
#
# Mechanical properties :
#
#
# Convention : Reuss Voigt Hill
#
# Bulk Modulus (GPa) = 12.43730 34.42711 23.43220
# Shear Modulus (GPa) = 17.58814 29.24938 23.41876
#
# Velocity S-wave (km/s) = 2.76683 3.56805 3.19268
# Velocity P-wave (km/s) = 3.95229 5.65326 4.87749
#
# Compressibility (1/GPa) = 0.08040333
#
# Stress axis : x y z
#
# Youngs Moduli (GPa) = 21.99914 67.31879 41.54212
#
# Poissons Ratio (x) = 0.59319 -0.16855
# Poissons Ratio (y) = 0.19385 -0.11484
# Poissons Ratio (z) = -0.08926 -0.18610
#
# Static dielectric constant tensor:
#      x y z
#    x 4.012300 0.017860 -0.240100 
#    y 0.017860 4.106420 0.226370 
#    z -0.240100 0.226370 4.126250 
# 
# 
# High freq. dielectric constant tensor:
#      x y z
#    x 1.891080 0.018520 -0.020970 
#    y 0.018520 1.913330 0.032290 
#    z -0.020970 0.032290 1.911330 
# 
# From -- ./inp_files/399882.got.cif
#   From: 2010.06.25/outbox.cif.g09.slc.cpg/sg2_200_cif.got.tgz:399882.got - 2010.06.27 13:26:56.
