data_PCOD8023411
_publ_section_title
;
Structure prediction by ZEFSAII (Michael W. Deem and Ramdas Pophale) SiO2 
 PCOD8023411
Probable space group: P -1
;
_chemical_formula_sum "Si O2"
_cell_formula_units_Z 12
_cell_length_a 5.053090
_cell_length_b 18.639151
_cell_length_c 9.832770
_cell_angle_alpha 143.221484
_cell_angle_beta 87.502576
_cell_angle_gamma 97.469599
_cell_volume 546.906567
_symmetry_space_group_name_H-M "P -1"
_symmetry_group_IT_number 2
_symmetry_cell_setting 'triclinic'
loop_
_space_group_symop_operation_xyz
x,y,z
-x,-y,-z
loop_
_atom_site_type_symbol
_atom_site_label
_atom_site_fract_x
_atom_site_fract_y
_atom_site_fract_z
Si Si1 0.784682 0.773030 0.436078
Si Si2 0.184832 0.751389 0.882947
Si Si3 0.290695 0.461730 0.063635
Si Si4 0.253628 0.001118 0.404668
Si Si5 0.772920 0.286623 0.494432
Si Si6 0.611797 0.611311 0.760317
O O1 0.709104 0.880639 0.510568
O O2 0.533976 0.734037 0.481898
O O3 0.048498 0.802697 0.570667
O O4 0.870243 0.668215 0.176629
O O5 0.217005 0.740710 0.705562
O O6 0.443410 0.718587 0.903763
O O7 0.923189 0.661472 0.802311
O O8 0.189349 0.889967 0.133472
O O9 0.112587 0.569599 0.257861
O O10 0.441483 0.438810 0.163617
O O11 0.500000 0.500000 0.000000
O O12 0.500000 0.000000 0.500000
O O13 0.000000 0.000000 0.500000
O O14 0.500000 0.500000 0.500000
#
# Coordination Sequence:
#
# PCOD8023411 Si02
#       6
#     2   2   2   2   2   2
#     4  11  24  42  66  97 137 179 224 276 342 404
#     4  12  26  44  71 100 138 178 231 286 338 411
#     4  10  23  41  66  98 136 176 223 282 337 403
#     4  12  26  47  70  98 136 182 234 283 338 409
#     4  11  24  41  66 100 135 174 226 280 347 403
#     4  12  25  44  70 103 138 178 228 284 350 408
#
# _framework density 21.941590999999999
#
# number of rings (size 3 to 8) (size 9 to 14) (size 15 to 20)
#    0.000    0.667    1.667    6.000    2.333    5.333 
#    0.000    0.000    0.000    0.000    0.000    0.000 
#    0.000    0.000    0.000    0.000    0.000    0.000 
#
# Total GULP energy -148763.610879 kJ/mol
# GULP energy per Si atom -12396.967573 kJ/mol
# Density = 2.189165 g / cm^3
# Si number density = 21.941591 Si / 1000 Ang^3
#
#
#
# Elastic Constant Matrix: (Units=GPa)
#
#
# Indices 1 2 3 4 5 6 
#
# 1 112.2807 39.9406 33.2984 -18.8050 -6.3291 -16.7802
# 2 39.9406 152.2193 72.1039 -21.8622 -2.2232 -25.3990
# 3 33.2984 72.1039 154.5986 -5.3694 -10.6785 7.1779
# 4 -18.8050 -21.8622 -5.3694 43.0986 -0.9233 -1.1117
# 5 -6.3291 -2.2232 -10.6785 -0.9233 28.5974 2.1998
# 6 -16.7802 -25.3990 7.1779 -1.1117 2.1998 44.6725
#
#
#
# Elastic Compliance Matrix: (Units=1/GPa)
#
#
# Indices 1 2 3 4 5 6 
#
# 1 0.011197 -0.000578 -0.002082 0.004474 0.001473 0.004250
# 2 -0.000578 0.011123 -0.005341 0.004874 -0.001652 0.007167
# 3 -0.002082 -0.005341 0.009799 -0.002474 0.003134 -0.005609
# 4 0.004474 0.004874 -0.002474 0.027480 0.000910 0.005488
# 5 0.001473 -0.001652 0.003134 0.000910 0.036571 -0.002667
# 6 0.004250 0.007167 -0.005609 0.005488 -0.002667 0.029226
#
#
# Mechanical properties :
#
#
# Convention : Reuss Voigt Hill
#
# Bulk Modulus (GPa) = 62.04932 78.86493 70.45713
# Shear Modulus (GPa) = 34.06698 41.52408 37.79553
#
# Velocity S-wave (km/s) = 3.94461 4.35499 4.15487
# Velocity P-wave (km/s) = 7.00623 7.83001 7.42955
#
# Compressibility (1/GPa) = 0.01611621
#
# Stress axis : x y z
#
# Youngs Moduli (GPa) = 89.30930 89.90494 102.05489
#
# Poissons Ratio (x) = 0.05200 0.21249
# Poissons Ratio (y) = 0.05166 0.54504
# Poissons Ratio (z) = 0.18595 0.48015
#
# Static dielectric constant tensor:
#      x y z
#    x 4.888750 -0.805750 -0.297520 
#    y -0.805750 4.712510 0.217720 
#    z -0.297520 0.217720 4.395760 
# 
# 
# High freq. dielectric constant tensor:
#      x y z
#    x 1.862540 -0.012610 -0.006160 
#    y -0.012610 1.878150 -0.009720 
#    z -0.006160 -0.009720 1.877080 
# 
# From -- ./inp_files/139679.got.cif
#   From: 2010.06.25/outbox.cif.g09.slc.cpg/sg2_70_cif.got.tgz:139679.got - 2010.06.27 13:26:56.
