data_PCOD8023523
_publ_section_title
;
Structure prediction by ZEFSAII (Michael W. Deem and Ramdas Pophale) SiO2 
 PCOD8023523
Probable space group: P -1
;
_chemical_formula_sum "Si O2"
_cell_formula_units_Z 16
_cell_length_a 14.875934
_cell_length_b 13.010204
_cell_length_c 12.692947
_cell_angle_alpha 50.652963
_cell_angle_beta 70.394550
_cell_angle_gamma 29.332265
_cell_volume 762.489728
_symmetry_space_group_name_H-M "P -1"
_symmetry_group_IT_number 2
_symmetry_cell_setting 'triclinic'
loop_
_space_group_symop_operation_xyz
x,y,z
-x,-y,-z
loop_
_atom_site_type_symbol
_atom_site_label
_atom_site_fract_x
_atom_site_fract_y
_atom_site_fract_z
Si Si1 0.426110 0.193217 0.620154
Si Si2 0.717707 0.290055 0.773716
Si Si3 0.078769 0.218547 0.885409
Si Si4 0.129468 0.788558 0.434284
Si Si5 0.352437 0.378385 0.291594
Si Si6 0.778993 0.099222 0.511560
Si Si7 0.760875 0.836646 0.329781
Si Si8 0.081287 0.365646 0.172140
O O1 0.316081 0.439896 0.579316
O O2 0.391125 0.260514 0.465366
O O3 0.323037 0.180635 0.695889
O O4 0.681891 0.863237 0.763129
O O5 0.905855 0.102903 0.737929
O O6 0.732812 0.363273 0.824041
O O7 0.473436 0.619586 0.602795
O O8 0.764235 0.079855 0.918375
O O9 0.205090 0.081474 0.814209
O O10 0.830627 0.471237 0.801214
O O11 0.073307 0.363284 0.858234
O O12 0.222665 0.786597 0.473341
O O13 0.901362 0.007776 0.421046
O O14 0.587383 0.090333 0.325460
O O15 0.907331 0.806138 0.694168
O O16 0.000000 0.500000 0.500000
O O17 0.000000 0.500000 0.000000
#
# Coordination Sequence:
#
# PCOD8023523 Si02
#       8
#     2   2   2   2   2   2   2   2
#     4  11  22  43  69  99 132 181 216 276 331 398
#     4  11  25  42  69  94 137 173 221 275 335 390
#     4  12  26  43  66 104 134 174 224 276 333 393
#     4  10  23  41  69  92 131 176 227 262 327 398
#     4  11  23  43  68  95 135 178 224 269 331 400
#     4  11  23  44  68  96 129 182 222 267 330 401
#     4  12  24  40  71  99 139 176 222 273 336 397
#     4  12  25  44  72  99 136 175 224 276 333 395
#
# _framework density 20.983888
#
# number of rings (size 3 to 8) (size 9 to 14) (size 15 to 20)
#    0.000    0.750    5.000    3.375    3.500    1.500 
#    4.500    1.250    0.000    0.000    0.000    0.000 
#    0.000    0.000    0.000    0.000    0.000    0.000 
#
# Total GULP energy -198406.684689 kJ/mol
# GULP energy per Si atom -12400.417793 kJ/mol
# Density = 2.093613 g / cm^3
# Si number density = 20.983888 Si / 1000 Ang^3
#
#
#
# Elastic Constant Matrix: (Units=GPa)
#
#
# Indices 1 2 3 4 5 6 
#
# 1 104.5495 48.0488 28.6676 4.8662 -10.3247 8.9395
# 2 48.0488 140.6539 34.6189 7.3824 -15.6946 7.5854
# 3 28.6676 34.6189 103.3260 2.9607 -16.7705 3.8778
# 4 4.8662 7.3824 2.9607 19.9909 0.1151 -3.8750
# 5 -10.3247 -15.6946 -16.7705 0.1151 29.4361 1.7265
# 6 8.9395 7.5854 3.8778 -3.8750 1.7265 39.9907
#
#
#
# Elastic Compliance Matrix: (Units=1/GPa)
#
#
# Indices 1 2 3 4 5 6 
#
# 1 0.011990 -0.003255 -0.001852 -0.001864 0.001548 -0.002131
# 2 -0.003255 0.009135 -0.001563 -0.002606 0.002921 -0.001232
# 3 -0.001852 -0.001563 0.011607 -0.000861 0.005176 -0.000722
# 4 -0.001864 -0.002606 -0.000861 0.052795 -0.003106 0.006244
# 5 0.001548 0.002921 0.005176 -0.003106 0.039233 -0.003397
# 6 -0.002131 -0.001232 -0.000722 0.006244 -0.003397 0.026538
#
#
# Mechanical properties :
#
#
# Convention : Reuss Voigt Hill
#
# Bulk Modulus (GPa) = 51.56048 63.46668 57.51358
# Shear Modulus (GPa) = 29.22260 33.69648 31.45954
#
# Velocity S-wave (km/s) = 3.73583 4.01162 3.87618
# Velocity P-wave (km/s) = 6.57521 7.19504 6.89210
#
# Compressibility (1/GPa) = 0.01939470
#
# Stress axis : x y z
#
# Youngs Moduli (GPa) = 83.40156 109.46529 86.15290
#
# Poissons Ratio (x) = 0.35629 0.15952
# Poissons Ratio (y) = 0.27145 0.13463
# Poissons Ratio (z) = 0.15443 0.17106
#
# Static dielectric constant tensor:
#      x y z
#    x 3.083550 0.663780 -0.025380 
#    y 0.663780 3.774360 -0.000990 
#    z -0.025380 -0.000990 3.575700 
# 
# 
# High freq. dielectric constant tensor:
#      x y z
#    x 1.839230 0.005340 -0.010690 
#    y 0.005340 1.835450 0.000430 
#    z -0.010690 0.000430 1.802770 
# 
# From -- ./inp_files/452194.got.cif
#   From: 2010.06.25/outbox.cif.g09.slc.cpg/sg2_227_cif.got.tgz:452194.got - 2010.06.27 13:26:56.
