data_PCOD8023852
_publ_section_title
;
Structure prediction by ZEFSAII (Michael W. Deem and Ramdas Pophale) SiO2 
 PCOD8023852
Probable space group: P -1
;
_chemical_formula_sum "Si O2"
_cell_formula_units_Z 16
_cell_length_a 9.901084
_cell_length_b 22.501114
_cell_length_c 9.012363
_cell_angle_alpha 123.433501
_cell_angle_beta 83.145733
_cell_angle_gamma 138.013251
_cell_volume 957.559975
_symmetry_space_group_name_H-M "P -1"
_symmetry_group_IT_number 2
_symmetry_cell_setting 'triclinic'
loop_
_space_group_symop_operation_xyz
x,y,z
-x,-y,-z
loop_
_atom_site_type_symbol
_atom_site_label
_atom_site_fract_x
_atom_site_fract_y
_atom_site_fract_z
Si Si1 0.770998 0.724896 0.141956
Si Si2 0.938734 0.701081 0.856967
Si Si3 0.988082 0.724543 0.536091
Si Si4 0.321983 0.827144 0.206976
Si Si5 0.540063 0.483417 0.792030
Si Si6 0.192805 0.906458 0.530784
Si Si7 0.652833 0.398803 0.853587
Si Si8 0.850969 0.338351 0.741399
O O1 0.557353 0.690286 0.116977
O O2 0.957760 0.836799 0.388563
O O3 0.892708 0.760970 0.016361
O O4 0.653992 0.596858 0.037330
O O5 0.989960 0.731210 0.720407
O O6 0.703034 0.553544 0.717177
O O7 0.163074 0.759830 0.987386
O O8 0.725551 0.610902 0.347944
O O9 0.129125 0.853371 0.632020
O O10 0.136494 0.718084 0.460388
O O11 0.266041 0.871093 0.373640
O O12 0.262896 0.733276 0.184817
O O13 0.598437 0.945934 0.287253
O O14 0.568674 0.416263 0.759553
O O15 0.691796 0.335810 0.697777
O O16 0.884789 0.523187 0.076705
#
# Coordination Sequence:
#
# PCOD8023852 Si02
#       8
#     2   2   2   2   2   2   2   2
#     4   9  17  30  50  73  93 123 156 203 232 274
#     4   9  19  28  50  71 101 121 155 196 239 272
#     4  11  18  31  48  76  96 127 156 191 235 291
#     4   9  17  33  45  71  97 125 154 204 232 269
#     4  10  17  29  50  73  99 120 154 198 237 273
#     4   9  17  28  53  68  92 122 167 194 234 269
#     4  11  17  30  52  74  93 126 158 197 239 277
#     4  10  20  30  50  72  99 123 159 193 239 284
#
# _framework density 16.709137999999999
#
# number of rings (size 3 to 8) (size 9 to 14) (size 15 to 20)
#    0.750    1.500    3.750    1.500    0.000    0.500 
#    0.000    1.250    2.750    0.000    0.000    1.750 
#    0.000    0.000    0.000    0.000    0.000    0.000 
#
# Total GULP energy -198209.723226 kJ/mol
# GULP energy per Si atom -12388.107702 kJ/mol
# Density = 1.667111 g / cm^3
# Si number density = 16.709138 Si / 1000 Ang^3
#
#
#
# Elastic Constant Matrix: (Units=GPa)
#
#
# Indices 1 2 3 4 5 6 
#
# 1 100.0899 50.8448 40.6618 -5.4704 4.6832 7.1573
# 2 50.8448 88.7154 39.4205 -6.5241 9.7680 16.8997
# 3 40.6618 39.4205 48.3273 -11.6003 8.6201 7.4093
# 4 -5.4704 -6.5241 -11.6003 30.8455 6.0376 8.4202
# 5 4.6832 9.7680 8.6201 6.0376 15.0921 -0.2536
# 6 7.1573 16.8997 7.4093 8.4202 -0.2536 15.2912
#
#
#
# Elastic Compliance Matrix: (Units=1/GPa)
#
#
# Indices 1 2 3 4 5 6 
#
# 1 0.018660 -0.008901 -0.016149 -0.011665 0.014122 0.015585
# 2 -0.008901 0.027484 -0.001191 0.017903 -0.022111 -0.035857
# 3 -0.016149 -0.001191 0.059036 0.039254 -0.044348 -0.042082
# 4 -0.011665 0.017903 0.039254 0.083631 -0.065197 -0.080480
# 5 0.014122 -0.022111 -0.044348 -0.065197 0.128900 0.077354
# 6 0.015585 -0.035857 -0.042082 -0.080480 0.077354 0.163721
#
#
# Mechanical properties :
#
#
# Convention : Reuss Voigt Hill
#
# Bulk Modulus (GPa) = 18.97583 55.44298 37.20940
# Shear Modulus (GPa) = 9.06654 19.32614 14.19634
#
# Velocity S-wave (km/s) = 2.33192 3.40460 2.91798
# Velocity P-wave (km/s) = 4.31645 6.97914 5.80259
#
# Compressibility (1/GPa) = 0.05269862
#
# Stress axis : x y z
#
# Youngs Moduli (GPa) = 53.59043 36.38485 16.93893
#
# Poissons Ratio (x) = 0.32385 0.27354
# Poissons Ratio (y) = 0.47699 0.02018
# Poissons Ratio (z) = 0.86541 0.04335
#
# Static dielectric constant tensor:
#      x y z
#    x 3.227180 0.280390 0.133240 
#    y 0.280390 3.413130 0.186790 
#    z 0.133240 0.186790 2.832360 
# 
# 
# High freq. dielectric constant tensor:
#      x y z
#    x 1.626530 0.022640 0.018810 
#    y 0.022640 1.646350 0.006100 
#    z 0.018810 0.006100 1.605330 
# 
# From -- ./inp_files/222338.got.cif
#   From: 2010.06.25/outbox.cif.g09.slc.cpg/sg2_112_cif.got.tgz:222338.got - 2010.06.27 13:26:56.
