data_PCOD8023533
_publ_section_title
;
Structure prediction by ZEFSAII (Michael W. Deem and Ramdas Pophale) SiO2 
 PCOD8023533
Probable space group: P -1
;
_chemical_formula_sum "Si O2"
_cell_formula_units_Z 16
_cell_length_a 8.568860
_cell_length_b 20.557453
_cell_length_c 12.166475
_cell_angle_alpha 38.623377
_cell_angle_beta 109.605455
_cell_angle_gamma 138.393442
_cell_volume 710.724244
_symmetry_space_group_name_H-M "P -1"
_symmetry_group_IT_number 2
_symmetry_cell_setting 'triclinic'
loop_
_space_group_symop_operation_xyz
x,y,z
-x,-y,-z
loop_
_atom_site_type_symbol
_atom_site_label
_atom_site_fract_x
_atom_site_fract_y
_atom_site_fract_z
Si Si1 0.644803 0.463446 0.580548
Si Si2 0.440077 0.143124 0.933892
Si Si3 0.838495 0.178135 0.376612
Si Si4 0.863203 0.887492 0.505400
Si Si5 0.043439 0.350022 0.804736
Si Si6 0.820304 0.196899 0.597753
Si Si7 0.729292 0.985066 0.180011
Si Si8 0.699815 0.514700 0.077846
O O1 0.500000 0.500000 0.500000
O O2 0.416052 0.249274 0.836917
O O3 0.749062 0.487453 0.450202
O O4 0.913515 0.606378 0.539735
O O5 0.399818 0.125639 0.816684
O O6 0.769467 0.280210 0.861229
O O7 0.206182 0.941360 0.198696
O O8 0.875141 0.241028 0.424026
O O9 0.979570 0.137548 0.456382
O O10 0.500000 0.000000 0.500000
O O11 0.008946 0.345483 0.112964
O O12 0.911957 0.992615 0.278351
O O13 0.508693 0.695026 0.692829
O O14 0.000000 0.000000 0.500000
O O15 0.215670 0.412848 0.873502
O O16 0.947495 0.193097 0.929674
O O17 0.524119 0.100583 0.689269
O O18 0.500000 0.500000 0.000000
#
# Coordination Sequence:
#
# PCOD8023533 Si02
#       8
#     2   2   2   2   2   2   2   2
#     4  12  27  39  65 103 137 175 219 282 345 402
#     4  11  23  44  68  98 131 183 226 269 345 411
#     4  11  24  47  67  96 142 177 225 294 346 398
#     4  11  24  43  69 100 129 183 238 278 338 410
#     4  11  21  44  70  96 132 176 229 278 335 411
#     4  11  24  45  66 100 138 172 224 285 347 397
#     4  11  21  42  72  96 132 178 228 280 332 418
#     4  10  23  41  69  96 130 183 231 277 331 410
#
# _framework density 22.512248
#
# number of rings (size 3 to 8) (size 9 to 14) (size 15 to 20)
#    0.000    1.000    2.500    5.625    7.000    1.500 
#    2.250    1.250    0.000    0.000    0.000    0.000 
#    0.000    0.000    0.000    0.000    0.000    0.000 
#
# Total GULP energy -198396.990541 kJ/mol
# GULP energy per Si atom -12399.811909 kJ/mol
# Density = 2.246101 g / cm^3
# Si number density = 22.512248 Si / 1000 Ang^3
#
#
#
# Elastic Constant Matrix: (Units=GPa)
#
#
# Indices 1 2 3 4 5 6 
#
# 1 57.3805 29.3985 16.2047 -7.0661 13.9729 -5.5393
# 2 29.3985 161.5984 36.0264 8.4906 -3.0894 -12.6271
# 3 16.2047 36.0264 86.0259 -10.7709 4.4002 -14.0206
# 4 -7.0661 8.4906 -10.7709 39.9287 -6.1893 2.3166
# 5 13.9729 -3.0894 4.4002 -6.1893 43.4859 1.1668
# 6 -5.5393 -12.6271 -14.0206 2.3166 1.1668 37.2002
#
#
#
# Elastic Compliance Matrix: (Units=1/GPa)
#
#
# Indices 1 2 3 4 5 6 
#
# 1 0.022012 -0.003841 -0.001568 0.003158 -0.006775 0.001399
# 2 -0.003841 0.007783 -0.002796 -0.002904 0.001626 0.001146
# 3 -0.001568 -0.002796 0.014253 0.003823 -0.000700 0.003973
# 4 0.003158 -0.002904 0.003823 0.027667 0.002353 -0.000871
# 5 -0.006775 0.001626 -0.000700 0.002353 0.025739 -0.001674
# 6 0.001399 0.001146 0.003973 -0.000871 -0.001674 0.029083
#
#
# Mechanical properties :
#
#
# Convention : Reuss Voigt Hill
#
# Bulk Modulus (GPa) = 36.18180 52.02935 44.10557
# Shear Modulus (GPa) = 32.86000 39.01463 35.93732
#
# Velocity S-wave (km/s) = 3.82468 4.16750 3.99976
# Velocity P-wave (km/s) = 5.96751 6.80581 6.40040
#
# Compressibility (1/GPa) = 0.02763821
#
# Stress axis : x y z
#
# Youngs Moduli (GPa) = 45.42965 128.47699 70.16244
#
# Poissons Ratio (x) = 0.49349 0.11001
# Poissons Ratio (y) = 0.17450 0.19617
# Poissons Ratio (z) = 0.07123 0.35922
#
# Static dielectric constant tensor:
#      x y z
#    x 3.269910 -0.467070 0.702680 
#    y -0.467070 3.828280 0.221790 
#    z 0.702680 0.221790 4.663190 
# 
# 
# High freq. dielectric constant tensor:
#      x y z
#    x 1.870120 0.002500 0.007970 
#    y 0.002500 1.904260 -0.002220 
#    z 0.007970 -0.002220 1.896010 
# 
# From -- ./inp_files/352370.got.cif
#   From: 2010.06.25/outbox.cif.g09.slc.cpg/sg2_177_cif.got.tgz:352370.got - 2010.06.27 13:26:56.
