data_PCOD8023415
_publ_section_title
;
Structure prediction by ZEFSAII (Michael W. Deem and Ramdas Pophale) SiO2 
 PCOD8023415
Probable space group: P -1
;
_chemical_formula_sum "Si O2"
_cell_formula_units_Z 14
_cell_length_a 8.330698
_cell_length_b 11.546642
_cell_length_c 11.174275
_cell_angle_alpha 82.908125
_cell_angle_beta 98.543381
_cell_angle_gamma 141.703207
_cell_volume 658.702389
_symmetry_space_group_name_H-M "P -1"
_symmetry_group_IT_number 2
_symmetry_cell_setting 'triclinic'
loop_
_space_group_symop_operation_xyz
x,y,z
-x,-y,-z
loop_
_atom_site_type_symbol
_atom_site_label
_atom_site_fract_x
_atom_site_fract_y
_atom_site_fract_z
Si Si1 0.693711 0.451521 0.516512
Si Si2 0.732680 0.324338 0.188812
Si Si3 0.001210 0.261323 0.111200
Si Si4 0.285038 0.785471 0.539541
Si Si5 0.791727 0.983192 0.953119
Si Si6 0.567284 0.538663 0.699150
Si Si7 0.154408 0.358417 0.860752
O O1 0.688611 0.309057 0.535559
O O2 0.567154 0.423893 0.630071
O O3 0.516327 0.395698 0.394381
O O4 0.989291 0.667582 0.509188
O O5 0.662392 0.223629 0.317839
O O6 0.885740 0.531199 0.205267
O O7 0.899910 0.332055 0.125147
O O8 0.476666 0.218625 0.099183
O O9 0.144975 0.282204 0.237159
O O10 0.205533 0.391101 0.006341
O O11 0.767162 0.044110 0.067775
O O12 0.500000 0.000000 0.500000
O O13 0.895962 0.133454 0.843841
O O14 0.000000 0.000000 0.000000
O O15 0.375970 0.414582 0.805479
#
# Coordination Sequence:
#
# PCOD8023415 Si02
#       7
#     2   2   2   2   2   2   2
#     4  10  24  44  68  91 129 172 221 265 327 372
#     4  12  22  45  65  92 137 166 216 273 315 390
#     4  10  23  41  66  99 129 172 213 260 326 392
#     4  11  25  44  67  96 126 171 224 270 320 377
#     4  10  25  40  63  99 131 167 212 259 325 389
#     4  11  20  43  69  92 129 175 212 270 319 386
#     4  10  24  40  68  92 134 171 210 260 331 383
#
# _framework density 21.253907999999999
#
# number of rings (size 3 to 8) (size 9 to 14) (size 15 to 20)
#    0.857    0.571    2.857    2.143    4.000    0.000 
#    2.571    2.857    0.000    0.000    0.000    0.000 
#    0.000    0.000    0.000    0.000    0.000    0.000 
#
# Total GULP energy -173451.467712 kJ/mol
# GULP energy per Si atom -12389.390551 kJ/mol
# Density = 2.120553 g / cm^3
# Si number density = 21.253908 Si / 1000 Ang^3
#
#
#
# Elastic Constant Matrix: (Units=GPa)
#
#
# Indices 1 2 3 4 5 6 
#
# 1 132.3999 36.7425 44.5263 0.5379 -12.0209 -2.2437
# 2 36.7425 97.9354 25.9228 -12.5310 4.3619 -9.8361
# 3 44.5263 25.9228 106.8463 0.1373 -0.7499 3.7996
# 4 0.5379 -12.5310 0.1373 23.6267 5.1957 8.3507
# 5 -12.0209 4.3619 -0.7499 5.1957 45.8247 9.6459
# 6 -2.2437 -9.8361 3.7996 8.3507 9.6459 27.3825
#
#
#
# Elastic Compliance Matrix: (Units=1/GPa)
#
#
# Indices 1 2 3 4 5 6 
#
# 1 0.009877 -0.003342 -0.003269 -0.002585 0.003207 -0.000279
# 2 -0.003342 0.013439 -0.002052 0.006578 -0.003814 0.004176
# 3 -0.003269 -0.002052 0.011311 -0.000199 0.000080 -0.002542
# 4 -0.002585 0.006578 -0.000199 0.051047 -0.004620 -0.011761
# 5 0.003207 -0.003814 0.000080 -0.004620 0.025372 -0.008647
# 6 -0.000279 0.004176 -0.002542 -0.011761 -0.008647 0.044982
#
#
# Mechanical properties :
#
#
# Convention : Reuss Voigt Hill
#
# Bulk Modulus (GPa) = 57.80150 61.28495 59.54322
# Shear Modulus (GPa) = 27.91433 34.69943 31.30688
#
# Velocity S-wave (km/s) = 3.62798 4.04495 3.84212
# Velocity P-wave (km/s) = 6.69361 7.12129 6.91076
#
# Compressibility (1/GPa) = 0.01730059
#
# Stress axis : x y z
#
# Youngs Moduli (GPa) = 101.24819 74.41299 88.41198
#
# Poissons Ratio (x) = 0.24866 0.28906
# Poissons Ratio (y) = 0.33834 0.18138
# Poissons Ratio (z) = 0.33103 0.15266
#
# Static dielectric constant tensor:
#      x y z
#    x 3.935820 -0.081640 -0.145700 
#    y -0.081640 3.621470 0.210060 
#    z -0.145700 0.210060 3.870600 
# 
# 
# High freq. dielectric constant tensor:
#      x y z
#    x 1.845830 -0.009680 -0.007410 
#    y -0.009680 1.802210 0.017960 
#    z -0.007410 0.017960 1.836660 
# 
# From -- ./inp_files/387349.got.cif
#   From: 2010.06.25/outbox.cif.g09.slc.cpg/sg2_194_cif.got.tgz:387349.got - 2010.06.27 13:26:56.
