data_PCOD8023381
_publ_section_title
;
Structure prediction by ZEFSAII (Michael W. Deem and Ramdas Pophale) SiO2 
 PCOD8023381
Probable space group: P -1
;
_chemical_formula_sum "Si O2"
_cell_formula_units_Z 14
_cell_length_a 6.873251
_cell_length_b 21.619193
_cell_length_c 7.301807
_cell_angle_alpha 130.540217
_cell_angle_beta 59.648266
_cell_angle_gamma 133.460297
_cell_volume 595.158134
_symmetry_space_group_name_H-M "P -1"
_symmetry_group_IT_number 2
_symmetry_cell_setting 'triclinic'
loop_
_space_group_symop_operation_xyz
x,y,z
-x,-y,-z
loop_
_atom_site_type_symbol
_atom_site_label
_atom_site_fract_x
_atom_site_fract_y
_atom_site_fract_z
Si Si1 0.184452 0.974906 0.258580
Si Si2 0.516785 0.825732 0.651015
Si Si3 0.226894 0.813339 0.091608
Si Si4 0.249683 0.164675 0.079819
Si Si5 0.742319 0.483809 0.191933
Si Si6 0.624684 0.678194 0.212732
Si Si7 0.569506 0.625867 0.544181
O O1 0.262892 0.917287 0.245538
O O2 0.024853 0.913640 0.037631
O O3 0.449920 0.078462 0.271770
O O4 0.000000 0.000000 0.500000
O O5 0.528236 0.752775 0.360986
O O6 0.243985 0.774037 0.804490
O O7 0.767036 0.859076 0.739962
O O8 0.482697 0.829541 0.118293
O O9 0.949069 0.735690 0.173096
O O10 0.278333 0.267294 0.234251
O O11 0.762474 0.585267 0.382351
O O12 0.704002 0.444210 0.342393
O O13 0.479688 0.403394 0.048769
O O14 0.000000 0.500000 0.000000
O O15 0.494864 0.628205 0.373111
#
# Coordination Sequence:
#
# PCOD8023381 Si02
#       7
#     2   2   2   2   2   2   2
#     4  12  21  39  65  97 134 171 224 276 314 389
#     4   9  22  41  63  97 129 178 220 264 329 378
#     4  10  23  41  66  93 132 179 218 261 340 377
#     4   9  23  42  64  91 134 172 218 268 326 387
#     4  11  26  43  70 103 127 168 220 269 341 397
#     4  11  22  45  68  95 134 171 221 269 324 405
#     4  10  24  46  64  99 132 168 216 276 324 394
#
# _framework density 23.523161000000002
#
# number of rings (size 3 to 8) (size 9 to 14) (size 15 to 20)
#    0.857    0.857    1.429    2.143    2.000    4.571 
#    0.000    2.857    0.000    0.000    0.000    0.000 
#    0.000    0.000    0.000    0.000    0.000    0.000 
#
# Total GULP energy -173475.383321 kJ/mol
# GULP energy per Si atom -12391.098809 kJ/mol
# Density = 2.346962 g / cm^3
# Si number density = 23.523161 Si / 1000 Ang^3
#
#
#
# Elastic Constant Matrix: (Units=GPa)
#
#
# Indices 1 2 3 4 5 6 
#
# 1 55.4414 37.8932 30.1006 5.2736 -13.8642 -11.7182
# 2 37.8932 127.3306 43.7154 -6.2323 -14.2315 -15.9992
# 3 30.1006 43.7154 115.9495 8.4830 -28.1401 -7.5842
# 4 5.2736 -6.2323 8.4830 46.7520 -2.2689 -14.5097
# 5 -13.8642 -14.2315 -28.1401 -2.2689 32.9748 -1.4585
# 6 -11.7182 -15.9992 -7.5842 -14.5097 -1.4585 26.6810
#
#
#
# Elastic Compliance Matrix: (Units=1/GPa)
#
#
# Indices 1 2 3 4 5 6 
#
# 1 0.026502 -0.005218 -0.002686 -0.000409 0.006919 0.007902
# 2 -0.005218 0.011464 -0.002613 0.004639 0.001127 0.006424
# 3 -0.002686 -0.002613 0.012463 -0.001827 0.008264 0.000254
# 4 -0.000409 0.004639 -0.001827 0.027942 0.002965 0.017441
# 5 0.006919 0.001127 0.008264 0.002965 0.041418 0.009940
# 6 0.007902 0.006424 0.000254 0.017441 0.009940 0.054903
#
#
# Mechanical properties :
#
#
# Convention : Reuss Voigt Hill
#
# Bulk Modulus (GPa) = 34.02186 58.01554 46.01870
# Shear Modulus (GPa) = 24.32797 33.74905 29.03851
#
# Velocity S-wave (km/s) = 3.21941 3.79187 3.51731
# Velocity P-wave (km/s) = 5.32109 6.62478 6.00840
#
# Compressibility (1/GPa) = 0.02939287
#
# Stress axis : x y z
#
# Youngs Moduli (GPa) = 37.73355 87.23002 80.23821
#
# Poissons Ratio (x) = 0.45519 0.21555
# Poissons Ratio (y) = 0.19690 0.20968
# Poissons Ratio (z) = 0.10137 0.22795
#
# Static dielectric constant tensor:
#      x y z
#    x 3.845290 -0.315350 -0.233560 
#    y -0.315350 4.531840 0.132400 
#    z -0.233560 0.132400 4.466910 
# 
# 
# High freq. dielectric constant tensor:
#      x y z
#    x 1.893030 -0.019690 -0.022330 
#    y -0.019690 1.929240 -0.001640 
#    z -0.022330 -0.001640 1.947100 
# 
# From -- ./inp_files/225051.got.cif
#   From: 2010.06.25/outbox.cif.g09.slc.cpg/sg2_113_cif.got.tgz:225051.got - 2010.06.27 13:26:56.
