data_PCOD8023021
_publ_section_title
;
Structure prediction by ZEFSAII (Michael W. Deem and Ramdas Pophale) SiO2 
 PCOD8023021
Probable space group: P -1
;
_chemical_formula_sum "Si O2"
_cell_formula_units_Z 14
_cell_length_a 8.673720
_cell_length_b 20.914596
_cell_length_c 11.724545
_cell_angle_alpha 28.715769
_cell_angle_beta 61.562676
_cell_angle_gamma 43.907989
_cell_volume 626.619247
_symmetry_space_group_name_H-M "P -1"
_symmetry_group_IT_number 2
_symmetry_cell_setting 'triclinic'
loop_
_space_group_symop_operation_xyz
x,y,z
-x,-y,-z
loop_
_atom_site_type_symbol
_atom_site_label
_atom_site_fract_x
_atom_site_fract_y
_atom_site_fract_z
Si Si1 0.761577 0.354588 0.738745
Si Si2 0.335535 0.685474 0.842224
Si Si3 0.578141 0.127346 0.642936
Si Si4 0.931491 0.746896 0.002808
Si Si5 0.294644 0.557871 0.707298
Si Si6 0.070831 0.955472 0.177637
Si Si7 0.015013 0.557505 0.643300
O O1 0.456885 0.523487 0.592310
O O2 0.888954 0.363580 0.576990
O O3 0.854819 0.382401 0.774603
O O4 0.848304 0.151006 0.020223
O O5 0.299079 0.839135 0.543949
O O6 0.055684 0.778312 0.816038
O O7 0.500000 0.500000 0.000000
O O8 0.498644 0.615993 0.008526
O O9 0.678204 0.101589 0.777167
O O10 0.281662 0.295131 0.486770
O O11 0.675059 0.934131 0.861748
O O12 0.862103 0.643281 0.134056
O O13 0.121432 0.773358 0.478958
O O14 0.112369 0.534063 0.774149
O O15 0.000000 0.000000 0.000000
#
# Coordination Sequence:
#
# PCOD8023021 Si02
#       7
#     2   2   2   2   2   2   2
#     4  10  23  41  62  89 128 169 207 249 312 378
#     4  11  20  45  70  85 122 169 212 255 304 376
#     4  11  24  42  65  94 125 164 213 253 311 369
#     4  10  23  40  65  92 121 166 208 256 311 370
#     4  11  24  41  65  93 125 166 211 255 309 369
#     4  11  22  40  64  92 121 166 209 252 306 369
#     4  12  23  39  61  97 129 164 199 264 315 360
#
# _framework density 22.342113999999999
#
# number of rings (size 3 to 8) (size 9 to 14) (size 15 to 20)
#    0.000    1.143    4.286    2.143    0.000    5.143 
#    0.000    0.714    0.000    0.000    0.000    0.000 
#    0.000    0.000    0.000    0.000    0.000    0.000 
#
# Total GULP energy -173455.399351 kJ/mol
# GULP energy per Si atom -12389.671382 kJ/mol
# Density = 2.229126 g / cm^3
# Si number density = 22.342114 Si / 1000 Ang^3
#
#
#
# Elastic Constant Matrix: (Units=GPa)
#
#
# Indices 1 2 3 4 5 6 
#
# 1 115.6154 25.3371 33.4945 -23.3213 -16.2629 32.7823
# 2 25.3371 62.6622 12.6020 -4.8928 -5.4451 10.3983
# 3 33.4945 12.6020 79.4451 -13.7791 -13.7661 9.5943
# 4 -23.3213 -4.8928 -13.7791 31.0646 11.3024 -10.0378
# 5 -16.2629 -5.4451 -13.7661 11.3024 27.9737 -6.5918
# 6 32.7823 10.3983 9.5943 -10.0378 -6.5918 25.0495
#
#
#
# Elastic Compliance Matrix: (Units=1/GPa)
#
#
# Indices 1 2 3 4 5 6 
#
# 1 0.015873 -0.002577 -0.003313 0.004196 0.001549 -0.016345
# 2 -0.002577 0.017885 -0.001351 -0.001289 0.000943 -0.003802
# 3 -0.003313 -0.001351 0.015315 0.002901 0.004500 0.001378
# 4 0.004196 -0.001289 0.002901 0.043436 -0.012006 0.008179
# 5 0.001549 0.000943 0.004500 -0.012006 0.044550 0.002770
# 6 -0.016345 -0.003802 0.001378 0.008179 0.002770 0.066369
#
#
# Mechanical properties :
#
#
# Convention : Reuss Voigt Hill
#
# Bulk Modulus (GPa) = 28.91109 44.51000 36.71054
# Shear Modulus (GPa) = 21.79214 29.23684 25.51449
#
# Velocity S-wave (km/s) = 3.12650 3.62138 3.38300
# Velocity P-wave (km/s) = 5.09918 6.11973 5.63262
#
# Compressibility (1/GPa) = 0.03458881
#
# Stress axis : x y z
#
# Youngs Moduli (GPa) = 63.00094 55.91379 65.29522
#
# Poissons Ratio (x) = 0.14410 0.21634
# Poissons Ratio (y) = 0.16237 0.08824
# Poissons Ratio (z) = 0.20874 0.07556
#
# Static dielectric constant tensor:
#      x y z
#    x 4.146160 0.235730 -0.030140 
#    y 0.235730 3.909790 -0.524120 
#    z -0.030140 -0.524120 2.470960 
# 
# 
# High freq. dielectric constant tensor:
#      x y z
#    x 1.885620 0.022620 0.008470 
#    y 0.022620 1.871420 -0.017380 
#    z 0.008470 -0.017380 1.874090 
# 
# From -- ./inp_files/261129.got.cif
#   From: 2010.06.25/outbox.cif.g09.slc.cpg/sg2_131_cif.got.tgz:261129.got - 2010.06.27 13:26:56.
