data_PCOD8023749
_publ_section_title
;
Structure prediction by ZEFSAII (Michael W. Deem and Ramdas Pophale) SiO2 
 PCOD8023749
Probable space group: P -1
;
_chemical_formula_sum "Si O2"
_cell_formula_units_Z 16
_cell_length_a 16.400959
_cell_length_b 4.975049
_cell_length_c 27.316088
_cell_angle_alpha 93.429465
_cell_angle_beta 162.192193
_cell_angle_gamma 88.354494
_cell_volume 677.506964
_symmetry_space_group_name_H-M "P -1"
_symmetry_group_IT_number 2
_symmetry_cell_setting 'triclinic'
loop_
_space_group_symop_operation_xyz
x,y,z
-x,-y,-z
loop_
_atom_site_type_symbol
_atom_site_label
_atom_site_fract_x
_atom_site_fract_y
_atom_site_fract_z
Si Si1 0.972475 0.651990 0.689255
Si Si2 0.067716 0.278827 0.998242
Si Si3 0.542639 0.943153 0.722345
Si Si4 0.367361 0.864204 0.518310
Si Si5 0.774659 0.547141 0.266227
Si Si6 0.980404 0.908759 0.543654
Si Si7 0.932686 0.141749 0.815449
Si Si8 0.172417 0.631384 0.907288
O O1 0.734851 0.423364 0.566862
O O2 0.141446 0.550297 0.739980
O O3 0.166072 0.708529 0.847178
O O4 0.859196 0.929572 0.612029
O O5 0.377695 0.225753 0.186215
O O6 0.000000 0.500000 0.000000
O O7 0.835404 0.041089 0.870975
O O8 0.041877 0.328891 0.926241
O O9 0.336990 0.155463 0.624998
O O10 0.413639 0.779231 0.600506
O O11 0.628597 0.008374 0.642814
O O12 0.868978 0.354901 0.361520
O O13 0.456774 0.543019 0.085610
O O14 0.903428 0.848161 0.352640
O O15 0.000000 0.000000 0.500000
O O16 0.958141 0.368441 0.790082
O O17 0.114036 0.895633 0.907789
#
# Coordination Sequence:
#
# PCOD8023749 Si02
#       8
#     2   2   2   2   2   2   2   2
#     4  12  24  47  73 101 130 191 237 290 342 409
#     4  10  25  40  73  99 137 186 222 272 344 433
#     4  10  23  42  65 103 135 176 229 272 346 408
#     4  11  24  43  75 100 142 174 237 285 348 418
#     4  12  26  49  70 101 138 189 237 279 341 414
#     4  12  27  44  71 105 138 181 224 290 346 406
#     4  11  27  45  68 108 142 181 223 293 355 409
#     4  12  28  46  70  99 145 181 235 295 346 401
#
# _framework density 23.615991999999999
#
# number of rings (size 3 to 8) (size 9 to 14) (size 15 to 20)
#    0.000    0.750    2.500    3.000   14.000    3.000 
#    0.000    3.750    0.000    0.000    0.000    0.000 
#    0.000    0.000    0.000    0.000    0.000    0.000 
#
# Total GULP energy -198269.643395 kJ/mol
# GULP energy per Si atom -12391.852712 kJ/mol
# Density = 2.356224 g / cm^3
# Si number density = 23.615992 Si / 1000 Ang^3
#
#
#
# Elastic Constant Matrix: (Units=GPa)
#
#
# Indices 1 2 3 4 5 6 
#
# 1 84.6346 -2.0935 27.8222 -5.8782 -3.4228 -3.7252
# 2 -2.0935 86.3549 13.7552 -5.4988 -3.5962 -0.4946
# 3 27.8222 13.7552 101.5573 -19.5455 -8.6128 -7.4849
# 4 -5.8782 -5.4988 -19.5455 28.5834 0.2418 2.6299
# 5 -3.4228 -3.5962 -8.6128 0.2418 28.9755 -1.6792
# 6 -3.7252 -0.4946 -7.4849 2.6299 -1.6792 32.5816
#
#
#
# Elastic Compliance Matrix: (Units=1/GPa)
#
#
# Indices 1 2 3 4 5 6 
#
# 1 0.013083 0.000935 -0.003530 0.000387 0.000650 0.000701
# 2 0.000935 0.011983 -0.001510 0.001466 0.001130 -0.000118
# 3 -0.003530 -0.001510 0.012913 0.007593 0.003292 0.002097
# 4 0.000387 0.001466 0.007593 0.040647 0.002067 -0.001364
# 5 0.000650 0.001130 0.003292 0.002067 0.035837 0.002528
# 6 0.000701 -0.000118 0.002097 -0.001364 0.002528 0.031493
#
#
# Mechanical properties :
#
#
# Convention : Reuss Voigt Hill
#
# Bulk Modulus (GPa) = 33.59025 39.05717 36.32371
# Shear Modulus (GPa) = 30.47151 33.56563 32.01857
#
# Velocity S-wave (km/s) = 3.59596 3.77412 3.68611
# Velocity P-wave (km/s) = 5.61210 5.96375 5.79059
#
# Compressibility (1/GPa) = 0.02977054
#
# Stress axis : x y z
#
# Youngs Moduli (GPa) = 76.43556 83.45124 77.44033
#
# Poissons Ratio (x) = -0.07803 0.27333
# Poissons Ratio (y) = -0.07147 0.11692
# Poissons Ratio (z) = 0.26978 0.12600
#
# Static dielectric constant tensor:
#      x y z
#    x 4.387030 -0.010640 -0.179700 
#    y -0.010640 4.191110 -0.218210 
#    z -0.179700 -0.218210 4.208880 
# 
# 
# High freq. dielectric constant tensor:
#      x y z
#    x 1.939000 -0.002900 -0.007590 
#    y -0.002900 1.927610 -0.007020 
#    z -0.007590 -0.007020 1.947320 
# 
# From -- ./inp_files/611312.got.cif
#   From: 2010.06.25/outbox.cif.g09.slc.cpg/sg2_306_cif.got.tgz:611312.got - 2010.06.27 13:26:56.
