data_PCOD8023232
_publ_section_title
;
Structure prediction by ZEFSAII (Michael W. Deem and Ramdas Pophale) SiO2 
 PCOD8023232
Probable space group: P -1
;
_chemical_formula_sum "Si O2"
_cell_formula_units_Z 14
_cell_length_a 6.601828
_cell_length_b 11.279809
_cell_length_c 14.559330
_cell_angle_alpha 49.502106
_cell_angle_beta 116.417266
_cell_angle_gamma 129.494791
_cell_volume 635.277819
_symmetry_space_group_name_H-M "P -1"
_symmetry_group_IT_number 2
_symmetry_cell_setting 'triclinic'
loop_
_space_group_symop_operation_xyz
x,y,z
-x,-y,-z
loop_
_atom_site_type_symbol
_atom_site_label
_atom_site_fract_x
_atom_site_fract_y
_atom_site_fract_z
Si Si1 0.733002 0.971215 0.598732
Si Si2 0.562313 0.294093 0.785965
Si Si3 0.436062 0.837174 0.779675
Si Si4 0.290527 0.171175 0.979387
Si Si5 0.510313 0.372648 0.381376
Si Si6 0.842919 0.527845 0.202644
Si Si7 0.687718 0.861326 0.375663
O O1 0.693995 0.936992 0.717004
O O2 0.715009 0.796787 0.634744
O O3 0.500000 0.000000 0.500000
O O4 0.031926 0.131145 0.559313
O O5 0.434698 0.180459 0.908990
O O6 0.582345 0.486069 0.693618
O O7 0.390244 0.176014 0.726392
O O8 0.851845 0.328034 0.816105
O O9 0.245042 0.632844 0.808039
O O10 0.280429 0.946014 0.688191
O O11 0.538341 0.847370 0.897464
O O12 0.300374 0.359826 0.904749
O O13 0.000000 0.000000 0.000000
O O14 0.775932 0.453706 0.332206
O O15 0.533078 0.297823 0.523723
#
# Coordination Sequence:
#
# PCOD8023232 Si02
#       7
#     2   2   2   2   2   2   2
#     4  11  23  41  65  95 127 166 214 263 312 377
#     4  11  25  42  64  95 131 172 209 264 315 382
#     4  11  24  41  68  95 128 170 212 266 315 376
#     4  11  24  45  66  93 129 167 218 266 316 376
#     4  10  23  41  63  93 132 167 209 263 310 382
#     4  10  24  43  66  95 129 167 217 262 319 370
#     4  12  24  39  66  98 129 173 211 253 327 377
#
# _framework density 22.037602
#
# number of rings (size 3 to 8) (size 9 to 14) (size 15 to 20)
#    0.000    1.143    1.429    3.857    4.000    5.714 
#    0.000    0.000    0.000    0.000    0.000    0.000 
#    0.000    0.000    0.000    0.000    0.000    0.000 
#
# Total GULP energy -173574.856731 kJ/mol
# GULP energy per Si atom -12398.204052 kJ/mol
# Density = 2.198744 g / cm^3
# Si number density = 22.037602 Si / 1000 Ang^3
#
#
#
# Elastic Constant Matrix: (Units=GPa)
#
#
# Indices 1 2 3 4 5 6 
#
# 1 103.2374 38.3651 47.4854 9.8824 -16.2373 13.9499
# 2 38.3651 67.9638 26.4065 3.1149 -8.0045 6.9989
# 3 47.4854 26.4065 117.7211 6.5950 -28.3370 4.4034
# 4 9.8824 3.1149 6.5950 34.7173 -6.5900 -0.7849
# 5 -16.2373 -8.0045 -28.3370 -6.5900 45.3425 -3.7819
# 6 13.9499 6.9989 4.4034 -0.7849 -3.7819 44.2712
#
#
#
# Elastic Compliance Matrix: (Units=1/GPa)
#
#
# Indices 1 2 3 4 5 6 
#
# 1 0.014677 -0.006146 -0.004030 -0.002747 0.000984 -0.003217
# 2 -0.006146 0.018940 -0.001750 0.000368 0.000029 -0.000875
# 3 -0.004030 -0.001750 0.011856 0.000164 0.005753 0.000862
# 4 -0.002747 0.000368 0.000164 0.030265 0.003720 0.001645
# 5 0.000984 0.000029 0.005753 0.003720 0.026670 0.001457
# 6 -0.003217 -0.000875 0.000862 0.001645 0.001457 0.023808
#
#
# Mechanical properties :
#
#
# Convention : Reuss Voigt Hill
#
# Bulk Modulus (GPa) = 46.25362 57.04847 51.65105
# Shear Modulus (GPa) = 31.79155 36.64389 34.21772
#
# Velocity S-wave (km/s) = 3.80228 4.08216 3.94470
# Velocity P-wave (km/s) = 6.34906 6.93987 6.65103
#
# Compressibility (1/GPa) = 0.02161993
#
# Stress axis : x y z
#
# Youngs Moduli (GPa) = 68.13601 52.79934 84.34233
#
# Poissons Ratio (x) = 0.32449 0.33993
# Poissons Ratio (y) = 0.41875 0.14762
# Poissons Ratio (z) = 0.27461 0.09241
#
# Static dielectric constant tensor:
#      x y z
#    x 4.147170 -0.191100 -0.259340 
#    y -0.191100 3.988790 -0.133810 
#    z -0.259340 -0.133810 4.042040 
# 
# 
# High freq. dielectric constant tensor:
#      x y z
#    x 1.880530 -0.016810 -0.013390 
#    y -0.016810 1.863280 -0.010340 
#    z -0.013390 -0.010340 1.866750 
# 
# From -- ./inp_files/25828.got.cif
#   From: 2010.06.25/outbox.cif.g09.slc.cpg/sg2_13_cif.got.tgz:25828.got - 2010.06.27 13:26:56.
