data_PCOD8023814
_publ_section_title
;
Structure prediction by ZEFSAII (Michael W. Deem and Ramdas Pophale) SiO2 
 PCOD8023814
Probable space group: P -1
;
_chemical_formula_sum "Si O2"
_cell_formula_units_Z 14
_cell_length_a 5.912788
_cell_length_b 15.148817
_cell_length_c 14.963745
_cell_angle_alpha 151.563996
_cell_angle_beta 90.015971
_cell_angle_gamma 96.080043
_cell_volume 622.169351
_symmetry_space_group_name_H-M "P -1"
_symmetry_group_IT_number 2
_symmetry_cell_setting 'triclinic'
loop_
_space_group_symop_operation_xyz
x,y,z
-x,-y,-z
loop_
_atom_site_type_symbol
_atom_site_label
_atom_site_fract_x
_atom_site_fract_y
_atom_site_fract_z
Si Si1 0.197492 0.173720 0.847656
Si Si2 0.384319 0.229715 0.338699
Si Si3 0.530468 0.170067 0.994864
Si Si4 0.733707 0.604719 0.677909
Si Si5 0.834250 0.796228 0.497139
Si Si6 0.989628 0.435676 0.192341
Si Si7 0.280939 0.102848 0.593405
O O1 0.348867 0.089483 0.844718
O O2 0.316439 0.216230 0.788282
O O3 0.959326 0.015937 0.701017
O O4 0.156420 0.371408 0.062319
O O5 0.622310 0.384382 0.458311
O O6 0.195457 0.282133 0.315155
O O7 0.328457 0.263629 0.471412
O O8 0.397911 0.013845 0.126758
O O9 0.442544 0.286371 0.176728
O O10 0.731901 0.314122 0.070231
O O11 0.951795 0.608986 0.745216
O O12 0.015026 0.658778 0.372253
O O13 0.683126 0.765709 0.378233
O O14 0.500000 0.000000 0.500000
O O15 0.000000 0.000000 0.500000
#
# Coordination Sequence:
#
# PCOD8023814 Si02
#       7
#     2   2   2   2   2   2   2
#     4  10  23  42  66  90 129 170 211 271 328 392
#     4  11  21  40  64  87 127 171 213 269 333 381
#     4  11  21  41  62  89 128 165 216 268 327 391
#     4  10  24  40  59  93 125 167 220 269 320 397
#     4  11  22  42  67  93 127 172 214 270 330 391
#     4  11  23  40  63  94 128 165 219 266 325 394
#     4  10  23  43  71 101 132 172 225 270 329 401
#
# _framework density 22.501913999999999
#
# number of rings (size 3 to 8) (size 9 to 14) (size 15 to 20)
#    0.000    1.429    2.857    2.143    2.000    2.857 
#    2.571    0.714    0.000    0.000    0.000    0.000 
#    0.000    0.000    0.000    0.000    0.000    0.000 
#
# Total GULP energy -173449.949196 kJ/mol
# GULP energy per Si atom -12389.282085 kJ/mol
# Density = 2.245070 g / cm^3
# Si number density = 22.501914 Si / 1000 Ang^3
#
#
#
# Elastic Constant Matrix: (Units=GPa)
#
#
# Indices 1 2 3 4 5 6 
#
# 1 80.4952 30.7260 11.1025 0.8465 -15.0013 -13.2008
# 2 30.7260 148.0606 26.1794 -24.9941 -16.8142 -18.1281
# 3 11.1025 26.1794 79.5165 0.8540 -16.5696 -11.0706
# 4 0.8465 -24.9941 0.8540 27.1989 -5.3232 -3.3288
# 5 -15.0013 -16.8142 -16.5696 -5.3232 28.5722 4.8297
# 6 -13.2008 -18.1281 -11.0706 -3.3288 4.8297 30.3360
#
#
#
# Elastic Compliance Matrix: (Units=1/GPa)
#
#
# Indices 1 2 3 4 5 6 
#
# 1 0.015015 -0.002083 0.000475 -0.000669 0.006061 0.004424
# 2 -0.002083 0.010718 -0.001439 0.011722 0.005658 0.005359
# 3 0.000475 -0.001439 0.015062 0.000113 0.007541 0.003656
# 4 -0.000669 0.011722 0.000113 0.051635 0.014525 0.010109
# 5 0.006061 0.005658 0.007541 0.014525 0.048133 0.002701
# 6 0.004424 0.005359 0.003656 0.010109 0.002701 0.040105
#
#
# Mechanical properties :
#
#
# Convention : Reuss Voigt Hill
#
# Bulk Modulus (GPa) = 28.81616 49.34313 39.07964
# Shear Modulus (GPa) = 25.21061 33.22571 29.21816
#
# Velocity S-wave (km/s) = 3.35083 3.84679 3.60734
# Velocity P-wave (km/s) = 5.27301 6.45805 5.89538
#
# Compressibility (1/GPa) = 0.03470275
#
# Stress axis : x y z
#
# Youngs Moduli (GPa) = 66.60155 93.29996 66.39008
#
# Poissons Ratio (x) = 0.19433 -0.03156
# Poissons Ratio (y) = 0.13872 0.09552
# Poissons Ratio (z) = -0.03166 0.13424
#
# Static dielectric constant tensor:
#      x y z
#    x 4.002400 -0.270050 -0.116130 
#    y -0.270050 4.509210 -0.329950 
#    z -0.116130 -0.329950 3.969560 
# 
# 
# High freq. dielectric constant tensor:
#      x y z
#    x 1.874070 -0.015770 -0.010880 
#    y -0.015770 1.896400 -0.020650 
#    z -0.010880 -0.020650 1.884050 
# 
# From -- ./inp_files/32695.got.cif
#   From: 2010.06.25/outbox.cif.g09.slc.cpg/sg2_17_cif.got.tgz:32695.got - 2010.06.27 13:26:56.
