data_PCOD8023946
_publ_section_title
;
Structure prediction by ZEFSAII (Michael W. Deem and Ramdas Pophale) SiO2 
 PCOD8023946
Probable space group: P -1
;
_chemical_formula_sum "Si O2"
_cell_formula_units_Z 16
_cell_length_a 11.787713
_cell_length_b 11.072016
_cell_length_c 9.796349
_cell_angle_alpha 86.359210
_cell_angle_beta 125.348346
_cell_angle_gamma 128.529938
_cell_volume 722.117929
_symmetry_space_group_name_H-M "P -1"
_symmetry_group_IT_number 2
_symmetry_cell_setting 'triclinic'
loop_
_space_group_symop_operation_xyz
x,y,z
-x,-y,-z
loop_
_atom_site_type_symbol
_atom_site_label
_atom_site_fract_x
_atom_site_fract_y
_atom_site_fract_z
Si Si1 0.912612 0.995378 0.801802
Si Si2 0.093245 0.356161 0.830794
Si Si3 0.333435 0.796116 0.406893
Si Si4 0.209585 0.628919 0.065461
Si Si5 0.568252 0.818048 0.764344
Si Si6 0.369885 0.478987 0.790471
Si Si7 0.946906 0.858139 0.574587
Si Si8 0.291154 0.910438 0.928433
O O1 0.693278 0.900272 0.702704
O O2 0.900249 0.883130 0.688762
O O3 0.063943 0.195149 0.844282
O O4 0.000000 0.000000 0.000000
O O5 0.884101 0.287667 0.715023
O O6 0.185652 0.433927 0.738960
O O7 0.248431 0.521886 0.030066
O O8 0.365421 0.745577 0.288770
O O9 0.356708 0.731801 0.565380
O O10 0.500000 0.000000 0.500000
O O11 0.202727 0.732344 0.942127
O O12 0.000000 0.500000 0.000000
O O13 0.531260 0.664523 0.814654
O O14 0.668925 0.968048 0.933787
O O15 0.262381 0.327432 0.614074
O O16 0.500000 0.500000 0.000000
O O17 0.129787 0.873329 0.714806
O O18 0.000000 0.000000 0.500000
O O19 0.500000 0.000000 0.000000
#
# Coordination Sequence:
#
# PCOD8023946 Si02
#       8
#     2   2   2   2   2   2   2   2
#     4  12  24  46  76 101 146 197 250 301 364 450
#     4  11  24  45  71 100 146 194 235 311 368 433
#     4  11  22  41  70 108 142 183 243 304 370 443
#     4  10  23  42  68 102 143 185 236 299 364 438
#     4  12  25  43  72 107 146 186 247 308 367 437
#     4  12  28  48  67 106 149 190 252 308 369 445
#     4  12  28  49  79 107 150 204 251 302 388 447
#     4  12  26  46  74 110 148 193 247 307 375 449
#
# _framework density 22.157046000000001
#
# number of rings (size 3 to 8) (size 9 to 14) (size 15 to 20)
#    0.000    0.500    5.000    3.000    5.250    3.000 
#    0.000    0.000    0.000    0.000    0.000    0.000 
#    0.000    0.000    0.000    0.000    0.000    0.000 
#
# Total GULP energy -198210.162074 kJ/mol
# GULP energy per Si atom -12388.135130 kJ/mol
# Density = 2.210662 g / cm^3
# Si number density = 22.157046 Si / 1000 Ang^3
#
#
#
# Elastic Constant Matrix: (Units=GPa)
#
#
# Indices 1 2 3 4 5 6 
#
# 1 102.1639 33.6136 43.4611 13.8168 -20.0977 5.6653
# 2 33.6136 128.7233 36.4907 4.2050 -8.0346 -0.2870
# 3 43.4611 36.4907 152.6989 3.7434 -10.7051 -15.3615
# 4 13.8168 4.2050 3.7434 42.0126 -12.2056 -6.9858
# 5 -20.0977 -8.0346 -10.7051 -12.2056 43.6547 1.8735
# 6 5.6653 -0.2870 -15.3615 -6.9858 1.8735 34.7618
#
#
#
# Elastic Compliance Matrix: (Units=1/GPa)
#
#
# Indices 1 2 3 4 5 6 
#
# 1 0.013518 -0.002197 -0.003410 -0.003472 0.004212 -0.004653
# 2 -0.002197 0.008776 -0.001478 0.000011 0.000254 -0.000234
# 3 -0.003410 -0.001478 0.008316 0.001387 0.000393 0.004476
# 4 -0.003472 0.000011 0.001387 0.027689 0.006210 0.006409
# 5 0.004212 0.000254 0.000393 0.006210 0.026756 -0.000705
# 6 -0.004653 -0.000234 0.004476 0.006409 -0.000705 0.032827
#
#
# Mechanical properties :
#
#
# Convention : Reuss Voigt Hill
#
# Bulk Modulus (GPa) = 60.82666 67.85743 64.34205
# Shear Modulus (GPa) = 36.35464 42.08721 39.22093
#
# Velocity S-wave (km/s) = 4.05504 4.36305 4.21186
# Velocity P-wave (km/s) = 7.03111 7.48824 7.26327
#
# Compressibility (1/GPa) = 0.01644016
#
# Stress axis : x y z
#
# Youngs Moduli (GPa) = 73.97593 113.94275 120.24374
#
# Poissons Ratio (x) = 0.25037 0.41004
# Poissons Ratio (y) = 0.16255 0.17771
# Poissons Ratio (z) = 0.25226 0.16839
#
# Static dielectric constant tensor:
#      x y z
#    x 3.251560 -0.698050 0.278330 
#    y -0.698050 3.358220 -0.355760 
#    z 0.278330 -0.355760 3.283570 
# 
# 
# High freq. dielectric constant tensor:
#      x y z
#    x 1.875910 0.002720 -0.007350 
#    y 0.002720 1.881640 0.005660 
#    z -0.007350 0.005660 1.886530 
# 
# From -- ./inp_files/262598.got.cif
#   From: 2010.06.25/outbox.cif.g09.slc.cpg/sg2_132_cif.got.tgz:262598.got - 2010.06.27 13:26:56.
