data_PCOD8023038
_publ_section_title
;
Structure prediction by ZEFSAII (Michael W. Deem and Ramdas Pophale) SiO2 
 PCOD8023038
Probable space group: P -1
;
_chemical_formula_sum "Si O2"
_cell_formula_units_Z 14
_cell_length_a 29.169024
_cell_length_b 13.265292
_cell_length_c 10.046335
_cell_angle_alpha 146.749380
_cell_angle_beta 23.528155
_cell_angle_gamma 155.190732
_cell_volume 650.945927
_symmetry_space_group_name_H-M "P -1"
_symmetry_group_IT_number 2
_symmetry_cell_setting 'triclinic'
loop_
_space_group_symop_operation_xyz
x,y,z
-x,-y,-z
loop_
_atom_site_type_symbol
_atom_site_label
_atom_site_fract_x
_atom_site_fract_y
_atom_site_fract_z
Si Si1 0.816861 0.562966 0.288001
Si Si2 0.831677 0.054778 0.249233
Si Si3 0.272890 0.857942 0.763330
Si Si4 0.671603 0.226059 0.765539
Si Si5 0.162482 0.098493 0.208814
Si Si6 0.382301 0.436923 0.632151
Si Si7 0.546110 0.386297 0.653598
O O1 0.799588 0.342667 0.151409
O O2 0.756161 0.651369 0.654233
O O3 0.712617 0.480264 0.344594
O O4 0.989407 0.774219 0.020427
O O5 0.779357 0.211954 0.555781
O O6 0.744419 0.852693 0.373603
O O7 0.764905 0.885023 0.106492
O O8 0.289218 0.755819 0.473458
O O9 0.433143 0.098608 0.651745
O O10 0.160390 0.914181 0.103441
O O11 0.703565 0.467375 0.988354
O O12 0.500000 0.000000 0.000000
O O13 0.000000 0.000000 0.500000
O O14 0.500000 0.500000 0.500000
O O15 0.466692 0.553359 0.396236
O O16 0.500000 0.500000 0.000000
#
# Coordination Sequence:
#
# PCOD8023038 Si02
#       7
#     2   2   2   2   2   2   2
#     4  11  24  41  63  96 136 173 216 269 334 388
#     4  10  23  40  65  98 130 172 216 268 325 389
#     4  11  22  41  68  95 131 174 220 270 327 384
#     4  11  21  40  68  99 126 165 230 267 316 391
#     4   9  19  38  63  99 132 166 215 265 323 387
#     4  12  24  44  72  95 130 172 219 272 327 389
#     4  12  26  44  67  97 131 173 223 271 329 394
#
# _framework density 21.507162999999998
#
# number of rings (size 3 to 8) (size 9 to 14) (size 15 to 20)
#    0.000    1.143    4.286    2.143    2.000    8.000 
#    2.571    0.714    0.000    0.000    0.000    0.000 
#    0.000    0.000    0.000    0.000    0.000    0.000 
#
# Total GULP energy -173575.682005 kJ/mol
# GULP energy per Si atom -12398.263000 kJ/mol
# Density = 2.145821 g / cm^3
# Si number density = 21.507163 Si / 1000 Ang^3
#
#
#
# Elastic Constant Matrix: (Units=GPa)
#
#
# Indices 1 2 3 4 5 6 
#
# 1 107.4625 39.7179 36.1783 -1.7137 -22.4936 2.4532
# 2 39.7179 122.2292 30.5932 -3.4578 -6.3116 -9.4910
# 3 36.1783 30.5932 91.1419 13.7607 -21.0426 0.4153
# 4 -1.7137 -3.4578 13.7607 41.8029 1.9926 -5.3237
# 5 -22.4936 -6.3116 -21.0426 1.9926 34.7455 -0.5042
# 6 2.4532 -9.4910 0.4153 -5.3237 -0.5042 33.0710
#
#
#
# Elastic Compliance Matrix: (Units=1/GPa)
#
#
# Indices 1 2 3 4 5 6 
#
# 1 0.012703 -0.003265 -0.002658 0.000631 0.005961 -0.001654
# 2 -0.003265 0.010217 -0.002983 0.002246 -0.002142 0.003541
# 3 -0.002658 -0.002983 0.015707 -0.006107 0.007575 -0.001724
# 4 0.000631 0.002246 -0.006107 0.026982 -0.004358 0.004952
# 5 0.005961 -0.002142 0.007575 -0.004358 0.037069 -0.001288
# 6 -0.001654 0.003541 -0.001724 0.004952 -0.001288 0.032176
#
#
# Mechanical properties :
#
#
# Convention : Reuss Voigt Hill
#
# Bulk Modulus (GPa) = 48.04404 59.31248 53.67826
# Shear Modulus (GPa) = 31.32751 36.21347 33.77049
#
# Velocity S-wave (km/s) = 3.82069 4.10785 3.96687
# Velocity P-wave (km/s) = 6.46921 7.08076 6.78188
#
# Compressibility (1/GPa) = 0.02081424
#
# Stress axis : x y z
#
# Youngs Moduli (GPa) = 78.72421 97.87694 63.66564
#
# Poissons Ratio (x) = 0.31959 0.16921
# Poissons Ratio (y) = 0.25705 0.18993
# Poissons Ratio (z) = 0.20923 0.29199
#
# Static dielectric constant tensor:
#      x y z
#    x 4.379840 0.302150 0.010190 
#    y 0.302150 4.160750 0.339970 
#    z 0.010190 0.339970 4.195770 
# 
# 
# High freq. dielectric constant tensor:
#      x y z
#    x 1.834850 -0.003890 -0.020600 
#    y -0.003890 1.845310 0.007600 
#    z -0.020600 0.007600 1.845250 
# 
# From -- ./inp_files/357072.got.cif
#   From: 2010.06.25/outbox.cif.g09.slc.cpg/sg2_179_cif.got.tgz:357072.got - 2010.06.27 13:26:56.
