data_PCOD8023470
_publ_section_title
;
Structure prediction by ZEFSAII (Michael W. Deem and Ramdas Pophale) SiO2 
 PCOD8023470
Probable space group: P -1
;
_chemical_formula_sum "Si O2"
_cell_formula_units_Z 14
_cell_length_a 9.220274
_cell_length_b 9.237938
_cell_length_c 11.702770
_cell_angle_alpha 55.079052
_cell_angle_beta 128.791545
_cell_angle_gamma 135.369843
_cell_volume 531.029787
_symmetry_space_group_name_H-M "P -1"
_symmetry_group_IT_number 2
_symmetry_cell_setting 'triclinic'
loop_
_space_group_symop_operation_xyz
x,y,z
-x,-y,-z
loop_
_atom_site_type_symbol
_atom_site_label
_atom_site_fract_x
_atom_site_fract_y
_atom_site_fract_z
Si Si1 0.902691 0.204400 0.403948
Si Si2 0.989873 0.062296 0.288123
Si Si3 0.407852 0.119965 0.963865
Si Si4 0.363587 0.238146 0.246823
Si Si5 0.189793 0.840317 0.197738
Si Si6 0.373628 0.580273 0.478195
Si Si7 0.307786 0.561656 0.867608
O O1 0.721905 0.266508 0.295167
O O2 0.847517 0.996618 0.540581
O O3 0.136637 0.384099 0.489876
O O4 0.926160 0.181500 0.290831
O O5 0.757584 0.862231 0.212766
O O6 0.143801 0.228283 0.188840
O O7 0.610320 0.350131 0.002981
O O8 0.500000 0.000000 0.000000
O O9 0.249856 0.981914 0.052497
O O10 0.524978 0.310376 0.401159
O O11 0.481964 0.405272 0.121124
O O12 0.263927 0.993397 0.274745
O O13 0.330868 0.732740 0.311916
O O14 0.919625 0.668709 0.143747
O O15 0.500000 0.500000 0.500000
#
# Coordination Sequence:
#
# PCOD8023470 Si02
#       7
#     2   2   2   2   2   2   2
#     4  10  23  41  68 102 137 172 234 285 334 407
#     4  11  24  42  68 104 139 176 232 287 335 409
#     4  11  24  45  72  99 140 186 227 280 350 406
#     4  11  25  42  73 100 143 182 224 288 349 397
#     4  10  26  44  68 102 141 181 231 278 343 422
#     4  11  23  41  68 107 136 177 233 285 340 402
#     4  10  24  46  68 101 136 184 229 278 346 409
#
# _framework density 26.363871
#
# number of rings (size 3 to 8) (size 9 to 14) (size 15 to 20)
#    0.000    1.429    2.857    0.429   10.000    4.000 
#    2.571    1.429    0.000    0.000    0.000    0.000 
#    0.000    0.000    0.000    0.000    0.000    0.000 
#
# Total GULP energy -173493.168846 kJ/mol
# GULP energy per Si atom -12392.369203 kJ/mol
# Density = 2.630387 g / cm^3
# Si number density = 26.363871 Si / 1000 Ang^3
#
#
#
# Elastic Constant Matrix: (Units=GPa)
#
#
# Indices 1 2 3 4 5 6 
#
# 1 109.5647 43.9458 26.1553 23.7216 -22.2731 -7.9910
# 2 43.9458 143.6103 45.3396 42.2574 -14.9287 -8.4588
# 3 26.1553 45.3396 77.7924 40.9390 -3.2267 -11.2847
# 4 23.7216 42.2574 40.9390 58.3116 2.9308 5.3627
# 5 -22.2731 -14.9287 -3.2267 2.9308 32.2645 0.7342
# 6 -7.9910 -8.4588 -11.2847 5.3627 0.7342 35.9905
#
#
#
# Elastic Compliance Matrix: (Units=1/GPa)
#
#
# Indices 1 2 3 4 5 6 
#
# 1 0.012685 -0.001376 -0.000197 -0.004723 0.008462 0.002962
# 2 -0.001376 0.010315 -0.001863 -0.006031 0.004131 0.002349
# 3 -0.000197 -0.001863 0.024240 -0.016601 0.002717 0.009537
# 4 -0.004723 -0.006031 -0.016601 0.036827 -0.010762 -0.012939
# 5 0.008462 0.004131 0.002717 -0.010762 0.039894 0.004491
# 6 0.002962 0.002349 0.009537 -0.012939 0.004491 0.033821
#
#
# Mechanical properties :
#
#
# Convention : Reuss Voigt Hill
#
# Bulk Modulus (GPa) = 24.77266 62.42766 43.60016
# Shear Modulus (GPa) = 28.07271 39.68177 33.87724
#
# Velocity S-wave (km/s) = 3.26669 3.88384 3.58856
# Velocity P-wave (km/s) = 4.86264 6.62140 5.80897
#
# Compressibility (1/GPa) = 0.04036709
#
# Stress axis : x y z
#
# Youngs Moduli (GPa) = 78.83591 96.94712 41.25492
#
# Poissons Ratio (x) = 0.13336 0.00812
# Poissons Ratio (y) = 0.10844 0.07688
# Poissons Ratio (z) = 0.01552 0.18066
#
# Static dielectric constant tensor:
#      x y z
#    x 5.013540 -0.065080 0.058900 
#    y -0.065080 4.966020 0.286270 
#    z 0.058900 0.286270 5.149970 
# 
# 
# High freq. dielectric constant tensor:
#      x y z
#    x 2.066180 0.001230 0.007950 
#    y 0.001230 2.065130 0.020380 
#    z 0.007950 0.020380 2.068060 
# 
# From -- ./inp_files/381816.got.cif
#   From: 2010.06.25/outbox.cif.g09.slc.cpg/sg2_191_cif.got.tgz:381816.got - 2010.06.27 13:26:56.
