data_PCOD8023016
_publ_section_title
;
Structure prediction by ZEFSAII (Michael W. Deem and Ramdas Pophale) SiO2 
 PCOD8023016
Probable space group: P -1
;
_chemical_formula_sum "Si O2"
_cell_formula_units_Z 16
_cell_length_a 17.700600
_cell_length_b 5.276233
_cell_length_c 16.317128
_cell_angle_alpha 67.563534
_cell_angle_beta 33.444628
_cell_angle_gamma 59.075323
_cell_volume 716.881336
_symmetry_space_group_name_H-M "P -1"
_symmetry_group_IT_number 2
_symmetry_cell_setting 'triclinic'
loop_
_space_group_symop_operation_xyz
x,y,z
-x,-y,-z
loop_
_atom_site_type_symbol
_atom_site_label
_atom_site_fract_x
_atom_site_fract_y
_atom_site_fract_z
Si Si1 0.298454 0.621975 0.946700
Si Si2 0.143718 0.298757 0.035137
Si Si3 0.422297 0.350771 0.027753
Si Si4 0.867118 0.183213 0.535724
Si Si5 0.651127 0.482697 0.263435
Si Si6 0.838490 0.436015 0.359747
Si Si7 0.822289 0.633539 0.642822
Si Si8 0.331816 0.877512 0.552210
O O1 0.376791 0.631275 0.787293
O O2 0.202952 0.413974 0.048364
O O3 0.422956 0.476552 0.920731
O O4 0.193571 0.946452 0.031949
O O5 0.965226 0.440200 0.181634
O O6 0.209678 0.410520 0.882334
O O7 0.250926 0.438798 0.200713
O O8 0.500000 0.500000 0.000000
O O9 0.500000 0.000000 0.000000
O O10 0.918190 0.257163 0.391862
O O11 0.769133 0.493064 0.630492
O O12 0.766238 0.989480 0.637858
O O13 0.000000 0.000000 0.500000
O O14 0.506638 0.760310 0.389164
O O15 0.693270 0.212619 0.321860
O O16 0.743943 0.268230 0.425353
O O17 0.732751 0.768837 0.438212
O O18 0.000000 0.500000 0.500000
#
# Coordination Sequence:
#
# PCOD8023016 Si02
#       8
#     2   2   2   2   2   2   2   2
#     4  10  24  43  71  92 136 178 229 261 344 413
#     4  10  24  43  72  93 134 178 225 265 338 402
#     4  12  26  43  66  99 134 173 226 282 328 386
#     4  10  23  40  65  94 135 174 218 267 339 384
#     4   9  26  46  72  95 138 187 211 270 356 411
#     4  12  26  42  69 106 133 172 230 292 317 393
#     4  10  23  40  65  89 127 173 219 264 321 395
#     4  11  26  44  71 102 139 167 228 281 339 398
#
# _framework density 22.318895999999999
#
# number of rings (size 3 to 8) (size 9 to 14) (size 15 to 20)
#    0.750    0.750    0.000    3.000   10.500    5.000 
#    0.000    0.000    0.000    0.000    0.000    0.000 
#    0.000    0.000    0.000    0.000    0.000    0.000 
#
# Total GULP energy -198287.016237 kJ/mol
# GULP energy per Si atom -12392.938515 kJ/mol
# Density = 2.226810 g / cm^3
# Si number density = 22.318896 Si / 1000 Ang^3
#
#
#
# Elastic Constant Matrix: (Units=GPa)
#
#
# Indices 1 2 3 4 5 6 
#
# 1 103.9609 65.4546 30.2369 -5.9319 26.9669 7.5221
# 2 65.4546 129.3477 22.7309 2.9283 17.8826 28.2429
# 3 30.2369 22.7309 104.4924 -10.4166 10.5826 -7.5549
# 4 -5.9319 2.9283 -10.4166 26.9686 -1.9978 6.4317
# 5 26.9669 17.8826 10.5826 -1.9978 27.6703 -2.6582
# 6 7.5221 28.2429 -7.5549 6.4317 -2.6582 53.2752
#
#
#
# Elastic Compliance Matrix: (Units=1/GPa)
#
#
# Indices 1 2 3 4 5 6 
#
# 1 0.018007 -0.007158 -0.002149 0.003030 -0.011884 -0.000011
# 2 -0.007158 0.013178 -0.001266 -0.002201 -0.001790 -0.005979
# 3 -0.002149 -0.001266 0.011042 0.003367 -0.000867 0.002091
# 4 0.003030 -0.002201 0.003367 0.040135 -0.000271 -0.003642
# 5 -0.011884 -0.001790 -0.000867 -0.000271 0.049672 0.005015
# 6 -0.000011 -0.005979 0.002091 -0.003642 0.005015 0.022928
#
#
# Mechanical properties :
#
#
# Convention : Reuss Voigt Hill
#
# Bulk Modulus (GPa) = 47.43312 63.84951 55.64132
# Shear Modulus (GPa) = 27.30239 36.20807 31.75523
#
# Velocity S-wave (km/s) = 3.50134 4.03216 3.77609
# Velocity P-wave (km/s) = 6.13551 7.09561 6.63295
#
# Compressibility (1/GPa) = 0.02108231
#
# Stress axis : x y z
#
# Youngs Moduli (GPa) = 55.53468 75.88180 90.56472
#
# Poissons Ratio (x) = 0.54313 0.19460
# Poissons Ratio (y) = 0.39750 0.11465
# Poissons Ratio (z) = 0.11933 0.09606
#
# Static dielectric constant tensor:
#      x y z
#    x 6.070360 2.837120 0.203830 
#    y 2.837120 7.326130 0.027740 
#    z 0.203830 0.027740 4.049510 
# 
# 
# High freq. dielectric constant tensor:
#      x y z
#    x 1.869590 0.022830 0.013140 
#    y 0.022830 1.887300 -0.002200 
#    z 0.013140 -0.002200 1.878820 
# 
# From -- ./inp_files/576766.got.cif
#   From: 2010.06.25/outbox.cif.g09.slc.cpg/sg2_289_cif.got.tgz:576766.got - 2010.06.27 13:26:56.
