data_PCOD8023354
_publ_section_title
;
Structure prediction by ZEFSAII (Michael W. Deem and Ramdas Pophale) SiO2 
 PCOD8023354
Probable space group: P -1
;
_chemical_formula_sum "Si O2"
_cell_formula_units_Z 16
_cell_length_a 13.271917
_cell_length_b 13.598082
_cell_length_c 13.749923
_cell_angle_alpha 156.087445
_cell_angle_beta 43.126357
_cell_angle_gamma 137.072441
_cell_volume 668.414373
_symmetry_space_group_name_H-M "P -1"
_symmetry_group_IT_number 2
_symmetry_cell_setting 'triclinic'
loop_
_space_group_symop_operation_xyz
x,y,z
-x,-y,-z
loop_
_atom_site_type_symbol
_atom_site_label
_atom_site_fract_x
_atom_site_fract_y
_atom_site_fract_z
Si Si1 0.354872 0.191921 0.545401
Si Si2 0.410192 0.366638 0.146363
Si Si3 0.576502 0.174075 0.692205
Si Si4 0.967991 0.769649 0.238136
Si Si5 0.083192 0.219933 0.229420
Si Si6 0.552656 0.055722 0.122432
Si Si7 0.882020 0.515113 0.738254
Si Si8 0.113025 0.788063 0.955848
O O1 0.470269 0.374192 0.698318
O O2 0.207273 0.294312 0.724438
O O3 0.321444 0.943857 0.410520
O O4 0.427326 0.165011 0.365085
O O5 0.243455 0.424246 0.319209
O O6 0.439094 0.239895 0.908999
O O7 0.433880 0.203095 0.074429
O O8 0.700380 0.422594 0.795182
O O9 0.500000 0.000000 0.500000
O O10 0.070097 0.880713 0.174369
O O11 0.000000 0.000000 0.500000
O O12 0.000000 0.500000 0.000000
O O13 0.076904 0.221161 0.115405
O O14 0.937566 0.302901 0.447077
O O15 0.112966 0.978913 0.041629
O O16 0.500000 0.000000 0.000000
O O17 0.716993 0.255695 0.194127
O O18 0.979702 0.549675 0.801318
#
# Coordination Sequence:
#
# PCOD8023354 Si02
#       8
#     2   2   2   2   2   2   2   2
#     4  11  24  44  70  98 144 182 237 301 358 436
#     4  10  23  42  67  96 133 176 232 286 355 426
#     4  11  25  42  68 101 139 182 233 290 363 435
#     4  12  30  48  75 106 146 195 252 306 370 434
#     4  10  23  41  66 101 137 176 230 288 361 431
#     4  10  23  43  67  99 134 177 236 292 362 422
#     4  11  23  41  68  98 139 180 232 283 365 429
#     4  11  24  43  71  98 142 181 239 296 360 433
#
# _framework density 23.937248
#
# number of rings (size 3 to 8) (size 9 to 14) (size 15 to 20)
#    0.000    1.250    0.000    4.125    8.750    9.500 
#    0.000    0.000    0.000    0.000    0.000    0.000 
#    0.000    0.000    0.000    0.000    0.000    0.000 
#
# Total GULP energy -198270.463845 kJ/mol
# GULP energy per Si atom -12391.903990 kJ/mol
# Density = 2.388277 g / cm^3
# Si number density = 23.937248 Si / 1000 Ang^3
#
#
#
# Elastic Constant Matrix: (Units=GPa)
#
#
# Indices 1 2 3 4 5 6 
#
# 1 123.2561 53.9736 33.1380 -12.6345 5.9072 -3.6964
# 2 53.9736 113.6810 20.7868 -16.5111 4.1725 -3.4874
# 3 33.1380 20.7868 67.3285 -8.3068 0.9350 -21.7166
# 4 -12.6345 -16.5111 -8.3068 29.5960 6.0881 7.2983
# 5 5.9072 4.1725 0.9350 6.0881 49.2384 -11.4824
# 6 -3.6964 -3.4874 -21.7166 7.2983 -11.4824 33.4400
#
#
#
# Elastic Compliance Matrix: (Units=1/GPa)
#
#
# Indices 1 2 3 4 5 6 
#
# 1 0.011647 -0.004225 -0.005352 0.002526 -0.002165 -0.003923
# 2 -0.004225 0.011827 -0.001519 0.005146 -0.001539 -0.001872
# 3 -0.005352 -0.001519 0.022824 -0.001503 0.004219 0.015849
# 4 0.002526 0.005146 -0.001503 0.042186 -0.008817 -0.012395
# 5 -0.002165 -0.001539 0.004219 -0.008817 0.024680 0.012739
# 6 -0.003923 -0.001872 0.015849 -0.012395 0.012739 0.046647
#
#
# Mechanical properties :
#
#
# Convention : Reuss Voigt Hill
#
# Bulk Modulus (GPa) = 41.48532 57.78470 49.63501
# Shear Modulus (GPa) = 26.31027 35.54604 30.92816
#
# Velocity S-wave (km/s) = 3.31892 3.85771 3.59841
# Velocity P-wave (km/s) = 5.66175 6.63589 6.16808
#
# Compressibility (1/GPa) = 0.02410491
#
# Stress axis : x y z
#
# Youngs Moduli (GPa) = 85.85638 84.55243 43.81400
#
# Poissons Ratio (x) = 0.35727 0.23449
# Poissons Ratio (y) = 0.36278 0.06657
# Poissons Ratio (z) = 0.45950 0.12846
#
# Static dielectric constant tensor:
#      x y z
#    x 5.010600 -0.083500 -0.560670 
#    y -0.083500 4.627200 0.103980 
#    z -0.560670 0.103980 4.758180 
# 
# 
# High freq. dielectric constant tensor:
#      x y z
#    x 1.970720 0.001390 0.002450 
#    y 0.001390 1.964190 -0.009740 
#    z 0.002450 -0.009740 1.928780 
# 
# From -- ./inp_files/534668.got.cif
#   From: 2010.06.25/outbox.cif.g09.slc.cpg/sg2_268_cif.got.tgz:534668.got - 2010.06.27 13:26:56.
