data_PCOD8023060
_publ_section_title
;
Structure prediction by ZEFSAII (Michael W. Deem and Ramdas Pophale) SiO2 
 PCOD8023060
Probable space group: P -1
;
_chemical_formula_sum "Si O2"
_cell_formula_units_Z 16
_cell_length_a 18.171556
_cell_length_b 15.893276
_cell_length_c 11.983370
_cell_angle_alpha 49.471369
_cell_angle_beta 149.489184
_cell_angle_gamma 152.125740
_cell_volume 724.765596
_symmetry_space_group_name_H-M "P -1"
_symmetry_group_IT_number 2
_symmetry_cell_setting 'triclinic'
loop_
_space_group_symop_operation_xyz
x,y,z
-x,-y,-z
loop_
_atom_site_type_symbol
_atom_site_label
_atom_site_fract_x
_atom_site_fract_y
_atom_site_fract_z
Si Si1 0.160984 0.372540 0.018235
Si Si2 0.905057 0.108990 0.282627
Si Si3 0.444264 0.425317 0.826414
Si Si4 0.619512 0.747163 0.895767
Si Si5 0.582518 0.954450 0.567356
Si Si6 0.122676 0.148877 0.314090
Si Si7 0.231486 0.735166 0.079392
Si Si8 0.445977 0.744463 0.150677
O O1 0.430973 0.535612 0.158970
O O2 0.190171 0.313564 0.214868
O O3 0.168638 0.506599 0.953371
O O4 0.901394 0.173957 0.778002
O O5 0.124391 0.232596 0.560179
O O6 0.966306 0.062897 0.301808
O O7 0.611263 0.898768 0.129421
O O8 0.910321 0.237457 0.135319
O O9 0.573123 0.627932 0.841914
O O10 0.517893 0.386618 0.054770
O O11 0.498703 0.786824 0.663976
O O12 0.934126 0.963789 0.140045
O O13 0.446773 0.874233 0.339496
O O14 0.500000 0.000000 0.500000
O O15 0.388820 0.248240 0.582102
O O16 0.382681 0.802313 0.103983
O O17 0.000000 0.500000 0.000000
#
# Coordination Sequence:
#
# PCOD8023060 Si02
#       8
#     2   2   2   2   2   2   2   2
#     4  11  25  39  69  98 132 172 227 275 337 391
#     4  12  24  45  68  98 139 177 222 279 337 403
#     4  11  23  41  66 104 130 173 221 287 338 393
#     4  10  23  40  66  94 134 169 220 276 338 390
#     4  11  25  47  66  93 137 181 222 271 341 411
#     4  11  22  40  67  98 133 171 224 277 330 398
#     4  12  27  44  70  99 136 180 224 276 335 403
#     4  12  24  42  66 102 133 176 227 272 339 399
#
# _framework density 22.076104000000001
#
# number of rings (size 3 to 8) (size 9 to 14) (size 15 to 20)
#    0.000    0.750    2.500    5.625    5.250    1.000 
#    0.000    3.750    0.000    0.000    0.000    0.000 
#    0.000    0.000    0.000    0.000    0.000    0.000 
#
# Total GULP energy -198436.320411 kJ/mol
# GULP energy per Si atom -12402.270026 kJ/mol
# Density = 2.202586 g / cm^3
# Si number density = 22.076104 Si / 1000 Ang^3
#
#
#
# Elastic Constant Matrix: (Units=GPa)
#
#
# Indices 1 2 3 4 5 6 
#
# 1 76.4614 9.8554 17.7762 1.8549 -3.4221 -7.0903
# 2 9.8554 102.2611 19.5909 -0.7139 -5.8987 -12.4207
# 3 17.7762 19.5909 80.4164 -5.0204 -8.2166 -8.6813
# 4 1.8549 -0.7139 -5.0204 35.5811 -2.1564 -1.3575
# 5 -3.4221 -5.8987 -8.2166 -2.1564 31.9603 3.1902
# 6 -7.0903 -12.4207 -8.6813 -1.3575 3.1902 42.9966
#
#
#
# Elastic Compliance Matrix: (Units=1/GPa)
#
#
# Indices 1 2 3 4 5 6 
#
# 1 0.013993 -0.000611 -0.002803 -0.001053 0.000444 0.001499
# 2 -0.000611 0.010597 -0.002058 0.000116 0.001123 0.002465
# 3 -0.002803 -0.002058 0.014185 0.002349 0.002959 0.001662
# 4 -0.001053 0.000116 0.002349 0.028676 0.002341 0.001066
# 5 0.000444 0.001123 0.002959 0.002341 0.032597 -0.001349
# 6 0.001499 0.002465 0.001662 0.001066 -0.001349 0.024686
#
#
# Mechanical properties :
#
#
# Convention : Reuss Voigt Hill
#
# Bulk Modulus (GPa) = 35.93240 39.28710 37.60975
# Shear Modulus (GPa) = 34.49312 36.23536 35.36424
#
# Velocity S-wave (km/s) = 3.95709 4.05580 4.00675
# Velocity P-wave (km/s) = 6.09836 6.30615 6.20312
#
# Compressibility (1/GPa) = 0.02783004
#
# Stress axis : x y z
#
# Youngs Moduli (GPa) = 71.46256 94.36488 70.49836
#
# Poissons Ratio (x) = 0.05769 0.19760
# Poissons Ratio (y) = 0.04369 0.14511
# Poissons Ratio (z) = 0.20030 0.19424
#
# Static dielectric constant tensor:
#      x y z
#    x 3.929630 -0.166160 -0.107220 
#    y -0.166160 4.288960 0.129280 
#    z -0.107220 0.129280 4.094730 
# 
# 
# High freq. dielectric constant tensor:
#      x y z
#    x 1.862750 -0.009480 -0.011970 
#    y -0.009480 1.895070 0.003690 
#    z -0.011970 0.003690 1.858770 
# 
# From -- ./inp_files/209359.got.cif
#   From: 2010.06.25/outbox.cif.g09.slc.cpg/sg2_105_cif.got.tgz:209359.got - 2010.06.27 13:26:56.
