data_PCOD8023988
_publ_section_title
;
Structure prediction by ZEFSAII (Michael W. Deem and Ramdas Pophale) SiO2 
 PCOD8023988
Probable space group: P -1
;
_chemical_formula_sum "Si O2"
_cell_formula_units_Z 16
_cell_length_a 11.231232
_cell_length_b 17.913922
_cell_length_c 8.920073
_cell_angle_alpha 31.938712
_cell_angle_beta 53.042180
_cell_angle_gamma 53.845113
_cell_volume 745.022815
_symmetry_space_group_name_H-M "P -1"
_symmetry_group_IT_number 2
_symmetry_cell_setting 'triclinic'
loop_
_space_group_symop_operation_xyz
x,y,z
-x,-y,-z
loop_
_atom_site_type_symbol
_atom_site_label
_atom_site_fract_x
_atom_site_fract_y
_atom_site_fract_z
Si Si1 0.137070 0.177230 0.115525
Si Si2 0.262560 0.773098 0.344621
Si Si3 0.459593 0.164387 0.785530
Si Si4 0.913152 0.521723 0.261600
Si Si5 0.004608 0.011705 0.238806
Si Si6 0.762720 0.273989 0.886447
Si Si7 0.212598 0.470426 0.968247
Si Si8 0.514167 0.642536 0.835989
O O1 0.091053 0.094117 0.150388
O O2 0.097218 0.093646 0.433862
O O3 0.312886 0.188427 0.960302
O O4 0.052268 0.343641 0.898031
O O5 0.407534 0.785236 0.310970
O O6 0.317671 0.732041 0.203510
O O7 0.195663 0.643110 0.689722
O O8 0.133943 0.917625 0.198347
O O9 0.430147 0.249158 0.506419
O O10 0.500000 0.000000 0.000000
O O11 0.836332 0.416160 0.602445
O O12 0.801845 0.580675 0.105219
O O13 0.072727 0.431594 0.234917
O O14 0.891510 0.131580 0.030191
O O15 0.645939 0.280607 0.101255
O O16 0.368781 0.390615 0.058809
O O17 0.500000 0.500000 0.000000
#
# Coordination Sequence:
#
# PCOD8023988 Si02
#       8
#     2   2   2   2   2   2   2   2
#     4  11  24  41  69  96 132 177 217 274 331 395
#     4  11  23  47  69  94 141 177 216 279 337 394
#     4  12  25  44  65  99 134 177 221 267 335 394
#     4  10  23  42  68  98 130 172 225 275 325 395
#     4  11  24  45  69  97 136 177 222 274 334 395
#     4  11  27  43  69 102 131 179 224 272 338 394
#     4  10  23  43  67  98 134 174 218 276 338 380
#     4  12  26  44  68  98 138 175 221 277 328 402
#
# _framework density 21.475852
#
# number of rings (size 3 to 8) (size 9 to 14) (size 15 to 20)
#    0.000    1.000    3.750    1.875    7.000    1.500 
#    2.250    1.250    0.000    0.000    0.000    0.000 
#    0.000    0.000    0.000    0.000    0.000    0.000 
#
# Total GULP energy -198408.176799 kJ/mol
# GULP energy per Si atom -12400.511050 kJ/mol
# Density = 2.142697 g / cm^3
# Si number density = 21.475852 Si / 1000 Ang^3
#
#
#
# Elastic Constant Matrix: (Units=GPa)
#
#
# Indices 1 2 3 4 5 6 
#
# 1 70.0828 20.0894 20.5277 1.9927 -4.1729 -12.8575
# 2 20.0894 97.0240 35.4516 2.1270 -6.6251 -3.0650
# 3 20.5277 35.4516 95.4636 -9.3735 -8.6330 2.7813
# 4 1.9927 2.1270 -9.3735 38.2663 -5.8378 -5.0037
# 5 -4.1729 -6.6251 -8.6330 -5.8378 30.1387 -5.9292
# 6 -12.8575 -3.0650 2.7813 -5.0037 -5.9292 31.2974
#
#
#
# Elastic Compliance Matrix: (Units=1/GPa)
#
#
# Indices 1 2 3 4 5 6 
#
# 1 0.017284 -0.002084 -0.002944 -0.000116 0.002570 0.007626
# 2 -0.002084 0.012406 -0.004212 -0.001347 0.001114 0.000729
# 3 -0.002944 -0.004212 0.013367 0.003895 0.002929 -0.001632
# 4 -0.000116 -0.001347 0.003895 0.029039 0.007518 0.005541
# 5 0.002570 0.001114 0.002929 0.007518 0.037903 0.009287
# 6 0.007626 0.000729 -0.001632 0.005541 0.009287 0.037946
#
#
# Mechanical properties :
#
#
# Convention : Reuss Voigt Hill
#
# Bulk Modulus (GPa) = 40.68744 46.07865 43.38304
# Shear Modulus (GPa) = 28.63405 32.37393 30.50399
#
# Velocity S-wave (km/s) = 3.65542 3.88681 3.77289
# Velocity P-wave (km/s) = 6.06654 6.45335 6.26293
#
# Compressibility (1/GPa) = 0.02457761
#
# Stress axis : x y z
#
# Youngs Moduli (GPa) = 57.85705 80.60740 74.81038
#
# Poissons Ratio (x) = 0.16800 0.22023
# Poissons Ratio (y) = 0.12058 0.31507
# Poissons Ratio (z) = 0.17032 0.33949
#
# Static dielectric constant tensor:
#      x y z
#    x 3.709900 0.036890 -0.082340 
#    y 0.036890 3.745920 -0.134280 
#    z -0.082340 -0.134280 3.890960 
# 
# 
# High freq. dielectric constant tensor:
#      x y z
#    x 1.841210 0.002910 -0.010060 
#    y 0.002910 1.847960 -0.001950 
#    z -0.010060 -0.001950 1.848700 
# 
# From -- ./inp_files/184364.got.cif
#   From: 2010.06.25/outbox.cif.g09.slc.cpg/sg2_93_cif.got.tgz:184364.got - 2010.06.27 13:26:56.
