data_PCOD8023293
_publ_section_title
;
Structure prediction by ZEFSAII (Michael W. Deem and Ramdas Pophale) SiO2 
 PCOD8023293
Probable space group: P -1
;
_chemical_formula_sum "Si O2"
_cell_formula_units_Z 14
_cell_length_a 16.082144
_cell_length_b 8.770515
_cell_length_c 6.846358
_cell_angle_alpha 116.312183
_cell_angle_beta 55.710594
_cell_angle_gamma 119.388059
_cell_volume 676.251162
_symmetry_space_group_name_H-M "P -1"
_symmetry_group_IT_number 2
_symmetry_cell_setting 'triclinic'
loop_
_space_group_symop_operation_xyz
x,y,z
-x,-y,-z
loop_
_atom_site_type_symbol
_atom_site_label
_atom_site_fract_x
_atom_site_fract_y
_atom_site_fract_z
Si Si1 0.032743 0.511451 0.184085
Si Si2 0.759544 0.883002 0.481365
Si Si3 0.967492 0.205955 0.371867
Si Si4 0.189601 0.345159 0.029234
Si Si5 0.439585 0.014442 0.285838
Si Si6 0.517063 0.272445 0.671696
Si Si7 0.664678 0.641688 0.819603
O O1 0.031045 0.704963 0.367067
O O2 0.151212 0.496448 0.055050
O O3 0.946322 0.347955 0.323600
O O4 0.000000 0.500000 0.000000
O O5 0.678431 0.992338 0.618883
O O6 0.742836 0.790794 0.662321
O O7 0.880098 0.012692 0.376080
O O8 0.743193 0.733474 0.251481
O O9 0.083620 0.188363 0.161419
O O10 0.266396 0.429849 0.158065
O O11 0.499328 0.199265 0.430646
O O12 0.427667 0.845869 0.344713
O O13 0.500000 0.000000 0.000000
O O14 0.594035 0.478164 0.685965
O O15 0.406504 0.261132 0.914478
#
# Coordination Sequence:
#
# PCOD8023293 Si02
#       7
#     2   2   2   2   2   2   2
#     4   9  21  43  63  90 130 173 210 266 326 375
#     4  12  24  40  66  98 129 177 216 261 337 385
#     4   9  23  41  63  94 134 164 215 270 308 405
#     4  10  23  41  64  96 132 168 215 270 316 401
#     4  11  23  44  66  94 128 174 222 272 327 382
#     4  10  24  45  65  92 135 170 220 284 313 390
#     4  11  24  42  67  97 130 175 219 270 337 376
#
# _framework density 20.702369000000001
#
# number of rings (size 3 to 8) (size 9 to 14) (size 15 to 20)
#    0.857    0.857    2.857    0.429    4.000    3.429 
#    0.000    0.000    0.000    0.000    0.000    0.000 
#    0.000    0.000    0.000    0.000    0.000    0.000 
#
# Total GULP energy -173546.186365 kJ/mol
# GULP energy per Si atom -12396.156169 kJ/mol
# Density = 2.065525 g / cm^3
# Si number density = 20.702369 Si / 1000 Ang^3
#
#
#
# Elastic Constant Matrix: (Units=GPa)
#
#
# Indices 1 2 3 4 5 6 
#
# 1 102.3037 10.0885 41.4187 -2.0704 6.9998 -9.8965
# 2 10.0885 52.9460 25.1492 0.4814 9.5004 5.5046
# 3 41.4187 25.1492 133.7417 12.7002 9.1024 4.7864
# 4 -2.0704 0.4814 12.7002 22.8850 0.0949 -3.4555
# 5 6.9998 9.5004 9.1024 0.0949 43.3081 2.0537
# 6 -9.8965 5.5046 4.7864 -3.4555 2.0537 28.8443
#
#
#
# Elastic Compliance Matrix: (Units=1/GPa)
#
#
# Indices 1 2 3 4 5 6 
#
# 1 0.012259 -0.000758 -0.004182 0.004304 -0.001213 0.005647
# 2 -0.000758 0.021745 -0.003567 0.000950 -0.003737 -0.003438
# 3 -0.004182 -0.003567 0.010204 -0.006445 -0.000521 -0.003182
# 4 0.004304 0.000950 -0.006445 0.048885 -0.000047 0.008224
# 5 -0.001213 -0.003737 -0.000521 -0.000047 0.024280 -0.001351
# 6 0.005647 -0.003438 -0.003182 0.008224 -0.001351 0.038872
#
#
# Mechanical properties :
#
#
# Convention : Reuss Voigt Hill
#
# Bulk Modulus (GPa) = 36.77224 49.14491 42.95857
# Shear Modulus (GPa) = 27.42357 33.16315 30.29336
#
# Velocity S-wave (km/s) = 3.64353 4.00672 3.82943
# Velocity P-wave (km/s) = 5.95830 6.72275 6.35204
#
# Compressibility (1/GPa) = 0.02719443
#
# Stress axis : x y z
#
# Youngs Moduli (GPa) = 81.57183 45.98684 97.99633
#
# Poissons Ratio (x) = 0.03485 0.40984
# Poissons Ratio (y) = 0.06182 0.34957
# Poissons Ratio (z) = 0.34115 0.16404
#
# Static dielectric constant tensor:
#      x y z
#    x 3.643000 -0.071030 -0.026200 
#    y -0.071030 3.391650 0.145420 
#    z -0.026200 0.145420 3.904220 
# 
# 
# High freq. dielectric constant tensor:
#      x y z
#    x 1.808640 -0.005310 0.000340 
#    y -0.005310 1.782690 0.010020 
#    z 0.000340 0.010020 1.824490 
# 
# From -- ./inp_files/107471.got.cif
#   From: 2010.06.25/outbox.cif.g09.slc.cpg/sg2_54_cif.got.tgz:107471.got - 2010.06.27 13:26:56.
