data_PCOD8023219
_publ_section_title
;
Structure prediction by ZEFSAII (Michael W. Deem and Ramdas Pophale) SiO2 
 PCOD8023219
Probable space group: P -1
;
_chemical_formula_sum "Si O2"
_cell_formula_units_Z 14
_cell_length_a 14.811186
_cell_length_b 12.329887
_cell_length_c 21.371642
_cell_angle_alpha 151.747558
_cell_angle_beta 21.140405
_cell_angle_gamma 151.013209
_cell_volume 633.189951
_symmetry_space_group_name_H-M "P -1"
_symmetry_group_IT_number 2
_symmetry_cell_setting 'triclinic'
loop_
_space_group_symop_operation_xyz
x,y,z
-x,-y,-z
loop_
_atom_site_type_symbol
_atom_site_label
_atom_site_fract_x
_atom_site_fract_y
_atom_site_fract_z
Si Si1 0.423498 0.474663 0.965305
Si Si2 0.522929 0.132332 0.964951
Si Si3 0.114217 0.167057 0.452948
Si Si4 0.042050 0.152419 0.793020
Si Si5 0.172457 0.640390 0.727072
Si Si6 0.660399 0.079248 0.597379
Si Si7 0.009929 0.484497 0.084704
O O1 0.592142 0.320387 0.745754
O O2 0.500000 0.500000 0.000000
O O3 0.500773 0.744289 0.023833
O O4 0.114148 0.331761 0.085535
O O5 0.698904 0.346476 0.002541
O O6 0.639899 0.910506 0.770005
O O7 0.247258 0.030317 0.126770
O O8 0.216257 0.441388 0.550255
O O9 0.894823 0.129725 0.522063
O O10 0.000000 0.000000 0.500000
O O11 0.122325 0.383028 0.812317
O O12 0.251309 0.012373 0.571739
O O13 0.043718 0.240598 0.908684
O O14 0.178701 0.565925 0.758282
O O15 0.398510 0.889508 0.697873
#
# Coordination Sequence:
#
# PCOD8023219 Si02
#       7
#     2   2   2   2   2   2   2
#     4  11  23  47  68  97 132 176 224 274 332 390
#     4  11  24  43  67  96 139 173 216 279 332 384
#     4  12  22  40  68 103 128 170 228 278 326 384
#     4  11  25  41  65  98 137 179 213 267 336 400
#     4  11  25  42  71 100 133 173 221 285 327 385
#     4  12  26  43  69 100 134 176 227 266 332 401
#     4  10  23  41  62  99 134 170 214 270 334 386
#
# _framework density 22.110268999999999
#
# number of rings (size 3 to 8) (size 9 to 14) (size 15 to 20)
#    0.000    0.857    5.714    0.857    8.000    1.714 
#    0.000    2.857    0.000    0.000    0.000    0.000 
#    0.000    0.000    0.000    0.000    0.000    0.000 
#
# Total GULP energy -173599.530195 kJ/mol
# GULP energy per Si atom -12399.966442 kJ/mol
# Density = 2.205995 g / cm^3
# Si number density = 22.110269 Si / 1000 Ang^3
#
#
#
# Elastic Constant Matrix: (Units=GPa)
#
#
# Indices 1 2 3 4 5 6 
#
# 1 71.8898 18.0296 33.9963 13.0636 2.4119 -1.0168
# 2 18.0296 71.1481 49.4267 3.7913 3.5445 3.6841
# 3 33.9963 49.4267 170.9627 16.9950 -0.0509 3.9144
# 4 13.0636 3.7913 16.9950 41.8493 -1.4092 5.7886
# 5 2.4119 3.5445 -0.0509 -1.4092 32.7566 12.8467
# 6 -1.0168 3.6841 3.9144 5.7886 12.8467 22.4760
#
#
#
# Elastic Compliance Matrix: (Units=1/GPa)
#
#
# Indices 1 2 3 4 5 6 
#
# 1 0.016609 -0.002507 -0.002206 -0.004773 -0.002899 0.004433
# 2 -0.002507 0.018126 -0.004830 0.001358 -0.000914 -0.002071
# 3 -0.002206 -0.004830 0.007894 -0.001956 0.000881 -0.000683
# 4 -0.004773 0.001358 -0.001956 0.027669 0.005446 -0.010337
# 5 -0.002899 -0.000914 0.000881 0.005446 0.040832 -0.024876
# 6 0.004433 -0.002071 -0.000683 -0.010337 -0.024876 0.062031
#
#
# Mechanical properties :
#
#
# Convention : Reuss Voigt Hill
#
# Bulk Modulus (GPa) = 42.47315 57.43397 49.95356
# Shear Modulus (GPa) = 24.98793 33.58625 29.28709
#
# Velocity S-wave (km/s) = 3.36542 3.90171 3.64344
# Velocity P-wave (km/s) = 5.86112 6.80664 6.35150
#
# Compressibility (1/GPa) = 0.02354429
#
# Stress axis : x y z
#
# Youngs Moduli (GPa) = 60.20711 55.16893 126.67112
#
# Poissons Ratio (x) = 0.13833 0.27941
# Poissons Ratio (y) = 0.15096 0.61177
# Poissons Ratio (z) = 0.13281 0.26645
#
# Static dielectric constant tensor:
#      x y z
#    x 4.210060 -0.078430 -0.044130 
#    y -0.078430 4.319950 0.562700 
#    z -0.044130 0.562700 4.701740 
# 
# 
# High freq. dielectric constant tensor:
#      x y z
#    x 1.864210 0.012500 0.009560 
#    y 0.012500 1.865650 0.003110 
#    z 0.009560 0.003110 1.876990 
# 
# From -- ./inp_files/183851.got.cif
#   From: 2010.06.25/outbox.cif.g09.slc.cpg/sg2_92_cif.got.tgz:183851.got - 2010.06.27 13:26:56.
