data_PCOD8023662
_publ_section_title
;
Structure prediction by ZEFSAII (Michael W. Deem and Ramdas Pophale) SiO2 
 PCOD8023662
Probable space group: P -1
;
_chemical_formula_sum "Si O2"
_cell_formula_units_Z 16
_cell_length_a 9.371666
_cell_length_b 8.812710
_cell_length_c 12.109004
_cell_angle_alpha 102.710884
_cell_angle_beta 91.553487
_cell_angle_gamma 47.142283
_cell_volume 704.556753
_symmetry_space_group_name_H-M "P -1"
_symmetry_group_IT_number 2
_symmetry_cell_setting 'triclinic'
loop_
_space_group_symop_operation_xyz
x,y,z
-x,-y,-z
loop_
_atom_site_type_symbol
_atom_site_label
_atom_site_fract_x
_atom_site_fract_y
_atom_site_fract_z
Si Si1 0.255508 0.795050 0.948882
Si Si2 0.204037 0.012524 0.334716
Si Si3 0.195271 0.427670 0.202381
Si Si4 0.640014 0.779770 0.272726
Si Si5 0.398424 0.990434 0.893357
Si Si6 0.322673 0.637030 0.160838
Si Si7 0.957217 0.308208 0.175482
Si Si8 0.927393 0.680165 0.438647
O O1 0.239423 0.984660 0.935078
O O2 0.445762 0.574227 0.859335
O O3 0.059786 0.837230 0.922373
O O4 0.285302 0.776536 0.077688
O O5 0.120458 0.118919 0.471039
O O6 0.040114 0.199335 0.277820
O O7 0.405349 0.953372 0.303989
O O8 0.246489 0.796138 0.289653
O O9 0.422905 0.224932 0.204157
O O10 0.196549 0.571532 0.138594
O O11 0.089031 0.353236 0.136936
O O12 0.098915 0.564614 0.333874
O O13 0.733528 0.537932 0.222201
O O14 0.726699 0.787210 0.387598
O O15 0.707535 0.820424 0.168710
O O16 0.500000 0.000000 0.000000
O O17 0.000000 0.500000 0.500000
#
# Coordination Sequence:
#
# PCOD8023662 Si02
#       8
#     2   2   2   2   2   2   2   2
#     4  10  23  42  66  98 136 177 220 280 334 398
#     4  12  22  42  70  97 132 182 226 270 340 399
#     4  10  23  42  62 101 133 168 224 281 321 401
#     4  11  22  42  69 101 135 176 224 273 341 391
#     4  11  23  43  71  98 140 180 223 267 339 409
#     4  10  23  42  66  95 136 179 222 275 340 396
#     4  11  23  40  68 101 132 173 229 273 328 409
#     4  11  22  42  68  99 133 174 229 285 327 395
#
# _framework density 22.709312000000001
#
# number of rings (size 3 to 8) (size 9 to 14) (size 15 to 20)
#    0.000    1.250    5.000    1.125    3.500    3.500 
#    2.250    0.000    0.000    3.750    0.000    0.000 
#    0.000    0.000    0.000    0.000    0.000    0.000 
#
# Total GULP energy -198292.700304 kJ/mol
# GULP energy per Si atom -12393.293769 kJ/mol
# Density = 2.265762 g / cm^3
# Si number density = 22.709312 Si / 1000 Ang^3
#
#
#
# Elastic Constant Matrix: (Units=GPa)
#
#
# Indices 1 2 3 4 5 6 
#
# 1 141.9101 26.7071 50.0413 -2.3876 7.4074 21.3735
# 2 26.7071 78.5824 29.9507 -11.5138 4.3134 7.0972
# 3 50.0413 29.9507 80.2671 -4.1887 17.6054 14.2697
# 4 -2.3876 -11.5138 -4.1887 39.7602 -0.6020 6.9970
# 5 7.4074 4.3134 17.6054 -0.6020 39.5396 8.4988
# 6 21.3735 7.0972 14.2697 6.9970 8.4988 32.1168
#
#
#
# Elastic Compliance Matrix: (Units=1/GPa)
#
#
# Indices 1 2 3 4 5 6 
#
# 1 0.009649 -0.000895 -0.005205 0.000580 0.001574 -0.004454
# 2 -0.000895 0.015667 -0.004978 0.004310 0.001148 -0.001898
# 3 -0.005205 -0.004978 0.019486 0.000636 -0.006615 -0.002482
# 4 0.000580 0.004310 0.000636 0.027937 0.001294 -0.008049
# 5 0.001574 0.001148 -0.006615 0.001294 0.029206 -0.006372
# 6 -0.004454 -0.001898 -0.002482 -0.008049 -0.006372 0.039062
#
#
# Mechanical properties :
#
#
# Convention : Reuss Voigt Hill
#
# Bulk Modulus (GPa) = 44.15544 57.12865 50.64204
# Shear Modulus (GPa) = 29.28964 35.22069 32.25516
#
# Velocity S-wave (km/s) = 3.59522 3.94246 3.77284
# Velocity P-wave (km/s) = 6.05972 6.77755 6.42866
#
# Compressibility (1/GPa) = 0.02264727
#
# Stress axis : x y z
#
# Youngs Moduli (GPa) = 103.63972 63.83016 51.31947
#
# Poissons Ratio (x) = 0.05711 0.26710
# Poissons Ratio (y) = 0.09274 0.25544
# Poissons Ratio (z) = 0.53941 0.31772
#
# Static dielectric constant tensor:
#      x y z
#    x 4.177150 0.031070 -0.061620 
#    y 0.031070 4.307870 0.281740 
#    z -0.061620 0.281740 4.134010 
# 
# 
# High freq. dielectric constant tensor:
#      x y z
#    x 1.891950 -0.004240 0.002380 
#    y -0.004240 1.915970 0.021440 
#    z 0.002380 0.021440 1.879550 
# 
# From -- ./inp_files/382637.got.cif
#   From: 2010.06.25/outbox.cif.g09.slc.cpg/sg2_192_cif.got.tgz:382637.got - 2010.06.27 13:26:56.
