data_PCOD8023033
_publ_section_title
;
Structure prediction by ZEFSAII (Michael W. Deem and Ramdas Pophale) SiO2 
 PCOD8023033
Probable space group: P -1
;
_chemical_formula_sum "Si O2"
_cell_formula_units_Z 16
_cell_length_a 16.650854
_cell_length_b 11.566191
_cell_length_c 9.247791
_cell_angle_alpha 79.966557
_cell_angle_beta 67.264168
_cell_angle_gamma 138.192634
_cell_volume 721.889234
_symmetry_space_group_name_H-M "P -1"
_symmetry_group_IT_number 2
_symmetry_cell_setting 'triclinic'
loop_
_space_group_symop_operation_xyz
x,y,z
-x,-y,-z
loop_
_atom_site_type_symbol
_atom_site_label
_atom_site_fract_x
_atom_site_fract_y
_atom_site_fract_z
Si Si1 0.725197 0.267254 0.454374
Si Si2 0.160702 0.779862 0.394101
Si Si3 0.232481 0.464045 0.460276
Si Si4 0.670414 0.948537 0.076215
Si Si5 0.123847 0.386590 0.244710
Si Si6 0.280424 0.771552 0.849319
Si Si7 0.025021 0.066206 0.177161
Si Si8 0.279207 0.228000 0.769901
O O1 0.715509 0.141116 0.589731
O O2 0.842673 0.513644 0.399967
O O3 0.817969 0.347661 0.215797
O O4 0.512084 0.059896 0.616123
O O5 0.000000 0.500000 0.500000
O O6 0.075060 0.790359 0.530836
O O7 0.301939 0.000066 0.124761
O O8 0.439458 0.668949 0.330436
O O9 0.258240 0.533873 0.260469
O O10 0.071109 0.169904 0.650731
O O11 0.755460 0.928729 0.075587
O O12 0.788036 0.195077 0.023073
O O13 0.229841 0.592528 0.007160
O O14 0.086669 0.213711 0.241899
O O15 0.870037 0.957386 0.219936
O O16 0.216091 0.265139 0.903051
O O17 0.500000 0.500000 0.500000
#
# Coordination Sequence:
#
# PCOD8023033 Si02
#       8
#     2   2   2   2   2   2   2   2
#     4  10  23  40  65  96 131 171 228 273 349 402
#     4  12  23  41  64  98 137 179 221 278 344 408
#     4  11  22  45  68  93 140 185 223 283 341 401
#     4  11  23  43  70  97 132 182 233 277 345 406
#     4  12  25  42  65  99 139 172 229 279 343 400
#     4  10  23  40  66  99 128 171 221 295 333 404
#     4  11  27  44  70 101 137 181 227 285 335 402
#     4  11  25  48  72 101 135 180 232 279 341 401
#
# _framework density 22.164065999999998
#
# number of rings (size 3 to 8) (size 9 to 14) (size 15 to 20)
#    0.000    1.000    3.750    1.875    5.250    3.500 
#    2.250    1.250    0.000    0.000    0.000    0.000 
#    0.000    0.000    0.000    0.000    0.000    0.000 
#
# Total GULP energy -198432.639522 kJ/mol
# GULP energy per Si atom -12402.039970 kJ/mol
# Density = 2.211362 g / cm^3
# Si number density = 22.164066 Si / 1000 Ang^3
#
#
#
# Elastic Constant Matrix: (Units=GPa)
#
#
# Indices 1 2 3 4 5 6 
#
# 1 123.8250 42.6102 31.3634 13.6895 18.1761 0.8397
# 2 42.6102 136.5252 43.6172 26.6939 7.0894 -16.0352
# 3 31.3634 43.6172 102.7307 13.7162 12.3000 -7.6731
# 4 13.6895 26.6939 13.7162 37.1493 3.0341 5.4187
# 5 18.1761 7.0894 12.3000 3.0341 45.6291 8.5240
# 6 0.8397 -16.0352 -7.6731 5.4187 8.5240 37.9945
#
#
#
# Elastic Compliance Matrix: (Units=1/GPa)
#
#
# Indices 1 2 3 4 5 6 
#
# 1 0.009813 -0.002279 -0.001589 -0.001052 -0.002927 -0.000693
# 2 -0.002279 0.010793 -0.002534 -0.006687 -0.000610 0.005184
# 3 -0.001589 -0.002534 0.012054 -0.002171 -0.002503 0.002271
# 4 -0.001052 -0.006687 -0.002171 0.034027 0.001349 -0.008393
# 5 -0.002927 -0.000610 -0.002503 0.001349 0.024975 -0.006494
# 6 -0.000693 0.005184 0.002271 -0.008393 -0.006494 0.031635
#
#
# Mechanical properties :
#
#
# Convention : Reuss Voigt Hill
#
# Bulk Modulus (GPa) = 50.35933 66.47361 58.41647
# Shear Modulus (GPa) = 35.03346 40.52059 37.77703
#
# Velocity S-wave (km/s) = 3.98004 4.28040 4.13295
# Velocity P-wave (km/s) = 6.62506 7.38145 7.01346
#
# Compressibility (1/GPa) = 0.01985729
#
# Stress axis : x y z
#
# Youngs Moduli (GPa) = 101.90273 92.64899 82.95729
#
# Poissons Ratio (x) = 0.21112 0.13184
# Poissons Ratio (y) = 0.23221 0.21020
# Poissons Ratio (z) = 0.16195 0.23476
#
# Static dielectric constant tensor:
#      x y z
#    x 4.052870 -0.019060 0.030090 
#    y -0.019060 3.978490 0.323780 
#    z 0.030090 0.323780 3.953150 
# 
# 
# High freq. dielectric constant tensor:
#      x y z
#    x 1.886390 0.001090 0.002890 
#    y 0.001090 1.860460 0.015510 
#    z 0.002890 0.015510 1.876960 
# 
# From -- ./inp_files/306135.got.cif
#   From: 2010.06.25/outbox.cif.g09.slc.cpg/sg2_154_cif.got.tgz:306135.got - 2010.06.27 13:26:56.
