data_PCOD8023128
_publ_section_title
;
Structure prediction by ZEFSAII (Michael W. Deem and Ramdas Pophale) SiO2 
 PCOD8023128
Probable space group: P -1
;
_chemical_formula_sum "Si O2"
_cell_formula_units_Z 16
_cell_length_a 9.127240
_cell_length_b 5.119968
_cell_length_c 18.636883
_cell_angle_alpha 67.854808
_cell_angle_beta 126.981783
_cell_angle_gamma 99.815896
_cell_volume 642.528311
_symmetry_space_group_name_H-M "P -1"
_symmetry_group_IT_number 2
_symmetry_cell_setting 'triclinic'
loop_
_space_group_symop_operation_xyz
x,y,z
-x,-y,-z
loop_
_atom_site_type_symbol
_atom_site_label
_atom_site_fract_x
_atom_site_fract_y
_atom_site_fract_z
Si Si1 0.438413 0.420636 0.268640
Si Si2 0.971570 0.208415 0.632156
Si Si3 0.624233 0.658711 0.102439
Si Si4 0.737050 0.558362 0.995418
Si Si5 0.927556 0.042594 0.169345
Si Si6 0.191988 0.703752 0.695304
Si Si7 0.226525 0.001223 0.158366
Si Si8 0.560687 0.303737 0.472328
O O1 0.637048 0.354159 0.300071
O O2 0.316274 0.175233 0.230676
O O3 0.457410 0.424690 0.359213
O O4 0.353075 0.736703 0.191888
O O5 0.779865 0.278024 0.528724
O O6 0.953073 0.007244 0.717737
O O7 0.036624 0.509315 0.642560
O O8 0.111553 0.031101 0.637183
O O9 0.621316 0.709223 0.010778
O O10 0.726285 0.923907 0.136362
O O11 0.745851 0.378492 0.195859
O O12 0.413131 0.629348 0.070172
O O13 0.902498 0.367173 0.101329
O O14 0.819483 0.783947 0.943741
O O15 0.041195 0.891386 0.150998
O O16 0.500000 0.500000 0.500000
O O17 0.500000 0.000000 0.500000
#
# Coordination Sequence:
#
# PCOD8023128 Si02
#       8
#     2   2   2   2   2   2   2   2
#     4  12  27  48  72 104 144 187 231 299 358 423
#     4  11  24  42  73 103 136 185 234 294 350 416
#     4  10  23  40  68  98 142 190 242 288 350 417
#     4  11  23  42  68 100 140 194 240 291 351 419
#     4  11  24  42  67 102 144 183 244 297 350 423
#     4  11  23  44  70 102 143 180 237 287 355 411
#     4  12  28  44  72 102 149 190 237 291 362 418
#     4  12  26  48  76 106 141 184 235 286 363 434
#
# _framework density 24.901629
#
# number of rings (size 3 to 8) (size 9 to 14) (size 15 to 20)
#    0.000    0.750    2.500    4.500    3.500    3.500 
#    0.000    0.000    0.000    0.000    0.000    0.000 
#    0.000    0.000    0.000    0.000    0.000    0.000 
#
# Total GULP energy -198337.578806 kJ/mol
# GULP energy per Si atom -12396.098675 kJ/mol
# Density = 2.484495 g / cm^3
# Si number density = 24.901629 Si / 1000 Ang^3
#
#
#
# Elastic Constant Matrix: (Units=GPa)
#
#
# Indices 1 2 3 4 5 6 
#
# 1 70.2696 9.0808 -15.0035 -3.2895 -3.4179 -5.0145
# 2 9.0808 104.6823 15.4746 -0.0966 -0.1836 -13.4349
# 3 -15.0035 15.4746 51.4688 -0.9888 -4.4803 1.2487
# 4 -3.2895 -0.0966 -0.9888 36.0605 -2.3602 3.4888
# 5 -3.4179 -0.1836 -4.4803 -2.3602 36.0863 -0.2792
# 6 -5.0145 -13.4349 1.2487 3.4888 -0.2792 39.1132
#
#
#
# Elastic Compliance Matrix: (Units=1/GPa)
#
#
# Indices 1 2 3 4 5 6 
#
# 1 0.015925 -0.002051 0.005465 0.001647 0.002292 0.001032
# 2 -0.002051 0.010785 -0.003998 -0.000661 -0.000651 0.003623
# 3 0.005465 -0.003998 0.022584 0.001474 0.003386 -0.001501
# 4 0.001647 -0.000661 0.001474 0.028311 0.002167 -0.002573
# 5 0.002292 -0.000651 0.003386 0.002167 0.028487 -0.000028
# 6 0.001032 0.003623 -0.001501 -0.002573 -0.000028 0.027221
#
#
# Mechanical properties :
#
#
# Convention : Reuss Voigt Hill
#
# Bulk Modulus (GPa) = 20.77884 27.28050 24.02967
# Shear Modulus (GPa) = 33.21757 36.70991 34.96374
#
# Velocity S-wave (km/s) = 3.65629 3.84369 3.75116
# Velocity P-wave (km/s) = 5.11733 5.53875 5.33221
#
# Compressibility (1/GPa) = 0.04812588
#
# Stress axis : x y z
#
# Youngs Moduli (GPa) = 62.79384 92.72210 44.27941
#
# Poissons Ratio (x) = 0.19021 -0.24199
# Poissons Ratio (y) = 0.12881 0.17702
# Poissons Ratio (z) = -0.34318 0.37069
#
# Static dielectric constant tensor:
#      x y z
#    x 4.436480 0.064720 -0.153100 
#    y 0.064720 4.268500 -0.212740 
#    z -0.153100 -0.212740 3.410750 
# 
# 
# High freq. dielectric constant tensor:
#      x y z
#    x 1.989900 -0.001490 0.003170 
#    y -0.001490 1.989900 0.002190 
#    z 0.003170 0.002190 1.995570 
# 
# From -- ./inp_files/553462.got.cif
#   From: 2010.06.25/outbox.cif.g09.slc.cpg/sg2_277_cif.got.tgz:553462.got - 2010.06.27 13:26:56.
