data_PCOD8023313
_publ_section_title
;
Structure prediction by ZEFSAII (Michael W. Deem and Ramdas Pophale) SiO2 
 PCOD8023313
Probable space group: P -1
;
_chemical_formula_sum "Si O2"
_cell_formula_units_Z 14
_cell_length_a 11.945081
_cell_length_b 21.393590
_cell_length_c 6.278446
_cell_angle_alpha 122.020628
_cell_angle_beta 62.554516
_cell_angle_gamma 150.288339
_cell_volume 674.232749
_symmetry_space_group_name_H-M "P -1"
_symmetry_group_IT_number 2
_symmetry_cell_setting 'triclinic'
loop_
_space_group_symop_operation_xyz
x,y,z
-x,-y,-z
loop_
_atom_site_type_symbol
_atom_site_label
_atom_site_fract_x
_atom_site_fract_y
_atom_site_fract_z
Si Si1 0.088676 0.364917 0.090391
Si Si2 0.055990 0.082174 0.411448
Si Si3 0.461436 0.553003 0.769004
Si Si4 0.774925 0.301370 0.962921
Si Si5 0.258444 0.056167 0.944770
Si Si6 0.913003 0.794275 0.040856
Si Si7 0.850800 0.501285 0.338839
O O1 0.154787 0.462917 0.365145
O O2 0.310517 0.454522 0.921740
O O3 0.023188 0.260468 0.090686
O O4 0.878356 0.286190 0.986757
O O5 0.140905 0.198073 0.662050
O O6 0.240778 0.131897 0.187109
O O7 0.000000 0.000000 0.500000
O O8 0.836307 0.993575 0.301975
O O9 0.500000 0.500000 0.500000
O O10 0.340629 0.559350 0.757836
O O11 0.697865 0.700606 0.908451
O O12 0.515919 0.155557 0.886103
O O13 0.902297 0.368034 0.745686
O O14 0.801054 0.391453 0.225611
O O15 0.124398 0.936079 0.000595
#
# Coordination Sequence:
#
# PCOD8023313 Si02
#       7
#     2   2   2   2   2   2   2
#     4  11  24  42  64  93 128 169 214 261 315 385
#     4   9  22  40  61  97 125 163 209 257 319 376
#     4  11  24  39  66  98 126 164 208 270 324 372
#     4  10  24  42  63  91 128 172 213 259 312 379
#     4  10  23  41  65  92 131 168 206 267 313 378
#     4  11  24  39  65  98 128 163 211 264 322 379
#     4  10  23  42  64  93 126 167 218 262 317 374
#
# _framework density 20.764341999999999
#
# number of rings (size 3 to 8) (size 9 to 14) (size 15 to 20)
#    0.000    1.714    1.429    0.857   10.000    2.857 
#    0.000    1.429    0.000    0.000    0.000    0.000 
#    0.000    0.000    0.000    0.000    0.000    0.000 
#
# Total GULP energy -173640.244789 kJ/mol
# GULP energy per Si atom -12402.874628 kJ/mol
# Density = 2.071708 g / cm^3
# Si number density = 20.764342 Si / 1000 Ang^3
#
#
#
# Elastic Constant Matrix: (Units=GPa)
#
#
# Indices 1 2 3 4 5 6 
#
# 1 85.0523 48.0608 14.0520 -7.0256 -2.7691 12.1579
# 2 48.0608 113.4043 32.7554 -5.1142 -1.6991 23.6746
# 3 14.0520 32.7554 131.6317 5.5110 -2.7523 12.2632
# 4 -7.0256 -5.1142 5.5110 22.3782 -0.0754 1.1040
# 5 -2.7691 -1.6991 -2.7523 -0.0754 32.6105 3.2639
# 6 12.1579 23.6746 12.2632 1.1040 3.2639 39.1873
#
#
#
# Elastic Compliance Matrix: (Units=1/GPa)
#
#
# Indices 1 2 3 4 5 6 
#
# 1 0.015814 -0.006203 -0.000152 0.003653 0.001146 -0.001310
# 2 -0.006203 0.013336 -0.002209 0.001920 0.000541 -0.005540
# 3 -0.000152 -0.002209 0.008399 -0.002558 0.000698 -0.001233
# 4 0.003653 0.001920 -0.002558 0.047045 0.000590 -0.002867
# 5 0.001146 0.000541 0.000698 0.000590 0.031203 -0.003516
# 6 -0.001310 -0.005540 -0.001233 -0.002867 -0.003516 0.030031
#
#
# Mechanical properties :
#
#
# Convention : Reuss Voigt Hill
#
# Bulk Modulus (GPa) = 48.96672 57.75830 53.36251
# Shear Modulus (GPa) = 29.45273 34.51653 31.98463
#
# Velocity S-wave (km/s) = 3.77029 4.08155 3.92900
# Velocity P-wave (km/s) = 6.52585 7.07733 6.80718
#
# Compressibility (1/GPa) = 0.02042204
#
# Stress axis : x y z
#
# Youngs Moduli (GPa) = 63.23576 74.98426 119.05524
#
# Poissons Ratio (x) = 0.46511 0.01805
# Poissons Ratio (y) = 0.39224 0.26303
# Poissons Ratio (z) = 0.00959 0.16567
#
# Static dielectric constant tensor:
#      x y z
#    x 3.843460 0.038690 -0.087670 
#    y 0.038690 3.555670 0.055230 
#    z -0.087670 0.055230 4.185910 
# 
# 
# High freq. dielectric constant tensor:
#      x y z
#    x 1.822840 -0.001950 0.002140 
#    y -0.001950 1.797910 0.000100 
#    z 0.002140 0.000100 1.821910 
# 
# From -- ./inp_files/65154.got.cif
#   From: 2010.06.25/outbox.cif.g09.slc.cpg/sg2_33_cif.got.tgz:65154.got - 2010.06.27 13:26:56.
