data_PCOD8023323
_publ_section_title
;
Structure prediction by ZEFSAII (Michael W. Deem and Ramdas Pophale) SiO2 
 PCOD8023323
Probable space group: P -1
;
_chemical_formula_sum "Si O2"
_cell_formula_units_Z 16
_cell_length_a 14.951314
_cell_length_b 8.906595
_cell_length_c 14.143339
_cell_angle_alpha 135.873558
_cell_angle_beta 39.058186
_cell_angle_gamma 137.588693
_cell_volume 752.716314
_symmetry_space_group_name_H-M "P -1"
_symmetry_group_IT_number 2
_symmetry_cell_setting 'triclinic'
loop_
_space_group_symop_operation_xyz
x,y,z
-x,-y,-z
loop_
_atom_site_type_symbol
_atom_site_label
_atom_site_fract_x
_atom_site_fract_y
_atom_site_fract_z
Si Si1 0.648663 0.852519 0.459686
Si Si2 0.263388 0.323769 0.046142
Si Si3 0.541227 0.153717 0.126932
Si Si4 0.539016 0.194804 0.799810
Si Si5 0.633179 0.578002 0.537955
Si Si6 0.978691 0.911264 0.184694
Si Si7 0.853503 0.522833 0.969178
Si Si8 0.974286 0.787824 0.352061
O O1 0.641519 0.671693 0.466899
O O2 0.494152 0.686997 0.453129
O O3 0.814637 0.931435 0.306426
O O4 0.631431 0.092393 0.608472
O O5 0.329749 0.577697 0.156579
O O6 0.192019 0.331362 0.006312
O O7 0.407080 0.248995 0.878553
O O8 0.126899 0.148162 0.144801
O O9 0.401617 0.236784 0.285401
O O10 0.553563 0.003016 0.136925
O O11 0.704817 0.377190 0.089518
O O12 0.500000 0.000000 0.000000
O O13 0.802603 0.589369 0.427085
O O14 0.993744 0.873306 0.266226
O O15 0.979721 0.700810 0.019928
O O16 0.911950 0.344118 0.786285
O O17 0.000000 0.000000 0.500000
#
# Coordination Sequence:
#
# PCOD8023323 Si02
#       8
#     2   2   2   2   2   2   2   2
#     4   9  19  38  64  91 121 164 212 261 323 375
#     4  11  25  43  62  94 138 175 217 254 325 395
#     4  11  19  37  69  94 124 159 217 271 316 369
#     4  10  23  41  65  95 127 174 214 270 318 383
#     4   9  19  36  61  95 124 154 208 273 317 374
#     4  11  24  44  67  95 134 173 212 265 331 387
#     4  12  24  42  66  99 131 173 217 269 318 385
#     4  11  25  42  67 101 128 165 220 274 328 380
#
# _framework density 21.256347999999999
#
# number of rings (size 3 to 8) (size 9 to 14) (size 15 to 20)
#    0.000    1.500    2.500    2.250    7.000    0.500 
#    0.000    0.625    0.000    0.000    0.000    0.000 
#    0.000    0.000    0.000    0.000    0.000    0.000 
#
# Total GULP energy -198336.426292 kJ/mol
# GULP energy per Si atom -12396.026643 kJ/mol
# Density = 2.120797 g / cm^3
# Si number density = 21.256348 Si / 1000 Ang^3
#
#
#
# Elastic Constant Matrix: (Units=GPa)
#
#
# Indices 1 2 3 4 5 6 
#
# 1 83.3013 19.1813 31.5893 4.4352 4.8425 0.1255
# 2 19.1813 92.6831 24.7053 -9.1914 -1.6830 8.4505
# 3 31.5893 24.7053 108.9842 6.2806 -1.1566 -2.3310
# 4 4.4352 -9.1914 6.2806 33.1876 9.7377 -7.0852
# 5 4.8425 -1.6830 -1.1566 9.7377 34.5699 2.2864
# 6 0.1255 8.4505 -2.3310 -7.0852 2.2864 22.9014
#
#
#
# Elastic Compliance Matrix: (Units=1/GPa)
#
#
# Indices 1 2 3 4 5 6 
#
# 1 0.014002 -0.002128 -0.003522 -0.001217 -0.001850 0.000158
# 2 -0.002128 0.012589 -0.002513 0.003386 0.000128 -0.003855
# 3 -0.003522 -0.002513 0.010946 -0.002442 0.001348 0.001171
# 4 -0.001217 0.003386 -0.002442 0.037298 -0.010990 0.011145
# 5 -0.001850 0.000128 0.001348 -0.010990 0.032768 -0.006571
# 6 0.000158 -0.003855 0.001171 0.011145 -0.006571 0.049310
#
#
# Mechanical properties :
#
#
# Convention : Reuss Voigt Hill
#
# Bulk Modulus (GPa) = 47.14465 48.43561 47.79013
# Shear Modulus (GPa) = 27.72974 32.09796 29.91385
#
# Velocity S-wave (km/s) = 3.61576 3.89014 3.75546
# Velocity P-wave (km/s) = 6.29753 6.55847 6.42932
#
# Compressibility (1/GPa) = 0.02121131
#
# Stress axis : x y z
#
# Youngs Moduli (GPa) = 71.41599 79.43230 91.35361
#
# Poissons Ratio (x) = 0.16901 0.32179
# Poissons Ratio (y) = 0.15195 0.22960
# Poissons Ratio (z) = 0.25156 0.19964
#
# Static dielectric constant tensor:
#      x y z
#    x 3.707300 0.269510 -0.153710 
#    y 0.269510 4.318190 -0.186440 
#    z -0.153710 -0.186440 4.008650 
# 
# 
# High freq. dielectric constant tensor:
#      x y z
#    x 1.814290 0.020810 -0.003880 
#    y 0.020810 1.835550 0.000430 
#    z -0.003880 0.000430 1.846790 
# 
# From -- ./inp_files/530227.got.cif
#   From: 2010.06.25/outbox.cif.g09.slc.cpg/sg2_266_cif.got.tgz:530227.got - 2010.06.27 13:26:56.
