data_PCOD8023068
_publ_section_title
;
Structure prediction by ZEFSAII (Michael W. Deem and Ramdas Pophale) SiO2 
 PCOD8023068
Probable space group: P -1
;
_chemical_formula_sum "Si O2"
_cell_formula_units_Z 12
_cell_length_a 21.506633
_cell_length_b 11.181106
_cell_length_c 11.032938
_cell_angle_alpha 39.180799
_cell_angle_beta 22.505544
_cell_angle_gamma 30.581932
_cell_volume 513.885233
_symmetry_space_group_name_H-M "P -1"
_symmetry_group_IT_number 2
_symmetry_cell_setting 'triclinic'
loop_
_space_group_symop_operation_xyz
x,y,z
-x,-y,-z
loop_
_atom_site_type_symbol
_atom_site_label
_atom_site_fract_x
_atom_site_fract_y
_atom_site_fract_z
Si Si1 0.195148 0.966903 0.524469
Si Si2 0.876203 0.878785 0.208201
Si Si3 0.514112 0.980314 0.632322
Si Si4 0.122632 0.346803 0.167804
Si Si5 0.156360 0.724465 0.409365
Si Si6 0.539349 0.388105 0.863053
O O1 0.248693 0.986583 0.549975
O O2 0.145237 0.185839 0.364080
O O3 0.390890 0.715564 0.316795
O O4 0.994073 0.979964 0.869305
O O5 0.037475 0.603427 0.168914
O O6 0.727789 0.913540 0.343477
O O7 0.500000 0.000000 0.500000
O O8 0.339497 0.234486 0.804388
O O9 0.480712 0.788953 0.883220
O O10 0.970703 0.372788 0.317687
O O11 0.286249 0.605188 0.392669
O O12 0.320354 0.646344 0.064226
O O13 0.000000 0.000000 0.500000
#
# Coordination Sequence:
#
# PCOD8023068 Si02
#       6
#     2   2   2   2   2   2
#     4  10  24  47  71  96 137 182 221 278 335 404
#     4  11  25  48  66 101 139 173 229 280 332 395
#     4  11  25  41  65 103 133 173 231 277 330 403
#     4  11  24  44  70 101 131 184 220 277 341 397
#     4  11  20  39  66  98 132 170 225 263 334 401
#     4  10  23  40  66  99 130 185 216 273 344 387
#
# _framework density 23.351517999999999
#
# number of rings (size 3 to 8) (size 9 to 14) (size 15 to 20)
#    0.000    1.333    5.000    0.500    4.667    6.000 
#    3.000    1.667    0.000    0.000    0.000    0.000 
#    0.000    0.000    0.000    0.000    0.000    0.000 
#
# Total GULP energy -148769.057328 kJ/mol
# GULP energy per Si atom -12397.421444 kJ/mol
# Density = 2.329837 g / cm^3
# Si number density = 23.351518 Si / 1000 Ang^3
#
#
#
# Elastic Constant Matrix: (Units=GPa)
#
#
# Indices 1 2 3 4 5 6 
#
# 1 109.4583 31.6307 42.6898 8.3029 19.4324 5.8908
# 2 31.6307 79.4640 40.8822 38.1500 20.5218 11.6821
# 3 42.6898 40.8822 93.1328 29.8671 26.6921 -5.7218
# 4 8.3029 38.1500 29.8671 50.7588 9.4341 7.0109
# 5 19.4324 20.5218 26.6921 9.4341 47.4165 12.1877
# 6 5.8908 11.6821 -5.7218 7.0109 12.1877 25.2214
#
#
#
# Elastic Compliance Matrix: (Units=1/GPa)
#
#
# Indices 1 2 3 4 5 6 
#
# 1 0.012272 -0.003543 -0.005676 0.004549 -0.000268 -0.003648
# 2 -0.003543 0.024487 -0.004455 -0.013886 -0.002175 -0.006614
# 3 -0.005676 -0.004455 0.022213 -0.009045 -0.010577 0.016054
# 4 0.004549 -0.013886 -0.009045 0.035072 0.004467 -0.008591
# 5 -0.000268 -0.002175 -0.010577 0.004467 0.031819 -0.017947
# 6 -0.003648 -0.006614 0.016054 -0.008591 -0.017947 0.058267
#
#
# Mechanical properties :
#
#
# Convention : Reuss Voigt Hill
#
# Bulk Modulus (GPa) = 31.62119 56.94007 44.28063
# Shear Modulus (GPa) = 22.52046 35.80284 29.16165
#
# Velocity S-wave (km/s) = 3.10887 3.91987 3.53769
# Velocity P-wave (km/s) = 5.14369 6.70254 5.97418
#
# Compressibility (1/GPa) = 0.03162437
#
# Stress axis : x y z
#
# Youngs Moduli (GPa) = 81.48345 40.83779 45.01859
#
# Poissons Ratio (x) = 0.14470 0.25553
# Poissons Ratio (y) = 0.28873 0.20054
# Poissons Ratio (z) = 0.46251 0.18192
#
# Static dielectric constant tensor:
#      x y z
#    x 4.151720 0.328710 -0.049160 
#    y 0.328710 4.379470 0.350260 
#    z -0.049160 0.350260 4.595670 
# 
# 
# High freq. dielectric constant tensor:
#      x y z
#    x 1.911000 0.024590 0.000200 
#    y 0.024590 1.924510 0.017660 
#    z 0.000200 0.017660 1.931660 
# 
# From -- ./inp_files/474736.got.cif
#   From: 2010.06.25/outbox.cif.g09.slc.cpg/sg2_238_cif.got.tgz:474736.got - 2010.06.27 13:26:56.
