data_PCOD8023953
_publ_section_title
;
Structure prediction by ZEFSAII (Michael W. Deem and Ramdas Pophale) SiO2 
 PCOD8023953
Probable space group: P -1
;
_chemical_formula_sum "Si O2"
_cell_formula_units_Z 16
_cell_length_a 11.871380
_cell_length_b 10.593709
_cell_length_c 6.330575
_cell_angle_alpha 96.903213
_cell_angle_beta 87.854035
_cell_angle_gamma 117.019578
_cell_volume 703.973093
_symmetry_space_group_name_H-M "P -1"
_symmetry_group_IT_number 2
_symmetry_cell_setting 'triclinic'
loop_
_space_group_symop_operation_xyz
x,y,z
-x,-y,-z
loop_
_atom_site_type_symbol
_atom_site_label
_atom_site_fract_x
_atom_site_fract_y
_atom_site_fract_z
Si Si1 0.689819 0.413981 0.907681
Si Si2 0.912174 0.558983 0.625465
Si Si3 0.078008 0.843112 0.903687
Si Si4 0.239070 0.355498 0.693547
Si Si5 0.535943 0.184862 0.179233
Si Si6 0.025712 0.066109 0.737398
Si Si7 0.360638 0.024708 0.807038
Si Si8 0.462914 0.300251 0.594370
O O1 0.804953 0.434568 0.748829
O O2 0.569579 0.395103 0.773200
O O3 0.730890 0.548774 0.082218
O O4 0.651206 0.272952 0.025200
O O5 0.845403 0.613231 0.465782
O O6 0.000000 0.500000 0.500000
O O7 0.001735 0.680841 0.804394
O O8 0.216230 0.909954 0.810825
O O9 0.003992 0.929450 0.848876
O O10 0.068288 0.865598 0.163791
O O11 0.167430 0.194950 0.755237
O O12 0.369595 0.372508 0.581513
O O13 0.562364 0.064919 0.268336
O O14 0.527532 0.296935 0.366521
O O15 0.405400 0.108168 0.042922
O O16 0.000000 0.000000 0.500000
O O17 0.384346 0.135627 0.639756
#
# Coordination Sequence:
#
# PCOD8023953 Si02
#       8
#     2   2   2   2   2   2   2   2
#     4  11  26  47  67 101 138 182 232 288 340 417
#     4  12  29  47  70 102 143 191 234 282 347 422
#     4  11  24  42  71 100 139 176 232 288 342 411
#     4  12  25  45  69 101 139 182 236 285 352 409
#     4  10  24  45  68 102 137 181 226 281 354 408
#     4  11  23  43  66 103 132 178 227 286 346 406
#     4  10  23  42  68 104 136 174 225 291 343 412
#     4  11  24  44  75 100 134 179 234 290 346 409
#
# _framework density 22.728141999999998
#
# number of rings (size 3 to 8) (size 9 to 14) (size 15 to 20)
#    0.000    1.000    3.750    1.500    5.250    5.500 
#    0.000    0.000    0.000    0.000    0.000    0.000 
#    0.000    0.000    0.000    0.000    0.000    0.000 
#
# Total GULP energy -198345.948995 kJ/mol
# GULP energy per Si atom -12396.621812 kJ/mol
# Density = 2.267641 g / cm^3
# Si number density = 22.728142 Si / 1000 Ang^3
#
#
#
# Elastic Constant Matrix: (Units=GPa)
#
#
# Indices 1 2 3 4 5 6 
#
# 1 105.8905 34.0577 44.3934 -0.4395 -18.9296 1.3337
# 2 34.0577 93.7780 34.9034 11.2181 -1.6468 12.6456
# 3 44.3934 34.9034 114.2394 15.5731 -22.5586 -3.2224
# 4 -0.4395 11.2181 15.5731 43.6361 1.6501 -4.3741
# 5 -18.9296 -1.6468 -22.5586 1.6501 32.6914 -0.3814
# 6 1.3337 12.6456 -3.2224 -4.3741 -0.3814 41.3396
#
#
#
# Elastic Compliance Matrix: (Units=1/GPa)
#
#
# Indices 1 2 3 4 5 6 
#
# 1 0.012860 -0.003776 -0.003120 0.002101 0.005006 0.000765
# 2 -0.003776 0.014207 -0.003353 -0.002837 -0.003697 -0.004820
# 3 -0.003120 -0.003353 0.012996 -0.003901 0.007210 0.001793
# 4 0.002101 -0.002837 -0.003901 0.025485 -0.002867 0.003166
# 5 0.005006 -0.003697 0.007210 -0.002867 0.038440 0.001583
# 6 0.000765 -0.004820 0.001793 0.003166 0.001583 0.026129
#
#
# Mechanical properties :
#
#
# Convention : Reuss Voigt Hill
#
# Bulk Modulus (GPa) = 51.10763 60.06853 55.58808
# Shear Modulus (GPa) = 31.81924 36.90365 34.36145
#
# Velocity S-wave (km/s) = 3.74571 4.03389 3.89246
# Velocity P-wave (km/s) = 6.42203 6.94139 6.68675
#
# Compressibility (1/GPa) = 0.01956655
#
# Stress axis : x y z
#
# Youngs Moduli (GPa) = 77.75899 70.38795 76.94379
#
# Poissons Ratio (x) = 0.26578 0.24008
# Poissons Ratio (y) = 0.29361 0.25796
# Poissons Ratio (z) = 0.24262 0.23598
#
# Static dielectric constant tensor:
#      x y z
#    x 3.902290 0.085590 0.092750 
#    y 0.085590 4.183490 0.223540 
#    z 0.092750 0.223540 4.046400 
# 
# 
# High freq. dielectric constant tensor:
#      x y z
#    x 1.882030 0.009720 -0.010340 
#    y 0.009720 1.912220 0.003920 
#    z -0.010340 0.003920 1.905830 
# 
# From -- ./inp_files/71180.got.cif
#   From: 2010.06.25/outbox.cif.g09.slc.cpg/sg2_36_cif.got.tgz:71180.got - 2010.06.27 13:26:56.
