data_PCOD8023914
_publ_section_title
;
Structure prediction by ZEFSAII (Michael W. Deem and Ramdas Pophale) SiO2 
 PCOD8023914
Probable space group: P -1
;
_chemical_formula_sum "Si O2"
_cell_formula_units_Z 14
_cell_length_a 9.765637
_cell_length_b 13.908794
_cell_length_c 14.084639
_cell_angle_alpha 31.262166
_cell_angle_beta 65.885312
_cell_angle_gamma 88.232757
_cell_volume 670.889422
_symmetry_space_group_name_H-M "P -1"
_symmetry_group_IT_number 2
_symmetry_cell_setting 'triclinic'
loop_
_space_group_symop_operation_xyz
x,y,z
-x,-y,-z
loop_
_atom_site_type_symbol
_atom_site_label
_atom_site_fract_x
_atom_site_fract_y
_atom_site_fract_z
Si Si1 0.282274 0.311628 0.676807
Si Si2 0.370952 0.540479 0.264595
Si Si3 0.905519 0.552989 0.723408
Si Si4 0.346813 0.953827 0.343112
Si Si5 0.102477 0.858945 0.988302
Si Si6 0.528487 0.304935 0.161842
Si Si7 0.465120 0.230611 0.456977
O O1 0.500000 0.500000 0.500000
O O2 0.282110 0.457646 0.465814
O O3 0.123720 0.245772 0.857219
O O4 0.226690 0.056546 0.874029
O O5 0.178947 0.363340 0.396496
O O6 0.521715 0.491205 0.243304
O O7 0.497258 0.832415 0.959595
O O8 0.910686 0.372914 0.809052
O O9 0.123406 0.782269 0.509208
O O10 0.747095 0.411935 0.974647
O O11 0.409518 0.794819 0.483944
O O12 0.356353 0.077453 0.333972
O O13 0.222897 0.010810 0.729793
O O14 0.506861 0.210016 0.354333
O O15 0.500000 0.500000 0.000000
#
# Coordination Sequence:
#
# PCOD8023914 Si02
#       7
#     2   2   2   2   2   2   2
#     4  10  24  44  71 101 128 172 224 273 335 399
#     4  10  23  45  65  96 136 169 216 282 327 385
#     4  11  24  43  65 100 134 175 221 269 330 393
#     4  11  24  41  66 100 132 177 225 263 332 392
#     4  10  23  42  67  97 133 168 220 272 330 388
#     4  11  22  45  63  98 140 174 223 274 320 386
#     4  11  21  45  69  90 142 176 214 283 324 383
#
# _framework density 20.867820999999999
#
# number of rings (size 3 to 8) (size 9 to 14) (size 15 to 20)
#    0.000    1.429    5.714    0.429    4.000    5.143 
#    0.000    1.429    0.000    0.000    0.000    0.000 
#    0.000    0.000    0.000    0.000    0.000    0.000 
#
# Total GULP energy -173489.016630 kJ/mol
# GULP energy per Si atom -12392.072616 kJ/mol
# Density = 2.082033 g / cm^3
# Si number density = 20.867821 Si / 1000 Ang^3
#
#
#
# Elastic Constant Matrix: (Units=GPa)
#
#
# Indices 1 2 3 4 5 6 
#
# 1 135.9924 49.3082 70.1845 -7.3245 -17.0523 6.8774
# 2 49.3082 75.2000 45.2118 6.5127 -15.3058 -10.6685
# 3 70.1845 45.2118 95.1134 3.1429 -20.4978 14.7894
# 4 -7.3245 6.5127 3.1429 46.5927 -0.0851 7.2304
# 5 -17.0523 -15.3058 -20.4978 -0.0851 46.5466 -5.4438
# 6 6.8774 -10.6685 14.7894 7.2304 -5.4438 39.8246
#
#
#
# Elastic Compliance Matrix: (Units=1/GPa)
#
#
# Indices 1 2 3 4 5 6 
#
# 1 0.013086 -0.004692 -0.007348 0.003430 -0.000146 -0.001431
# 2 -0.004692 0.025062 -0.009389 -0.005547 0.003844 0.012544
# 3 -0.007348 -0.009389 0.022482 0.000073 0.003046 -0.009192
# 4 0.003430 -0.005547 0.000073 0.023794 -0.001263 -0.006598
# 5 -0.000146 0.003844 0.003046 -0.001263 0.024442 0.003494
# 6 -0.001431 0.012544 -0.009192 -0.006598 0.003494 0.033807
#
#
# Mechanical properties :
#
#
# Convention : Reuss Voigt Hill
#
# Bulk Modulus (GPa) = 56.27102 70.63498 63.45300
# Shear Modulus (GPa) = 26.11575 36.03288 31.07432
#
# Velocity S-wave (km/s) = 3.54147 4.15989 3.86307
# Velocity P-wave (km/s) = 6.61413 7.54951 7.09725
#
# Compressibility (1/GPa) = 0.01777114
#
# Stress axis : x y z
#
# Youngs Moduli (GPa) = 76.41961 39.90104 44.47944
#
# Poissons Ratio (x) = 0.18723 0.32682
# Poissons Ratio (y) = 0.35859 0.41763
# Poissons Ratio (z) = 0.56151 0.37464
#
# Static dielectric constant tensor:
#      x y z
#    x 3.809690 -0.229730 0.099720 
#    y -0.229730 4.029320 0.136240 
#    z 0.099720 0.136240 3.868230 
# 
# 
# High freq. dielectric constant tensor:
#      x y z
#    x 1.810690 -0.016070 0.007860 
#    y -0.016070 1.817890 0.004660 
#    z 0.007860 0.004660 1.814140 
# 
# From -- ./inp_files/504956.got.cif
#   From: 2010.06.25/outbox.cif.g09.slc.cpg/sg2_253_cif.got.tgz:504956.got - 2010.06.27 13:26:56.
