data_PCOD8023213
_publ_section_title
;
Structure prediction by ZEFSAII (Michael W. Deem and Ramdas Pophale) SiO2 
 PCOD8023213
Probable space group: P -1
;
_chemical_formula_sum "Si O2"
_cell_formula_units_Z 14
_cell_length_a 8.444873
_cell_length_b 25.330333
_cell_length_c 6.625108
_cell_angle_alpha 116.874372
_cell_angle_beta 59.802076
_cell_angle_gamma 148.024750
_cell_volume 647.633824
_symmetry_space_group_name_H-M "P -1"
_symmetry_group_IT_number 2
_symmetry_cell_setting 'triclinic'
loop_
_space_group_symop_operation_xyz
x,y,z
-x,-y,-z
loop_
_atom_site_type_symbol
_atom_site_label
_atom_site_fract_x
_atom_site_fract_y
_atom_site_fract_z
Si Si1 0.353165 0.592140 0.376954
Si Si2 0.704265 0.007782 0.755034
Si Si3 0.720712 0.147560 0.581468
Si Si4 0.306310 0.089687 0.082090
Si Si5 0.777974 0.808980 0.509533
Si Si6 0.432363 0.522154 0.888797
Si Si7 0.806748 0.639068 0.466353
O O1 0.484141 0.692499 0.439900
O O2 0.547687 0.607274 0.448090
O O3 0.000000 0.500000 0.500000
O O4 0.352202 0.564995 0.104512
O O5 0.551633 0.953538 0.543861
O O6 0.738150 0.955156 0.756638
O O7 0.043529 0.122730 0.689325
O O8 0.500000 0.000000 0.000000
O O9 0.982250 0.166467 0.470367
O O10 0.866288 0.242239 0.538288
O O11 0.598457 0.138637 0.860441
O O12 0.352598 0.170955 0.238520
O O13 0.000000 0.000000 0.000000
O O14 0.720369 0.607492 0.701008
O O15 0.162956 0.418511 0.754614
O O16 0.500000 0.500000 0.000000
#
# Coordination Sequence:
#
# PCOD8023213 Si02
#       7
#     2   2   2   2   2   2   2
#     4  10  23  41  62  94 130 165 214 268 325 383
#     4  12  24  42  69  98 133 176 217 267 333 391
#     4  11  24  43  66  96 133 174 217 267 331 391
#     4  12  25  44  66  96 137 170 221 269 321 395
#     4  11  24  45  65  97 134 174 220 273 326 389
#     4   9  19  40  63  86 123 162 214 262 314 378
#     4   9  21  40  65  92 121 170 216 262 324 387
#
# _framework density 21.617152999999998
#
# number of rings (size 3 to 8) (size 9 to 14) (size 15 to 20)
#    0.000    1.429    2.857    1.714    4.000    1.714 
#    5.143    0.000    0.000    0.000    0.000    0.000 
#    0.000    0.000    0.000    0.000    0.000    0.000 
#
# Total GULP energy -173553.080187 kJ/mol
# GULP energy per Si atom -12396.648585 kJ/mol
# Density = 2.156795 g / cm^3
# Si number density = 21.617153 Si / 1000 Ang^3
#
#
#
# Elastic Constant Matrix: (Units=GPa)
#
#
# Indices 1 2 3 4 5 6 
#
# 1 61.2736 31.5131 35.0948 6.9025 -5.8998 -13.2901
# 2 31.5131 164.9780 64.2301 3.1635 -6.5673 -24.2988
# 3 35.0948 64.2301 161.9865 8.0408 -11.3290 -18.6287
# 4 6.9025 3.1635 8.0408 36.8021 -17.0988 -1.5773
# 5 -5.8998 -6.5673 -11.3290 -17.0988 31.7593 -1.1630
# 6 -13.2901 -24.2988 -18.6287 -1.5773 -1.1630 35.5422
#
#
#
# Elastic Compliance Matrix: (Units=1/GPa)
#
#
# Indices 1 2 3 4 5 6 
#
# 1 0.020390 -0.001983 -0.002888 -0.002201 0.001335 0.004701
# 2 -0.001983 0.007860 -0.002251 0.000813 0.001021 0.003522
# 3 -0.002888 -0.002251 0.008015 -0.000073 0.001878 0.001640
# 4 -0.002201 0.000813 -0.000073 0.036707 0.019567 0.001964
# 5 0.001335 0.001021 0.001878 0.019567 0.043314 0.004467
# 6 0.004701 0.003522 0.001640 0.001964 0.004467 0.033394
#
#
# Mechanical properties :
#
#
# Convention : Reuss Voigt Hill
#
# Bulk Modulus (GPa) = 45.40919 72.21269 58.81094
# Shear Modulus (GPa) = 29.19439 37.98073 33.58756
#
# Velocity S-wave (km/s) = 3.67893 4.19617 3.94603
# Velocity P-wave (km/s) = 6.25282 7.54685 6.93010
#
# Compressibility (1/GPa) = 0.02202197
#
# Stress axis : x y z
#
# Youngs Moduli (GPa) = 49.04289 127.22095 124.76140
#
# Poissons Ratio (x) = 0.25223 0.36034
# Poissons Ratio (y) = 0.09723 0.28085
# Poissons Ratio (z) = 0.14165 0.28639
#
# Static dielectric constant tensor:
#      x y z
#    x 4.211860 -0.215740 -0.067530 
#    y -0.215740 4.209540 0.167700 
#    z -0.067530 0.167700 4.470840 
# 
# 
# High freq. dielectric constant tensor:
#      x y z
#    x 1.831880 -0.025680 -0.005000 
#    y -0.025680 1.857610 0.003760 
#    z -0.005000 0.003760 1.861640 
# 
# From -- ./inp_files/37148.got.cif
#   From: 2010.06.25/outbox.cif.g09.slc.cpg/sg2_19_cif.got.tgz:37148.got - 2010.06.27 13:26:56.
