data_PCOD8023391
_publ_section_title
;
Structure prediction by ZEFSAII (Michael W. Deem and Ramdas Pophale) SiO2 
 PCOD8023391
Probable space group: P -1
;
_chemical_formula_sum "Si O2"
_cell_formula_units_Z 16
_cell_length_a 12.444113
_cell_length_b 18.544623
_cell_length_c 8.940152
_cell_angle_alpha 134.458902
_cell_angle_beta 109.117199
_cell_angle_gamma 36.262534
_cell_volume 720.470313
_symmetry_space_group_name_H-M "P -1"
_symmetry_group_IT_number 2
_symmetry_cell_setting 'triclinic'
loop_
_space_group_symop_operation_xyz
x,y,z
-x,-y,-z
loop_
_atom_site_type_symbol
_atom_site_label
_atom_site_fract_x
_atom_site_fract_y
_atom_site_fract_z
Si Si1 0.752415 0.024947 0.291487
Si Si2 0.552777 0.634135 0.758270
Si Si3 0.045612 0.339257 0.181908
Si Si4 0.625159 0.125310 0.707606
Si Si5 0.847285 0.544592 0.091641
Si Si6 0.164365 0.864345 0.736805
Si Si7 0.063341 0.724494 0.417569
Si Si8 0.655616 0.715670 0.707367
O O1 0.731235 0.081639 0.534695
O O2 0.858844 0.025984 0.230741
O O3 0.514169 0.169356 0.338090
O O4 0.916488 0.805378 0.050405
O O5 0.412552 0.670595 0.635058
O O6 0.803575 0.402047 0.551906
O O7 0.554150 0.748229 0.861685
O O8 0.432740 0.733472 0.010135
O O9 0.277568 0.217584 0.148798
O O10 0.873491 0.480722 0.443539
O O11 0.927618 0.493919 0.222886
O O12 0.404625 0.229061 0.720126
O O13 0.796832 0.923895 0.586772
O O14 0.859443 0.415884 0.872032
O O15 0.000000 0.500000 0.000000
O O16 0.124037 0.795740 0.517759
O O17 0.000000 0.000000 0.000000
#
# Coordination Sequence:
#
# PCOD8023391 Si02
#       8
#     2   2   2   2   2   2   2   2
#     4  11  24  43  66  96 135 170 221 273 332 383
#     4  10  23  43  68  96 133 171 222 268 330 391
#     4  11  21  41  65  96 130 175 217 269 332 387
#     4  11  22  43  66  98 135 166 220 272 324 396
#     4  11  24  44  64 100 137 174 218 267 329 397
#     4  11  24  45  67  97 133 174 223 276 325 396
#     4  11  23  43  67  95 131 174 221 269 333 388
#     4  10  23  41  66  95 134 170 220 272 321 396
#
# _framework density 22.207716999999999
#
# number of rings (size 3 to 8) (size 9 to 14) (size 15 to 20)
#    0.000    1.250    3.750    2.250    1.750    1.000 
#    2.250    2.500    0.000    0.000    0.000    0.000 
#    0.000    0.000    0.000    0.000    0.000    0.000 
#
# Total GULP energy -198231.059538 kJ/mol
# GULP energy per Si atom -12389.441221 kJ/mol
# Density = 2.215717 g / cm^3
# Si number density = 22.207717 Si / 1000 Ang^3
#
#
#
# Elastic Constant Matrix: (Units=GPa)
#
#
# Indices 1 2 3 4 5 6 
#
# 1 82.8169 34.5678 45.8943 -11.0616 -2.0548 7.4019
# 2 34.5678 133.4267 36.9914 17.5801 -6.1586 -4.4850
# 3 45.8943 36.9914 87.1548 -2.5087 -1.4111 5.5176
# 4 -11.0616 17.5801 -2.5087 38.6020 -2.6990 -0.5545
# 5 -2.0548 -6.1586 -1.4111 -2.6990 29.9685 -2.5772
# 6 7.4019 -4.4850 5.5176 -0.5545 -2.5772 30.1909
#
#
#
# Elastic Compliance Matrix: (Units=1/GPa)
#
#
# Indices 1 2 3 4 5 6 
#
# 1 0.019419 -0.003742 -0.008205 0.006716 0.000467 -0.003654
# 2 -0.003742 0.010115 -0.002649 -0.005709 0.001434 0.002922
# 3 -0.008205 -0.002649 0.017006 -0.000093 -0.000446 -0.001529
# 4 0.006716 -0.005709 -0.000093 0.030530 0.001881 -0.001756
# 5 0.000467 0.001434 -0.000446 0.001881 0.034113 0.003127
# 6 -0.003654 0.002922 -0.001529 -0.001756 0.003127 0.034967
#
#
# Mechanical properties :
#
#
# Convention : Reuss Voigt Hill
#
# Bulk Modulus (GPa) = 57.64490 59.81171 58.72830
# Shear Modulus (GPa) = 27.60535 32.14862 29.87698
#
# Velocity S-wave (km/s) = 3.52952 3.80890 3.67187
# Velocity P-wave (km/s) = 6.52867 6.80698 6.66928
#
# Compressibility (1/GPa) = 0.01734759
#
# Stress axis : x y z
#
# Youngs Moduli (GPa) = 51.49556 98.86050 58.80401
#
# Poissons Ratio (x) = 0.36998 0.48250
# Poissons Ratio (y) = 0.19272 0.15575
# Poissons Ratio (z) = 0.42253 0.26185
#
# Static dielectric constant tensor:
#      x y z
#    x 3.786420 -0.238310 -0.064960 
#    y -0.238310 4.397450 0.120840 
#    z -0.064960 0.120840 3.866530 
# 
# 
# High freq. dielectric constant tensor:
#      x y z
#    x 1.850290 -0.016150 -0.003460 
#    y -0.016150 1.900310 0.003210 
#    z -0.003460 0.003210 1.859530 
# 
# From -- ./inp_files/279906.got.cif
#   From: 2010.06.25/outbox.cif.g09.slc.cpg/sg2_140_cif.got.tgz:279906.got - 2010.06.27 13:26:56.
