data_PCOD8023225
_publ_section_title
;
Structure prediction by ZEFSAII (Michael W. Deem and Ramdas Pophale) SiO2 
 PCOD8023225
Probable space group: P -1
;
_chemical_formula_sum "Si O2"
_cell_formula_units_Z 14
_cell_length_a 8.701860
_cell_length_b 11.241769
_cell_length_c 12.642821
_cell_angle_alpha 137.180898
_cell_angle_beta 55.991594
_cell_angle_gamma 131.829283
_cell_volume 620.340075
_symmetry_space_group_name_H-M "P -1"
_symmetry_group_IT_number 2
_symmetry_cell_setting 'triclinic'
loop_
_space_group_symop_operation_xyz
x,y,z
-x,-y,-z
loop_
_atom_site_type_symbol
_atom_site_label
_atom_site_fract_x
_atom_site_fract_y
_atom_site_fract_z
Si Si1 0.621981 0.477229 0.036874
Si Si2 0.839850 0.240832 0.698962
Si Si3 0.032206 0.144813 0.744595
Si Si4 0.383638 0.423632 0.302366
Si Si5 0.543639 0.157041 0.406273
Si Si6 0.936769 0.229874 0.437639
Si Si7 0.432402 0.094129 0.179409
O O1 0.804502 0.686865 0.135090
O O2 0.449940 0.382210 0.134007
O O3 0.500000 0.500000 0.000000
O O4 0.732780 0.343103 0.878549
O O5 0.926954 0.354927 0.626637
O O6 0.030265 0.225728 0.678697
O O7 0.662672 0.025871 0.592814
O O8 0.071520 0.957183 0.619347
O O9 0.797880 0.076565 0.826550
O O10 0.497830 0.655963 0.431996
O O11 0.451452 0.307149 0.283980
O O12 0.135171 0.347760 0.362782
O O13 0.741696 0.167186 0.396204
O O14 0.573922 0.132732 0.254154
O O15 0.500000 0.000000 0.000000
#
# Coordination Sequence:
#
# PCOD8023225 Si02
#       7
#     2   2   2   2   2   2   2
#     4  12  25  43  65  94 127 167 211 259 313 374
#     4  11  23  42  65  92 126 169 213 256 310 377
#     4  10  23  41  63  90 125 169 211 255 312 377
#     4  11  24  41  63  94 128 164 208 259 315 372
#     4  11  22  40  64  93 126 167 210 259 311 373
#     4  11  23  41  65  95 126 164 212 263 311 365
#     4  10  23  42  64  94 129 166 209 259 315 372
#
# _framework density 22.568266999999999
#
# number of rings (size 3 to 8) (size 9 to 14) (size 15 to 20)
#    0.000    1.143    0.000    6.429    0.000    5.714 
#    0.000    3.571    0.000    0.000    0.000    0.000 
#    0.000    0.000    0.000    0.000    0.000    0.000 
#
# Total GULP energy -173528.673617 kJ/mol
# GULP energy per Si atom -12394.905258 kJ/mol
# Density = 2.251690 g / cm^3
# Si number density = 22.568267 Si / 1000 Ang^3
#
#
#
# Elastic Constant Matrix: (Units=GPa)
#
#
# Indices 1 2 3 4 5 6 
#
# 1 102.5410 14.3360 49.1895 -29.2438 13.3017 -4.8198
# 2 14.3360 80.1398 42.6964 -14.6454 7.6680 2.4493
# 3 49.1895 42.6964 121.0336 -23.8060 14.2615 12.8766
# 4 -29.2438 -14.6454 -23.8060 44.1400 -10.8586 6.5106
# 5 13.3017 7.6680 14.2615 -10.8586 32.8854 -4.2538
# 6 -4.8198 2.4493 12.8766 6.5106 -4.2538 23.5591
#
#
#
# Elastic Compliance Matrix: (Units=1/GPa)
#
#
# Indices 1 2 3 4 5 6 
#
# 1 0.014193 0.001419 -0.005307 0.006152 -0.001256 0.003730
# 2 0.001419 0.015763 -0.005561 0.002864 -0.000794 0.000756
# 3 -0.005307 -0.005561 0.014387 0.003092 -0.003039 -0.009774
# 4 0.006152 0.002864 0.003092 0.031828 0.004894 -0.008641
# 5 -0.001256 -0.000794 -0.003039 0.004894 0.034868 0.006430
# 6 0.003730 0.000756 -0.009774 -0.008641 0.006430 0.052022
#
#
# Mechanical properties :
#
#
# Convention : Reuss Voigt Hill
#
# Bulk Modulus (GPa) = 39.30089 57.35089 48.32589
# Shear Modulus (GPa) = 26.25487 33.28306 29.76897
#
# Velocity S-wave (km/s) = 3.41450 3.84444 3.63583
# Velocity P-wave (km/s) = 5.74431 6.72114 6.25183
#
# Compressibility (1/GPa) = 0.02544472
#
# Stress axis : x y z
#
# Youngs Moduli (GPa) = 70.45923 63.43792 69.50685
#
# Poissons Ratio (x) = -0.09004 0.36890
# Poissons Ratio (y) = -0.10000 0.38653
# Poissons Ratio (z) = 0.37396 0.35278
#
# Static dielectric constant tensor:
#      x y z
#    x 4.369050 -0.304950 -0.147080 
#    y -0.304950 4.517290 -0.033560 
#    z -0.147080 -0.033560 4.217420 
# 
# 
# High freq. dielectric constant tensor:
#      x y z
#    x 1.900020 -0.006900 -0.003750 
#    y -0.006900 1.896540 -0.010990 
#    z -0.003750 -0.010990 1.896910 
# 
# From -- ./inp_files/152047.got.cif
#   From: 2010.06.25/outbox.cif.g09.slc.cpg/sg2_77_cif.got.tgz:152047.got - 2010.06.27 13:26:56.
