data_PCOD8023542
_publ_section_title
;
Structure prediction by ZEFSAII (Michael W. Deem and Ramdas Pophale) SiO2 
 PCOD8023542
Probable space group: P -1
;
_chemical_formula_sum "Si O2"
_cell_formula_units_Z 16
_cell_length_a 4.989766
_cell_length_b 9.847597
_cell_length_c 16.862289
_cell_angle_alpha 86.556540
_cell_angle_beta 57.167490
_cell_angle_gamma 75.006904
_cell_volume 669.217660
_symmetry_space_group_name_H-M "P -1"
_symmetry_group_IT_number 2
_symmetry_cell_setting 'triclinic'
loop_
_space_group_symop_operation_xyz
x,y,z
-x,-y,-z
loop_
_atom_site_type_symbol
_atom_site_label
_atom_site_fract_x
_atom_site_fract_y
_atom_site_fract_z
Si Si1 0.586482 0.738095 0.194090
Si Si2 0.354578 0.872236 0.509856
Si Si3 0.330627 0.973474 0.343336
Si Si4 0.113262 0.869910 0.044859
Si Si5 0.911221 0.080419 0.200137
Si Si6 0.905325 0.433220 0.759583
Si Si7 0.213992 0.426660 0.540392
Si Si8 0.598225 0.751067 0.847418
O O1 0.368403 0.654303 0.183816
O O2 0.853256 0.774867 0.090983
O O3 0.768347 0.644249 0.241814
O O4 0.351145 0.885628 0.261206
O O5 0.617538 0.734468 0.504234
O O6 0.998234 0.894965 0.608534
O O7 0.500000 0.000000 0.500000
O O8 0.312752 0.866094 0.421445
O O9 0.649522 0.035037 0.301200
O O10 0.463529 0.772282 0.959479
O O11 0.137895 0.937687 0.125658
O O12 0.000000 0.000000 0.000000
O O13 0.706498 0.193508 0.165420
O O14 0.141299 0.155628 0.210946
O O15 0.766681 0.587751 0.812489
O O16 0.989174 0.441893 0.653748
O O17 0.500000 0.500000 0.500000
O O18 0.000000 0.500000 0.500000
#
# Coordination Sequence:
#
# PCOD8023542 Si02
#       8
#     2   2   2   2   2   2   2   2
#     4  11  24  45  71 100 143 183 232 297 353 422
#     4  11  25  43  73 101 137 182 247 305 349 437
#     4  10  24  41  69 102 134 178 243 299 358 411
#     4   9  22  44  71 104 138 179 229 293 361 416
#     4  10  23  41  69  98 137 181 226 299 352 408
#     4  12  26  45  68 101 140 191 237 282 357 435
#     4  12  29  49  71 101 150 195 235 298 368 429
#     4  11  24  42  66 101 141 179 236 280 348 437
#
# _framework density 23.908515999999999
#
# number of rings (size 3 to 8) (size 9 to 14) (size 15 to 20)
#    0.000    1.250    1.250    2.625    7.000    8.000 
#    0.000    0.000    0.000    0.000    0.000    0.000 
#    0.000    0.000    0.000    0.000    0.000    0.000 
#
# Total GULP energy -198465.827826 kJ/mol
# GULP energy per Si atom -12404.114239 kJ/mol
# Density = 2.385410 g / cm^3
# Si number density = 23.908516 Si / 1000 Ang^3
#
#
#
# Elastic Constant Matrix: (Units=GPa)
#
#
# Indices 1 2 3 4 5 6 
#
# 1 80.7999 36.2601 25.3347 12.6597 -16.6312 10.2390
# 2 36.2601 157.3194 66.2902 21.7097 -21.1337 10.9067
# 3 25.3347 66.2902 139.9754 12.8289 -30.4930 -6.4797
# 4 12.6597 21.7097 12.8289 41.0193 -2.3534 -5.6242
# 5 -16.6312 -21.1337 -30.4930 -2.3534 31.1101 -8.0595
# 6 10.2390 10.9067 -6.4797 -5.6242 -8.0595 48.9676
#
#
#
# Elastic Compliance Matrix: (Units=1/GPa)
#
#
# Indices 1 2 3 4 5 6 
#
# 1 0.015400 -0.001966 -0.000411 -0.003580 0.005622 -0.002322
# 2 -0.001966 0.009032 -0.003564 -0.003337 0.000734 -0.002335
# 3 -0.000411 -0.003564 0.011132 -0.000415 0.009230 0.003824
# 4 -0.003580 -0.003337 -0.000415 0.027910 -0.001330 0.004424
# 5 0.005622 0.000734 0.009230 -0.001330 0.046507 0.007384
# 6 -0.002322 -0.002335 0.003824 0.004424 0.007384 0.023657
#
#
# Mechanical properties :
#
#
# Convention : Reuss Voigt Hill
#
# Bulk Modulus (GPa) = 42.22599 70.42942 56.32770
# Shear Modulus (GPa) = 32.59153 40.90002 36.74578
#
# Velocity S-wave (km/s) = 3.69613 4.14053 3.92463
# Velocity P-wave (km/s) = 5.99291 7.23744 6.64438
#
# Compressibility (1/GPa) = 0.02368210
#
# Stress axis : x y z
#
# Youngs Moduli (GPa) = 64.93639 110.71173 89.83032
#
# Poissons Ratio (x) = 0.21767 0.03691
# Poissons Ratio (y) = 0.12767 0.32016
# Poissons Ratio (z) = 0.02668 0.39459
#
# Static dielectric constant tensor:
#      x y z
#    x 4.259790 -0.141120 0.029780 
#    y -0.141120 4.481220 -0.045670 
#    z 0.029780 -0.045670 5.107470 
# 
# 
# High freq. dielectric constant tensor:
#      x y z
#    x 1.947880 -0.001870 -0.007020 
#    y -0.001870 1.946600 -0.005420 
#    z -0.007020 -0.005420 1.961760 
# 
# From -- ./inp_files/47412.got.cif
#   From: 2010.06.25/outbox.cif.g09.slc.cpg/sg2_24_cif.got.tgz:47412.got - 2010.06.27 13:26:56.
