data_PCOD8023284
_publ_section_title
;
Structure prediction by ZEFSAII (Michael W. Deem and Ramdas Pophale) SiO2 
 PCOD8023284
Probable space group: P -1
;
_chemical_formula_sum "Si O2"
_cell_formula_units_Z 16
_cell_length_a 6.286899
_cell_length_b 15.003094
_cell_length_c 18.079839
_cell_angle_alpha 151.469933
_cell_angle_beta 68.688480
_cell_angle_gamma 111.053532
_cell_volume 755.746239
_symmetry_space_group_name_H-M "P -1"
_symmetry_group_IT_number 2
_symmetry_cell_setting 'triclinic'
loop_
_space_group_symop_operation_xyz
x,y,z
-x,-y,-z
loop_
_atom_site_type_symbol
_atom_site_label
_atom_site_fract_x
_atom_site_fract_y
_atom_site_fract_z
Si Si1 0.869481 0.048216 0.474156
Si Si2 0.505697 0.269103 0.750081
Si Si3 0.731104 0.419092 0.382799
Si Si4 0.614280 0.102805 0.880481
Si Si5 0.748777 0.391012 0.957903
Si Si6 0.718127 0.130989 0.046474
Si Si7 0.134327 0.928834 0.800436
Si Si8 0.083981 0.190166 0.401863
O O1 0.684868 0.198685 0.618463
O O2 0.038387 0.146896 0.463016
O O3 0.731700 0.866631 0.321607
O O4 0.000000 0.000000 0.500000
O O5 0.643976 0.288809 0.823638
O O6 0.431136 0.472790 0.887205
O O7 0.500000 0.500000 0.500000
O O8 0.710952 0.308610 0.228420
O O9 0.830252 0.281541 0.330000
O O10 0.910163 0.593588 0.464670
O O11 0.761915 0.220709 0.887125
O O12 0.341792 0.088725 0.900739
O O13 0.673635 0.887151 0.707196
O O14 0.696351 0.203697 0.019149
O O15 0.000000 0.500000 0.000000
O O16 0.500000 0.000000 0.000000
O O17 0.935606 0.007870 0.932874
O O18 0.098381 0.921874 0.711432
#
# Coordination Sequence:
#
# PCOD8023284 Si02
#       8
#     2   2   2   2   2   2   2   2
#     4  11  23  43  66  94 139 170 215 282 336 393
#     4  10  23  41  64  95 130 172 224 264 338 401
#     4  12  23  44  65  97 134 170 220 274 324 393
#     4  11  23  42  67  93 128 175 218 267 330 394
#     4  11  23  42  67  94 132 173 222 279 328 395
#     4  11  24  43  66  95 131 172 224 263 329 394
#     4  11  23  45  67  91 136 176 217 274 329 389
#     4  11  24  40  66  98 126 173 221 264 335 394
#
# _framework density 21.171129000000001
#
# number of rings (size 3 to 8) (size 9 to 14) (size 15 to 20)
#    0.000    1.000    2.500    4.500    0.000    7.000 
#    2.250    0.000    0.000    0.000    0.000    0.000 
#    0.000    0.000    0.000    0.000    0.000    0.000 
#
# Total GULP energy -198225.551825 kJ/mol
# GULP energy per Si atom -12389.096989 kJ/mol
# Density = 2.112294 g / cm^3
# Si number density = 21.171129 Si / 1000 Ang^3
#
#
#
# Elastic Constant Matrix: (Units=GPa)
#
#
# Indices 1 2 3 4 5 6 
#
# 1 118.0977 50.5430 43.0853 -5.5486 6.6450 0.7275
# 2 50.5430 114.1942 40.0258 -4.1873 5.9518 -5.4566
# 3 43.0853 40.0258 131.6846 -9.7771 -1.5873 -1.8086
# 4 -5.5486 -4.1873 -9.7771 29.2690 1.5391 3.4327
# 5 6.6450 5.9518 -1.5873 1.5391 40.9660 -4.7800
# 6 0.7275 -5.4566 -1.8086 3.4327 -4.7800 33.0125
#
#
#
# Elastic Compliance Matrix: (Units=1/GPa)
#
#
# Indices 1 2 3 4 5 6 
#
# 1 0.011229 -0.004080 -0.002398 0.000985 -0.001519 -0.001376
# 2 -0.004080 0.011438 -0.002129 -0.000006 -0.000880 0.001737
# 3 -0.002398 -0.002129 0.009206 0.002251 0.000984 0.000114
# 4 0.000985 -0.000006 0.002251 0.035656 -0.001864 -0.003877
# 5 -0.001519 -0.000880 0.000984 -0.001864 0.025337 0.003804
# 6 -0.001376 0.001737 0.000114 -0.003877 0.003804 0.031569
#
#
# Mechanical properties :
#
#
# Convention : Reuss Voigt Hill
#
# Bulk Modulus (GPa) = 68.21585 70.14277 69.17931
# Shear Modulus (GPa) = 34.12179 36.00432 35.06305
#
# Velocity S-wave (km/s) = 4.01897 4.12835 4.07403
# Velocity P-wave (km/s) = 7.33671 7.47848 7.40793
#
# Compressibility (1/GPa) = 0.01465935
#
# Stress axis : x y z
#
# Youngs Moduli (GPa) = 89.05772 87.43128 108.62446
#
# Poissons Ratio (x) = 0.35671 0.26046
# Poissons Ratio (y) = 0.36334 0.23124
# Poissons Ratio (z) = 0.21355 0.18612
#
# Static dielectric constant tensor:
#      x y z
#    x 3.987330 -0.133830 -0.061000 
#    y -0.133830 3.694150 -0.053190 
#    z -0.061000 -0.053190 3.981350 
# 
# 
# High freq. dielectric constant tensor:
#      x y z
#    x 1.840260 -0.003400 -0.003280 
#    y -0.003400 1.822500 -0.006670 
#    z -0.003280 -0.006670 1.846180 
# 
# From -- ./inp_files/106624.got.cif
#   From: 2010.06.25/outbox.cif.g09.slc.cpg/sg2_54_cif.got.tgz:106624.got - 2010.06.27 13:26:56.
