data_PCOD8023527
_publ_section_title
;
Structure prediction by ZEFSAII (Michael W. Deem and Ramdas Pophale) SiO2 
 PCOD8023527
Probable space group: P -1
;
_chemical_formula_sum "Si O2"
_cell_formula_units_Z 14
_cell_length_a 8.434358
_cell_length_b 12.350357
_cell_length_c 9.359511
_cell_angle_alpha 126.766968
_cell_angle_beta 120.962422
_cell_angle_gamma 68.755614
_cell_volume 667.619717
_symmetry_space_group_name_H-M "P -1"
_symmetry_group_IT_number 2
_symmetry_cell_setting 'triclinic'
loop_
_space_group_symop_operation_xyz
x,y,z
-x,-y,-z
loop_
_atom_site_type_symbol
_atom_site_label
_atom_site_fract_x
_atom_site_fract_y
_atom_site_fract_z
Si Si1 0.694949 0.475203 0.146850
Si Si2 0.635782 0.154938 0.282511
Si Si3 0.860232 0.168937 0.946059
Si Si4 0.152767 0.391525 0.927319
Si Si5 0.074772 0.857329 0.362349
Si Si6 0.740849 0.956404 0.935541
Si Si7 0.523416 0.423732 0.301192
O O1 0.821022 0.579978 0.208375
O O2 0.662427 0.500804 0.322051
O O3 0.500000 0.500000 0.000000
O O4 0.787295 0.324035 0.050271
O O5 0.762621 0.204548 0.507616
O O6 0.438429 0.126206 0.236929
O O7 0.614580 0.273393 0.250146
O O8 0.731865 0.022511 0.142400
O O9 0.836326 0.124934 0.736925
O O10 0.738502 0.073432 0.907769
O O11 0.076618 0.147118 0.075200
O O12 0.092062 0.240686 0.798280
O O13 0.332233 0.409389 0.119732
O O14 0.000000 0.500000 0.000000
O O15 0.000000 0.000000 0.500000
O O16 0.500000 0.500000 0.500000
#
# Coordination Sequence:
#
# PCOD8023527 Si02
#       7
#     2   2   2   2   2   2   2
#     4  10  23  41  69  96 131 176 223 274 340 402
#     4  11  23  41  64  97 130 169 223 266 339 392
#     4  11  21  44  68  95 133 172 225 276 336 399
#     4  11  23  44  70  95 134 181 221 272 342 400
#     4  12  25  41  67  99 134 176 225 273 327 405
#     4  10  23  41  69  94 128 177 213 280 335 391
#     4  11  24  44  67  97 133 172 224 283 336 401
#
# _framework density 20.970023000000001
#
# number of rings (size 3 to 8) (size 9 to 14) (size 15 to 20)
#    0.000    1.143    4.286    1.714    4.000    0.571 
#    2.571    4.286    0.000    0.000    0.000    0.000 
#    0.000    0.000    0.000    0.000    0.000    0.000 
#
# Total GULP energy -173585.885703 kJ/mol
# GULP energy per Si atom -12398.991836 kJ/mol
# Density = 2.092229 g / cm^3
# Si number density = 20.970023 Si / 1000 Ang^3
#
#
#
# Elastic Constant Matrix: (Units=GPa)
#
#
# Indices 1 2 3 4 5 6 
#
# 1 108.7664 40.5942 45.0576 -9.5773 -11.6893 20.2279
# 2 40.5942 110.4930 33.6842 -4.9599 -4.0709 3.5751
# 3 45.0576 33.6842 104.7786 -8.1876 -10.6330 12.5270
# 4 -9.5773 -4.9599 -8.1876 37.0575 -0.1313 -7.1945
# 5 -11.6893 -4.0709 -10.6330 -0.1313 36.5789 -2.3771
# 6 20.2279 3.5751 12.5270 -7.1945 -2.3771 49.1176
#
#
#
# Elastic Compliance Matrix: (Units=1/GPa)
#
#
# Indices 1 2 3 4 5 6 
#
# 1 0.013117 -0.003406 -0.003723 0.001366 0.002483 -0.003884
# 2 -0.003406 0.010936 -0.002213 0.000326 -0.000436 0.001198
# 3 -0.003723 -0.002213 0.012302 0.001242 0.002069 -0.001161
# 4 0.001366 0.000326 0.001242 0.028300 0.001150 0.003298
# 5 0.002483 -0.000436 0.002069 0.001150 0.028691 0.000038
# 6 -0.003884 0.001198 -0.001161 0.003298 0.000038 0.022653
#
#
# Mechanical properties :
#
#
# Convention : Reuss Voigt Hill
#
# Bulk Modulus (GPa) = 56.58627 62.52332 59.55479
# Shear Modulus (GPa) = 35.56875 38.19762 36.88319
#
# Velocity S-wave (km/s) = 4.12293 4.27257 4.19842
# Velocity P-wave (km/s) = 7.05037 7.36343 7.20860
#
# Compressibility (1/GPa) = 0.01767213
#
# Stress axis : x y z
#
# Youngs Moduli (GPa) = 76.23852 91.44066 81.28719
#
# Poissons Ratio (x) = 0.31141 0.30260
# Poissons Ratio (y) = 0.25964 0.17990
# Poissons Ratio (z) = 0.28380 0.20237
#
# Static dielectric constant tensor:
#      x y z
#    x 4.106200 0.143610 -0.151160 
#    y 0.143610 4.174900 -0.365310 
#    z -0.151160 -0.365310 3.927570 
# 
# 
# High freq. dielectric constant tensor:
#      x y z
#    x 1.836390 0.001660 -0.012900 
#    y 0.001660 1.846420 -0.011660 
#    z -0.012900 -0.011660 1.794220 
# 
# From -- ./inp_files/179969.got.cif
#   From: 2010.06.25/outbox.cif.g09.slc.cpg/sg2_90_cif.got.tgz:179969.got - 2010.06.27 13:26:56.
