data_PCOD8023982
_publ_section_title
;
Structure prediction by ZEFSAII (Michael W. Deem and Ramdas Pophale) SiO2 
 PCOD8023982
Probable space group: P -1
;
_chemical_formula_sum "Si O2"
_cell_formula_units_Z 16
_cell_length_a 10.544427
_cell_length_b 20.499742
_cell_length_c 8.220245
_cell_angle_alpha 54.647600
_cell_angle_beta 42.396650
_cell_angle_gamma 37.245057
_cell_volume 724.916249
_symmetry_space_group_name_H-M "P -1"
_symmetry_group_IT_number 2
_symmetry_cell_setting 'triclinic'
loop_
_space_group_symop_operation_xyz
x,y,z
-x,-y,-z
loop_
_atom_site_type_symbol
_atom_site_label
_atom_site_fract_x
_atom_site_fract_y
_atom_site_fract_z
Si Si1 0.659691 0.716421 0.117219
Si Si2 0.937538 0.424953 0.652986
Si Si3 0.742565 0.110346 0.524597
Si Si4 0.682812 0.532062 0.411044
Si Si5 0.357020 0.867377 0.918781
Si Si6 0.977787 0.899734 0.006310
Si Si7 0.189175 0.596210 0.853180
Si Si8 0.330636 0.173164 0.616051
O O1 0.390155 0.804226 0.330115
O O2 0.770771 0.598510 0.229408
O O3 0.581627 0.750798 0.954452
O O4 0.893414 0.708645 0.955763
O O5 0.806133 0.448588 0.566687
O O6 0.000000 0.500000 0.500000
O O7 0.187887 0.298208 0.599664
O O8 0.766585 0.451250 0.936534
O O9 0.810705 0.154288 0.255913
O O10 0.535413 0.104068 0.667588
O O11 0.000000 0.000000 0.500000
O O12 0.379696 0.615001 0.611758
O O13 0.757122 0.479912 0.237255
O O14 0.128636 0.873766 0.069306
O O15 0.494943 0.877183 0.634206
O O16 0.238965 0.970215 0.999259
O O17 0.866263 0.842971 0.186296
#
# Coordination Sequence:
#
# PCOD8023982 Si02
#       8
#     2   2   2   2   2   2   2   2
#     4  12  23  43  69  94 136 178 217 278 346 401
#     4  12  24  45  71 100 139 182 226 287 345 411
#     4  11  23  43  64  98 138 177 222 277 336 400
#     4  11  26  45  69 100 135 178 229 286 344 411
#     4  10  23  42  68  97 133 174 224 283 338 399
#     4  10  23  44  66  96 134 177 228 279 334 407
#     4  11  25  45  67 100 138 174 234 283 341 411
#     4  11  24  43  69  98 132 181 230 274 346 410
#
# _framework density 22.071512999999999
#
# number of rings (size 3 to 8) (size 9 to 14) (size 15 to 20)
#    0.000    1.000    3.750    1.875    3.500    3.500 
#    4.500    0.000    0.000    0.000    0.000    0.000 
#    0.000    0.000    0.000    0.000    0.000    0.000 
#
# Total GULP energy -198249.938205 kJ/mol
# GULP energy per Si atom -12390.621138 kJ/mol
# Density = 2.202128 g / cm^3
# Si number density = 22.071513 Si / 1000 Ang^3
#
#
#
# Elastic Constant Matrix: (Units=GPa)
#
#
# Indices 1 2 3 4 5 6 
#
# 1 96.8585 33.3167 32.1230 -9.2954 -6.7115 -16.1860
# 2 33.3167 89.4480 25.0506 5.6046 -7.5799 -14.6319
# 3 32.1230 25.0506 90.0063 12.3861 -6.5339 -0.1944
# 4 -9.2954 5.6046 12.3861 34.3533 -0.7878 2.0798
# 5 -6.7115 -7.5799 -6.5339 -0.7878 49.0136 -2.3740
# 6 -16.1860 -14.6319 -0.1944 2.0798 -2.3740 40.7053
#
#
#
# Elastic Compliance Matrix: (Units=1/GPa)
#
#
# Indices 1 2 3 4 5 6 
#
# 1 0.014581 -0.003649 -0.004939 0.006091 0.001076 0.004214
# 2 -0.003649 0.014056 -0.002117 -0.002713 0.001533 0.003820
# 3 -0.004939 -0.002117 0.014334 -0.006004 0.000699 -0.002309
# 4 0.006091 -0.002713 -0.006004 0.033385 0.000137 -0.000280
# 5 0.001076 0.001533 0.000699 0.000137 0.020989 0.002199
# 6 0.004214 0.003820 -0.002309 -0.000280 0.002199 0.027747
#
#
# Mechanical properties :
#
#
# Convention : Reuss Voigt Hill
#
# Bulk Modulus (GPa) = 46.37926 50.81039 48.59483
# Shear Modulus (GPa) = 32.53308 37.20259 34.86783
#
# Velocity S-wave (km/s) = 3.84342 4.11000 3.97894
# Velocity P-wave (km/s) = 6.38393 6.75230 6.57070
#
# Compressibility (1/GPa) = 0.02156136
#
# Stress axis : x y z
#
# Youngs Moduli (GPa) = 68.58297 71.14203 69.76275
#
# Poissons Ratio (x) = 0.25958 0.34458
# Poissons Ratio (y) = 0.25024 0.14769
# Poissons Ratio (z) = 0.33876 0.15061
#
# Static dielectric constant tensor:
#      x y z
#    x 4.203650 -0.162220 0.211210 
#    y -0.162220 3.790400 0.270930 
#    z 0.211210 0.270930 4.287650 
# 
# 
# High freq. dielectric constant tensor:
#      x y z
#    x 1.878260 -0.014180 0.010420 
#    y -0.014180 1.843540 0.024110 
#    z 0.010420 0.024110 1.884850 
# 
# From -- ./inp_files/282859.got.cif
#   From: 2010.06.25/outbox.cif.g09.slc.cpg/sg2_142_cif.got.tgz:282859.got - 2010.06.27 13:26:56.
