data_PCOD8023080
_publ_section_title
;
Structure prediction by ZEFSAII (Michael W. Deem and Ramdas Pophale) SiO2 
 PCOD8023080
Probable space group: P -1
;
_chemical_formula_sum "Si O2"
_cell_formula_units_Z 16
_cell_length_a 15.064448
_cell_length_b 11.775722
_cell_length_c 11.543678
_cell_angle_alpha 84.835417
_cell_angle_beta 141.371814
_cell_angle_gamma 124.220922
_cell_volume 778.218203
_symmetry_space_group_name_H-M "P -1"
_symmetry_group_IT_number 2
_symmetry_cell_setting 'triclinic'
loop_
_space_group_symop_operation_xyz
x,y,z
-x,-y,-z
loop_
_atom_site_type_symbol
_atom_site_label
_atom_site_fract_x
_atom_site_fract_y
_atom_site_fract_z
Si Si1 0.308230 0.149899 0.399943
Si Si2 0.897572 0.526616 0.238993
Si Si3 0.659290 0.202853 0.190748
Si Si4 0.806926 0.836627 0.479415
Si Si5 0.835311 0.473294 0.911411
Si Si6 0.856480 0.746236 0.910447
Si Si7 0.621777 0.574584 0.930804
Si Si8 0.297339 0.150828 0.876523
O O1 0.243528 0.108769 0.472796
O O2 0.567767 0.264474 0.640651
O O3 0.293342 0.270552 0.327292
O O4 0.127051 0.955776 0.164588
O O5 0.790572 0.345834 0.204250
O O6 0.149387 0.719340 0.529741
O O7 0.917673 0.516423 0.123906
O O8 0.731283 0.527787 0.097096
O O9 0.503925 0.193705 0.105429
O O10 0.500000 0.000000 0.000000
O O11 0.649096 0.623776 0.350551
O O12 0.759379 0.882962 0.313944
O O13 0.074598 0.965678 0.739320
O O14 0.850717 0.613621 0.872048
O O15 0.000000 0.500000 0.000000
O O16 0.750284 0.694458 0.934548
O O17 0.633007 0.678506 0.028916
#
# Coordination Sequence:
#
# PCOD8023080 Si02
#       8
#     2   2   2   2   2   2   2   2
#     4  11  21  43  64  93 125 162 207 262 321 357
#     4  10  24  43  63  90 123 170 209 250 315 372
#     4  11  25  43  62  90 134 167 200 254 316 372
#     4  11  22  36  67  93 124 158 206 252 315 364
#     4  11  24  43  65  92 124 171 210 254 313 380
#     4  10  23  40  67  91 123 163 209 265 311 367
#     4  11  21  40  67  90 122 160 209 260 302 366
#     4  11  24  38  61 100 121 162 208 251 306 375
#
# _framework density 20.559787
#
# number of rings (size 3 to 8) (size 9 to 14) (size 15 to 20)
#    0.000    1.250    5.000    0.750    3.500    4.500 
#    2.250    0.000    0.000    0.000    0.000    0.000 
#    0.000    0.000    0.000    0.000    0.000    0.000 
#
# Total GULP energy -198449.522373 kJ/mol
# GULP energy per Si atom -12403.095148 kJ/mol
# Density = 2.051299 g / cm^3
# Si number density = 20.559787 Si / 1000 Ang^3
#
#
#
# Elastic Constant Matrix: (Units=GPa)
#
#
# Indices 1 2 3 4 5 6 
#
# 1 113.4513 27.6372 44.4792 -1.5855 14.5047 -9.4478
# 2 27.6372 75.4273 31.5467 10.9945 3.1304 -2.3393
# 3 44.4792 31.5467 116.8317 17.5772 8.6128 3.1512
# 4 -1.5855 10.9945 17.5772 30.6344 4.5134 0.5622
# 5 14.5047 3.1304 8.6128 4.5134 28.7824 6.4707
# 6 -9.4478 -2.3393 3.1512 0.5622 6.4707 25.6853
#
#
#
# Elastic Compliance Matrix: (Units=1/GPa)
#
#
# Indices 1 2 3 4 5 6 
#
# 1 0.012887 -0.003100 -0.004521 0.005303 -0.007141 0.006695
# 2 -0.003100 0.016111 -0.002571 -0.004654 0.001210 0.000439
# 3 -0.004521 -0.002571 0.011948 -0.006211 0.000723 -0.003409
# 4 0.005303 -0.004654 -0.006211 0.039149 -0.007175 0.003239
# 5 -0.007141 0.001210 0.000723 -0.007175 0.042051 -0.013042
# 6 0.006695 0.000439 -0.003409 0.003239 -0.013042 0.045068
#
#
# Mechanical properties :
#
#
# Convention : Reuss Voigt Hill
#
# Bulk Modulus (GPa) = 48.63490 57.00408 52.81949
# Shear Modulus (GPa) = 25.71349 30.49024 28.10187
#
# Velocity S-wave (km/s) = 3.54032 3.85516 3.70109
# Velocity P-wave (km/s) = 6.35755 6.89946 6.63404
#
# Compressibility (1/GPa) = 0.02056137
#
# Stress axis : x y z
#
# Youngs Moduli (GPa) = 77.60011 62.07088 83.69780
#
# Poissons Ratio (x) = 0.19241 0.37840
# Poissons Ratio (y) = 0.24055 0.21518
# Poissons Ratio (z) = 0.35083 0.15958
#
# Static dielectric constant tensor:
#      x y z
#    x 3.590600 0.155960 0.110340 
#    y 0.155960 3.708240 0.140260 
#    z 0.110340 0.140260 4.000550 
# 
# 
# High freq. dielectric constant tensor:
#      x y z
#    x 1.792720 0.013040 0.001750 
#    y 0.013040 1.798580 0.014750 
#    z 0.001750 0.014750 1.819720 
# 
# From -- ./inp_files/345761.got.cif
#   From: 2010.06.25/outbox.cif.g09.slc.cpg/sg2_173_cif.got.tgz:345761.got - 2010.06.27 13:26:56.
