data_PCOD8023188
_publ_section_title
;
Structure prediction by ZEFSAII (Michael W. Deem and Ramdas Pophale) SiO2 
 PCOD8023188
Probable space group: P -1
;
_chemical_formula_sum "Si O2"
_cell_formula_units_Z 14
_cell_length_a 12.023617
_cell_length_b 11.072989
_cell_length_c 12.150524
_cell_angle_alpha 127.071087
_cell_angle_beta 125.485677
_cell_angle_gamma 33.270713
_cell_volume 697.193040
_symmetry_space_group_name_H-M "P -1"
_symmetry_group_IT_number 2
_symmetry_cell_setting 'triclinic'
loop_
_space_group_symop_operation_xyz
x,y,z
-x,-y,-z
loop_
_atom_site_type_symbol
_atom_site_label
_atom_site_fract_x
_atom_site_fract_y
_atom_site_fract_z
Si Si1 0.167085 0.739271 0.419294
Si Si2 0.155006 0.439757 0.144470
Si Si3 0.532795 0.276881 0.784000
Si Si4 0.531589 0.545337 0.377598
Si Si5 0.488792 0.270320 0.094748
Si Si6 0.772815 0.901077 0.875572
Si Si7 0.218139 0.639985 0.968062
O O1 0.073926 0.673809 0.262752
O O2 0.324692 0.701889 0.414589
O O3 0.278249 0.574916 0.499709
O O4 0.000000 0.000000 0.500000
O O5 0.388390 0.257492 0.129650
O O6 0.167360 0.324062 0.196997
O O7 0.000000 0.500000 0.000000
O O8 0.504156 0.291175 0.643347
O O9 0.311763 0.508153 0.833010
O O10 0.615976 0.052447 0.765053
O O11 0.707409 0.252934 0.904696
O O12 0.586264 0.345036 0.235867
O O13 0.297337 0.461537 0.009699
O O14 0.670324 0.034709 0.006093
O O15 0.972636 0.837752 0.932563
#
# Coordination Sequence:
#
# PCOD8023188 Si02
#       7
#     2   2   2   2   2   2   2
#     4  10  23  41  61  84 111 153 197 233 286 343
#     4  11  22  38  58  88 121 147 193 243 286 343
#     4   9  19  33  54  82 117 155 187 236 285 334
#     4   9  20  39  59  82 115 147 198 238 272 347
#     4   9  19  34  56  86 117 154 187 238 291 328
#     4  11  20  32  56  88 120 153 186 235 294 341
#     4   9  17  32  49  86 121 147 195 233 274 349
#
# _framework density 20.080521000000001
#
# number of rings (size 3 to 8) (size 9 to 14) (size 15 to 20)
#    0.000    2.286    1.429    1.714    2.000    1.143 
#    2.571    0.714    0.000    1.714    0.000    0.000 
#    0.000    0.000    0.000    0.000    0.000    0.000 
#
# Total GULP energy -173545.614693 kJ/mol
# GULP energy per Si atom -12396.115335 kJ/mol
# Density = 2.003482 g / cm^3
# Si number density = 20.080521 Si / 1000 Ang^3
#
#
#
# Elastic Constant Matrix: (Units=GPa)
#
#
# Indices 1 2 3 4 5 6 
#
# 1 94.1715 45.4363 33.4363 -2.7108 -15.1463 8.3225
# 2 45.4363 97.1806 45.1092 7.9745 -5.1009 1.2153
# 3 33.4363 45.1092 92.4257 -3.5270 -9.0311 1.3415
# 4 -2.7108 7.9745 -3.5270 27.1940 5.4710 -9.0282
# 5 -15.1463 -5.1009 -9.0311 5.4710 29.8948 -6.7817
# 6 8.3225 1.2153 1.3415 -9.0282 -6.7817 35.7113
#
#
#
# Elastic Compliance Matrix: (Units=1/GPa)
#
#
# Indices 1 2 3 4 5 6 
#
# 1 0.015323 -0.006039 -0.001985 0.001304 0.005458 -0.001925
# 2 -0.006039 0.016442 -0.006179 -0.006232 -0.001142 -0.000712
# 3 -0.001985 -0.006179 0.014875 0.003593 0.002099 0.001421
# 4 0.001304 -0.006232 0.003593 0.043466 -0.005048 0.009803
# 5 0.005458 -0.001142 0.002099 -0.005048 0.038657 0.004753
# 6 -0.001925 -0.000712 0.001421 0.009803 0.004753 0.031803
#
#
# Mechanical properties :
#
#
# Convention : Reuss Voigt Hill
#
# Bulk Modulus (GPa) = 54.84320 59.08238 56.96279
# Shear Modulus (GPa) = 25.63437 29.21310 27.42373
#
# Velocity S-wave (km/s) = 3.57680 3.81832 3.69953
# Velocity P-wave (km/s) = 6.66550 6.99471 6.83209
#
# Compressibility (1/GPa) = 0.01823380
#
# Stress axis : x y z
#
# Youngs Moduli (GPa) = 65.26115 60.81866 67.22789
#
# Poissons Ratio (x) = 0.36731 0.13343
# Poissons Ratio (y) = 0.39414 0.41540
# Poissons Ratio (z) = 0.12953 0.37580
#
# Static dielectric constant tensor:
#      x y z
#    x 3.846840 0.103450 -0.266780 
#    y 0.103450 3.497180 -0.046860 
#    z -0.266780 -0.046860 3.419190 
# 
# 
# High freq. dielectric constant tensor:
#      x y z
#    x 1.790640 0.003270 -0.019260 
#    y 0.003270 1.778010 -0.004660 
#    z -0.019260 -0.004660 1.746260 
# 
# From -- ./inp_files/67847.got.cif
#   From: 2010.06.25/outbox.cif.g09.slc.cpg/sg2_34_cif.got.tgz:67847.got - 2010.06.27 13:26:56.
