data_PCOD8023330
_publ_section_title
;
Structure prediction by ZEFSAII (Michael W. Deem and Ramdas Pophale) SiO2 
 PCOD8023330
Probable space group: P -1
;
_chemical_formula_sum "Si O2"
_cell_formula_units_Z 16
_cell_length_a 11.428121
_cell_length_b 8.550090
_cell_length_c 12.574786
_cell_angle_alpha 131.276125
_cell_angle_beta 53.232949
_cell_angle_gamma 100.386223
_cell_volume 691.144057
_symmetry_space_group_name_H-M "P -1"
_symmetry_group_IT_number 2
_symmetry_cell_setting 'triclinic'
loop_
_space_group_symop_operation_xyz
x,y,z
-x,-y,-z
loop_
_atom_site_type_symbol
_atom_site_label
_atom_site_fract_x
_atom_site_fract_y
_atom_site_fract_z
Si Si1 0.114409 0.415149 0.601994
Si Si2 0.695750 0.744118 0.762388
Si Si3 0.279469 0.962451 0.601584
Si Si4 0.360299 0.800058 0.914226
Si Si5 0.381146 0.340779 0.788177
Si Si6 0.174507 0.830003 0.819162
Si Si7 0.162465 0.962518 0.449185
Si Si8 0.251548 0.481952 0.145710
O O1 0.153523 0.419288 0.456672
O O2 0.173558 0.581051 0.711408
O O3 0.930688 0.482163 0.749500
O O4 0.216898 0.164063 0.472675
O O5 0.544333 0.751766 0.780222
O O6 0.678979 0.651666 0.845619
O O7 0.711024 0.986709 0.873768
O O8 0.437163 0.789321 0.388353
O O9 0.247545 0.866339 0.685680
O O10 0.146111 0.976306 0.593262
O O11 0.284049 0.208882 0.723327
O O12 0.323385 0.592199 0.888781
O O13 0.280866 0.862860 0.870474
O O14 0.347198 0.341412 0.932379
O O15 0.000000 0.000000 0.000000
O O16 0.278693 0.717919 0.241026
O O17 0.000000 0.000000 0.500000
#
# Coordination Sequence:
#
# PCOD8023330 Si02
#       8
#     2   2   2   2   2   2   2   2
#     4  11  23  41  67  97 130 170 214 266 319 381
#     4  11  24  42  68  98 132 168 214 268 323 383
#     4  11  25  44  66  95 128 172 216 263 323 379
#     4  11  25  43  66  97 129 169 216 266 323 381
#     4  11  24  43  68  94 131 171 216 266 316 384
#     4  12  26  45  68  94 130 171 217 267 321 383
#     4  10  23  41  65  96 131 167 212 263 319 383
#     4  11  23  43  66  97 132 171 215 263 324 381
#
# _framework density 23.150022
#
# number of rings (size 3 to 8) (size 9 to 14) (size 15 to 20)
#    0.000    1.000    0.000    6.375    0.000   13.000 
#    0.000    4.375    0.000    0.000    0.000    0.000 
#    0.000    0.000    0.000    0.000    0.000    0.000 
#
# Total GULP energy -198420.293415 kJ/mol
# GULP energy per Si atom -12401.268338 kJ/mol
# Density = 2.309733 g / cm^3
# Si number density = 23.150022 Si / 1000 Ang^3
#
#
#
# Elastic Constant Matrix: (Units=GPa)
#
#
# Indices 1 2 3 4 5 6 
#
# 1 144.3338 56.2579 45.5523 -3.0887 25.0385 -5.7824
# 2 56.2579 114.3706 56.7469 6.3538 5.4944 -1.3350
# 3 45.5523 56.7469 145.9466 -9.3427 10.5570 6.4060
# 4 -3.0887 6.3538 -9.3427 54.3307 5.2799 12.1034
# 5 25.0385 5.4944 10.5570 5.2799 29.4943 -1.0899
# 6 -5.7824 -1.3350 6.4060 12.1034 -1.0899 38.0845
#
#
#
# Elastic Compliance Matrix: (Units=1/GPa)
#
#
# Indices 1 2 3 4 5 6 
#
# 1 0.010338 -0.004326 -0.000916 0.001509 -0.007880 0.000867
# 2 -0.004326 0.013000 -0.004225 -0.003183 0.003392 0.001618
# 3 -0.000916 -0.004225 0.009262 0.002897 -0.002374 -0.002834
# 4 0.001509 -0.003183 0.002897 0.021579 -0.005861 -0.007395
# 5 -0.007880 0.003392 -0.002374 -0.005861 0.041950 0.002385
# 6 0.000867 0.001618 -0.002834 -0.007395 0.002385 0.029341
#
#
# Mechanical properties :
#
#
# Convention : Reuss Voigt Hill
#
# Bulk Modulus (GPa) = 73.17040 80.19614 76.68327
# Shear Modulus (GPa) = 33.56663 40.78816 37.17739
#
# Velocity S-wave (km/s) = 3.81197 4.20206 4.01176
# Velocity P-wave (km/s) = 7.14496 7.63284 7.39292
#
# Compressibility (1/GPa) = 0.01366673
#
# Stress axis : x y z
#
# Youngs Moduli (GPa) = 96.73461 76.92219 107.96884
#
# Poissons Ratio (x) = 0.33273 0.09892
# Poissons Ratio (y) = 0.41843 0.45614
# Poissons Ratio (z) = 0.08862 0.32498
#
# Static dielectric constant tensor:
#      x y z
#    x 4.176600 0.118760 0.316800 
#    y 0.118760 4.542700 0.369640 
#    z 0.316800 0.369640 4.324490 
# 
# 
# High freq. dielectric constant tensor:
#      x y z
#    x 1.915930 0.004560 0.021020 
#    y 0.004560 1.925470 0.012870 
#    z 0.021020 0.012870 1.921270 
# 
# From -- ./inp_files/419931.got.cif
#   From: 2010.06.25/outbox.cif.g09.slc.cpg/sg2_210_cif.got.tgz:419931.got - 2010.06.27 13:26:56.
