data_PCOD8023343
_publ_section_title
;
Structure prediction by ZEFSAII (Michael W. Deem and Ramdas Pophale) SiO2 
 PCOD8023343
Probable space group: P -1
;
_chemical_formula_sum "Si O2"
_cell_formula_units_Z 16
_cell_length_a 5.337767
_cell_length_b 8.900182
_cell_length_c 15.528378
_cell_angle_alpha 117.767635
_cell_angle_beta 88.893107
_cell_angle_gamma 91.317681
_cell_volume 652.553375
_symmetry_space_group_name_H-M "P -1"
_symmetry_group_IT_number 2
_symmetry_cell_setting 'triclinic'
loop_
_space_group_symop_operation_xyz
x,y,z
-x,-y,-z
loop_
_atom_site_type_symbol
_atom_site_label
_atom_site_fract_x
_atom_site_fract_y
_atom_site_fract_z
Si Si1 0.721465 0.394937 0.378899
Si Si2 0.501716 0.737187 0.485884
Si Si3 0.331216 0.657705 0.023585
Si Si4 0.942849 0.235134 0.089841
Si Si5 0.279242 0.061156 0.908660
Si Si6 0.924337 0.114597 0.788956
Si Si7 0.197218 0.934763 0.412982
Si Si8 0.223499 0.251509 0.258393
O O1 0.716253 0.600243 0.427119
O O2 0.689876 0.338694 0.462901
O O3 0.489447 0.330785 0.304256
O O4 0.993517 0.330968 0.334013
O O5 0.353135 0.780519 0.410918
O O6 0.621892 0.907706 0.570896
O O7 0.480359 0.828813 0.038764
O O8 0.179104 0.708802 0.123965
O O9 0.500000 0.500000 0.000000
O O10 0.169651 0.609661 0.925411
O O11 0.164335 0.291601 0.168630
O O12 0.716318 0.139791 0.121067
O O13 0.038621 0.119105 0.980073
O O14 0.207874 0.087171 0.814897
O O15 0.936815 0.130980 0.690385
O O16 0.758104 0.951265 0.779231
O O17 0.000000 0.000000 0.500000
#
# Coordination Sequence:
#
# PCOD8023343 Si02
#       8
#     2   2   2   2   2   2   2   2
#     4  11  25  44  69 104 137 179 229 293 340 403
#     4  10  25  42  67  97 137 181 232 283 350 404
#     4  11  24  41  65  94 138 174 221 282 347 406
#     4   9  21  38  64  97 120 175 218 274 329 401
#     4   9  20  40  64  88 127 170 221 275 329 404
#     4  10  23  41  65  98 127 183 230 276 346 412
#     4  11  23  43  68  96 141 184 232 278 346 414
#     4  11  24  41  72 103 138 175 234 283 345 402
#
# _framework density 24.519065000000001
#
# number of rings (size 3 to 8) (size 9 to 14) (size 15 to 20)
#    0.000    1.750    1.250    1.875    7.000    6.000 
#    2.250    0.000    0.000    0.000    0.000    0.000 
#    0.000    0.000    0.000    0.000    0.000    0.000 
#
# Total GULP energy -198273.304363 kJ/mol
# GULP energy per Si atom -12392.081523 kJ/mol
# Density = 2.446326 g / cm^3
# Si number density = 24.519065 Si / 1000 Ang^3
#
#
#
# Elastic Constant Matrix: (Units=GPa)
#
#
# Indices 1 2 3 4 5 6 
#
# 1 59.3474 20.6720 23.2959 -2.7460 7.1538 -16.0913
# 2 20.6720 100.1742 42.5281 -5.5266 -3.3331 -35.7169
# 3 23.2959 42.5281 138.4275 -25.3889 14.9910 -26.7150
# 4 -2.7460 -5.5266 -25.3889 31.0965 -10.4134 2.4909
# 5 7.1538 -3.3331 14.9910 -10.4134 38.5453 1.8053
# 6 -16.0913 -35.7169 -26.7150 2.4909 1.8053 38.5777
#
#
#
# Elastic Compliance Matrix: (Units=1/GPa)
#
#
# Indices 1 2 3 4 5 6 
#
# 1 0.020072 -0.001479 -0.001597 -0.001615 -0.003958 0.006186
# 2 -0.001479 0.015735 -0.002381 0.000454 0.002114 0.012174
# 3 -0.001597 -0.002381 0.010536 0.006932 -0.002326 0.004087
# 4 -0.001615 0.000454 0.006932 0.040482 0.008508 0.001535
# 5 -0.003958 0.002114 -0.002326 0.008508 0.030217 -0.003268
# 6 0.006186 0.012174 0.004087 0.001535 -0.003268 0.042657
#
#
# Mechanical properties :
#
#
# Convention : Reuss Voigt Hill
#
# Bulk Modulus (GPa) = 28.22663 52.32679 40.27671
# Shear Modulus (GPa) = 27.40885 35.74077 31.57481
#
# Velocity S-wave (km/s) = 3.34707 3.82209 3.59244
# Velocity P-wave (km/s) = 5.14531 6.39261 5.80257
#
# Compressibility (1/GPa) = 0.03542754
#
# Stress axis : x y z
#
# Youngs Moduli (GPa) = 49.82114 63.55391 94.90942
#
# Poissons Ratio (x) = 0.09400 0.15159
# Poissons Ratio (y) = 0.07369 0.22601
# Poissons Ratio (z) = 0.07958 0.15135
#
# Static dielectric constant tensor:
#      x y z
#    x 4.224030 -0.213260 0.155670 
#    y -0.213260 4.418680 -0.039750 
#    z 0.155670 -0.039750 4.563380 
# 
# 
# High freq. dielectric constant tensor:
#      x y z
#    x 1.968110 -0.020880 0.010380 
#    y -0.020880 1.962470 -0.010470 
#    z 0.010380 -0.010470 1.979280 
# 
# From -- ./inp_files/299816.got.cif
#   From: 2010.06.25/outbox.cif.g09.slc.cpg/sg2_150_cif.got.tgz:299816.got - 2010.06.27 13:26:56.
