data_PCOD8023193
_publ_section_title
;
Structure prediction by ZEFSAII (Michael W. Deem and Ramdas Pophale) SiO2 
 PCOD8023193
Probable space group: P -1
;
_chemical_formula_sum "Si O2"
_cell_formula_units_Z 16
_cell_length_a 14.322138
_cell_length_b 8.860799
_cell_length_c 14.502032
_cell_angle_alpha 79.899714
_cell_angle_beta 44.566183
_cell_angle_gamma 114.697144
_cell_volume 786.627193
_symmetry_space_group_name_H-M "P -1"
_symmetry_group_IT_number 2
_symmetry_cell_setting 'triclinic'
loop_
_space_group_symop_operation_xyz
x,y,z
-x,-y,-z
loop_
_atom_site_type_symbol
_atom_site_label
_atom_site_fract_x
_atom_site_fract_y
_atom_site_fract_z
Si Si1 0.626559 0.840167 0.837799
Si Si2 0.205148 0.350097 0.268859
Si Si3 0.983802 0.639915 0.438245
Si Si4 0.759148 0.009425 0.532197
Si Si5 0.639756 0.828080 0.297681
Si Si6 0.522815 0.399664 0.367634
Si Si7 0.943878 0.600384 0.084971
Si Si8 0.776742 0.361506 0.422384
O O1 0.715337 0.750255 0.768352
O O2 0.633032 0.930306 0.724538
O O3 0.386971 0.624480 0.068432
O O4 0.778799 0.073217 0.775281
O O5 0.154888 0.363760 0.405286
O O6 0.000150 0.171031 0.365576
O O7 0.882093 0.521520 0.423577
O O8 0.000000 0.500000 0.500000
O O9 0.766222 0.168935 0.449332
O O10 0.632862 0.764586 0.591995
O O11 0.607703 0.650235 0.275325
O O12 0.620676 0.758167 0.424131
O O13 0.465255 0.797836 0.398537
O O14 0.874864 0.107436 0.085206
O O15 0.721663 0.463236 0.215543
O O16 0.920906 0.544941 0.215430
O O17 0.000000 0.500000 0.000000
#
# Coordination Sequence:
#
# PCOD8023193 Si02
#       8
#     2   2   2   2   2   2   2   2
#     4  10  23  41  61  91 122 163 211 246 307 364
#     4  10  23  41  62  88 122 164 206 253 302 362
#     4  11  21  42  62  88 130 161 198 259 301 358
#     4  11  21  40  61  89 124 161 206 247 308 365
#     4  10  23  42  63  91 125 155 203 255 307 364
#     4  10  23  41  65  90 121 162 199 254 309 363
#     4  11  23  43  65  93 126 158 204 254 302 369
#     4  11  24  39  63  94 119 167 204 244 315 360
#
# _framework density 20.340001999999998
#
# number of rings (size 3 to 8) (size 9 to 14) (size 15 to 20)
#    0.000    1.500    2.500    3.375    3.500    6.500 
#    2.250    0.000    0.000    0.000    0.000    0.000 
#    0.000    0.000    0.000    0.000    0.000    0.000 
#
# Total GULP energy -198464.375460 kJ/mol
# GULP energy per Si atom -12404.023466 kJ/mol
# Density = 2.029371 g / cm^3
# Si number density = 20.340002 Si / 1000 Ang^3
#
#
#
# Elastic Constant Matrix: (Units=GPa)
#
#
# Indices 1 2 3 4 5 6 
#
# 1 71.3251 21.6155 34.1205 -0.8805 0.4200 13.0664
# 2 21.6155 112.1083 43.3075 -12.7395 -5.8496 14.1141
# 3 34.1205 43.3075 126.4751 -23.5878 -1.3564 8.5650
# 4 -0.8805 -12.7395 -23.5878 36.8424 -6.2062 -1.1928
# 5 0.4200 -5.8496 -1.3564 -6.2062 20.0154 -4.3370
# 6 13.0664 14.1141 8.5650 -1.1928 -4.3370 39.4394
#
#
#
# Elastic Compliance Matrix: (Units=1/GPa)
#
#
# Indices 1 2 3 4 5 6 
#
# 1 0.017552 -0.001618 -0.004608 -0.003808 -0.003357 -0.004720
# 2 -0.001618 0.011027 -0.002665 0.002555 0.003351 -0.002386
# 3 -0.004608 -0.002665 0.011282 0.006581 0.002226 0.000474
# 4 -0.003808 0.002555 0.006581 0.034241 0.012170 0.001292
# 5 -0.003357 0.003351 0.002226 0.012170 0.056232 0.005981
# 6 -0.004720 -0.002386 0.000474 0.001292 0.005981 0.028367
#
#
# Mechanical properties :
#
#
# Convention : Reuss Voigt Hill
#
# Bulk Modulus (GPa) = 45.29252 56.44396 50.86824
# Shear Modulus (GPa) = 27.19722 33.31710 30.25716
#
# Velocity S-wave (km/s) = 3.66065 4.05162 3.86109
# Velocity P-wave (km/s) = 6.33902 7.04968 6.70377
#
# Compressibility (1/GPa) = 0.02207870
#
# Stress axis : x y z
#
# Youngs Moduli (GPa) = 56.97230 90.68578 88.63902
#
# Poissons Ratio (x) = 0.14672 0.40844
# Poissons Ratio (y) = 0.09218 0.23626
# Poissons Ratio (z) = 0.26252 0.24171
#
# Static dielectric constant tensor:
#      x y z
#    x 3.738070 0.053100 0.084580 
#    y 0.053100 3.949650 -0.112130 
#    z 0.084580 -0.112130 3.865290 
# 
# 
# High freq. dielectric constant tensor:
#      x y z
#    x 1.794280 -0.003980 -0.000460 
#    y -0.003980 1.810070 -0.010540 
#    z -0.000460 -0.010540 1.797070 
# 
# From -- ./inp_files/529649.got.cif
#   From: 2010.06.25/outbox.cif.g09.slc.cpg/sg2_265_cif.got.tgz:529649.got - 2010.06.27 13:26:56.
