data_PCOD8023071
_publ_section_title
;
Structure prediction by ZEFSAII (Michael W. Deem and Ramdas Pophale) SiO2 
 PCOD8023071
Probable space group: P -1
;
_chemical_formula_sum "Si O2"
_cell_formula_units_Z 14
_cell_length_a 11.537381
_cell_length_b 6.841083
_cell_length_c 14.560833
_cell_angle_alpha 134.332479
_cell_angle_beta 124.408470
_cell_angle_gamma 76.311952
_cell_volume 653.382678
_symmetry_space_group_name_H-M "P -1"
_symmetry_group_IT_number 2
_symmetry_cell_setting 'triclinic'
loop_
_space_group_symop_operation_xyz
x,y,z
-x,-y,-z
loop_
_atom_site_type_symbol
_atom_site_label
_atom_site_fract_x
_atom_site_fract_y
_atom_site_fract_z
Si Si1 0.482115 0.239106 0.001789
Si Si2 0.069981 0.286763 0.575474
Si Si3 0.093651 0.246881 0.363958
Si Si4 0.264048 0.445071 0.879171
Si Si5 0.585391 0.723923 0.538496
Si Si6 0.112514 0.354351 0.959735
Si Si7 0.426042 0.643097 0.250977
O O1 0.595513 0.283536 0.981753
O O2 0.507148 0.531048 0.167507
O O3 0.321746 0.182112 0.862089
O O4 0.500000 0.000000 0.000000
O O5 0.121465 0.223691 0.477213
O O6 0.209208 0.425307 0.744357
O O7 0.953551 0.469225 0.583208
O O8 0.000000 0.000000 0.500000
O O9 0.243647 0.264873 0.384009
O O10 0.961872 0.982463 0.185512
O O11 0.146631 0.486256 0.914713
O O12 0.500000 0.500000 0.500000
O O13 0.508708 0.619093 0.373554
O O14 0.573937 0.034470 0.662808
O O15 0.260396 0.434878 0.112878
O O16 0.000000 0.500000 0.000000
#
# Coordination Sequence:
#
# PCOD8023071 Si02
#       7
#     2   2   2   2   2   2   2
#     4  10  23  42  69  98 136 170 220 278 336 400
#     4  11  24  43  70  98 135 170 228 281 332 402
#     4  11  25  44  70 102 132 184 225 279 343 395
#     4  10  23  40  67 100 127 178 221 268 340 388
#     4  11  25  46  67  94 134 182 227 268 341 408
#     4  11  22  45  70  97 139 173 222 284 337 403
#     4  10  24  44  68  96 134 173 226 284 331 397
#
# _framework density 21.426953999999999
#
# number of rings (size 3 to 8) (size 9 to 14) (size 15 to 20)
#    0.000    1.429    2.857    0.857    4.000    9.143 
#    0.000    1.429    0.000    0.000    0.000    0.000 
#    0.000    0.000    0.000    0.000    0.000    0.000 
#
# Total GULP energy -173476.589479 kJ/mol
# GULP energy per Si atom -12391.184963 kJ/mol
# Density = 2.137818 g / cm^3
# Si number density = 21.426954 Si / 1000 Ang^3
#
#
#
# Elastic Constant Matrix: (Units=GPa)
#
#
# Indices 1 2 3 4 5 6 
#
# 1 142.8342 51.8878 31.9117 16.1585 11.9234 12.7878
# 2 51.8878 132.3879 30.2919 -1.7215 0.5058 13.0086
# 3 31.9117 30.2919 109.3496 -6.6120 7.6366 3.4933
# 4 16.1585 -1.7215 -6.6120 36.3563 -3.9670 1.8251
# 5 11.9234 0.5058 7.6366 -3.9670 29.5677 3.9082
# 6 12.7878 13.0086 3.4933 1.8251 3.9082 26.7856
#
#
#
# Elastic Compliance Matrix: (Units=1/GPa)
#
#
# Indices 1 2 3 4 5 6 
#
# 1 0.009660 -0.003213 -0.001913 -0.005110 -0.003781 -0.001902
# 2 -0.003213 0.009533 -0.001633 0.001998 0.002265 -0.003349
# 3 -0.001913 -0.001633 0.010404 0.002468 -0.001612 0.000417
# 4 -0.005110 0.001998 0.002468 0.031044 0.005794 -0.001813
# 5 -0.003781 0.002265 -0.001612 0.005794 0.037148 -0.004900
# 6 -0.001902 -0.003349 0.000417 -0.001813 -0.004900 0.040652
#
#
# Mechanical properties :
#
#
# Convention : Reuss Voigt Hill
#
# Bulk Modulus (GPa) = 62.19960 68.08383 65.14172
# Shear Modulus (GPa) = 31.78230 36.57395 34.17813
#
# Velocity S-wave (km/s) = 3.85552 4.13596 3.99820
# Velocity P-wave (km/s) = 6.99370 7.39270 7.19597
#
# Compressibility (1/GPa) = 0.01607727
#
# Stress axis : x y z
#
# Youngs Moduli (GPa) = 103.52051 104.89610 96.11423
#
# Poissons Ratio (x) = 0.33708 0.18388
# Poissons Ratio (y) = 0.33266 0.15700
# Poissons Ratio (z) = 0.19805 0.17135
#
# Static dielectric constant tensor:
#      x y z
#    x 4.048760 0.008940 -0.011350 
#    y 0.008940 3.863660 -0.084420 
#    z -0.011350 -0.084420 4.029580 
# 
# 
# High freq. dielectric constant tensor:
#      x y z
#    x 1.852630 0.001090 0.005970 
#    y 0.001090 1.836830 -0.013430 
#    z 0.005970 -0.013430 1.845410 
# 
# From -- ./inp_files/69549.got.cif
#   From: 2010.06.25/outbox.cif.g09.slc.cpg/sg2_35_cif.got.tgz:69549.got - 2010.06.27 13:26:56.
