data_PCOD8023536
_publ_section_title
;
Structure prediction by ZEFSAII (Michael W. Deem and Ramdas Pophale) SiO2 
 PCOD8023536
Probable space group: P -1
;
_chemical_formula_sum "Si O2"
_cell_formula_units_Z 16
_cell_length_a 13.882109
_cell_length_b 14.578639
_cell_length_c 8.855776
_cell_angle_alpha 41.727264
_cell_angle_beta 140.344626
_cell_angle_gamma 136.428793
_cell_volume 712.268602
_symmetry_space_group_name_H-M "P -1"
_symmetry_group_IT_number 2
_symmetry_cell_setting 'triclinic'
loop_
_space_group_symop_operation_xyz
x,y,z
-x,-y,-z
loop_
_atom_site_type_symbol
_atom_site_label
_atom_site_fract_x
_atom_site_fract_y
_atom_site_fract_z
Si Si1 0.842444 0.418541 0.813027
Si Si2 0.532579 0.172447 0.849281
Si Si3 0.996323 0.630797 0.229170
Si Si4 0.548417 0.830494 0.904634
Si Si5 0.268059 0.879530 0.384979
Si Si6 0.224829 0.229282 0.341984
Si Si7 0.917789 0.041324 0.704928
Si Si8 0.804875 0.712246 0.414510
O O1 0.716880 0.268336 0.914176
O O2 0.896688 0.370691 0.782440
O O3 0.757288 0.538419 0.548420
O O4 0.000000 0.500000 0.000000
O O5 0.408349 0.234025 0.532528
O O6 0.509711 0.202534 0.956399
O O7 0.500000 0.000000 0.000000
O O8 0.088711 0.780354 0.245271
O O9 0.000000 0.500000 0.500000
O O10 0.820877 0.639002 0.959209
O O11 0.389217 0.788056 0.659663
O O12 0.658068 0.000844 0.802622
O O13 0.660159 0.737077 0.115934
O O14 0.249747 0.947896 0.444110
O O15 0.186210 0.235768 0.464502
O O16 0.111514 0.075275 0.322462
O O17 0.026527 0.198115 0.572750
O O18 0.000000 0.000000 0.000000
#
# Coordination Sequence:
#
# PCOD8023536 Si02
#       8
#     2   2   2   2   2   2   2   2
#     4  12  28  47  72 102 141 185 241 286 354 424
#     4  11  26  47  73 103 139 185 243 291 355 414
#     4  12  26  44  67 102 143 187 230 291 356 419
#     4  10  23  41  69  96 138 184 225 294 348 411
#     4  11  23  41  64 104 143 178 236 281 354 421
#     4  11  25  44  70 102 142 182 243 290 349 420
#     4  12  22  39  73 104 142 183 239 282 356 421
#     4  11  24  45  67 102 139 187 238 293 350 412
#
# _framework density 22.463435
#
# number of rings (size 3 to 8) (size 9 to 14) (size 15 to 20)
#    0.000    0.750    3.750    2.625    5.250    6.000 
#    0.000    1.250    0.000    0.000    0.000    0.000 
#    0.000    0.000    0.000    0.000    0.000    0.000 
#
# Total GULP energy -198269.088058 kJ/mol
# GULP energy per Si atom -12391.818004 kJ/mol
# Density = 2.241231 g / cm^3
# Si number density = 22.463435 Si / 1000 Ang^3
#
#
#
# Elastic Constant Matrix: (Units=GPa)
#
#
# Indices 1 2 3 4 5 6 
#
# 1 106.4523 36.2766 38.6996 -5.8783 4.0810 11.7330
# 2 36.2766 92.5927 34.4850 -10.2807 3.8951 10.7733
# 3 38.6996 34.4850 162.7666 -6.2227 32.0771 14.4980
# 4 -5.8783 -10.2807 -6.2227 24.8545 4.3234 1.0611
# 5 4.0810 3.8951 32.0771 4.3234 37.7943 -3.2354
# 6 11.7330 10.7733 14.4980 1.0611 -3.2354 40.1045
#
#
#
# Elastic Compliance Matrix: (Units=1/GPa)
#
#
# Indices 1 2 3 4 5 6 
#
# 1 0.011502 -0.003535 -0.001904 0.000767 0.000504 -0.001707
# 2 -0.003535 0.013549 -0.001590 0.004528 -0.000370 -0.002180
# 3 -0.001904 -0.001590 0.008790 0.002542 -0.007628 -0.002876
# 4 0.000767 0.004528 0.002542 0.044523 -0.008160 -0.004196
# 5 0.000504 -0.000370 -0.007628 -0.008160 0.034338 0.005695
# 6 -0.001707 -0.002180 -0.002876 -0.004196 0.005695 0.027630
#
#
# Mechanical properties :
#
#
# Convention : Reuss Voigt Hill
#
# Bulk Modulus (GPa) = 50.54692 64.52599 57.53646
# Shear Modulus (GPa) = 31.05915 37.37401 34.21658
#
# Velocity S-wave (km/s) = 3.72244 4.08336 3.90707
# Velocity P-wave (km/s) = 6.40516 7.14276 6.78399
#
# Compressibility (1/GPa) = 0.01978360
#
# Stress axis : x y z
#
# Youngs Moduli (GPa) = 86.94409 73.80644 113.76651
#
# Poissons Ratio (x) = 0.26088 0.21659
# Poissons Ratio (y) = 0.30732 0.18089
# Poissons Ratio (z) = 0.16553 0.11735
#
# Static dielectric constant tensor:
#      x y z
#    x 4.392500 -0.132050 0.077570 
#    y -0.132050 4.090950 0.338930 
#    z 0.077570 0.338930 4.909250 
# 
# 
# High freq. dielectric constant tensor:
#      x y z
#    x 1.895490 -0.003940 0.011810 
#    y -0.003940 1.860570 0.000110 
#    z 0.011810 0.000110 1.908560 
# 
# From -- ./inp_files/314509.got.cif
#   From: 2010.06.25/outbox.cif.g09.slc.cpg/sg2_158_cif.got.tgz:314509.got - 2010.06.27 13:26:56.
