data_PCOD8023985
_publ_section_title
;
Structure prediction by ZEFSAII (Michael W. Deem and Ramdas Pophale) SiO2 
 PCOD8023985
Probable space group: P -1
;
_chemical_formula_sum "Si O2"
_cell_formula_units_Z 16
_cell_length_a 17.571045
_cell_length_b 9.071899
_cell_length_c 5.306623
_cell_angle_alpha 120.531800
_cell_angle_beta 86.435010
_cell_angle_gamma 114.827428
_cell_volume 648.790386
_symmetry_space_group_name_H-M "P -1"
_symmetry_group_IT_number 2
_symmetry_cell_setting 'triclinic'
loop_
_space_group_symop_operation_xyz
x,y,z
-x,-y,-z
loop_
_atom_site_type_symbol
_atom_site_label
_atom_site_fract_x
_atom_site_fract_y
_atom_site_fract_z
Si Si1 0.671420 0.407338 0.588488
Si Si2 0.090385 0.035450 0.912988
Si Si3 0.504552 0.617215 0.346006
Si Si4 0.912993 0.350973 0.515913
Si Si5 0.778661 0.737793 0.545323
Si Si6 0.833082 0.553578 0.004668
Si Si7 0.263586 0.845099 0.851061
Si Si8 0.311611 0.079293 0.538242
O O1 0.573526 0.328993 0.619692
O O2 0.701565 0.618335 0.648334
O O3 0.737111 0.418862 0.806957
O O4 0.675094 0.257887 0.255182
O O5 0.153458 0.067262 0.165357
O O6 0.126048 0.230479 0.921185
O O7 0.083735 0.850124 0.594615
O O8 0.000000 0.000000 0.000000
O O9 0.500000 0.500000 0.500000
O O10 0.590508 0.814249 0.477562
O O11 0.500000 0.500000 0.000000
O O12 0.894593 0.451640 0.855759
O O13 0.835000 0.307355 0.304585
O O14 0.000000 0.500000 0.500000
O O15 0.735832 0.784504 0.351222
O O16 0.822346 0.597883 0.338922
O O17 0.297380 0.007063 0.764900
O O18 0.266073 0.916798 0.196286
#
# Coordination Sequence:
#
# PCOD8023985 Si02
#       8
#     2   2   2   2   2   2   2   2
#     4  10  25  44  69 103 144 186 241 302 359 440
#     4  11  22  42  65  99 141 178 244 307 369 445
#     4  12  25  43  74 110 143 187 248 303 358 441
#     4  11  22  45  68  99 144 187 246 309 368 437
#     4  11  23  43  73  97 140 193 245 295 371 444
#     4  10  23  42  68  97 138 195 239 301 374 437
#     4  11  27  46  71 105 148 192 241 303 378 442
#     4  12  25  46  75 106 145 194 242 299 377 438
#
# _framework density 24.661279
#
# number of rings (size 3 to 8) (size 9 to 14) (size 15 to 20)
#    0.000    1.000    3.750    2.250    5.250    1.500 
#    0.000    1.250    0.000    0.000    0.000    0.000 
#    0.000    0.000    0.000    0.000    0.000    0.000 
#
# Total GULP energy -198266.698880 kJ/mol
# GULP energy per Si atom -12391.668680 kJ/mol
# Density = 2.460515 g / cm^3
# Si number density = 24.661279 Si / 1000 Ang^3
#
#
#
# Elastic Constant Matrix: (Units=GPa)
#
#
# Indices 1 2 3 4 5 6 
#
# 1 140.8091 51.6985 19.9716 14.5432 -26.8752 20.8701
# 2 51.6985 100.0448 23.9901 -0.6967 1.4053 5.6442
# 3 19.9716 23.9901 104.9537 11.3158 -30.0124 -0.1980
# 4 14.5432 -0.6967 11.3158 36.4661 -8.0056 -1.3373
# 5 -26.8752 1.4053 -30.0124 -8.0056 42.0901 7.8860
# 6 20.8701 5.6442 -0.1980 -1.3373 7.8860 43.0328
#
#
#
# Elastic Compliance Matrix: (Units=1/GPa)
#
#
# Indices 1 2 3 4 5 6 
#
# 1 0.012983 -0.007132 0.002764 -0.004000 0.011146 -0.007515
# 2 -0.007132 0.014781 -0.004748 0.002854 -0.008479 0.003141
# 3 0.002764 -0.004748 0.013751 -0.002998 0.011700 -0.002892
# 4 -0.004000 0.002854 -0.002998 0.030202 0.000508 0.002397
# 5 0.011146 -0.008479 0.011700 0.000508 0.041825 -0.011889
# 6 -0.007515 0.003141 -0.002892 0.002397 -0.011889 0.028711
#
#
# Mechanical properties :
#
#
# Convention : Reuss Voigt Hill
#
# Bulk Modulus (GPa) = 42.94930 59.68088 51.31509
# Shear Modulus (GPa) = 29.71839 40.99430 35.35635
#
# Velocity S-wave (km/s) = 3.47517 4.08155 3.79050
# Velocity P-wave (km/s) = 5.79274 6.81651 6.32537
#
# Compressibility (1/GPa) = 0.02328327
#
# Stress axis : x y z
#
# Youngs Moduli (GPa) = 77.02547 67.65280 72.72326
#
# Poissons Ratio (x) = 0.48251 -0.20102
# Poissons Ratio (y) = 0.54936 0.34528
# Poissons Ratio (z) = -0.21291 0.32120
#
# Static dielectric constant tensor:
#      x y z
#    x 3.491680 -0.665600 -0.308810 
#    y -0.665600 4.454800 0.082540 
#    z -0.308810 0.082540 4.704980 
# 
# 
# High freq. dielectric constant tensor:
#      x y z
#    x 1.984530 0.008770 -0.022710 
#    y 0.008770 1.982450 0.010000 
#    z -0.022710 0.010000 1.985920 
# 
# From -- ./inp_files/107579.got.cif
#   From: 2010.06.25/outbox.cif.g09.slc.cpg/sg2_54_cif.got.tgz:107579.got - 2010.06.27 13:26:56.
