data_PCOD8023551
_publ_section_title
;
Structure prediction by ZEFSAII (Michael W. Deem and Ramdas Pophale) SiO2 
 PCOD8023551
Probable space group: P -1
;
_chemical_formula_sum "Si O2"
_cell_formula_units_Z 16
_cell_length_a 23.099918
_cell_length_b 28.826151
_cell_length_c 11.763623
_cell_angle_alpha 31.231907
_cell_angle_beta 31.618826
_cell_angle_gamma 10.291140
_cell_volume 721.149855
_symmetry_space_group_name_H-M "P -1"
_symmetry_group_IT_number 2
_symmetry_cell_setting 'triclinic'
loop_
_space_group_symop_operation_xyz
x,y,z
-x,-y,-z
loop_
_atom_site_type_symbol
_atom_site_label
_atom_site_fract_x
_atom_site_fract_y
_atom_site_fract_z
Si Si1 0.298306 0.451450 0.938318
Si Si2 0.552911 0.714280 0.715788
Si Si3 0.684096 0.270666 0.522013
Si Si4 0.345511 0.220190 0.945226
Si Si5 0.902495 0.917930 0.635595
Si Si6 0.526941 0.341424 0.236727
Si Si7 0.798715 0.315003 0.738646
Si Si8 0.245115 0.265334 0.759383
O O1 0.619879 0.231352 0.790870
O O2 0.058159 0.712572 0.747152
O O3 0.370344 0.398334 0.062778
O O4 0.122135 0.492449 0.117828
O O5 0.661626 0.567856 0.736820
O O6 0.758819 0.649127 0.501289
O O7 0.176217 0.028835 0.677170
O O8 0.395068 0.511008 0.414813
O O9 0.795030 0.276537 0.387641
O O10 0.000000 0.000000 0.500000
O O11 0.337648 0.236179 0.788079
O O12 0.575800 0.125746 0.806659
O O13 0.000000 0.500000 0.000000
O O14 0.506409 0.998702 0.157014
O O15 0.816575 0.060189 0.392049
O O16 0.272394 0.560110 0.303253
O O17 0.700239 0.293190 0.991967
#
# Coordination Sequence:
#
# PCOD8023551 Si02
#       8
#     2   2   2   2   2   2   2   2
#     4  11  26  45  67  99 138 181 225 284 341 402
#     4  12  24  45  71  96 140 180 228 281 339 407
#     4  12  25  41  67  98 137 175 223 281 339 406
#     4  10  23  41  70 101 136 174 225 283 335 403
#     4  11  22  44  68  99 133 179 228 271 347 401
#     4  11  23  43  66  99 134 179 224 276 337 404
#     4  11  26  42  69  99 139 176 231 278 345 402
#     4  10  24  42  69 100 133 179 229 274 341 404
#
# _framework density 22.186790999999999
#
# number of rings (size 3 to 8) (size 9 to 14) (size 15 to 20)
#    0.000    1.000    2.500    3.375    8.750    0.000 
#    0.000    0.000    0.000    3.750    0.000    0.000 
#    0.000    0.000    0.000    0.000    0.000    0.000 
#
# Total GULP energy -198251.131122 kJ/mol
# GULP energy per Si atom -12390.695695 kJ/mol
# Density = 2.213629 g / cm^3
# Si number density = 22.186791 Si / 1000 Ang^3
#
#
#
# Elastic Constant Matrix: (Units=GPa)
#
#
# Indices 1 2 3 4 5 6 
#
# 1 109.8008 38.7193 57.9107 11.2181 -2.6875 -6.0348
# 2 38.7193 86.0226 42.6475 20.5757 -6.7663 -0.4894
# 3 57.9107 42.6475 156.9324 11.7782 -1.0334 1.3189
# 4 11.2181 20.5757 11.7782 43.4538 -8.3627 -0.9726
# 5 -2.6875 -6.7663 -1.0334 -8.3627 30.0578 1.3586
# 6 -6.0348 -0.4894 1.3189 -0.9726 1.3586 28.4320
#
#
#
# Elastic Compliance Matrix: (Units=1/GPa)
#
#
# Indices 1 2 3 4 5 6 
#
# 1 0.012514 -0.003737 -0.003593 -0.000444 -0.000094 0.002748
# 2 -0.003737 0.016041 -0.002541 -0.005640 0.001651 -0.000671
# 3 -0.003593 -0.002541 0.008417 -0.000299 -0.000634 -0.001177
# 4 -0.000444 -0.005640 -0.000299 0.027081 0.006195 0.000453
# 5 -0.000094 0.001651 -0.000634 0.006195 0.035399 -0.001442
# 6 0.002748 -0.000671 -0.001177 0.000453 -0.001442 0.035882
#
#
# Mechanical properties :
#
#
# Convention : Reuss Voigt Hill
#
# Bulk Modulus (GPa) = 58.03369 70.14566 64.08968
# Shear Modulus (GPa) = 31.09072 34.62060 32.85566
#
# Velocity S-wave (km/s) = 3.74748 3.95449 3.85238
# Velocity P-wave (km/s) = 6.70361 7.24812 6.98118
#
# Compressibility (1/GPa) = 0.01723137
#
# Stress axis : x y z
#
# Youngs Moduli (GPa) = 79.90939 62.33851 118.81372
#
# Poissons Ratio (x) = 0.23296 0.42687
# Poissons Ratio (y) = 0.29863 0.30185
# Poissons Ratio (z) = 0.28710 0.15837
#
# Static dielectric constant tensor:
#      x y z
#    x 3.993170 0.072930 -0.093700 
#    y 0.072930 4.020570 0.073490 
#    z -0.093700 0.073490 4.736920 
# 
# 
# High freq. dielectric constant tensor:
#      x y z
#    x 1.871590 -0.005410 -0.006500 
#    y -0.005410 1.865240 0.007040 
#    z -0.006500 0.007040 1.891020 
# 
# From -- ./inp_files/308749.got.cif
#   From: 2010.06.25/outbox.cif.g09.slc.cpg/sg2_155_cif.got.tgz:308749.got - 2010.06.27 13:26:56.
