data_PCOD8023800
_publ_section_title
;
Structure prediction by ZEFSAII (Michael W. Deem and Ramdas Pophale) SiO2 
 PCOD8023800
Probable space group: P -1
;
_chemical_formula_sum "Si O2"
_cell_formula_units_Z 16
_cell_length_a 20.844948
_cell_length_b 12.031656
_cell_length_c 15.756579
_cell_angle_alpha 152.725590
_cell_angle_beta 153.291199
_cell_angle_gamma 26.858606
_cell_volume 715.585758
_symmetry_space_group_name_H-M "P -1"
_symmetry_group_IT_number 2
_symmetry_cell_setting 'triclinic'
loop_
_space_group_symop_operation_xyz
x,y,z
-x,-y,-z
loop_
_atom_site_type_symbol
_atom_site_label
_atom_site_fract_x
_atom_site_fract_y
_atom_site_fract_z
Si Si1 0.130021 0.094389 0.116397
Si Si2 0.324400 0.830673 0.860235
Si Si3 0.251336 0.045524 0.592944
Si Si4 0.319845 0.345060 0.598569
Si Si5 0.911527 0.102346 0.241345
Si Si6 0.489037 0.920515 0.649739
Si Si7 0.435132 0.658507 0.694414
Si Si8 0.206141 0.589146 0.983043
O O1 0.237667 0.245047 0.361908
O O2 0.940041 0.298480 0.046344
O O3 0.152421 0.008965 0.986885
O O4 0.196385 0.831918 0.077657
O O5 0.408020 0.505244 0.766540
O O6 0.144136 0.983037 0.793511
O O7 0.321043 0.838687 0.759878
O O8 0.426367 0.974874 0.111197
O O9 0.191617 0.366477 0.755170
O O10 0.103709 0.976969 0.380749
O O11 0.321384 0.966159 0.526546
O O12 0.389751 0.858513 0.696320
O O13 0.178287 0.562082 0.641398
O O14 0.453685 0.090014 0.635972
O O15 0.598252 0.598074 0.538817
O O16 0.624172 0.548834 0.861088
#
# Coordination Sequence:
#
# PCOD8023800 Si02
#       8
#     2   2   2   2   2   2   2   2
#     4  11  22  41  71 100 135 167 218 280 337 395
#     4  10  26  43  66 101 131 179 214 277 332 389
#     4  12  25  46  68  95 138 179 221 276 319 391
#     4  10  23  42  66 100 135 167 212 280 337 388
#     4  10  25  43  65  99 133 175 219 267 334 392
#     4  12  24  42  71 101 130 172 224 273 335 393
#     4  12  26  44  67  96 138 177 226 265 326 395
#     4  11  22  40  68 101 128 176 213 277 339 377
#
# _framework density 22.359304999999999
#
# number of rings (size 3 to 8) (size 9 to 14) (size 15 to 20)
#    0.750    0.250    3.750    2.625    3.500    2.000 
#    0.000    0.625    0.000    0.000    0.000    0.000 
#    0.000    0.000    0.000    0.000    0.000    0.000 
#
# Total GULP energy -198401.074629 kJ/mol
# GULP energy per Si atom -12400.067164 kJ/mol
# Density = 2.230841 g / cm^3
# Si number density = 22.359305 Si / 1000 Ang^3
#
#
#
# Elastic Constant Matrix: (Units=GPa)
#
#
# Indices 1 2 3 4 5 6 
#
# 1 41.1652 -9.4172 20.1125 3.3232 -3.2185 -8.3392
# 2 -9.4172 34.3478 13.0436 2.1824 -2.0159 -6.6380
# 3 20.1125 13.0436 137.9313 17.0867 -12.9853 -11.5116
# 4 3.3232 2.1824 17.0867 27.0516 -6.3252 -1.2025
# 5 -3.2185 -2.0159 -12.9853 -6.3252 36.7034 0.5815
# 6 -8.3392 -6.6380 -11.5116 -1.2025 0.5815 26.3384
#
#
#
# Elastic Compliance Matrix: (Units=1/GPa)
#
#
# Indices 1 2 3 4 5 6 
#
# 1 0.032008 0.012883 -0.004660 -0.001181 0.001484 0.011258
# 2 0.012883 0.036565 -0.004123 -0.001116 0.001306 0.011413
# 3 -0.004660 -0.004123 0.009138 -0.004385 0.001822 0.001239
# 4 -0.001181 -0.001116 -0.004385 0.041197 0.005396 -0.000810
# 5 0.001484 0.001306 0.001822 0.005396 0.029003 0.001202
# 6 0.011258 0.011413 0.001239 -0.000810 0.001202 0.044886
#
#
# Mechanical properties :
#
#
# Convention : Reuss Voigt Hill
#
# Bulk Modulus (GPa) = 11.63982 28.99135 20.31558
# Shear Modulus (GPa) = 23.44849 30.66572 27.05710
#
# Velocity S-wave (km/s) = 3.24190 3.70739 3.48243
# Velocity P-wave (km/s) = 4.38524 5.59648 5.02747
#
# Compressibility (1/GPa) = 0.08591199
#
# Stress axis : x y z
#
# Youngs Moduli (GPa) = 31.24178 27.34856 109.43838
#
# Poissons Ratio (x) = -0.35234 0.51000
# Poissons Ratio (y) = -0.40250 0.45118
# Poissons Ratio (z) = 0.14559 0.11275
#
# Static dielectric constant tensor:
#      x y z
#    x 3.909800 -0.183850 -0.058430 
#    y -0.183850 3.793460 0.247280 
#    z -0.058430 0.247280 4.086700 
# 
# 
# High freq. dielectric constant tensor:
#      x y z
#    x 1.880880 -0.011890 -0.003650 
#    y -0.011890 1.855930 0.015490 
#    z -0.003650 0.015490 1.895230 
# 
# From -- ./inp_files/541188.got.cif
#   From: 2010.06.25/outbox.cif.g09.slc.cpg/sg2_271_cif.got.tgz:541188.got - 2010.06.27 13:26:56.
