data_PCOD8023139
_publ_section_title
;
Structure prediction by ZEFSAII (Michael W. Deem and Ramdas Pophale) SiO2 
 PCOD8023139
Probable space group: P -1
;
_chemical_formula_sum "Si O2"
_cell_formula_units_Z 16
_cell_length_a 14.167202
_cell_length_b 11.612798
_cell_length_c 8.965141
_cell_angle_alpha 53.408343
_cell_angle_beta 111.025344
_cell_angle_gamma 68.823495
_cell_volume 708.770141
_symmetry_space_group_name_H-M "P -1"
_symmetry_group_IT_number 2
_symmetry_cell_setting 'triclinic'
loop_
_space_group_symop_operation_xyz
x,y,z
-x,-y,-z
loop_
_atom_site_type_symbol
_atom_site_label
_atom_site_fract_x
_atom_site_fract_y
_atom_site_fract_z
Si Si1 0.039370 0.478950 0.365740
Si Si2 0.663490 0.236421 0.308473
Si Si3 0.151858 0.659139 0.297951
Si Si4 0.469558 0.033746 0.706115
Si Si5 0.292018 0.111433 0.278149
Si Si6 0.031905 0.933049 0.302918
Si Si7 0.516285 0.753784 0.207721
Si Si8 0.794906 0.988503 0.268539
O O1 0.160975 0.478077 0.425699
O O2 0.127903 0.251031 0.516243
O O3 0.000000 0.500000 0.500000
O O4 0.890998 0.680666 0.024639
O O5 0.794677 0.213398 0.433380
O O6 0.653871 0.116416 0.515792
O O7 0.712380 0.101160 0.291881
O O8 0.500000 0.500000 0.000000
O O9 0.046035 0.813780 0.261024
O O10 0.333741 0.514768 0.527975
O O11 0.069214 0.816273 0.985370
O O12 0.322390 0.153751 0.423223
O O13 0.442913 0.209687 0.644029
O O14 0.621079 0.891252 0.797176
O O15 0.501816 0.871910 0.964955
O O16 0.931533 0.957177 0.350302
O O17 0.351804 0.844246 0.062106
#
# Coordination Sequence:
#
# PCOD8023139 Si02
#       8
#     2   2   2   2   2   2   2   2
#     4  12  23  44  75 107 143 183 239 314 364 424
#     4  12  27  49  71 100 148 198 243 297 359 441
#     4  11  24  42  71  99 143 190 238 308 351 433
#     4  10  23  40  69 107 141 176 238 303 360 439
#     4  11  24  43  70 106 142 189 241 295 375 424
#     4  11  26  45  66 106 144 191 249 284 365 438
#     4  11  22  43  68 106 142 184 241 296 367 419
#     4  12  26  44  73 104 144 194 241 299 367 426
#
# _framework density 22.574316
#
# number of rings (size 3 to 8) (size 9 to 14) (size 15 to 20)
#    0.000    0.750    3.750    4.125    0.000    4.000 
#    0.000    0.000    0.000    0.000    0.000    0.000 
#    0.000    0.000    0.000    0.000    0.000    0.000 
#
# Total GULP energy -198367.272752 kJ/mol
# GULP energy per Si atom -12397.954547 kJ/mol
# Density = 2.252294 g / cm^3
# Si number density = 22.574316 Si / 1000 Ang^3
#
#
#
# Elastic Constant Matrix: (Units=GPa)
#
#
# Indices 1 2 3 4 5 6 
#
# 1 110.9035 29.5852 43.1092 -0.7842 17.9797 16.8137
# 2 29.5852 99.8955 41.5352 -1.6607 -7.7655 -1.1886
# 3 43.1092 41.5352 142.1386 -9.1001 27.9611 -1.0015
# 4 -0.7842 -1.6607 -9.1001 37.7053 1.5098 4.2867
# 5 17.9797 -7.7655 27.9611 1.5098 36.3698 0.4380
# 6 16.8137 -1.1886 -1.0015 4.2867 0.4380 31.2504
#
#
#
# Elastic Compliance Matrix: (Units=1/GPa)
#
#
# Indices 1 2 3 4 5 6 
#
# 1 0.012591 -0.003540 -0.001679 0.000720 -0.005636 -0.006983
# 2 -0.003540 0.013604 -0.004571 -0.001170 0.008190 0.002321
# 3 -0.001679 -0.004571 0.010727 0.002598 -0.008511 0.000836
# 4 0.000720 -0.001170 0.002598 0.027727 -0.003705 -0.004100
# 5 -0.005636 0.008190 -0.008511 -0.003705 0.038690 0.003037
# 6 -0.006983 0.002321 0.000836 -0.004100 0.003037 0.036391
#
#
# Mechanical properties :
#
#
# Convention : Reuss Voigt Hill
#
# Bulk Modulus (GPa) = 57.66395 64.59965 61.13180
# Shear Modulus (GPa) = 30.28612 36.97898 33.63255
#
# Velocity S-wave (km/s) = 3.66679 4.05174 3.86406
# Velocity P-wave (km/s) = 6.59747 7.11107 6.85908
#
# Compressibility (1/GPa) = 0.01734186
#
# Stress axis : x y z
#
# Youngs Moduli (GPa) = 79.42084 73.50518 93.22425
#
# Poissons Ratio (x) = 0.26023 0.15650
# Poissons Ratio (y) = 0.28117 0.42616
# Poissons Ratio (z) = 0.13332 0.33602
#
# Static dielectric constant tensor:
#      x y z
#    x 4.319490 0.063640 0.209710 
#    y 0.063640 4.114950 0.130660 
#    z 0.209710 0.130660 4.139390 
# 
# 
# High freq. dielectric constant tensor:
#      x y z
#    x 1.900240 0.002220 0.016410 
#    y 0.002220 1.889660 0.004050 
#    z 0.016410 0.004050 1.889990 
# 
# From -- ./inp_files/306529.got.cif
#   From: 2010.06.25/outbox.cif.g09.slc.cpg/sg2_154_cif.got.tgz:306529.got - 2010.06.27 13:26:56.
