data_PCOD8023171
_publ_section_title
;
Structure prediction by ZEFSAII (Michael W. Deem and Ramdas Pophale) SiO2 
 PCOD8023171
Probable space group: P -1
;
_chemical_formula_sum "Si O2"
_cell_formula_units_Z 16
_cell_length_a 18.986553
_cell_length_b 9.195754
_cell_length_c 9.536923
_cell_angle_alpha 83.710310
_cell_angle_beta 27.454008
_cell_angle_gamma 83.821777
_cell_volume 762.856762
_symmetry_space_group_name_H-M "P -1"
_symmetry_group_IT_number 2
_symmetry_cell_setting 'triclinic'
loop_
_space_group_symop_operation_xyz
x,y,z
-x,-y,-z
loop_
_atom_site_type_symbol
_atom_site_label
_atom_site_fract_x
_atom_site_fract_y
_atom_site_fract_z
Si Si1 0.929036 0.115314 0.719125
Si Si2 0.209827 0.270551 0.307570
Si Si3 0.804333 0.405949 0.248210
Si Si4 0.529683 0.530363 0.282971
Si Si5 0.905862 0.461746 0.360496
Si Si6 0.718418 0.261237 0.872237
Si Si7 0.667021 0.027890 0.745688
Si Si8 0.874911 0.087163 0.124351
O O1 0.767355 0.176430 0.936362
O O2 0.055047 0.242519 0.496538
O O3 0.883340 0.031545 0.953968
O O4 0.000000 0.000000 0.500000
O O5 0.169868 0.380707 0.491295
O O6 0.252795 0.115574 0.317251
O O7 0.346301 0.340664 0.966446
O O8 0.630279 0.417924 0.506756
O O9 0.809761 0.404076 0.405452
O O10 0.893372 0.260521 0.051640
O O11 0.911083 0.536292 0.988191
O O12 0.500000 0.500000 0.500000
O O13 0.582599 0.378851 0.130711
O O14 0.873478 0.346473 0.551920
O O15 0.671683 0.155563 0.839654
O O16 0.725064 0.070733 0.483771
O O17 0.500000 0.000000 0.000000
O O18 0.000000 0.000000 0.000000
#
# Coordination Sequence:
#
# PCOD8023171 Si02
#       8
#     2   2   2   2   2   2   2   2
#     4  12  24  45  71 102 140 176 235 286 335 409
#     4  11  24  44  69  97 133 182 223 285 345 401
#     4  11  22  42  67 102 134 171 229 285 330 412
#     4  11  27  45  67 100 143 181 225 277 356 408
#     4  10  23  40  72  97 129 173 232 277 341 392
#     4  11  25  45  70 100 136 182 226 284 343 403
#     4  12  25  45  69 103 139 180 227 283 348 407
#     4  12  22  44  72  99 135 179 233 281 337 403
#
# _framework density 20.973796
#
# number of rings (size 3 to 8) (size 9 to 14) (size 15 to 20)
#    0.000    0.750    5.000    1.500    3.500    2.000 
#    2.250    1.250    0.000    0.000    0.000    0.000 
#    0.000    0.000    0.000    0.000    0.000    0.000 
#
# Total GULP energy -198259.145630 kJ/mol
# GULP energy per Si atom -12391.196602 kJ/mol
# Density = 2.092606 g / cm^3
# Si number density = 20.973796 Si / 1000 Ang^3
#
#
#
# Elastic Constant Matrix: (Units=GPa)
#
#
# Indices 1 2 3 4 5 6 
#
# 1 123.2550 40.9710 66.8742 1.0131 5.3423 0.5877
# 2 40.9710 95.7554 28.2921 14.3281 4.6541 3.3466
# 3 66.8742 28.2921 114.3709 -12.4022 8.7910 6.1612
# 4 1.0131 14.3281 -12.4022 38.7987 -0.4420 3.1088
# 5 5.3423 4.6541 8.7910 -0.4420 48.8701 1.2596
# 6 0.5877 3.3466 6.1612 3.1088 1.2596 31.0083
#
#
#
# Elastic Compliance Matrix: (Units=1/GPa)
#
#
# Indices 1 2 3 4 5 6 
#
# 1 0.013059 -0.003337 -0.007071 -0.001501 0.000106 0.001664
# 2 -0.003337 0.013264 -0.001842 -0.005372 -0.000604 -0.000439
# 3 -0.007071 -0.001842 0.014220 0.005634 -0.001481 -0.002997
# 4 -0.001501 -0.005372 0.005634 0.029879 0.000023 -0.003508
# 5 0.000106 -0.000604 -0.001481 0.000023 0.020788 -0.000489
# 6 0.001664 -0.000439 -0.002997 -0.003508 -0.000489 0.033232
#
#
# Mechanical properties :
#
#
# Convention : Reuss Voigt Hill
#
# Bulk Modulus (GPa) = 62.33473 67.29511 64.81492
# Shear Modulus (GPa) = 32.40677 36.88502 34.64589
#
# Velocity S-wave (km/s) = 3.93505 4.19814 4.06872
# Velocity P-wave (km/s) = 7.10148 7.46017 7.28303
#
# Compressibility (1/GPa) = 0.01604242
#
# Stress axis : x y z
#
# Youngs Moduli (GPa) = 76.57795 75.39236 70.32502
#
# Poissons Ratio (x) = 0.25159 0.49724
# Poissons Ratio (y) = 0.25554 0.12956
# Poissons Ratio (z) = 0.54145 0.13890
#
# Static dielectric constant tensor:
#      x y z
#    x 3.496210 0.009100 -0.295480 
#    y 0.009100 3.998250 -0.062920 
#    z -0.295480 -0.062920 3.585670 
# 
# 
# High freq. dielectric constant tensor:
#      x y z
#    x 1.820990 -0.000230 0.011140 
#    y -0.000230 1.826820 0.003880 
#    z 0.011140 0.003880 1.835450 
# 
# From -- ./inp_files/184342.got.cif
#   From: 2010.06.25/outbox.cif.g09.slc.cpg/sg2_93_cif.got.tgz:184342.got - 2010.06.27 13:26:56.
