data_PCOD8023717
_publ_section_title
;
Structure prediction by ZEFSAII (Michael W. Deem and Ramdas Pophale) SiO2 
 PCOD8023717
Probable space group: P -1
;
_chemical_formula_sum "Si O2"
_cell_formula_units_Z 14
_cell_length_a 23.073968
_cell_length_b 16.824055
_cell_length_c 6.573530
_cell_angle_alpha 60.552820
_cell_angle_beta 130.879897
_cell_angle_gamma 159.881052
_cell_volume 584.850177
_symmetry_space_group_name_H-M "P -1"
_symmetry_group_IT_number 2
_symmetry_cell_setting 'triclinic'
loop_
_space_group_symop_operation_xyz
x,y,z
-x,-y,-z
loop_
_atom_site_type_symbol
_atom_site_label
_atom_site_fract_x
_atom_site_fract_y
_atom_site_fract_z
Si Si1 0.988936 0.648016 0.402043
Si Si2 0.706377 0.590590 0.319138
Si Si3 0.757996 0.293724 0.674106
Si Si4 0.775948 0.975020 0.210027
Si Si5 0.261502 0.566379 0.257329
Si Si6 0.783113 0.141208 0.729984
Si Si7 0.071719 0.053612 0.318517
O O1 0.116905 0.728213 0.429065
O O2 0.809549 0.394243 0.445044
O O3 0.178710 0.907228 0.645048
O O4 0.844948 0.560174 0.051491
O O5 0.796828 0.587235 0.546878
O O6 0.719578 0.651151 0.500496
O O7 0.476705 0.334614 0.000409
O O8 0.853210 0.827201 0.234631
O O9 0.844803 0.459687 0.844019
O O10 0.856648 0.299084 0.874956
O O11 0.500000 0.000000 0.500000
O O12 0.902062 0.024435 0.489449
O O13 0.837723 0.098342 0.987315
O O14 0.522253 0.864295 0.459698
O O15 0.000000 0.000000 0.000000
#
# Coordination Sequence:
#
# PCOD8023717 Si02
#       7
#     2   2   2   2   2   2   2
#     4  12  23  38  66  95 127 170 220 265 316 378
#     4  10  23  43  65  92 129 167 208 261 320 380
#     4  10  23  42  64  93 132 173 216 267 320 375
#     4  11  25  42  63  94 132 167 209 265 322 381
#     4  10  23  43  65  92 129 171 217 267 320 379
#     4  10  24  42  64  93 129 172 217 267 321 378
#     4  11  23  41  68  96 124 164 211 261 319 383
#
# _framework density 23.937753000000001
#
# number of rings (size 3 to 8) (size 9 to 14) (size 15 to 20)
#    0.000    1.429    0.000    4.286    0.000   14.286 
#    0.000    0.000    0.000    0.000    0.000    0.000 
#    0.000    0.000    0.000    0.000    0.000    0.000 
#
# Total GULP energy -173452.743177 kJ/mol
# GULP energy per Si atom -12389.481655 kJ/mol
# Density = 2.388327 g / cm^3
# Si number density = 23.937753 Si / 1000 Ang^3
#
#
#
# Elastic Constant Matrix: (Units=GPa)
#
#
# Indices 1 2 3 4 5 6 
#
# 1 124.4407 53.1357 44.8507 -4.4241 -11.9092 -2.1715
# 2 53.1357 146.7064 62.6382 2.7659 -18.3377 -1.4523
# 3 44.8507 62.6382 140.4035 -1.3183 -20.3936 0.4658
# 4 -4.4241 2.7659 -1.3183 39.2387 -9.9751 -10.9641
# 5 -11.9092 -18.3377 -20.3936 -9.9751 43.4847 2.1582
# 6 -2.1715 -1.4523 0.4658 -10.9641 2.1582 30.4290
#
#
#
# Elastic Compliance Matrix: (Units=1/GPa)
#
#
# Indices 1 2 3 4 5 6 
#
# 1 0.010060 -0.002755 -0.001808 0.001892 0.001119 0.001216
# 2 -0.002755 0.009331 -0.003058 -0.000684 0.001593 -0.000064
# 3 -0.001808 -0.003058 0.009497 0.000996 0.002911 -0.000268
# 4 0.001892 -0.000684 0.000996 0.030565 0.007183 0.010591
# 5 0.001119 0.001593 0.002911 0.007183 0.026948 0.000788
# 6 0.001216 -0.000064 -0.000268 0.010591 0.000788 0.036711
#
#
# Mechanical properties :
#
#
# Convention : Reuss Voigt Hill
#
# Bulk Modulus (GPa) = 73.28178 81.42220 77.35199
# Shear Modulus (GPa) = 34.98863 39.35888 37.17375
#
# Velocity S-wave (km/s) = 3.82730 4.05929 3.94500
# Velocity P-wave (km/s) = 7.08597 7.48722 7.28935
#
# Compressibility (1/GPa) = 0.01364596
#
# Stress axis : x y z
#
# Youngs Moduli (GPa) = 99.40673 107.16834 105.29584
#
# Poissons Ratio (x) = 0.29529 0.19037
# Poissons Ratio (y) = 0.27390 0.32195
# Poissons Ratio (z) = 0.17973 0.32768
#
# Static dielectric constant tensor:
#      x y z
#    x 4.734690 -0.361000 0.072270 
#    y -0.361000 4.841040 0.192480 
#    z 0.072270 0.192480 4.363440 
# 
# 
# High freq. dielectric constant tensor:
#      x y z
#    x 1.946430 -0.007850 0.001840 
#    y -0.007850 1.975710 0.022360 
#    z 0.001840 0.022360 1.961130 
# 
# From -- ./inp_files/124667.got.cif
#   From: 2010.06.25/outbox.cif.g09.slc.cpg/sg2_63_cif.got.tgz:124667.got - 2010.06.27 13:26:56.
