data_PCOD8023273
_publ_section_title
;
Structure prediction by ZEFSAII (Michael W. Deem and Ramdas Pophale) SiO2 
 PCOD8023273
Probable space group: P -1
;
_chemical_formula_sum "Si O2"
_cell_formula_units_Z 16
_cell_length_a 21.128284
_cell_length_b 9.613232
_cell_length_c 12.433532
_cell_angle_alpha 48.812517
_cell_angle_beta 40.337733
_cell_angle_gamma 27.258732
_cell_volume 747.140999
_symmetry_space_group_name_H-M "P -1"
_symmetry_group_IT_number 2
_symmetry_cell_setting 'triclinic'
loop_
_space_group_symop_operation_xyz
x,y,z
-x,-y,-z
loop_
_atom_site_type_symbol
_atom_site_label
_atom_site_fract_x
_atom_site_fract_y
_atom_site_fract_z
Si Si1 0.087683 0.373439 0.337306
Si Si2 0.996181 0.217790 0.373217
Si Si3 0.576238 0.844144 0.146692
Si Si4 0.112208 0.159822 0.025978
Si Si5 0.445105 0.808539 0.154786
Si Si6 0.053484 0.726149 0.026482
Si Si7 0.463743 0.743128 0.722652
Si Si8 0.626979 0.838355 0.552823
O O1 0.014884 0.635115 0.216339
O O2 0.000000 0.500000 0.500000
O O3 0.088266 0.179263 0.371028
O O4 0.270554 0.138765 0.252473
O O5 0.816896 0.569970 0.426958
O O6 0.086186 0.097172 0.204219
O O7 0.000000 0.000000 0.500000
O O8 0.573620 0.692339 0.133773
O O9 0.438874 0.995152 0.332166
O O10 0.757503 0.569356 0.100838
O O11 0.528084 0.122751 0.026883
O O12 0.000000 0.500000 0.000000
O O13 0.059366 0.124046 0.008347
O O14 0.295828 0.947684 0.891682
O O15 0.452405 0.576936 0.251337
O O16 0.000000 0.000000 0.000000
O O17 0.572129 0.705991 0.679928
O O18 0.450902 0.893695 0.560122
#
# Coordination Sequence:
#
# PCOD8023273 Si02
#       8
#     2   2   2   2   2   2   2   2
#     4  11  24  43  65  94 135 171 216 268 321 385
#     4  12  27  43  67 100 130 172 218 269 329 383
#     4  10  23  41  64  92 131 165 213 267 315 381
#     4  12  23  45  68  93 135 171 217 270 322 388
#     4  10  23  42  63  93 127 172 213 258 323 383
#     4  11  24  41  68  97 127 176 218 262 326 386
#     4  11  24  40  66  94 128 169 210 262 321 380
#     4  11  24  41  63  96 130 163 213 265 317 378
#
# _framework density 21.414967000000001
#
# number of rings (size 3 to 8) (size 9 to 14) (size 15 to 20)
#    0.000    1.000    2.500    3.000    7.000    2.000 
#    0.000    0.000    0.000    0.000    0.000    0.000 
#    0.000    0.000    0.000    0.000    0.000    0.000 
#
# Total GULP energy -198336.919793 kJ/mol
# GULP energy per Si atom -12396.057487 kJ/mol
# Density = 2.136623 g / cm^3
# Si number density = 21.414967 Si / 1000 Ang^3
#
#
#
# Elastic Constant Matrix: (Units=GPa)
#
#
# Indices 1 2 3 4 5 6 
#
# 1 87.1592 12.9737 40.8170 -4.5134 0.0529 10.7586
# 2 12.9737 69.5319 33.6159 -11.7706 0.4323 20.5557
# 3 40.8170 33.6159 150.0754 6.6022 15.4816 9.9373
# 4 -4.5134 -11.7706 6.6022 42.3361 5.1104 -15.7344
# 5 0.0529 0.4323 15.4816 5.1104 37.2947 2.1109
# 6 10.7586 20.5557 9.9373 -15.7344 2.1109 36.3087
#
#
#
# Elastic Compliance Matrix: (Units=1/GPa)
#
#
# Indices 1 2 3 4 5 6 
#
# 1 0.013596 0.000269 -0.003769 0.000853 0.001588 -0.002872
# 2 0.000269 0.019371 -0.004102 0.002543 0.001634 -0.008917
# 3 -0.003769 -0.004102 0.009062 -0.002527 -0.003366 0.000060
# 4 0.000853 0.002543 -0.002527 0.029768 -0.003747 0.012117
# 5 0.001588 0.001634 -0.003366 -0.003747 0.028917 -0.003779
# 6 -0.002872 -0.008917 0.000060 0.012117 -0.003779 0.038895
#
#
# Mechanical properties :
#
#
# Convention : Reuss Voigt Hill
#
# Bulk Modulus (GPa) = 37.27965 53.50885 45.39425
# Shear Modulus (GPa) = 30.53328 37.81188 34.17258
#
# Velocity S-wave (km/s) = 3.78006 4.20655 3.99900
# Velocity P-wave (km/s) = 6.04134 6.97383 6.52427
#
# Compressibility (1/GPa) = 0.02682429
#
# Stress axis : x y z
#
# Youngs Moduli (GPa) = 73.55061 51.62254 110.35374
#
# Poissons Ratio (x) = -0.01389 0.41595
# Poissons Ratio (y) = -0.01979 0.45270
# Poissons Ratio (z) = 0.27723 0.21177
#
# Static dielectric constant tensor:
#      x y z
#    x 4.354410 -0.221910 -0.500270 
#    y -0.221910 3.703300 -0.007620 
#    z -0.500270 -0.007620 4.026040 
# 
# 
# High freq. dielectric constant tensor:
#      x y z
#    x 1.850610 -0.001420 -0.006280 
#    y -0.001420 1.838600 -0.000010 
#    z -0.006280 -0.000010 1.851640 
# 
# From -- ./inp_files/274477.got.cif
#   From: 2010.06.25/outbox.cif.g09.slc.cpg/sg2_138_cif.got.tgz:274477.got - 2010.06.27 13:26:56.
