data_PCOD8023905
_publ_section_title
;
Structure prediction by ZEFSAII (Michael W. Deem and Ramdas Pophale) SiO2 
 PCOD8023905
Probable space group: P -1
;
_chemical_formula_sum "Si O2"
_cell_formula_units_Z 14
_cell_length_a 12.447084
_cell_length_b 6.845469
_cell_length_c 14.461188
_cell_angle_alpha 90.617164
_cell_angle_beta 125.246761
_cell_angle_gamma 52.035578
_cell_volume 670.438313
_symmetry_space_group_name_H-M "P -1"
_symmetry_group_IT_number 2
_symmetry_cell_setting 'triclinic'
loop_
_space_group_symop_operation_xyz
x,y,z
-x,-y,-z
loop_
_atom_site_type_symbol
_atom_site_label
_atom_site_fract_x
_atom_site_fract_y
_atom_site_fract_z
Si Si1 0.773788 0.301930 0.382652
Si Si2 0.820266 0.846943 0.911728
Si Si3 0.397298 0.780549 0.849769
Si Si4 0.797590 0.146753 0.073030
Si Si5 0.205852 0.884962 0.286909
Si Si6 0.418772 0.757415 0.568250
Si Si7 0.410127 0.093704 0.713993
O O1 0.681676 0.323875 0.242374
O O2 0.657323 0.342384 0.411422
O O3 0.753834 0.557530 0.375592
O O4 0.000000 0.000000 0.500000
O O5 0.806072 0.964493 0.806718
O O6 0.622758 0.949391 0.837000
O O7 0.000000 0.500000 0.000000
O O8 0.853290 0.976137 0.005471
O O9 0.286341 0.914796 0.893783
O O10 0.349890 0.028638 0.771268
O O11 0.632952 0.495957 0.976231
O O12 0.992299 0.036581 0.207532
O O13 0.285883 0.927672 0.411606
O O14 0.353357 0.538737 0.343993
O O15 0.407115 0.971945 0.618429
#
# Coordination Sequence:
#
# PCOD8023905 Si02
#       7
#     2   2   2   2   2   2   2
#     4  11  22  44  65  94 132 171 216 276 330 379
#     4  12  23  40  65 100 129 174 216 264 328 390
#     4  10  23  42  67  96 130 172 215 274 327 384
#     4  11  22  43  65  94 135 171 217 269 325 385
#     4  11  22  43  65  94 135 171 217 269 325 385
#     4  10  23  42  67  96 130 172 215 274 327 384
#     4  11  22  43  67  96 130 167 219 271 326 392
#
# _framework density 20.881861000000001
#
# number of rings (size 3 to 8) (size 9 to 14) (size 15 to 20)
#    0.000    1.143    2.857    3.857    0.000    3.429 
#   10.286    0.000    0.000    0.000    0.000    0.000 
#    0.000    0.000    0.000    0.000    0.000    0.000 
#
# Total GULP energy -173687.987440 kJ/mol
# GULP energy per Si atom -12406.284817 kJ/mol
# Density = 2.083433 g / cm^3
# Si number density = 20.881861 Si / 1000 Ang^3
#
#
#
# Elastic Constant Matrix: (Units=GPa)
#
#
# Indices 1 2 3 4 5 6 
#
# 1 63.9307 28.5059 34.8012 -3.4679 0.3201 -2.1823
# 2 28.5059 101.0050 48.7417 -18.3049 -0.7897 14.1557
# 3 34.8012 48.7417 133.8297 -12.5339 4.7810 -4.6210
# 4 -3.4679 -18.3049 -12.5339 28.4677 -11.0210 4.5365
# 5 0.3201 -0.7897 4.7810 -11.0210 43.9222 -1.2990
# 6 -2.1823 14.1557 -4.6210 4.5365 -1.2990 28.6150
#
#
#
# Elastic Compliance Matrix: (Units=1/GPa)
#
#
# Indices 1 2 3 4 5 6 
#
# 1 0.019724 -0.005039 -0.003437 -0.003186 -0.000544 0.003923
# 2 -0.005039 0.017124 -0.004350 0.011586 0.003393 -0.011241
# 3 -0.003437 -0.004350 0.010134 0.000322 -0.000974 0.003431
# 4 -0.003186 0.011586 0.000322 0.049126 0.012134 -0.013160
# 5 -0.000544 0.003393 -0.000974 0.012134 0.025906 -0.002625
# 6 0.003923 -0.011241 0.003431 -0.013160 -0.002625 0.043328
#
#
# Mechanical properties :
#
#
# Convention : Reuss Voigt Hill
#
# Bulk Modulus (GPa) = 46.88773 58.09590 52.49182
# Shear Modulus (GPa) = 25.23939 32.64874 28.94407
#
# Velocity S-wave (km/s) = 3.48037 3.95840 3.72706
# Velocity P-wave (km/s) = 6.21717 6.98380 6.61161
#
# Compressibility (1/GPa) = 0.02132754
#
# Stress axis : x y z
#
# Youngs Moduli (GPa) = 50.70039 58.39877 98.67919
#
# Poissons Ratio (x) = 0.29429 0.33918
# Poissons Ratio (y) = 0.25549 0.42929
# Poissons Ratio (z) = 0.17427 0.25406
#
# Static dielectric constant tensor:
#      x y z
#    x 3.301340 -0.721760 -0.292480 
#    y -0.721760 2.977740 -0.324830 
#    z -0.292480 -0.324830 3.857020 
# 
# 
# High freq. dielectric constant tensor:
#      x y z
#    x 1.823370 -0.009370 -0.001460 
#    y -0.009370 1.810890 -0.001470 
#    z -0.001460 -0.001470 1.834530 
# 
# From -- ./inp_files/77804.got.cif
#   From: 2010.06.25/outbox.cif.g09.slc.cpg/sg2_39_cif.got.tgz:77804.got - 2010.06.27 13:26:56.
