data_PCOD8023008
_publ_section_title
;
Structure prediction by ZEFSAII (Michael W. Deem and Ramdas Pophale) SiO2 
 PCOD8023008
Probable space group: P -1
;
_chemical_formula_sum "Si O2"
_cell_formula_units_Z 14
_cell_length_a 19.960736
_cell_length_b 12.302244
_cell_length_c 14.993367
_cell_angle_alpha 160.658447
_cell_angle_beta 147.254867
_cell_angle_gamma 32.718312
_cell_volume 635.747063
_symmetry_space_group_name_H-M "P -1"
_symmetry_group_IT_number 2
_symmetry_cell_setting 'triclinic'
loop_
_space_group_symop_operation_xyz
x,y,z
-x,-y,-z
loop_
_atom_site_type_symbol
_atom_site_label
_atom_site_fract_x
_atom_site_fract_y
_atom_site_fract_z
Si Si1 0.044024 0.999526 0.746418
Si Si2 0.749312 0.784691 0.971689
Si Si3 0.121699 0.401760 0.855152
Si Si4 0.249018 0.744037 0.110259
Si Si5 0.138918 0.511702 0.631933
Si Si6 0.489541 0.265298 0.069005
Si Si7 0.390396 0.706697 0.599493
O O1 0.130195 0.733876 0.705727
O O2 0.971313 0.806558 0.449328
O O3 0.135861 0.157823 0.912506
O O4 0.949901 0.304516 0.930043
O O5 0.770790 0.847244 0.151297
O O6 0.609775 0.011735 0.955496
O O7 0.742983 0.391338 0.647801
O O8 0.175885 0.571314 0.965705
O O9 0.403227 0.569629 0.148166
O O10 0.225966 0.137096 0.415236
O O11 0.200690 0.693183 0.918187
O O12 0.000000 0.500000 0.500000
O O13 0.563176 0.412824 0.341911
O O14 0.384611 0.095353 0.866587
O O15 0.500000 0.500000 0.500000
#
# Coordination Sequence:
#
# PCOD8023008 Si02
#       7
#     2   2   2   2   2   2   2
#     4  12  27  45  66  98 141 179 224 273 329 398
#     4  11  26  41  67  99 142 175 212 271 346 412
#     4  12  24  42  71 101 134 175 221 278 338 397
#     4  12  24  42  76  98 128 170 234 278 329 384
#     4  12  24  46  67  98 130 179 228 278 321 382
#     4  10  23  40  65 100 132 172 217 281 329 401
#     4   9  19  38  62  91 136 168 216 258 342 382
#
# _framework density 22.021338
#
# number of rings (size 3 to 8) (size 9 to 14) (size 15 to 20)
#    0.000    0.857    2.857    4.714   12.000    0.000 
#    0.000    1.429    0.000    0.000    0.000    0.000 
#    0.000    0.000    0.000    0.000    0.000    0.000 
#
# Total GULP energy -173519.564946 kJ/mol
# GULP energy per Si atom -12394.254639 kJ/mol
# Density = 2.197122 g / cm^3
# Si number density = 22.021338 Si / 1000 Ang^3
#
#
#
# Elastic Constant Matrix: (Units=GPa)
#
#
# Indices 1 2 3 4 5 6 
#
# 1 -175.8947 92.8847 -9.3259 -177.4666 106.7757 -43.3173
# 2 92.8847 108.1136 45.3264 46.4483 -37.8743 17.9836
# 3 -9.3259 45.3264 113.2794 -49.8860 8.5320 -3.7134
# 4 -177.4666 46.4483 -49.8860 -93.5873 77.2841 -48.7892
# 5 106.7757 -37.8743 8.5320 77.2841 -9.5662 24.2227
# 6 -43.3173 17.9836 -3.7134 -48.7892 24.2227 18.2753
#
#
#
# Elastic Compliance Matrix: (Units=1/GPa)
#
#
# Indices 1 2 3 4 5 6 
#
# 1 0.013394 -0.000142 -0.005647 -0.014096 0.003146 -0.011060
# 2 -0.000142 0.007956 -0.001504 0.003611 -0.000527 0.001867
# 3 -0.005647 -0.001504 0.011301 0.005726 0.003129 0.001529
# 4 -0.014096 0.003611 0.005726 0.020216 0.009826 0.005146
# 5 0.003146 -0.000527 0.003129 0.009826 0.023658 0.003485
# 6 -0.011060 0.001867 0.001529 0.005146 0.003485 0.036095
#
#
# Mechanical properties :
#
#
# Convention : Reuss Voigt Hill
#
# Bulk Modulus (GPa) = 55.36071 33.69653 44.52862
# Shear Modulus (GPa) = 37.52968 -22.53476 7.49746
#
# Velocity S-wave (km/s) = 4.13272 -3.20240 1.84717
# Velocity P-wave (km/s) = 6.92580 1.28886 4.98136
#
# Compressibility (1/GPa) = 0.01806335
#
# Stress axis : x y z
#
# Youngs Moduli (GPa) = 74.65792 125.69775 88.49069
#
# Poissons Ratio (x) = 0.01788 0.49975
# Poissons Ratio (y) = 0.01062 0.13308
# Poissons Ratio (z) = 0.42163 0.18904
#
# Static dielectric constant tensor:
#      x y z
#    x 3.841010 0.079770 0.014370 
#    y 0.079770 4.257620 -0.169600 
#    z 0.014370 -0.169600 4.469330 
# 
# 
# High freq. dielectric constant tensor:
#      x y z
#    x 1.853530 -0.014520 -0.025430 
#    y -0.014520 1.879000 -0.002070 
#    z -0.025430 -0.002070 1.878110 
# 
# From -- ./inp_files/68755.got.cif
#   From: 2010.06.25/outbox.cif.g09.slc.cpg/sg2_35_cif.got.tgz:68755.got - 2010.06.27 13:26:56.
