data_PCOD8023007
_publ_section_title
;
Structure prediction by ZEFSAII (Michael W. Deem and Ramdas Pophale) SiO2 
 PCOD8023007
Probable space group: P -1
;
_chemical_formula_sum "Si O2"
_cell_formula_units_Z 16
_cell_length_a 14.647385
_cell_length_b 11.822741
_cell_length_c 9.192287
_cell_angle_alpha 112.708602
_cell_angle_beta 133.217724
_cell_angle_gamma 42.077818
_cell_volume 752.671365
_symmetry_space_group_name_H-M "P -1"
_symmetry_group_IT_number 2
_symmetry_cell_setting 'triclinic'
loop_
_space_group_symop_operation_xyz
x,y,z
-x,-y,-z
loop_
_atom_site_type_symbol
_atom_site_label
_atom_site_fract_x
_atom_site_fract_y
_atom_site_fract_z
Si Si1 0.455352 0.291798 0.066998
Si Si2 0.542243 0.869701 0.281658
Si Si3 0.161820 0.481269 0.051300
Si Si4 0.599008 0.441641 0.230702
Si Si5 0.690472 0.008960 0.410274
Si Si6 0.454283 0.288189 0.517596
Si Si7 0.995850 0.861083 0.467054
Si Si8 0.145758 0.219863 0.968242
O O1 0.259238 0.458215 0.999407
O O2 0.576756 0.328101 0.232984
O O3 0.547965 0.120903 0.178456
O O4 0.441111 0.259531 0.869135
O O5 0.686357 0.870480 0.388978
O O6 0.583196 0.795759 0.451759
O O7 0.347023 0.065668 0.164409
O O8 0.283396 0.418305 0.294205
O O9 0.983938 0.685993 0.984650
O O10 0.117986 0.367795 0.927528
O O11 0.507481 0.611187 0.309624
O O12 0.807058 0.326528 0.380182
O O13 0.500000 0.500000 0.000000
O O14 0.885444 0.911987 0.519570
O O15 0.631796 0.136821 0.542985
O O16 0.904180 0.855949 0.230077
O O17 0.000000 0.000000 0.500000
#
# Coordination Sequence:
#
# PCOD8023007 Si02
#       8
#     2   2   2   2   2   2   2   2
#     4  11  21  40  67  91 125 172 220 259 311 383
#     4  12  21  41  68  95 135 170 205 268 326 380
#     4  10  23  40  65 100 123 166 221 266 317 375
#     4  12  25  46  64  89 134 173 212 261 331 380
#     4  11  23  40  67 101 123 167 225 260 314 385
#     4  11  24  42  64  96 133 173 206 263 332 375
#     4  12  24  42  67  96 126 172 220 265 313 383
#     4  11  21  39  66  95 132 160 215 263 317 377
#
# _framework density 21.257617
#
# number of rings (size 3 to 8) (size 9 to 14) (size 15 to 20)
#    0.000    0.750    7.500    1.500    0.000    3.000 
#    2.250    1.250    0.000    0.000    0.000    0.000 
#    0.000    0.000    0.000    0.000    0.000    0.000 
#
# Total GULP energy -198462.774443 kJ/mol
# GULP energy per Si atom -12403.923403 kJ/mol
# Density = 2.120923 g / cm^3
# Si number density = 21.257617 Si / 1000 Ang^3
#
#
#
# Elastic Constant Matrix: (Units=GPa)
#
#
# Indices 1 2 3 4 5 6 
#
# 1 130.7820 52.4928 14.2400 4.4577 11.5151 -25.6956
# 2 52.4928 99.8116 22.2204 24.2429 6.4947 -11.8713
# 3 14.2400 22.2204 51.9537 14.9752 1.0246 -4.4853
# 4 4.4577 24.2429 14.9752 34.0807 3.5804 5.5902
# 5 11.5151 6.4947 1.0246 3.5804 31.8900 2.2542
# 6 -25.6956 -11.8713 -4.4853 5.5902 2.2542 44.7869
#
#
#
# Elastic Compliance Matrix: (Units=1/GPa)
#
#
# Indices 1 2 3 4 5 6 
#
# 1 0.011066 -0.005412 -0.000939 0.002409 -0.003466 0.004694
# 2 -0.005412 0.016104 -0.002307 -0.010066 -0.000277 0.002203
# 3 -0.000939 -0.002307 0.023236 -0.008909 0.000904 0.002243
# 4 0.002409 -0.010066 -0.008909 0.041570 -0.002690 -0.007231
# 5 -0.003466 -0.000277 0.000904 -0.002690 0.033172 -0.003305
# 6 0.004694 0.002203 0.002243 -0.007231 -0.003305 0.026898
#
#
# Mechanical properties :
#
#
# Convention : Reuss Voigt Hill
#
# Bulk Modulus (GPa) = 30.22180 51.16154 40.69167
# Shear Modulus (GPa) = 27.71719 35.05780 31.38750
#
# Velocity S-wave (km/s) = 3.61483 4.06543 3.84673
# Velocity P-wave (km/s) = 5.62765 6.79386 6.23807
#
# Compressibility (1/GPa) = 0.03308869
#
# Stress axis : x y z
#
# Youngs Moduli (GPa) = 90.36492 62.09756 43.03705
#
# Poissons Ratio (x) = 0.33609 0.04042
# Poissons Ratio (y) = 0.48908 0.09929
# Poissons Ratio (z) = 0.08487 0.14326
#
# Static dielectric constant tensor:
#      x y z
#    x 4.118500 -0.183270 0.125490 
#    y -0.183270 4.043160 0.162910 
#    z 0.125490 0.162910 3.588240 
# 
# 
# High freq. dielectric constant tensor:
#      x y z
#    x 1.838020 -0.011110 0.004860 
#    y -0.011110 1.843540 0.017170 
#    z 0.004860 0.017170 1.812930 
# 
# From -- ./inp_files/227727.got.cif
#   From: 2010.06.25/outbox.cif.g09.slc.cpg/sg2_114_cif.got.tgz:227727.got - 2010.06.27 13:26:56.
