data_PCOD8023854
_publ_section_title
;
Structure prediction by ZEFSAII (Michael W. Deem and Ramdas Pophale) SiO2 
 PCOD8023854
Probable space group: P -1
;
_chemical_formula_sum "Si O2"
_cell_formula_units_Z 16
_cell_length_a 11.797745
_cell_length_b 12.323861
_cell_length_c 13.015317
_cell_angle_alpha 142.847726
_cell_angle_beta 113.792040
_cell_angle_gamma 94.725421
_cell_volume 713.663328
_symmetry_space_group_name_H-M "P -1"
_symmetry_group_IT_number 2
_symmetry_cell_setting 'triclinic'
loop_
_space_group_symop_operation_xyz
x,y,z
-x,-y,-z
loop_
_atom_site_type_symbol
_atom_site_label
_atom_site_fract_x
_atom_site_fract_y
_atom_site_fract_z
Si Si1 0.488943 0.044812 0.768426
Si Si2 0.788674 0.787036 0.962170
Si Si3 0.336915 0.635547 0.556590
Si Si4 0.449805 0.575136 0.763514
Si Si5 0.838930 0.890689 0.558234
Si Si6 0.846774 0.546503 0.207299
Si Si7 0.863532 0.236468 0.690023
Si Si8 0.090503 0.692885 0.586122
O O1 0.493835 0.873444 0.715102
O O2 0.303847 0.836342 0.477363
O O3 0.490050 0.227093 0.974656
O O4 0.662149 0.230323 0.892709
O O5 0.770120 0.645316 0.746088
O O6 0.604264 0.588473 0.811643
O O7 0.809691 0.021920 0.120315
O O8 0.949545 0.878098 0.158768
O O9 0.414323 0.652305 0.705640
O O10 0.215688 0.685803 0.565027
O O11 0.274867 0.272955 0.503856
O O12 0.793894 0.698787 0.308399
O O13 0.780447 0.010986 0.572150
O O14 0.004839 0.705889 0.303355
O O15 0.924228 0.579412 0.371329
O O16 0.000000 0.500000 0.000000
O O17 0.000000 0.500000 0.500000
#
# Coordination Sequence:
#
# PCOD8023854 Si02
#       8
#     2   2   2   2   2   2   2   2
#     4  11  23  43  70  97 133 179 226 279 343 404
#     4  11  24  43  65 101 139 176 228 277 340 396
#     4  12  23  43  69 100 145 178 220 284 333 410
#     4  11  24  43  67 102 134 178 228 274 344 404
#     4  10  24  43  68  95 132 176 231 282 331 405
#     4  10  23  42  66  99 129 179 229 271 345 397
#     4  12  25  44  66  96 135 178 228 287 338 395
#     4  11  23  42  70  98 137 186 221 271 337 404
#
# _framework density 22.419533999999999
#
# number of rings (size 3 to 8) (size 9 to 14) (size 15 to 20)
#    0.000    1.000    2.500    4.875    1.750    6.500 
#    0.000    0.000    0.000    0.000    0.000    0.000 
#    0.000    0.000    0.000    0.000    0.000    0.000 
#
# Total GULP energy -198294.176091 kJ/mol
# GULP energy per Si atom -12393.386006 kJ/mol
# Density = 2.236851 g / cm^3
# Si number density = 22.419534 Si / 1000 Ang^3
#
#
#
# Elastic Constant Matrix: (Units=GPa)
#
#
# Indices 1 2 3 4 5 6 
#
# 1 52.9390 10.6515 23.6220 12.9320 7.4962 -0.0851
# 2 10.6515 116.1701 28.4502 12.6303 12.4375 -11.3069
# 3 23.6220 28.4502 110.1091 6.1528 3.0052 -0.2355
# 4 12.9320 12.6303 6.1528 32.1484 1.0971 0.7395
# 5 7.4962 12.4375 3.0052 1.0971 43.9719 6.1844
# 6 -0.0851 -11.3069 -0.2355 0.7395 6.1844 15.8349
#
#
#
# Elastic Compliance Matrix: (Units=1/GPa)
#
#
# Indices 1 2 3 4 5 6 
#
# 1 0.023524 0.000582 -0.004595 -0.008732 -0.003986 0.002438
# 2 0.000582 0.011055 -0.002611 -0.004155 -0.004314 0.009737
# 3 -0.004595 -0.002611 0.010661 0.000847 0.001080 -0.002192
# 4 -0.008732 -0.004155 0.000847 0.036133 0.002501 -0.005665
# 5 -0.003986 -0.004314 0.001080 0.002501 0.026406 -0.013515
# 6 0.002438 0.009737 -0.002192 -0.005665 -0.013515 0.075628
#
#
# Mechanical properties :
#
#
# Convention : Reuss Voigt Hill
#
# Bulk Modulus (GPa) = 31.25717 44.96284 38.11000
# Shear Modulus (GPa) = 24.11737 32.82401 28.47069
#
# Velocity S-wave (km/s) = 3.28339 3.83048 3.56744
# Velocity P-wave (km/s) = 5.32413 6.29779 5.83132
#
# Compressibility (1/GPa) = 0.03199266
#
# Stress axis : x y z
#
# Youngs Moduli (GPa) = 42.50897 90.45451 93.80223
#
# Poissons Ratio (x) = -0.05263 0.43104
# Poissons Ratio (y) = -0.02473 0.24488
# Poissons Ratio (z) = 0.19534 0.23614
#
# Static dielectric constant tensor:
#      x y z
#    x 4.516610 0.350920 0.198000 
#    y 0.350920 4.296710 0.308850 
#    z 0.198000 0.308850 4.373360 
# 
# 
# High freq. dielectric constant tensor:
#      x y z
#    x 1.878120 0.003700 0.006590 
#    y 0.003700 1.886050 0.012230 
#    z 0.006590 0.012230 1.887640 
# 
# From -- ./inp_files/429111.got.cif
#   From: 2010.06.25/outbox.cif.g09.slc.cpg/sg2_215_cif.got.tgz:429111.got - 2010.06.27 13:26:56.
