data_PCOD8023168
_publ_section_title
;
Structure prediction by ZEFSAII (Michael W. Deem and Ramdas Pophale) SiO2 
 PCOD8023168
Probable space group: P -1
;
_chemical_formula_sum "Si O2"
_cell_formula_units_Z 16
_cell_length_a 11.788165
_cell_length_b 8.867159
_cell_length_c 13.853848
_cell_angle_alpha 104.331957
_cell_angle_beta 43.171952
_cell_angle_gamma 128.964208
_cell_volume 707.139884
_symmetry_space_group_name_H-M "P -1"
_symmetry_group_IT_number 2
_symmetry_cell_setting 'triclinic'
loop_
_space_group_symop_operation_xyz
x,y,z
-x,-y,-z
loop_
_atom_site_type_symbol
_atom_site_label
_atom_site_fract_x
_atom_site_fract_y
_atom_site_fract_z
Si Si1 0.165643 0.998339 0.335538
Si Si2 0.025599 0.375947 0.856443
Si Si3 0.113980 0.463855 0.499592
Si Si4 0.670727 0.382426 0.113472
Si Si5 0.308050 0.708404 0.597908
Si Si6 0.579520 0.670964 0.168062
Si Si7 0.763000 0.997041 0.276252
Si Si8 0.841328 0.933046 0.876083
O O1 0.415029 0.161623 0.251813
O O2 0.191376 0.070140 0.219003
O O3 0.000000 0.000000 0.500000
O O4 0.066331 0.761533 0.370147
O O5 0.192906 0.545202 0.860781
O O6 0.190443 0.480998 0.678597
O O7 0.946632 0.153630 0.892441
O O8 0.810753 0.348181 0.956556
O O9 0.224452 0.661631 0.532439
O O10 0.315211 0.492036 0.329149
O O11 0.000000 0.500000 0.500000
O O12 0.682016 0.562978 0.092820
O O13 0.575204 0.851674 0.452660
O O14 0.237743 0.818829 0.718876
O O15 0.717914 0.869099 0.187326
O O16 0.611130 0.752629 0.050687
O O17 0.993303 0.101575 0.203330
#
# Coordination Sequence:
#
# PCOD8023168 Si02
#       8
#     2   2   2   2   2   2   2   2
#     4  12  28  49  71 105 138 187 235 287 353 421
#     4  11  25  43  71 103 139 188 232 292 342 410
#     4  11  26  46  70  99 144 186 232 290 352 415
#     4  11  26  44  71 102 149 181 233 288 351 411
#     4  10  23  42  66 104 136 188 237 285 347 412
#     4  11  24  46  69 105 142 184 232 292 345 416
#     4  10  23  40  72 101 142 179 238 289 345 415
#     4  12  26  43  74 104 138 187 234 286 353 414
#
# _framework density 22.626356999999999
#
# number of rings (size 3 to 8) (size 9 to 14) (size 15 to 20)
#    0.000    1.000    3.750    1.125    8.750    3.500 
#    0.000    0.000    0.000    0.000    0.000    0.000 
#    0.000    0.000    0.000    0.000    0.000    0.000 
#
# Total GULP energy -198302.870597 kJ/mol
# GULP energy per Si atom -12393.929412 kJ/mol
# Density = 2.257486 g / cm^3
# Si number density = 22.626357 Si / 1000 Ang^3
#
#
#
# Elastic Constant Matrix: (Units=GPa)
#
#
# Indices 1 2 3 4 5 6 
#
# 1 92.5241 17.4252 47.8663 -11.1636 -1.0951 -1.4709
# 2 17.4252 91.1556 41.6663 -11.9349 -0.4154 -4.3725
# 3 47.8663 41.6663 112.9099 -19.3244 5.5427 -4.5300
# 4 -11.1636 -11.9349 -19.3244 37.8807 -2.7021 0.3506
# 5 -1.0951 -0.4154 5.5427 -2.7021 34.5624 -8.0131
# 6 -1.4709 -4.3725 -4.5300 0.3506 -8.0131 34.9880
#
#
#
# Elastic Compliance Matrix: (Units=1/GPa)
#
#
# Indices 1 2 3 4 5 6 
#
# 1 0.013970 0.000183 -0.005834 0.001306 0.001527 0.000191
# 2 0.000183 0.013416 -0.004705 0.001967 0.001394 0.001375
# 3 -0.005834 -0.004705 0.013818 0.003696 -0.002065 0.000446
# 4 0.001306 0.001967 0.003696 0.029422 0.001991 0.000940
# 5 0.001527 0.001394 -0.002065 0.001991 0.031126 0.007080
# 6 0.000191 0.001375 0.000446 0.000940 0.007080 0.030431
#
#
# Mechanical properties :
#
#
# Convention : Reuss Voigt Hill
#
# Bulk Modulus (GPa) = 48.79809 56.72279 52.76044
# Shear Modulus (GPa) = 31.30378 34.12835 32.71607
#
# Velocity S-wave (km/s) = 3.72359 3.88795 3.80666
# Velocity P-wave (km/s) = 6.33250 6.72894 6.53373
#
# Compressibility (1/GPa) = 0.02049260
#
# Stress axis : x y z
#
# Youngs Moduli (GPa) = 71.58073 74.53969 72.37042
#
# Poissons Ratio (x) = -0.01365 0.42220
# Poissons Ratio (y) = -0.01311 0.34050
# Poissons Ratio (z) = 0.41759 0.35070
#
# Static dielectric constant tensor:
#      x y z
#    x 3.816980 -0.023150 -0.063120 
#    y -0.023150 4.278960 -0.100260 
#    z -0.063120 -0.100260 4.418210 
# 
# 
# High freq. dielectric constant tensor:
#      x y z
#    x 1.878570 -0.002670 -0.002410 
#    y -0.002670 1.899970 -0.007940 
#    z -0.002410 -0.007940 1.906200 
# 
# From -- ./inp_files/514402.got.cif
#   From: 2010.06.25/outbox.cif.g09.slc.cpg/sg2_258_cif.got.tgz:514402.got - 2010.06.27 13:26:56.
