data_PCOD8023817
_publ_section_title
;
Structure prediction by ZEFSAII (Michael W. Deem and Ramdas Pophale) SiO2 
 PCOD8023817
Probable space group: P -1
;
_chemical_formula_sum "Si O2"
_cell_formula_units_Z 14
_cell_length_a 20.687489
_cell_length_b 9.808998
_cell_length_c 8.730915
_cell_angle_alpha 130.295273
_cell_angle_beta 30.894019
_cell_angle_gamma 129.147423
_cell_volume 680.523992
_symmetry_space_group_name_H-M "P -1"
_symmetry_group_IT_number 2
_symmetry_cell_setting 'triclinic'
loop_
_space_group_symop_operation_xyz
x,y,z
-x,-y,-z
loop_
_atom_site_type_symbol
_atom_site_label
_atom_site_fract_x
_atom_site_fract_y
_atom_site_fract_z
Si Si1 0.785122 0.171799 0.717546
Si Si2 0.452718 0.834578 0.586933
Si Si3 0.289694 0.543992 0.512047
Si Si4 0.383637 0.335121 0.650818
Si Si5 0.929615 0.474671 0.847600
Si Si6 0.225145 0.562463 0.319680
Si Si7 0.218888 0.225535 0.622621
O O1 0.898135 0.332206 0.667272
O O2 0.745055 0.243291 0.686553
O O3 0.837909 0.985212 0.453239
O O4 0.663955 0.131046 0.046096
O O5 0.411661 0.656165 0.435680
O O6 0.570401 0.811051 0.438932
O O7 0.500000 0.000000 0.500000
O O8 0.305186 0.582075 0.328587
O O9 0.281649 0.330572 0.417194
O O10 0.159820 0.605994 0.884392
O O11 0.500000 0.500000 0.500000
O O12 0.330071 0.236273 0.531437
O O13 0.267838 0.409410 0.018031
O O14 0.075867 0.497183 0.615428
O O15 0.894156 0.670711 0.014413
#
# Coordination Sequence:
#
# PCOD8023817 Si02
#       7
#     2   2   2   2   2   2   2
#     4  11  23  42  66  95 124 171 213 256 321 371
#     4  11  25  43  62  90 135 166 213 267 310 376
#     4   9  22  43  61  96 127 164 208 264 315 370
#     4  12  22  44  62  91 131 169 212 263 310 374
#     4   9  21  46  63  94 135 160 208 263 318 375
#     4  12  22  39  72  91 126 175 204 261 323 369
#     4  10  23  42  66  91 133 162 211 261 310 381
#
# _framework density 20.572382999999999
#
# number of rings (size 3 to 8) (size 9 to 14) (size 15 to 20)
#    0.857    0.571    4.286    0.857    4.000    2.857 
#    0.000    0.714    0.000    0.000    0.000    0.000 
#    0.000    0.000    0.000    0.000    0.000    0.000 
#
# Total GULP energy -173558.452545 kJ/mol
# GULP energy per Si atom -12397.032325 kJ/mol
# Density = 2.052556 g / cm^3
# Si number density = 20.572383 Si / 1000 Ang^3
#
#
#
# Elastic Constant Matrix: (Units=GPa)
#
#
# Indices 1 2 3 4 5 6 
#
# 1 111.0004 44.6083 22.7871 4.0257 10.6457 -15.2357
# 2 44.6083 124.2524 32.6188 20.7064 8.6407 -8.2089
# 3 22.7871 32.6188 56.8683 5.6448 -5.9630 0.5962
# 4 4.0257 20.7064 5.6448 32.9656 -0.3081 11.1362
# 5 10.6457 8.6407 -5.9630 -0.3081 32.4060 -3.1712
# 6 -15.2357 -8.2089 0.5962 11.1362 -3.1712 35.8815
#
#
#
# Elastic Compliance Matrix: (Units=1/GPa)
#
#
# Indices 1 2 3 4 5 6 
#
# 1 0.011744 -0.002663 -0.003513 -0.000658 -0.003376 0.004342
# 2 -0.002663 0.012221 -0.005540 -0.007745 -0.003096 0.003887
# 3 -0.003513 -0.005540 0.022783 0.001042 0.006551 -0.002882
# 4 -0.000658 -0.007745 0.001042 0.039960 0.001449 -0.014343
# 5 -0.003376 -0.003096 0.006551 0.001449 0.034042 0.000308
# 6 0.004342 0.003887 -0.002882 -0.014343 0.000308 0.035129
#
#
# Mechanical properties :
#
#
# Convention : Reuss Voigt Hill
#
# Bulk Modulus (GPa) = 42.88487 54.68329 48.78408
# Shear Modulus (GPa) = 26.72628 33.05775 29.89202
#
# Velocity S-wave (km/s) = 3.60826 4.01296 3.81598
# Velocity P-wave (km/s) = 6.18470 6.93617 6.57119
#
# Compressibility (1/GPa) = 0.02331825
#
# Stress axis : x y z
#
# Youngs Moduli (GPa) = 85.15199 81.82532 43.89217
#
# Poissons Ratio (x) = 0.21788 0.15417
# Poissons Ratio (y) = 0.22674 0.24314
# Poissons Ratio (z) = 0.29910 0.45328
#
# Static dielectric constant tensor:
#      x y z
#    x 3.739180 -0.115030 0.060130 
#    y -0.115030 3.537750 0.008210 
#    z 0.060130 0.008210 3.669980 
# 
# 
# High freq. dielectric constant tensor:
#      x y z
#    x 1.805940 -0.007680 0.005060 
#    y -0.007680 1.789870 -0.003560 
#    z 0.005060 -0.003560 1.798540 
# 
# From -- ./inp_files/343715.got.cif
#   From: 2010.06.25/outbox.cif.g09.slc.cpg/sg2_172_cif.got.tgz:343715.got - 2010.06.27 13:26:56.
