data_PCOD8023052
_publ_section_title
;
Structure prediction by ZEFSAII (Michael W. Deem and Ramdas Pophale) SiO2 
 PCOD8023052
Probable space group: P -1
;
_chemical_formula_sum "Si O2"
_cell_formula_units_Z 16
_cell_length_a 12.422876
_cell_length_b 11.791135
_cell_length_c 15.708442
_cell_angle_alpha 69.492064
_cell_angle_beta 26.801126
_cell_angle_gamma 53.296227
_cell_volume 717.159221
_symmetry_space_group_name_H-M "P -1"
_symmetry_group_IT_number 2
_symmetry_cell_setting 'triclinic'
loop_
_space_group_symop_operation_xyz
x,y,z
-x,-y,-z
loop_
_atom_site_type_symbol
_atom_site_label
_atom_site_fract_x
_atom_site_fract_y
_atom_site_fract_z
Si Si1 0.763545 0.492113 0.040799
Si Si2 0.459464 0.321276 0.552769
Si Si3 0.310189 0.847300 0.211241
Si Si4 0.767689 0.906933 0.689989
Si Si5 0.906853 0.947307 0.314318
Si Si6 0.547235 0.064219 0.258638
Si Si7 0.689457 0.401828 0.516701
Si Si8 0.169231 0.787053 0.988993
O O1 0.619606 0.654508 0.047829
O O2 0.611194 0.538095 0.229690
O O3 0.673424 0.399733 0.077784
O O4 0.147116 0.378084 0.808200
O O5 0.650736 0.141818 0.427422
O O6 0.687588 0.317228 0.457184
O O7 0.352424 0.443202 0.518023
O O8 0.010349 0.899376 0.462123
O O9 0.401696 0.947036 0.159640
O O10 0.204621 0.895769 0.174391
O O11 0.966509 0.732912 0.643587
O O12 0.496350 0.944735 0.809418
O O13 0.743261 0.889527 0.492645
O O14 0.024625 0.858784 0.164907
O O15 0.560117 0.205008 0.226033
O O16 0.887983 0.888665 0.089967
#
# Coordination Sequence:
#
# PCOD8023052 Si02
#       8
#     2   2   2   2   2   2   2   2
#     4  11  24  40  64  93 131 168 206 266 309 369
#     4  11  23  39  66  97 128 167 207 259 324 370
#     4   9  20  39  67  95 123 165 207 261 323 375
#     4   9  18  41  66  91 127 163 210 257 324 379
#     4  11  22  42  67  91 128 172 206 259 314 379
#     4  10  23  40  66  91 119 175 213 256 308 368
#     4  10  23  41  63  98 131 158 210 265 318 379
#     4  11  25  40  61  96 128 168 221 251 304 379
#
# _framework density 22.310248000000001
#
# number of rings (size 3 to 8) (size 9 to 14) (size 15 to 20)
#    0.000    1.750    2.500    0.750    5.250    2.500 
#    2.250    6.875    0.000    0.000    0.000    0.000 
#    0.000    0.000    0.000    0.000    0.000    0.000 
#
# Total GULP energy -198448.690698 kJ/mol
# GULP energy per Si atom -12403.043169 kJ/mol
# Density = 2.225947 g / cm^3
# Si number density = 22.310248 Si / 1000 Ang^3
#
#
#
# Elastic Constant Matrix: (Units=GPa)
#
#
# Indices 1 2 3 4 5 6 
#
# 1 144.6010 48.6987 17.2985 8.2060 -3.6109 -13.0918
# 2 48.6987 110.7486 21.9974 7.7946 16.9912 -11.9302
# 3 17.2985 21.9974 24.3861 5.6065 9.3700 -6.0959
# 4 8.2060 7.7946 5.6065 31.7204 3.8670 3.3186
# 5 -3.6109 16.9912 9.3700 3.8670 22.7877 -2.7231
# 6 -13.0918 -11.9302 -6.0959 3.3186 -2.7231 28.7491
#
#
#
# Elastic Compliance Matrix: (Units=1/GPa)
#
#
# Indices 1 2 3 4 5 6 
#
# 1 0.009251 -0.003783 -0.004762 -0.001714 0.006831 0.002478
# 2 -0.003783 0.013264 -0.005675 -0.000520 -0.007841 0.001896
# 3 -0.004762 -0.005675 0.060191 -0.006403 -0.019332 0.007147
# 4 -0.001714 -0.000520 -0.006403 0.034403 -0.003889 -0.006694
# 5 0.006831 -0.007841 -0.019332 -0.003889 0.059643 0.001856
# 6 0.002478 0.001896 0.007147 -0.006694 0.001856 0.039163
#
#
# Mechanical properties :
#
#
# Convention : Reuss Voigt Hill
#
# Bulk Modulus (GPa) = 18.42737 50.63608 34.53172
# Shear Modulus (GPa) = 19.05179 29.43418 24.24298
#
# Velocity S-wave (km/s) = 2.92541 3.63617 3.29998
# Velocity P-wave (km/s) = 4.43714 6.35410 5.48009
#
# Compressibility (1/GPa) = 0.05426711
#
# Stress axis : x y z
#
# Youngs Moduli (GPa) = 108.09149 75.39313 16.61390
#
# Poissons Ratio (x) = 0.28519 0.07911
# Poissons Ratio (y) = 0.40888 0.09428
# Poissons Ratio (z) = 0.51468 0.42786
#
# Static dielectric constant tensor:
#      x y z
#    x 4.142700 -0.020290 -0.034550 
#    y -0.020290 4.197870 -0.106860 
#    z -0.034550 -0.106860 3.706370 
# 
# 
# High freq. dielectric constant tensor:
#      x y z
#    x 1.879670 -0.001330 0.001550 
#    y -0.001330 1.885570 -0.009830 
#    z 0.001550 -0.009830 1.862860 
# 
# From -- ./inp_files/519667.got.cif
#   From: 2010.06.25/outbox.cif.g09.slc.cpg/sg2_260_cif.got.tgz:519667.got - 2010.06.27 13:26:56.
