data_PCOD8023875
_publ_section_title
;
Structure prediction by ZEFSAII (Michael W. Deem and Ramdas Pophale) SiO2 
 PCOD8023875
Probable space group: P -1
;
_chemical_formula_sum "Si O2"
_cell_formula_units_Z 16
_cell_length_a 18.677761
_cell_length_b 9.390092
_cell_length_c 9.423898
_cell_angle_alpha 85.013377
_cell_angle_beta 152.984128
_cell_angle_gamma 97.190611
_cell_volume 743.757753
_symmetry_space_group_name_H-M "P -1"
_symmetry_group_IT_number 2
_symmetry_cell_setting 'triclinic'
loop_
_space_group_symop_operation_xyz
x,y,z
-x,-y,-z
loop_
_atom_site_type_symbol
_atom_site_label
_atom_site_fract_x
_atom_site_fract_y
_atom_site_fract_z
Si Si1 0.378672 0.016139 0.658663
Si Si2 0.798942 0.277512 0.688696
Si Si3 0.670851 0.363682 0.738975
Si Si4 0.319236 0.485987 0.725693
Si Si5 0.687216 0.608182 0.963321
Si Si6 0.131090 0.197977 0.335724
Si Si7 0.859035 0.898830 0.328584
Si Si8 0.411413 0.916372 0.222936
O O1 0.332768 0.858123 0.528058
O O2 0.219293 0.081285 0.417163
O O3 0.462052 0.115279 0.672121
O O4 0.500000 0.000000 0.000000
O O5 0.789547 0.358594 0.816137
O O6 0.766000 0.379689 0.491115
O O7 0.971758 0.227812 0.970889
O O8 0.726641 0.510494 0.908287
O O9 0.492268 0.354292 0.367090
O O10 0.684161 0.231286 0.880649
O O11 0.247180 0.342558 0.533808
O O12 0.500000 0.500000 0.000000
O O13 0.294974 0.478164 0.852242
O O14 0.808384 0.753797 0.160757
O O15 0.081984 0.140930 0.409569
O O16 0.000000 0.000000 0.500000
O O17 0.708073 0.985825 0.070995
O O18 0.500000 0.000000 0.500000
#
# Coordination Sequence:
#
# PCOD8023875 Si02
#       8
#     2   2   2   2   2   2   2   2
#     4  12  25  44  71  99 135 181 237 283 336 416
#     4  12  24  45  66  99 140 181 226 289 346 402
#     4  11  23  41  69 101 137 176 231 283 337 404
#     4  11  23  43  71  95 134 183 227 279 340 408
#     4  10  23  42  67 105 132 178 235 274 336 414
#     4  11  26  44  67 101 137 180 228 284 349 407
#     4  11  23  45  69 100 142 179 219 287 349 406
#     4  12  23  42  70 100 133 179 235 281 335 403
#
# _framework density 21.512381000000001
#
# number of rings (size 3 to 8) (size 9 to 14) (size 15 to 20)
#    0.000    0.750    5.000    2.250    3.500    0.000 
#    0.000    6.875    0.000    0.000    0.000    0.000 
#    0.000    0.000    0.000    0.000    0.000    0.000 
#
# Total GULP energy -198494.658623 kJ/mol
# GULP energy per Si atom -12405.916164 kJ/mol
# Density = 2.146342 g / cm^3
# Si number density = 21.512381 Si / 1000 Ang^3
#
#
#
# Elastic Constant Matrix: (Units=GPa)
#
#
# Indices 1 2 3 4 5 6 
#
# 1 99.8400 45.8506 50.8240 3.8815 7.4149 -5.5416
# 2 45.8506 116.7418 49.6927 -1.4700 1.6040 4.1241
# 3 50.8240 49.6927 114.5317 -14.1026 -0.9209 3.4140
# 4 3.8815 -1.4700 -14.1026 43.5237 2.9655 0.7981
# 5 7.4149 1.6040 -0.9209 2.9655 28.1387 0.1699
# 6 -5.5416 4.1241 3.4140 0.7981 0.1699 41.9414
#
#
#
# Elastic Compliance Matrix: (Units=1/GPa)
#
#
# Indices 1 2 3 4 5 6 
#
# 1 0.015094 -0.003626 -0.005621 -0.003094 -0.003646 0.002882
# 2 -0.003626 0.011463 -0.003369 -0.000373 0.000239 -0.001326
# 3 -0.005621 -0.003369 0.013317 0.004620 0.001632 -0.001590
# 4 -0.003094 -0.000373 0.004620 0.024869 -0.001626 -0.001215
# 5 -0.003646 0.000239 0.001632 -0.001626 0.036715 -0.000756
# 6 0.002882 -0.001326 -0.001590 -0.001215 -0.000756 0.024510
#
#
# Mechanical properties :
#
#
# Convention : Reuss Voigt Hill
#
# Bulk Modulus (GPa) = 68.29904 69.31645 68.80775
# Shear Modulus (GPa) = 32.03507 35.03718 33.53613
#
# Velocity S-wave (km/s) = 3.86313 4.04009 3.95260
# Velocity P-wave (km/s) = 7.19138 7.35219 7.27223
#
# Compressibility (1/GPa) = 0.01464149
#
# Stress axis : x y z
#
# Youngs Moduli (GPa) = 66.25304 87.23747 75.09448
#
# Poissons Ratio (x) = 0.31634 0.42209
# Poissons Ratio (y) = 0.24025 0.25298
# Poissons Ratio (z) = 0.37239 0.29389
#
# Static dielectric constant tensor:
#      x y z
#    x 3.944280 0.058530 -0.080840 
#    y 0.058530 4.043060 -0.162530 
#    z -0.080840 -0.162530 4.008400 
# 
# 
# High freq. dielectric constant tensor:
#      x y z
#    x 1.840120 0.005040 -0.006420 
#    y 0.005040 1.855140 -0.003630 
#    z -0.006420 -0.003630 1.850060 
# 
# From -- ./inp_files/244779.got.cif
#   From: 2010.06.25/outbox.cif.g09.slc.cpg/sg2_123_cif.got.tgz:244779.got - 2010.06.27 13:26:56.
