data_PCOD8023138
_publ_section_title
;
Structure prediction by ZEFSAII (Michael W. Deem and Ramdas Pophale) SiO2 
 PCOD8023138
Probable space group: P -1
;
_chemical_formula_sum "Si O2"
_cell_formula_units_Z 16
_cell_length_a 13.088975
_cell_length_b 13.604427
_cell_length_c 11.062792
_cell_angle_alpha 145.574519
_cell_angle_beta 58.283761
_cell_angle_gamma 96.596705
_cell_volume 709.350609
_symmetry_space_group_name_H-M "P -1"
_symmetry_group_IT_number 2
_symmetry_cell_setting 'triclinic'
loop_
_space_group_symop_operation_xyz
x,y,z
-x,-y,-z
loop_
_atom_site_type_symbol
_atom_site_label
_atom_site_fract_x
_atom_site_fract_y
_atom_site_fract_z
Si Si1 0.435579 0.246269 0.407107
Si Si2 0.403133 0.643552 0.828157
Si Si3 0.234082 0.346982 0.156056
Si Si4 0.178565 0.425113 0.554844
Si Si5 0.569674 0.070977 0.740158
Si Si6 0.935019 0.144573 0.307041
Si Si7 0.794516 0.967092 0.818382
Si Si8 0.850811 0.880935 0.193165
O O1 0.375477 0.484344 0.750600
O O2 0.344746 0.324820 0.413130
O O3 0.390893 0.123747 0.390417
O O4 0.626041 0.075342 0.097050
O O5 0.500000 0.500000 0.500000
O O6 0.489424 0.696825 0.917868
O O7 0.238368 0.897891 0.148907
O O8 0.201879 0.375719 0.347485
O O9 0.161046 0.585457 0.378024
O O10 0.426280 0.160727 0.828803
O O11 0.162194 0.240923 0.034860
O O12 0.119582 0.300363 0.526456
O O13 0.033393 0.698104 0.944613
O O14 0.729721 0.949540 0.443302
O O15 0.819380 0.110465 0.405501
O O16 0.095765 0.015913 0.152864
O O17 0.000000 0.000000 0.000000
#
# Coordination Sequence:
#
# PCOD8023138 Si02
#       8
#     2   2   2   2   2   2   2   2
#     4  11  24  42  74 104 139 178 227 294 348 404
#     4  10  23  40  69 104 133 178 231 280 340 408
#     4  12  25  45  72 101 135 191 239 282 341 414
#     4  12  21  44  74 102 137 177 243 283 339 415
#     4  12  27  46  70 103 147 182 229 288 354 417
#     4  12  26  42  71 104 140 181 236 293 336 405
#     4  11  21  42  70 104 136 173 239 288 334 402
#     4  12  28  47  68 105 143 187 228 288 356 411
#
# _framework density 22.555841000000001
#
# number of rings (size 3 to 8) (size 9 to 14) (size 15 to 20)
#    0.000    0.500    5.000    4.125    3.500    2.000 
#    0.000    1.250    0.000    0.000    0.000    0.000 
#    0.000    0.000    0.000    0.000    0.000    0.000 
#
# Total GULP energy -198310.257217 kJ/mol
# GULP energy per Si atom -12394.391076 kJ/mol
# Density = 2.250450 g / cm^3
# Si number density = 22.555841 Si / 1000 Ang^3
#
#
#
# Elastic Constant Matrix: (Units=GPa)
#
#
# Indices 1 2 3 4 5 6 
#
# 1 131.0838 49.2482 32.1025 14.3668 -4.2977 9.4566
# 2 49.2482 113.3669 47.7590 20.3264 -0.1920 21.2839
# 3 32.1025 47.7590 71.0776 10.3921 -4.5103 7.1475
# 4 14.3668 20.3264 10.3921 44.7784 12.6256 3.9260
# 5 -4.2977 -0.1920 -4.5103 12.6256 34.2565 14.1337
# 6 9.4566 21.2839 7.1475 3.9260 14.1337 33.5815
#
#
#
# Elastic Compliance Matrix: (Units=1/GPa)
#
#
# Indices 1 2 3 4 5 6 
#
# 1 0.009489 -0.002765 -0.001910 -0.001830 0.002083 -0.001176
# 2 -0.002765 0.015687 -0.007422 -0.004926 0.004200 -0.008776
# 3 -0.001910 -0.007422 0.020366 -0.001593 0.003069 -0.000198
# 4 -0.001830 -0.004926 -0.001593 0.028836 -0.013728 0.006383
# 5 0.002083 0.004200 0.003069 -0.013728 0.043429 -0.020575
# 6 -0.001176 -0.008776 -0.000198 0.006383 -0.020575 0.043627
#
#
# Mechanical properties :
#
#
# Convention : Reuss Voigt Hill
#
# Bulk Modulus (GPa) = 46.84300 63.74973 55.29637
# Shear Modulus (GPa) = 25.94095 34.95119 30.44607
#
# Velocity S-wave (km/s) = 3.39496 3.94069 3.67796
# Velocity P-wave (km/s) = 6.01501 7.00213 6.52726
#
# Compressibility (1/GPa) = 0.02134791
#
# Stress axis : x y z
#
# Youngs Moduli (GPa) = 105.38507 63.74742 49.10024
#
# Poissons Ratio (x) = 0.17627 0.09377
# Poissons Ratio (y) = 0.29141 0.36444
# Poissons Ratio (z) = 0.20125 0.47316
#
# Static dielectric constant tensor:
#      x y z
#    x 6.443580 0.705370 -0.307930 
#    y 0.705370 4.638600 0.720880 
#    z -0.307930 0.720880 4.273760 
# 
# 
# High freq. dielectric constant tensor:
#      x y z
#    x 1.908360 0.010380 -0.000850 
#    y 0.010380 1.887540 0.040810 
#    z -0.000850 0.040810 1.868070 
# 
# From -- ./inp_files/434350.got.cif
#   From: 2010.06.25/outbox.cif.g09.slc.cpg/sg2_218_cif.got.tgz:434350.got - 2010.06.27 13:26:56.
