data_PCOD8023352
_publ_section_title
;
Structure prediction by ZEFSAII (Michael W. Deem and Ramdas Pophale) SiO2 
 PCOD8023352
Probable space group: P -1
;
_chemical_formula_sum "Si O2"
_cell_formula_units_Z 16
_cell_length_a 14.663527
_cell_length_b 9.180386
_cell_length_c 16.035022
_cell_angle_alpha 34.304156
_cell_angle_beta 38.103809
_cell_angle_gamma 39.004421
_cell_volume 698.807107
_symmetry_space_group_name_H-M "P -1"
_symmetry_group_IT_number 2
_symmetry_cell_setting 'triclinic'
loop_
_space_group_symop_operation_xyz
x,y,z
-x,-y,-z
loop_
_atom_site_type_symbol
_atom_site_label
_atom_site_fract_x
_atom_site_fract_y
_atom_site_fract_z
Si Si1 0.592377 0.586585 0.821623
Si Si2 0.174082 0.829483 0.786730
Si Si3 0.164109 0.980032 0.135115
Si Si4 0.933851 0.144033 0.566646
Si Si5 0.247211 0.998738 0.476510
Si Si6 0.649388 0.437332 0.532981
Si Si7 0.601797 0.765835 0.104301
Si Si8 0.389109 0.996015 0.656925
O O1 0.753868 0.346799 0.788541
O O2 0.633747 0.846448 0.701042
O O3 0.468305 0.693406 0.784891
O O4 0.500000 0.500000 0.000000
O O5 0.265453 0.509432 0.900729
O O6 0.251921 0.897797 0.615007
O O7 0.213190 0.018092 0.741367
O O8 0.986330 0.891442 0.880153
O O9 0.109493 0.039224 0.243594
O O10 0.299420 0.110086 0.962892
O O11 0.774129 0.395221 0.539519
O O12 0.072614 0.224492 0.471233
O O13 0.000000 0.000000 0.500000
O O14 0.283273 0.723058 0.524847
O O15 0.511518 0.336727 0.709617
O O16 0.605129 0.765728 0.394505
O O17 0.500000 0.000000 0.000000
O O18 0.500000 0.000000 0.500000
#
# Coordination Sequence:
#
# PCOD8023352 Si02
#       8
#     2   2   2   2   2   2   2   2
#     4  12  26  45  69 102 141 180 237 287 350 410
#     4  11  25  43  68 101 133 181 235 279 344 421
#     4  11  24  42  69  97 141 187 224 288 353 410
#     4   9  20  39  63 102 131 174 229 280 341 406
#     4  10  23  41  66 100 136 176 232 288 339 416
#     4  11  22  40  70  96 135 180 226 287 344 403
#     4  12  22  39  66  99 137 177 229 278 348 412
#     4  12  23  45  69 102 136 179 236 283 343 421
#
# _framework density 22.896162
#
# number of rings (size 3 to 8) (size 9 to 14) (size 15 to 20)
#    0.000    1.000    3.750    2.625    1.750    4.000 
#    0.000    1.875    0.000    0.000    0.000    0.000 
#    0.000    0.000    0.000    0.000    0.000    0.000 
#
# Total GULP energy -198215.238226 kJ/mol
# GULP energy per Si atom -12388.452389 kJ/mol
# Density = 2.284405 g / cm^3
# Si number density = 22.896162 Si / 1000 Ang^3
#
#
#
# Elastic Constant Matrix: (Units=GPa)
#
#
# Indices 1 2 3 4 5 6 
#
# 1 152.7587 62.1112 62.5164 -9.8492 -20.8374 -19.0302
# 2 62.1112 107.4911 41.5296 -11.2411 -9.2749 -8.0100
# 3 62.5164 41.5296 91.3165 -8.1833 -6.5910 -15.2205
# 4 -9.8492 -11.2411 -8.1833 31.1305 2.3775 -2.2193
# 5 -20.8374 -9.2749 -6.5910 2.3775 37.0843 -1.7369
# 6 -19.0302 -8.0100 -15.2205 -2.2193 -1.7369 44.2815
#
#
#
# Elastic Compliance Matrix: (Units=1/GPa)
#
#
# Indices 1 2 3 4 5 6 
#
# 1 0.011162 -0.003838 -0.005087 0.000648 0.004486 0.002562
# 2 -0.003838 0.012992 -0.003052 0.002632 0.000372 -0.000202
# 3 -0.005087 -0.003052 0.016437 0.001874 -0.000681 0.002979
# 4 0.000648 0.002632 0.001874 0.034042 -0.000683 0.003078
# 5 0.004486 0.000372 -0.000681 -0.000683 0.029637 0.002889
# 6 0.002562 -0.000202 0.002979 0.003078 0.002889 0.024939
#
#
# Mechanical properties :
#
#
# Convention : Reuss Voigt Hill
#
# Bulk Modulus (GPa) = 60.10856 75.98676 68.04766
# Shear Modulus (GPa) = 31.50415 34.85985 33.18200
#
# Velocity S-wave (km/s) = 3.71341 3.90618 3.81102
# Velocity P-wave (km/s) = 6.68548 7.32147 7.01069
#
# Compressibility (1/GPa) = 0.01663656
#
# Stress axis : x y z
#
# Youngs Moduli (GPa) = 89.59246 76.96775 60.83982
#
# Poissons Ratio (x) = 0.29543 0.30948
# Poissons Ratio (y) = 0.34389 0.18568
# Poissons Ratio (z) = 0.45574 0.23490
#
# Static dielectric constant tensor:
#      x y z
#    x 4.828350 -0.340100 -0.144080 
#    y -0.340100 4.351910 -0.132960 
#    z -0.144080 -0.132960 3.910360 
# 
# 
# High freq. dielectric constant tensor:
#      x y z
#    x 1.929840 -0.019700 -0.011230 
#    y -0.019700 1.896900 -0.005610 
#    z -0.011230 -0.005610 1.884150 
# 
# From -- ./inp_files/529276.got.cif
#   From: 2010.06.25/outbox.cif.g09.slc.cpg/sg2_265_cif.got.tgz:529276.got - 2010.06.27 13:26:56.
