data_PCOD8023277
_publ_section_title
;
Structure prediction by ZEFSAII (Michael W. Deem and Ramdas Pophale) SiO2 
 PCOD8023277
Probable space group: P -1
;
_chemical_formula_sum "Si O2"
_cell_formula_units_Z 16
_cell_length_a 17.472903
_cell_length_b 23.160324
_cell_length_c 5.097689
_cell_angle_alpha 91.445625
_cell_angle_beta 98.897695
_cell_angle_gamma 19.631495
_cell_volume 638.061952
_symmetry_space_group_name_H-M "P -1"
_symmetry_group_IT_number 2
_symmetry_cell_setting 'triclinic'
loop_
_space_group_symop_operation_xyz
x,y,z
-x,-y,-z
loop_
_atom_site_type_symbol
_atom_site_label
_atom_site_fract_x
_atom_site_fract_y
_atom_site_fract_z
Si Si1 0.479850 0.325435 0.498866
Si Si2 0.454949 0.416346 0.021756
Si Si3 0.327621 0.123103 0.662636
Si Si4 0.995102 0.186271 0.088305
Si Si5 0.899531 0.504091 0.656014
Si Si6 0.017340 0.931054 0.830591
Si Si7 0.244061 0.058595 0.693059
Si Si8 0.745740 0.730083 0.736429
O O1 0.361005 0.437250 0.189578
O O2 0.341537 0.364131 0.492845
O O3 0.454833 0.388306 0.731155
O O4 0.764248 0.108562 0.550267
O O5 0.731411 0.242953 0.227317
O O6 0.275073 0.598215 0.963166
O O7 0.161477 0.182549 0.577729
O O8 0.420627 0.094406 0.434158
O O9 0.120370 0.322229 0.572806
O O10 0.500000 0.000000 0.000000
O O11 0.154517 0.078161 0.425681
O O12 0.970347 0.136243 0.995667
O O13 0.130681 0.124112 0.920801
O O14 0.820741 0.625989 0.559196
O O15 0.006558 0.425481 0.001065
O O16 0.000000 0.000000 0.000000
O O17 0.544852 0.843756 0.843920
#
# Coordination Sequence:
#
# PCOD8023277 Si02
#       8
#     2   2   2   2   2   2   2   2
#     4  11  25  44  72 103 142 182 237 288 348 418
#     4  11  24  46  72 106 136 184 227 293 353 424
#     4  10  23  41  64  93 132 184 230 288 342 400
#     4  12  25  46  72 106 140 181 234 290 346 425
#     4  11  23  42  66  98 139 185 241 283 347 411
#     4  10  25  48  74 104 141 181 226 286 361 426
#     4  11  27  44  71 101 143 183 236 286 349 405
#     4  10  25  42  64  98 138 192 231 292 341 412
#
# _framework density 25.075932999999999
#
# number of rings (size 3 to 8) (size 9 to 14) (size 15 to 20)
#    0.000    1.250    0.000    4.125    8.750    7.000 
#    2.250    4.375    0.000    0.000    0.000    0.000 
#    0.000    0.000    0.000    0.000    0.000    0.000 
#
# Total GULP energy -198310.363905 kJ/mol
# GULP energy per Si atom -12394.397744 kJ/mol
# Density = 2.501886 g / cm^3
# Si number density = 25.075933 Si / 1000 Ang^3
#
#
#
# Elastic Constant Matrix: (Units=GPa)
#
#
# Indices 1 2 3 4 5 6 
#
# 1 151.6972 63.5821 32.4665 -4.7038 -0.8459 28.5032
# 2 63.5821 135.1836 38.4255 -3.1571 8.2231 4.6797
# 3 32.4665 38.4255 87.7076 0.0497 -0.3394 -5.6204
# 4 -4.7038 -3.1571 0.0497 41.9165 -6.9672 -4.3291
# 5 -0.8459 8.2231 -0.3394 -6.9672 39.7258 -6.7877
# 6 28.5032 4.6797 -5.6204 -4.3291 -6.7877 46.1706
#
#
#
# Elastic Compliance Matrix: (Units=1/GPa)
#
#
# Indices 1 2 3 4 5 6 
#
# 1 0.009777 -0.003713 -0.002373 0.000204 -0.000021 -0.005932
# 2 -0.003713 0.010111 -0.003025 0.000064 -0.002084 0.000598
# 3 -0.002373 -0.003025 0.013845 0.000090 0.001335 0.003662
# 4 0.000204 0.000064 0.000090 0.024999 0.004879 0.002940
# 5 -0.000021 -0.002084 0.001335 0.004879 0.027301 0.004858
# 6 -0.005932 0.000598 0.003662 0.002940 0.004858 0.026696
#
#
# Mechanical properties :
#
#
# Convention : Reuss Voigt Hill
#
# Bulk Modulus (GPa) = 64.46814 71.50408 67.98611
# Shear Modulus (GPa) = 36.73217 41.57019 39.15118
#
# Velocity S-wave (km/s) = 3.83147 4.07599 3.95562
# Velocity P-wave (km/s) = 6.73339 7.12240 6.93062
#
# Compressibility (1/GPa) = 0.01551154
#
# Stress axis : x y z
#
# Youngs Moduli (GPa) = 102.28240 98.90261 72.22800
#
# Poissons Ratio (x) = 0.36718 0.17139
# Poissons Ratio (y) = 0.37972 0.21850
# Poissons Ratio (z) = 0.24271 0.29920
#
# Static dielectric constant tensor:
#      x y z
#    x 4.775890 0.235820 0.077360 
#    y 0.235820 5.414060 -0.156420 
#    z 0.077360 -0.156420 4.229450 
# 
# 
# High freq. dielectric constant tensor:
#      x y z
#    x 2.019250 0.011340 -0.005510 
#    y 0.011340 2.047370 -0.004970 
#    z -0.005510 -0.004970 1.976400 
# 
# From -- ./inp_files/112870.got.cif
#   From: 2010.06.25/outbox.cif.g09.slc.cpg/sg2_57_cif.got.tgz:112870.got - 2010.06.27 13:26:56.
