data_PCOD8023211
_publ_section_title
;
Structure prediction by ZEFSAII (Michael W. Deem and Ramdas Pophale) SiO2 
 PCOD8023211
Probable space group: P -1
;
_chemical_formula_sum "Si O2"
_cell_formula_units_Z 14
_cell_length_a 11.662116
_cell_length_b 7.693910
_cell_length_c 8.950077
_cell_angle_alpha 49.368578
_cell_angle_beta 84.272778
_cell_angle_gamma 80.348425
_cell_volume 600.784434
_symmetry_space_group_name_H-M "P -1"
_symmetry_group_IT_number 2
_symmetry_cell_setting 'triclinic'
loop_
_space_group_symop_operation_xyz
x,y,z
-x,-y,-z
loop_
_atom_site_type_symbol
_atom_site_label
_atom_site_fract_x
_atom_site_fract_y
_atom_site_fract_z
Si Si1 0.123557 0.991378 0.911361
Si Si2 0.111103 0.615404 0.879312
Si Si3 0.341738 0.467286 0.042289
Si Si4 0.460308 0.892002 0.716675
Si Si5 0.694499 0.341834 0.746401
Si Si6 0.544820 0.785020 0.214674
Si Si7 0.787545 0.540234 0.340414
O O1 0.117755 0.856359 0.829607
O O2 0.143979 0.251503 0.737313
O O3 0.233182 0.882946 0.059709
O O4 0.000000 0.000000 0.000000
O O5 0.131945 0.630867 0.688879
O O6 0.215503 0.423284 0.030037
O O7 0.000000 0.500000 0.000000
O O8 0.433684 0.242434 0.121211
O O9 0.340935 0.478506 0.216507
O O10 0.371197 0.702648 0.822603
O O11 0.500000 0.000000 0.500000
O O12 0.407828 0.116760 0.691733
O O13 0.571598 0.333065 0.682424
O O14 0.779681 0.411144 0.569721
O O15 0.658983 0.615408 0.237486
O O16 0.500000 0.000000 0.000000
#
# Coordination Sequence:
#
# PCOD8023211 Si02
#       7
#     2   2   2   2   2   2   2
#     4  11  24  48  71  93 137 177 219 281 337 385
#     4  11  24  45  71  96 128 177 227 273 333 393
#     4  10  23  41  62  93 139 168 211 278 326 386
#     4  11  23  38  65  98 131 174 215 263 331 397
#     4  11  25  43  66 102 133 175 222 271 337 399
#     4  12  21  41  67  96 137 175 212 266 339 394
#     4  12  25  44  71  97 135 177 222 277 330 399
#
# _framework density 23.302868
#
# number of rings (size 3 to 8) (size 9 to 14) (size 15 to 20)
#    0.000    0.857    4.286    3.000    4.000    0.571 
#    0.000    0.714    0.000    0.000    0.000    0.000 
#    0.000    0.000    0.000    0.000    0.000    0.000 
#
# Total GULP energy -173466.777199 kJ/mol
# GULP energy per Si atom -12390.484086 kJ/mol
# Density = 2.324983 g / cm^3
# Si number density = 23.302868 Si / 1000 Ang^3
#
#
#
# Elastic Constant Matrix: (Units=GPa)
#
#
# Indices 1 2 3 4 5 6 
#
# 1 110.5799 21.3565 13.6821 -0.0639 -27.1599 3.9027
# 2 21.3565 121.4414 37.3564 19.6901 -21.3674 3.5910
# 3 13.6821 37.3564 129.0533 21.5819 -31.2264 12.0477
# 4 -0.0639 19.6901 21.5819 26.6826 -6.6203 -9.2935
# 5 -27.1599 -21.3674 -31.2264 -6.6203 33.1971 2.4781
# 6 3.9027 3.5910 12.0477 -9.2935 2.4781 34.7082
#
#
#
# Elastic Compliance Matrix: (Units=1/GPa)
#
#
# Indices 1 2 3 4 5 6 
#
# 1 0.011806 -0.000753 0.001687 0.001184 0.011170 -0.002316
# 2 -0.000753 0.010602 -0.000286 -0.007576 0.004673 -0.003275
# 3 0.001687 -0.000286 0.013057 -0.010245 0.012055 -0.008296
# 4 0.001184 -0.007576 -0.010245 0.057373 -0.003582 0.019825
# 5 0.011170 0.004673 0.012055 -0.003582 0.053694 -0.010717
# 6 -0.002316 -0.003275 -0.008296 0.019825 -0.010717 0.038364
#
#
# Mechanical properties :
#
#
# Convention : Reuss Voigt Hill
#
# Bulk Modulus (GPa) = 27.20248 56.20719 41.70483
# Shear Modulus (GPa) = 25.52917 38.16288 31.84602
#
# Velocity S-wave (km/s) = 3.31348 4.05123 3.70078
# Velocity P-wave (km/s) = 5.13202 6.78645 6.01638
#
# Compressibility (1/GPa) = 0.03676136
#
# Stress axis : x y z
#
# Youngs Moduli (GPa) = 84.70325 94.32091 76.58624
#
# Poissons Ratio (x) = 0.07106 -0.12923
# Poissons Ratio (y) = 0.06382 0.02189
# Poissons Ratio (z) = -0.14292 0.02696
#
# Static dielectric constant tensor:
#      x y z
#    x 4.518830 -0.255070 -0.365680 
#    y -0.255070 4.006930 0.155850 
#    z -0.365680 0.155850 4.107360 
# 
# 
# High freq. dielectric constant tensor:
#      x y z
#    x 1.924120 -0.004420 -0.016370 
#    y -0.004420 1.931260 0.021350 
#    z -0.016370 0.021350 1.910580 
# 
# From -- ./inp_files/236571.got.cif
#   From: 2010.06.25/outbox.cif.g09.slc.cpg/sg2_119_cif.got.tgz:236571.got - 2010.06.27 13:26:56.
