data_PCOD8023556
_publ_section_title
;
Structure prediction by ZEFSAII (Michael W. Deem and Ramdas Pophale) SiO2 
 PCOD8023556
Probable space group: P -1
;
_chemical_formula_sum "Si O2"
_cell_formula_units_Z 16
_cell_length_a 20.825789
_cell_length_b 9.306950
_cell_length_c 12.503739
_cell_angle_alpha 144.123701
_cell_angle_beta 152.629820
_cell_angle_gamma 45.492287
_cell_volume 651.403089
_symmetry_space_group_name_H-M "P -1"
_symmetry_group_IT_number 2
_symmetry_cell_setting 'triclinic'
loop_
_space_group_symop_operation_xyz
x,y,z
-x,-y,-z
loop_
_atom_site_type_symbol
_atom_site_label
_atom_site_fract_x
_atom_site_fract_y
_atom_site_fract_z
Si Si1 0.726688 0.958339 0.123378
Si Si2 0.212258 0.621397 0.376200
Si Si3 0.780926 0.009994 0.660527
Si Si4 0.447432 0.844851 0.729738
Si Si5 0.640671 0.214953 0.944785
Si Si6 0.908225 0.521065 0.092492
Si Si7 0.098203 0.454172 0.515383
Si Si8 0.335006 0.211897 0.436108
O O1 0.838845 0.779379 0.140882
O O2 0.793240 0.110098 0.416192
O O3 0.589569 0.775328 0.839218
O O4 0.685952 0.163127 0.101607
O O5 0.342631 0.620103 0.482045
O O6 0.238615 0.426789 0.388581
O O7 0.075916 0.555323 0.056680
O O8 0.890467 0.839475 0.660692
O O9 0.760005 0.933754 0.705472
O O10 0.633488 0.979558 0.362865
O O11 0.831228 0.296562 0.908963
O O12 0.500000 0.000000 0.000000
O O13 0.484880 0.314753 0.768563
O O14 0.638254 0.954412 0.725810
O O15 0.746382 0.414961 0.162303
O O16 0.048063 0.572330 0.400177
O O17 0.000000 0.500000 0.500000
#
# Coordination Sequence:
#
# PCOD8023556 Si02
#       8
#     2   2   2   2   2   2   2   2
#     4  11  22  44  72 108 143 187 238 296 365 422
#     4  10  23  41  70 104 143 189 232 296 358 424
#     4  11  24  46  73 105 140 189 238 302 360 414
#     4   9  21  37  68 106 139 180 230 295 360 425
#     4  11  25  43  72 109 144 191 237 301 363 424
#     4  11  26  47  70 103 149 191 242 284 351 438
#     4  12  29  47  73 102 144 199 248 289 350 437
#     4  11  23  46  72 110 150 175 243 308 369 420
#
# _framework density 24.562366000000001
#
# number of rings (size 3 to 8) (size 9 to 14) (size 15 to 20)
#    0.000    1.250    2.500    1.875    8.750    5.500 
#    0.000    1.250    0.000    0.000    0.000    0.000 
#    0.000    0.000    0.000    0.000    0.000    0.000 
#
# Total GULP energy -198296.513927 kJ/mol
# GULP energy per Si atom -12393.532120 kJ/mol
# Density = 2.450646 g / cm^3
# Si number density = 24.562366 Si / 1000 Ang^3
#
#
#
# Elastic Constant Matrix: (Units=GPa)
#
#
# Indices 1 2 3 4 5 6 
#
# 1 86.7667 10.2479 13.9982 -0.3503 -14.0361 13.2404
# 2 10.2479 95.2957 20.6396 -10.5481 -12.4240 14.7792
# 3 13.9982 20.6396 69.7270 -11.4676 -23.0346 2.7656
# 4 -0.3503 -10.5481 -11.4676 36.3573 8.2373 -3.5656
# 5 -14.0361 -12.4240 -23.0346 8.2373 32.8066 2.6607
# 6 13.2404 14.7792 2.7656 -3.5656 2.6607 41.3557
#
#
#
# Elastic Compliance Matrix: (Units=1/GPa)
#
#
# Indices 1 2 3 4 5 6 
#
# 1 0.013352 0.000059 -0.000838 -0.001954 0.006026 -0.004796
# 2 0.000059 0.012210 -0.002165 0.001752 0.003036 -0.004282
# 3 -0.000838 -0.002165 0.019581 0.002756 0.011943 -0.000798
# 4 -0.001954 0.001752 0.002756 0.030532 -0.006134 0.002842
# 5 0.006026 0.003036 0.011943 -0.006134 0.044721 -0.007219
# 6 -0.004796 -0.004282 -0.000798 0.002842 -0.007219 0.028009
#
#
# Mechanical properties :
#
#
# Convention : Reuss Voigt Hill
#
# Bulk Modulus (GPa) = 25.47506 37.95120 31.71313
# Shear Modulus (GPa) = 29.87228 35.89750 32.88489
#
# Velocity S-wave (km/s) = 3.49116 3.82708 3.66298
# Velocity P-wave (km/s) = 5.16188 5.91720 5.55240
#
# Compressibility (1/GPa) = 0.03925407
#
# Stress axis : x y z
#
# Youngs Moduli (GPa) = 74.89376 81.89938 51.06991
#
# Poissons Ratio (x) = -0.00482 0.04282
# Poissons Ratio (y) = -0.00441 0.11056
# Poissons Ratio (z) = 0.06280 0.17731
#
# Static dielectric constant tensor:
#      x y z
#    x 4.613910 0.044340 0.236520 
#    y 0.044340 4.110210 -0.408670 
#    z 0.236520 -0.408670 5.215260 
# 
# 
# High freq. dielectric constant tensor:
#      x y z
#    x 1.976860 0.011010 -0.010400 
#    y 0.011010 1.965240 -0.010830 
#    z -0.010400 -0.010830 1.989800 
# 
# From -- ./inp_files/470233.got.cif
#   From: 2010.06.25/outbox.cif.g09.slc.cpg/sg2_236_cif.got.tgz:470233.got - 2010.06.27 13:26:56.
