data_PCOD8023253
_publ_section_title
;
Structure prediction by ZEFSAII (Michael W. Deem and Ramdas Pophale) SiO2 
 PCOD8023253
Probable space group: P -1
;
_chemical_formula_sum "Si O2"
_cell_formula_units_Z 16
_cell_length_a 10.809317
_cell_length_b 19.231744
_cell_length_c 11.293614
_cell_angle_alpha 31.958999
_cell_angle_beta 118.738080
_cell_angle_gamma 138.386416
_cell_volume 742.416568
_symmetry_space_group_name_H-M "P -1"
_symmetry_group_IT_number 2
_symmetry_cell_setting 'triclinic'
loop_
_space_group_symop_operation_xyz
x,y,z
-x,-y,-z
loop_
_atom_site_type_symbol
_atom_site_label
_atom_site_fract_x
_atom_site_fract_y
_atom_site_fract_z
Si Si1 0.385305 0.283605 0.741701
Si Si2 0.677301 0.237281 0.597454
Si Si3 0.691859 0.756624 0.973202
Si Si4 0.646477 0.209474 0.898338
Si Si5 0.993433 0.491179 0.810407
Si Si6 0.523394 0.415685 0.243161
Si Si7 0.865263 0.844084 0.418995
Si Si8 0.237705 0.520799 0.076744
O O1 0.500000 0.500000 0.500000
O O2 0.549922 0.281198 0.793694
O O3 0.210211 0.159319 0.739873
O O4 0.270703 0.187471 0.952506
O O5 0.718740 0.271720 0.706215
O O6 0.873622 0.322348 0.485658
O O7 0.635392 0.355079 0.355086
O O8 0.499817 0.011607 0.820936
O O9 0.645736 0.573905 0.178094
O O10 0.486954 0.696884 0.924450
O O11 0.907415 0.950313 0.734420
O O12 0.851302 0.309235 0.920533
O O13 0.832712 0.448737 0.885504
O O14 0.152422 0.512754 0.925708
O O15 0.296323 0.215397 0.471136
O O16 0.500000 0.500000 0.000000
O O17 0.862496 0.687002 0.646008
#
# Coordination Sequence:
#
# PCOD8023253 Si02
#       8
#     2   2   2   2   2   2   2   2
#     4  12  20  44  70  98 135 166 219 287 329 385
#     4  11  24  43  65  98 135 175 221 266 331 405
#     4  11  23  41  69  97 128 169 221 278 332 382
#     4  11  24  43  66  98 135 171 222 273 326 397
#     4  11  23  42  66  91 134 179 214 265 334 394
#     4  11  24  45  67  97 138 175 221 272 324 399
#     4  11  23  41  69 100 127 170 221 277 336 385
#     4  10  23  41  63  99 130 169 222 272 327 392
#
# _framework density 21.551242999999999
#
# number of rings (size 3 to 8) (size 9 to 14) (size 15 to 20)
#    0.000    1.000    5.000    2.250    1.750    3.500 
#    4.500    2.500    0.000    0.000    0.000    0.000 
#    0.000    0.000    0.000    0.000    0.000    0.000 
#
# Total GULP energy -198245.856121 kJ/mol
# GULP energy per Si atom -12390.366008 kJ/mol
# Density = 2.150219 g / cm^3
# Si number density = 21.551243 Si / 1000 Ang^3
#
#
#
# Elastic Constant Matrix: (Units=GPa)
#
#
# Indices 1 2 3 4 5 6 
#
# 1 76.3644 46.4103 41.2651 -13.6404 -15.5329 -2.7053
# 2 46.4103 159.4102 77.3725 7.7461 -9.3068 17.5581
# 3 41.2651 77.3725 93.7085 -5.5147 -18.3831 4.0802
# 4 -13.6404 7.7461 -5.5147 41.5347 8.2211 -4.0871
# 5 -15.5329 -9.3068 -18.3831 8.2211 40.6216 1.5758
# 6 -2.7053 17.5581 4.0802 -4.0871 1.5758 31.6696
#
#
#
# Elastic Compliance Matrix: (Units=1/GPa)
#
#
# Indices 1 2 3 4 5 6 
#
# 1 0.020287 -0.004515 -0.004432 0.006844 0.003117 0.005535
# 2 -0.004515 0.012887 -0.008953 -0.005479 -0.001445 -0.007012
# 3 -0.004432 -0.008953 0.021098 0.002153 0.005293 0.001881
# 4 0.006844 -0.005479 0.002153 0.029109 -0.003838 0.007293
# 5 0.003117 -0.001445 0.005293 -0.003838 0.028710 -0.001539
# 6 0.005535 -0.007012 0.001881 0.007293 -0.001539 0.036712
#
#
# Mechanical properties :
#
#
# Convention : Reuss Voigt Hill
#
# Bulk Modulus (GPa) = 54.13547 73.28653 63.71100
# Shear Modulus (GPa) = 26.21068 33.72754 29.96911
#
# Velocity S-wave (km/s) = 3.49119 3.96029 3.73312
# Velocity P-wave (km/s) = 6.43624 7.41562 6.94322
#
# Compressibility (1/GPa) = 0.01847218
#
# Stress axis : x y z
#
# Youngs Moduli (GPa) = 49.29307 77.59463 47.39687
#
# Poissons Ratio (x) = 0.35037 0.21006
# Poissons Ratio (y) = 0.22258 0.42434
# Poissons Ratio (z) = 0.21846 0.69470
#
# Static dielectric constant tensor:
#      x y z
#    x 4.106480 -0.125460 -0.176470 
#    y -0.125460 4.098050 0.179270 
#    z -0.176470 0.179270 3.809790 
# 
# 
# High freq. dielectric constant tensor:
#      x y z
#    x 1.855480 -0.007010 -0.018460 
#    y -0.007010 1.854640 0.006170 
#    z -0.018460 0.006170 1.839260 
# 
# From -- ./inp_files/438601.got.cif
#   From: 2010.06.25/outbox.cif.g09.slc.cpg/sg2_220_cif.got.tgz:438601.got - 2010.06.27 13:26:56.
