data_PCOD8023023
_publ_section_title
;
Structure prediction by ZEFSAII (Michael W. Deem and Ramdas Pophale) SiO2 
 PCOD8023023
Probable space group: P -1
;
_chemical_formula_sum "Si O2"
_cell_formula_units_Z 16
_cell_length_a 11.613551
_cell_length_b 23.558953
_cell_length_c 11.742593
_cell_angle_alpha 40.754313
_cell_angle_beta 42.669209
_cell_angle_gamma 21.488382
_cell_volume 762.055001
_symmetry_space_group_name_H-M "P -1"
_symmetry_group_IT_number 2
_symmetry_cell_setting 'triclinic'
loop_
_space_group_symop_operation_xyz
x,y,z
-x,-y,-z
loop_
_atom_site_type_symbol
_atom_site_label
_atom_site_fract_x
_atom_site_fract_y
_atom_site_fract_z
Si Si1 0.613710 0.638591 0.778993
Si Si2 0.342028 0.894574 0.431483
Si Si3 0.926376 0.680720 0.194282
Si Si4 0.674433 0.337884 0.650533
Si Si5 0.918635 0.234422 0.889068
Si Si6 0.210892 0.170756 0.391825
Si Si7 0.041204 0.535109 0.805319
Si Si8 0.638918 0.909391 0.850995
O O1 0.482324 0.785498 0.604130
O O2 0.777679 0.509669 0.758120
O O3 0.901948 0.536770 0.805538
O O4 0.327680 0.713666 0.936012
O O5 0.599038 0.772475 0.327168
O O6 0.304336 0.012291 0.305859
O O7 0.000000 0.000000 0.500000
O O8 0.054222 0.680292 0.209951
O O9 0.854904 0.773598 0.997493
O O10 0.500000 0.500000 0.500000
O O11 0.809247 0.283013 0.764260
O O12 0.421840 0.371229 0.763370
O O13 0.945722 0.212401 0.548960
O O14 0.271700 0.040851 0.935607
O O15 0.245590 0.174578 0.227554
O O16 0.125795 0.298385 0.321089
O O17 0.500000 0.000000 0.500000
O O18 0.000000 0.500000 0.000000
#
# Coordination Sequence:
#
# PCOD8023023 Si02
#       8
#     2   2   2   2   2   2   2   2
#     4  12  24  42  67  95 133 166 212 274 322 378
#     4  11  24  44  64  97 133 166 209 270 329 377
#     4  11  25  42  68  99 125 173 217 259 322 395
#     4  10  23  40  65  92 130 173 215 261 320 380
#     4  11  22  43  65  94 131 170 216 262 323 388
#     4  11  22  42  66  95 123 172 222 256 313 387
#     4  11  23  42  62  94 131 167 210 266 326 367
#     4  11  23  43  69  91 131 171 217 261 318 396
#
# _framework density 20.995861000000001
#
# number of rings (size 3 to 8) (size 9 to 14) (size 15 to 20)
#    0.000    1.000    2.500    5.250    7.000    1.000 
#    0.000    5.000    0.000    0.000    0.000    0.000 
#    0.000    0.000    0.000    0.000    0.000    0.000 
#
# Total GULP energy -198299.599606 kJ/mol
# GULP energy per Si atom -12393.724975 kJ/mol
# Density = 2.094807 g / cm^3
# Si number density = 20.995861 Si / 1000 Ang^3
#
#
#
# Elastic Constant Matrix: (Units=GPa)
#
#
# Indices 1 2 3 4 5 6 
#
# 1 87.5577 28.6567 16.8794 18.4889 -2.5290 -17.1163
# 2 28.6567 102.2642 36.8191 29.3054 -13.0903 -12.3435
# 3 16.8794 36.8191 100.5312 20.3863 -6.4261 -15.1508
# 4 18.4889 29.3054 20.3863 53.2810 -7.3678 1.2995
# 5 -2.5290 -13.0903 -6.4261 -7.3678 32.8485 4.6998
# 6 -17.1163 -12.3435 -15.1508 1.2995 4.6998 38.8635
#
#
#
# Elastic Compliance Matrix: (Units=1/GPa)
#
#
# Indices 1 2 3 4 5 6 
#
# 1 0.014108 -0.002330 0.000074 -0.004000 -0.001558 0.005824
# 2 -0.002330 0.013649 -0.003078 -0.005119 0.003239 0.001888
# 3 0.000074 -0.003078 0.012291 -0.003144 -0.000089 0.003962
# 4 -0.004000 -0.005119 -0.003144 0.024793 0.003436 -0.005858
# 5 -0.001558 0.003239 -0.000089 0.003436 0.032909 -0.003787
# 6 0.005824 0.001888 0.003962 -0.005858 -0.003787 0.031094
#
#
# Mechanical properties :
#
#
# Convention : Reuss Voigt Hill
#
# Bulk Modulus (GPa) = 34.03730 50.56261 42.29995
# Shear Modulus (GPa) = 33.48823 38.86514 36.17669
#
# Velocity S-wave (km/s) = 3.99807 4.30709 4.15545
# Velocity P-wave (km/s) = 6.12857 6.99065 6.57376
#
# Compressibility (1/GPa) = 0.02937954
#
# Stress axis : x y z
#
# Youngs Moduli (GPa) = 70.88402 73.26366 81.35903
#
# Poissons Ratio (x) = 0.17072 -0.00601
# Poissons Ratio (y) = 0.16517 0.25042
# Poissons Ratio (z) = -0.00524 0.22551
#
# Static dielectric constant tensor:
#      x y z
#    x 3.652830 0.003750 0.005800 
#    y 0.003750 3.818500 -0.042900 
#    z 0.005800 -0.042900 4.535120 
# 
# 
# High freq. dielectric constant tensor:
#      x y z
#    x 1.813440 -0.015310 0.006520 
#    y -0.015310 1.835560 0.012140 
#    z 0.006520 0.012140 1.841240 
# 
# From -- ./inp_files/382235.got.cif
#   From: 2010.06.25/outbox.cif.g09.slc.cpg/sg2_192_cif.got.tgz:382235.got - 2010.06.27 13:26:56.
