data_PCOD8023304
_publ_section_title
;
Structure prediction by ZEFSAII (Michael W. Deem and Ramdas Pophale) SiO2 
 PCOD8023304
Probable space group: P -1
;
_chemical_formula_sum "Si O2"
_cell_formula_units_Z 14
_cell_length_a 8.373343
_cell_length_b 10.872682
_cell_length_c 9.860773
_cell_angle_alpha 40.971045
_cell_angle_beta 93.585611
_cell_angle_gamma 103.055079
_cell_volume 565.150046
_symmetry_space_group_name_H-M "P -1"
_symmetry_group_IT_number 2
_symmetry_cell_setting 'triclinic'
loop_
_space_group_symop_operation_xyz
x,y,z
-x,-y,-z
loop_
_atom_site_type_symbol
_atom_site_label
_atom_site_fract_x
_atom_site_fract_y
_atom_site_fract_z
Si Si1 0.287961 0.390232 0.315955
Si Si2 0.892967 0.046451 0.336719
Si Si3 0.444608 0.032321 0.122368
Si Si4 0.910396 0.979648 0.869736
Si Si5 0.665721 0.300132 0.136093
Si Si6 0.026224 0.588922 0.573143
Si Si7 0.381254 0.651684 0.610039
O O1 0.249076 0.156589 0.526130
O O2 0.479661 0.463759 0.324339
O O3 0.153538 0.484597 0.302129
O O4 0.288515 0.471185 0.094043
O O5 0.999029 0.133551 0.134677
O O6 0.824535 0.221760 0.240407
O O7 0.000000 0.000000 0.500000
O O8 0.578498 0.179286 0.100321
O O9 0.284659 0.119798 0.035070
O O10 0.393936 0.821882 0.362620
O O11 0.500000 0.000000 0.000000
O O12 0.931880 0.180292 0.623643
O O13 0.000000 0.000000 0.000000
O O14 0.565685 0.272351 0.295748
O O15 0.184405 0.526405 0.701699
O O16 0.000000 0.500000 0.500000
#
# Coordination Sequence:
#
# PCOD8023304 Si02
#       7
#     2   2   2   2   2   2   2
#     4  11  26  45  72 105 141 182 242 284 356 420
#     4  11  24  44  72  99 139 184 228 293 347 412
#     4  11  24  42  72 102 137 187 237 283 353 426
#     4  10  23  41  65 101 133 177 234 279 349 421
#     4  12  25  46  74 102 140 188 230 292 352 416
#     4  10  25  44  68 101 143 182 229 296 351 414
#     4  11  25  48  69 102 145 181 240 292 346 423
#
# _framework density 24.772182000000001
#
# number of rings (size 3 to 8) (size 9 to 14) (size 15 to 20)
#    0.000    1.143    1.429    4.286   10.000    4.000 
#    0.000    0.000    0.000    0.000    0.000    0.000 
#    0.000    0.000    0.000    0.000    0.000    0.000 
#
# Total GULP energy -173442.338935 kJ/mol
# GULP energy per Si atom -12388.738495 kJ/mol
# Density = 2.471580 g / cm^3
# Si number density = 24.772182 Si / 1000 Ang^3
#
#
#
# Elastic Constant Matrix: (Units=GPa)
#
#
# Indices 1 2 3 4 5 6 
#
# 1 225.9244 24.9053 50.4851 14.5812 8.2048 -4.9905
# 2 24.9053 53.5277 10.7942 31.2455 -10.8149 3.2227
# 3 50.4851 10.7942 114.0621 31.8486 -7.5947 -9.9194
# 4 14.5812 31.2455 31.8486 44.8090 -7.1493 6.5882
# 5 8.2048 -10.8149 -7.5947 -7.1493 42.8567 8.1561
# 6 -4.9905 3.2227 -9.9194 6.5882 8.1561 28.1257
#
#
#
# Elastic Compliance Matrix: (Units=1/GPa)
#
#
# Indices 1 2 3 4 5 6 
#
# 1 0.005420 -0.003928 -0.002860 0.002597 -0.002184 0.000428
# 2 -0.003928 0.037032 0.006914 -0.028866 0.006029 0.002511
# 3 -0.002860 0.006914 0.014183 -0.014818 0.001025 0.006876
# 4 0.002597 -0.028866 -0.014818 0.054523 0.001478 -0.014658
# 5 -0.002184 0.006029 0.001025 0.001478 0.027417 -0.009013
# 6 0.000428 0.002511 0.006876 -0.014658 -0.009013 0.043815
#
#
# Mechanical properties :
#
#
# Convention : Reuss Voigt Hill
#
# Bulk Modulus (GPa) = 17.57927 62.87591 40.22759
# Shear Modulus (GPa) = 24.86336 43.64693 34.25514
#
# Velocity S-wave (km/s) = 3.17153 4.20209 3.72265
# Velocity P-wave (km/s) = 4.53026 6.99859 5.89506
#
# Compressibility (1/GPa) = 0.05688518
#
# Stress axis : x y z
#
# Youngs Moduli (GPa) = 184.51644 27.00392 70.50847
#
# Poissons Ratio (x) = 0.10606 0.20168
# Poissons Ratio (y) = 0.72472 -0.48748
# Poissons Ratio (z) = 0.52779 -0.18670
#
# Static dielectric constant tensor:
#      x y z
#    x 5.171950 -0.027840 -0.085140 
#    y -0.027840 4.397410 -0.152520 
#    z -0.085140 -0.152520 4.589510 
# 
# 
# High freq. dielectric constant tensor:
#      x y z
#    x 2.019070 -0.011310 0.003900 
#    y -0.011310 1.950860 0.010930 
#    z 0.003900 0.010930 1.994660 
# 
# From -- ./inp_files/184277.got.cif
#   From: 2010.06.25/outbox.cif.g09.slc.cpg/sg2_93_cif.got.tgz:184277.got - 2010.06.27 13:26:56.
