data_PCOD8023129
_publ_section_title
;
Structure prediction by ZEFSAII (Michael W. Deem and Ramdas Pophale) SiO2 
 PCOD8023129
Probable space group: P -1
;
_chemical_formula_sum "Si O2"
_cell_formula_units_Z 16
_cell_length_a 14.154621
_cell_length_b 21.649342
_cell_length_c 12.203535
_cell_angle_alpha 25.870674
_cell_angle_beta 149.856074
_cell_angle_gamma 149.274778
_cell_volume 760.595393
_symmetry_space_group_name_H-M "P -1"
_symmetry_group_IT_number 2
_symmetry_cell_setting 'triclinic'
loop_
_space_group_symop_operation_xyz
x,y,z
-x,-y,-z
loop_
_atom_site_type_symbol
_atom_site_label
_atom_site_fract_x
_atom_site_fract_y
_atom_site_fract_z
Si Si1 0.546449 0.271587 0.257129
Si Si2 0.790519 0.544860 0.696650
Si Si3 0.863983 0.554591 0.195400
Si Si4 0.529252 0.709209 0.092468
Si Si5 0.840352 0.857677 0.786246
Si Si6 0.295149 0.979467 0.122444
Si Si7 0.622115 0.055476 0.144096
Si Si8 0.029401 0.623062 0.008477
O O1 0.641050 0.422826 0.185012
O O2 0.312467 0.187201 0.191999
O O3 0.686992 0.172996 0.569608
O O4 0.570746 0.323907 0.073336
O O5 0.699189 0.637800 0.379298
O O6 0.635010 0.376417 0.843383
O O7 0.948392 0.517007 0.815677
O O8 0.873886 0.652279 0.718620
O O9 0.945573 0.567000 0.133578
O O10 0.000000 0.500000 0.500000
O O11 0.847044 0.711950 0.961595
O O12 0.629194 0.890574 0.917543
O O13 0.760123 0.956489 0.465883
O O14 0.065436 0.954030 0.900132
O O15 0.445797 0.037420 0.080514
O O16 0.766419 0.231634 0.001533
O O17 0.500000 0.000000 0.000000
#
# Coordination Sequence:
#
# PCOD8023129 Si02
#       8
#     2   2   2   2   2   2   2   2
#     4  11  25  44  67  99 134 177 223 275 329 399
#     4  10  23  40  68  99 130 171 222 279 334 397
#     4  12  25  44  71  96 136 180 225 274 329 400
#     4  11  22  42  66  97 130 174 222 275 336 393
#     4  11  26  44  67  97 136 180 222 273 335 395
#     4  11  23  45  65  95 138 171 223 272 332 403
#     4  11  25  42  68 100 133 176 225 274 334 395
#     4  11  23  44  69  97 134 174 220 282 334 394
#
# _framework density 21.036151
#
# number of rings (size 3 to 8) (size 9 to 14) (size 15 to 20)
#    0.000    1.000    3.750    2.250    3.500    4.500 
#    0.000    0.000    0.000    0.000    0.000    0.000 
#    0.000    0.000    0.000    0.000    0.000    0.000 
#
# Total GULP energy -198332.836146 kJ/mol
# GULP energy per Si atom -12395.802259 kJ/mol
# Density = 2.098827 g / cm^3
# Si number density = 21.036151 Si / 1000 Ang^3
#
#
#
# Elastic Constant Matrix: (Units=GPa)
#
#
# Indices 1 2 3 4 5 6 
#
# 1 79.2697 11.8407 48.2491 3.2011 0.0800 -8.7968
# 2 11.8407 122.7988 29.0772 15.8776 2.8747 -12.2637
# 3 48.2491 29.0772 87.5656 21.6238 -3.9341 -1.9379
# 4 3.2011 15.8776 21.6238 32.1333 1.0827 4.0196
# 5 0.0800 2.8747 -3.9341 1.0827 30.2164 5.2903
# 6 -8.7968 -12.2637 -1.9379 4.0196 5.2903 32.0888
#
#
#
# Elastic Compliance Matrix: (Units=1/GPa)
#
#
# Indices 1 2 3 4 5 6 
#
# 1 0.020893 0.000949 -0.013298 0.005868 -0.002970 0.005042
# 2 0.000949 0.009677 -0.002874 -0.003444 -0.001969 0.004541
# 3 -0.013298 -0.002874 0.022924 -0.012512 0.004176 -0.002480
# 4 0.005868 -0.003444 -0.012512 0.041389 -0.001865 -0.005340
# 5 -0.002970 -0.001969 0.004176 -0.001865 0.035103 -0.006868
# 6 0.005042 0.004541 -0.002480 -0.005340 -0.006868 0.035933
#
#
# Mechanical properties :
#
#
# Convention : Reuss Voigt Hill
#
# Bulk Modulus (GPa) = 43.38740 51.99645 47.69192
# Shear Modulus (GPa) = 24.50403 32.25216 28.37809
#
# Velocity S-wave (km/s) = 3.41670 3.91983 3.67688
# Velocity P-wave (km/s) = 6.01955 6.72741 6.38330
#
# Compressibility (1/GPa) = 0.02304816
#
# Stress axis : x y z
#
# Youngs Moduli (GPa) = 47.86226 103.33483 43.62192
#
# Poissons Ratio (x) = -0.09802 0.58010
# Poissons Ratio (y) = -0.04540 0.12535
# Poissons Ratio (z) = 0.63649 0.29694
#
# Static dielectric constant tensor:
#      x y z
#    x 3.667390 0.033680 -0.000640 
#    y 0.033680 3.968380 0.154310 
#    z -0.000640 0.154310 3.823520 
# 
# 
# High freq. dielectric constant tensor:
#      x y z
#    x 1.821480 0.000920 -0.000440 
#    y 0.000920 1.842640 0.006430 
#    z -0.000440 0.006430 1.831360 
# 
# From -- ./inp_files/457458.got.cif
#   From: 2010.06.25/outbox.cif.g09.slc.cpg/sg2_229_cif.got.tgz:457458.got - 2010.06.27 13:26:56.
