data_PCOD8023170
_publ_section_title
;
Structure prediction by ZEFSAII (Michael W. Deem and Ramdas Pophale) SiO2 
 PCOD8023170
Probable space group: P -1
;
_chemical_formula_sum "Si O2"
_cell_formula_units_Z 14
_cell_length_a 9.369943
_cell_length_b 9.183398
_cell_length_c 9.507813
_cell_angle_alpha 104.778220
_cell_angle_beta 66.203736
_cell_angle_gamma 115.202359
_cell_volume 673.883392
_symmetry_space_group_name_H-M "P -1"
_symmetry_group_IT_number 2
_symmetry_cell_setting 'triclinic'
loop_
_space_group_symop_operation_xyz
x,y,z
-x,-y,-z
loop_
_atom_site_type_symbol
_atom_site_label
_atom_site_fract_x
_atom_site_fract_y
_atom_site_fract_z
Si Si1 0.995963 0.030008 0.345455
Si Si2 0.115771 0.448109 0.044743
Si Si3 0.088779 0.395323 0.363458
Si Si4 0.403070 0.741968 0.920668
Si Si5 0.533182 0.515358 0.655643
Si Si6 0.724928 0.986818 0.987049
Si Si7 0.751792 0.793055 0.193434
O O1 0.989350 0.206741 0.380371
O O2 0.000000 0.000000 0.500000
O O3 0.822853 0.893493 0.330871
O O4 0.147465 0.012935 0.188489
O O5 0.058300 0.421112 0.219739
O O6 0.297593 0.588497 0.017901
O O7 0.119782 0.284247 0.936647
O O8 0.000000 0.500000 0.000000
O O9 0.277744 0.445381 0.358267
O O10 0.000000 0.500000 0.500000
O O11 0.481687 0.669482 0.747317
O O12 0.282441 0.835551 0.939210
O O13 0.543135 0.861530 0.991426
O O14 0.500000 0.500000 0.500000
O O15 0.425260 0.348053 0.736353
O O16 0.759723 0.926434 0.107998
#
# Coordination Sequence:
#
# PCOD8023170 Si02
#       7
#     2   2   2   2   2   2   2
#     4  12  26  44  67 100 141 176 220 286 348 400
#     4  11  24  42  69  99 136 182 235 281 336 410
#     4  12  28  45  69 102 143 180 229 282 349 411
#     4  10  23  40  72  95 133 174 234 275 345 394
#     4  11  24  47  70 100 140 181 226 284 346 412
#     4  11  22  43  70  99 132 176 230 287 336 407
#     4  11  24  43  72  96 132 177 234 281 340 398
#
# _framework density 20.775106999999998
#
# number of rings (size 3 to 8) (size 9 to 14) (size 15 to 20)
#    0.000    0.857    2.857    3.000   10.000    2.286 
#    0.000    1.429    0.000    0.000    0.000    0.000 
#    0.000    0.000    0.000    0.000    0.000    0.000 
#
# Total GULP energy -173523.762474 kJ/mol
# GULP energy per Si atom -12394.554462 kJ/mol
# Density = 2.072782 g / cm^3
# Si number density = 20.775107 Si / 1000 Ang^3
#
#
#
# Elastic Constant Matrix: (Units=GPa)
#
#
# Indices 1 2 3 4 5 6 
#
# 1 84.3079 51.8622 50.7135 8.1870 7.2102 -16.2324
# 2 51.8622 131.0737 72.1486 21.9768 -0.8259 -16.7022
# 3 50.7135 72.1486 150.4463 4.9093 13.4383 -23.2461
# 4 8.1870 21.9768 4.9093 42.8399 -10.2406 0.8085
# 5 7.2102 -0.8259 13.4383 -10.2406 44.6451 3.3039
# 6 -16.2324 -16.7022 -23.2461 0.8085 3.3039 39.6888
#
#
#
# Elastic Compliance Matrix: (Units=1/GPa)
#
#
# Indices 1 2 3 4 5 6 
#
# 1 0.017520 -0.004715 -0.002776 -0.001320 -0.002666 0.003804
# 2 -0.004715 0.012855 -0.004369 -0.004944 0.001112 0.000930
# 3 -0.002776 -0.004369 0.010420 0.000840 -0.002824 0.003347
# 4 -0.001320 -0.004944 0.000840 0.027637 0.006447 -0.003229
# 5 -0.002666 0.001112 -0.002824 0.006447 0.025514 -0.004532
# 6 0.003804 0.000930 0.003347 -0.003229 -0.004532 0.029547
#
#
# Mechanical properties :
#
#
# Convention : Reuss Voigt Hill
#
# Bulk Modulus (GPa) = 58.56695 79.47518 69.02106
# Shear Modulus (GPa) = 32.70010 38.17500 35.43755
#
# Velocity S-wave (km/s) = 3.97168 4.29130 4.13458
# Velocity P-wave (km/s) = 7.02029 7.93043 7.48920
#
# Compressibility (1/GPa) = 0.01707448
#
# Stress axis : x y z
#
# Youngs Moduli (GPa) = 57.07761 77.79342 95.96961
#
# Poissons Ratio (x) = 0.36680 0.26637
# Poissons Ratio (y) = 0.26912 0.41933
# Poissons Ratio (z) = 0.15842 0.33991
#
# Static dielectric constant tensor:
#      x y z
#    x 3.861890 0.010950 -0.046350 
#    y 0.010950 4.163330 0.114970 
#    z -0.046350 0.114970 3.771930 
# 
# 
# High freq. dielectric constant tensor:
#      x y z
#    x 1.816630 0.004630 0.005950 
#    y 0.004630 1.841440 0.007510 
#    z 0.005950 0.007510 1.815030 
# 
# From -- ./inp_files/157103.got.cif
#   From: 2010.06.25/outbox.cif.g09.slc.cpg/sg2_79_cif.got.tgz:157103.got - 2010.06.27 13:26:56.
