data_PCOD8023360
_publ_section_title
;
Structure prediction by ZEFSAII (Michael W. Deem and Ramdas Pophale) SiO2 
 PCOD8023360
Probable space group: P -1
;
_chemical_formula_sum "Si O2"
_cell_formula_units_Z 14
_cell_length_a 10.276093
_cell_length_b 13.870012
_cell_length_c 8.453133
_cell_angle_alpha 78.526866
_cell_angle_beta 64.363542
_cell_angle_gamma 31.589124
_cell_volume 531.008706
_symmetry_space_group_name_H-M "P -1"
_symmetry_group_IT_number 2
_symmetry_cell_setting 'triclinic'
loop_
_space_group_symop_operation_xyz
x,y,z
-x,-y,-z
loop_
_atom_site_type_symbol
_atom_site_label
_atom_site_fract_x
_atom_site_fract_y
_atom_site_fract_z
Si Si1 0.468755 0.559379 0.323279
Si Si2 0.896357 0.733459 0.314705
Si Si3 0.765255 0.562710 0.030756
Si Si4 0.636640 0.911224 0.708137
Si Si5 0.723590 0.233250 0.167823
Si Si6 0.719516 0.007599 0.898574
Si Si7 0.999654 0.105521 0.754550
O O1 0.500000 0.500000 0.500000
O O2 0.733887 0.478743 0.173428
O O3 0.453709 0.467346 0.252631
O O4 0.158512 0.793792 0.366400
O O5 0.866267 0.729300 0.520315
O O6 0.925070 0.833182 0.236544
O O7 0.596380 0.885142 0.332571
O O8 0.147010 0.519968 0.169727
O O9 0.447900 0.796441 0.133661
O O10 0.000000 0.500000 0.000000
O O11 0.793279 0.893550 0.749742
O O12 0.496520 0.908939 0.885280
O O13 0.775748 0.183275 0.970259
O O14 0.974395 0.151691 0.137302
O O15 0.717334 0.134395 0.306453
#
# Coordination Sequence:
#
# PCOD8023360 Si02
#       7
#     2   2   2   2   2   2   2
#     4  12  28  46  70 106 145 184 243 299 359 429
#     4  11  23  43  69  97 145 178 239 292 358 427
#     4  12  25  46  71 103 143 191 237 298 357 429
#     4  10  23  41  66 104 133 188 229 296 354 428
#     4  11  24  45  73  98 137 190 237 290 359 432
#     4  11  22  43  72  98 142 184 241 286 366 425
#     4  11  24  45  70 101 133 191 232 297 354 430
#
# _framework density 26.364915
#
# number of rings (size 3 to 8) (size 9 to 14) (size 15 to 20)
#    0.000    0.857    5.714    0.429    4.000    2.286 
#    0.000    0.000    0.000    0.000    0.000    0.000 
#    0.000    0.000    0.000    0.000    0.000    0.000 
#
# Total GULP energy -173466.606305 kJ/mol
# GULP energy per Si atom -12390.471879 kJ/mol
# Density = 2.630491 g / cm^3
# Si number density = 26.364915 Si / 1000 Ang^3
#
#
#
# Elastic Constant Matrix: (Units=GPa)
#
#
# Indices 1 2 3 4 5 6 
#
# 1 66.5627 -7.7103 11.5420 -9.2666 12.2119 18.9824
# 2 -7.7103 78.8786 9.7463 -17.9716 1.5600 12.9898
# 3 11.5420 9.7463 131.2203 -21.1386 18.9386 8.9840
# 4 -9.2666 -17.9716 -21.1386 42.0755 -1.3695 4.3646
# 5 12.2119 1.5600 18.9386 -1.3695 26.4961 -0.7741
# 6 18.9824 12.9898 8.9840 4.3646 -0.7741 35.6465
#
#
#
# Elastic Compliance Matrix: (Units=1/GPa)
#
#
# Indices 1 2 3 4 5 6 
#
# 1 0.024958 0.008121 0.002298 0.011602 -0.013566 -0.018545
# 2 0.008121 0.018111 0.001470 0.011409 -0.005645 -0.012815
# 3 0.002298 0.001470 0.009845 0.006358 -0.008006 -0.005193
# 4 0.011602 0.011409 0.006358 0.035804 -0.009196 -0.016522
# 5 -0.013566 -0.005645 -0.008006 -0.009196 0.049968 0.013510
# 6 -0.018545 -0.012815 -0.005193 -0.016522 0.013510 0.046224
#
#
# Mechanical properties :
#
#
# Convention : Reuss Voigt Hill
#
# Bulk Modulus (GPa) = 13.03878 33.75752 23.39815
# Shear Modulus (GPa) = 26.78172 38.38252 32.58212
#
# Velocity S-wave (km/s) = 3.19063 3.81966 3.51923
# Velocity P-wave (km/s) = 4.30462 5.68197 5.04056
#
# Compressibility (1/GPa) = 0.07669428
#
# Stress axis : x y z
#
# Youngs Moduli (GPa) = 40.06659 55.21446 101.57807
#
# Poissons Ratio (x) = -0.44842 -0.23344
# Poissons Ratio (y) = -0.32540 -0.14936
# Poissons Ratio (z) = -0.09208 -0.08119
#
# Static dielectric constant tensor:
#      x y z
#    x 4.961340 0.182940 0.097420 
#    y 0.182940 4.928390 0.004740 
#    z 0.097420 0.004740 4.743420 
# 
# 
# High freq. dielectric constant tensor:
#      x y z
#    x 2.070000 0.003950 0.010850 
#    y 0.003950 2.055540 -0.011180 
#    z 0.010850 -0.011180 2.037980 
# 
# From -- ./inp_files/272829.got.cif
#   From: 2010.06.25/outbox.cif.g09.slc.cpg/sg2_137_cif.got.tgz:272829.got - 2010.06.27 13:26:56.
