data_PCOD8023907
_publ_section_title
;
Structure prediction by ZEFSAII (Michael W. Deem and Ramdas Pophale) SiO2 
 PCOD8023907
Probable space group: P -1
;
_chemical_formula_sum "Si O2"
_cell_formula_units_Z 16
_cell_length_a 8.777841
_cell_length_b 14.386685
_cell_length_c 8.592421
_cell_angle_alpha 76.076332
_cell_angle_beta 111.907293
_cell_angle_gamma 139.716214
_cell_volume 649.172580
_symmetry_space_group_name_H-M "P -1"
_symmetry_group_IT_number 2
_symmetry_cell_setting 'triclinic'
loop_
_space_group_symop_operation_xyz
x,y,z
-x,-y,-z
loop_
_atom_site_type_symbol
_atom_site_label
_atom_site_fract_x
_atom_site_fract_y
_atom_site_fract_z
Si Si1 0.016808 0.851474 0.168712
Si Si2 0.940592 0.690314 0.934111
Si Si3 0.418351 0.180796 0.263409
Si Si4 0.145351 0.717957 0.435811
Si Si5 0.457195 0.630421 0.048399
Si Si6 0.249632 0.161916 0.527052
Si Si7 0.281935 0.692010 0.198978
Si Si8 0.784173 0.642965 0.547999
O O1 0.736168 0.738895 0.174267
O O2 0.166889 0.831480 0.317225
O O3 0.974947 0.806849 0.988199
O O4 0.175891 0.017919 0.175537
O O5 0.693706 0.532922 0.979848
O O6 0.917357 0.696820 0.741666
O O7 0.190850 0.738121 0.036513
O O8 0.620726 0.193877 0.398145
O O9 0.344788 0.218022 0.363532
O O10 0.538877 0.296924 0.126752
O O11 0.121598 0.625764 0.327498
O O12 0.900046 0.613596 0.489975
O O13 0.277906 0.593141 0.135182
O O14 0.434330 0.174712 0.691348
O O15 0.191672 0.238528 0.553566
O O16 0.000000 0.000000 0.500000
O O17 0.500000 0.500000 0.500000
#
# Coordination Sequence:
#
# PCOD8023907 Si02
#       8
#     2   2   2   2   2   2   2   2
#     4  11  23  43  67  96 131 172 217 270 327 387
#     4  11  25  43  64  97 133 171 218 273 330 389
#     4  11  24  42  68  99 130 173 220 268 327 390
#     4  10  23  43  67  96 131 170 218 272 327 390
#     4  12  23  42  65  95 133 172 218 273 324 387
#     4  11  24  44  69  99 134 174 221 272 325 389
#     4  10  23  42  67  96 133 174 216 270 330 383
#     4  12  25  45  70  98 130 174 221 270 330 395
#
# _framework density 24.646758999999999
#
# number of rings (size 3 to 8) (size 9 to 14) (size 15 to 20)
#    0.000    1.000    0.000    6.750    0.000    7.000 
#    0.000   10.000    0.000    0.000    0.000    0.000 
#    0.000    0.000    0.000    0.000    0.000    0.000 
#
# Total GULP energy -198261.036487 kJ/mol
# GULP energy per Si atom -12391.314780 kJ/mol
# Density = 2.459066 g / cm^3
# Si number density = 24.646759 Si / 1000 Ang^3
#
#
#
# Elastic Constant Matrix: (Units=GPa)
#
#
# Indices 1 2 3 4 5 6 
#
# 1 138.1339 1.0794 40.4844 7.2466 -9.3004 20.2340
# 2 1.0794 52.0227 -0.7666 2.6649 8.2504 7.2384
# 3 40.4844 -0.7666 144.6080 3.8956 6.0003 13.4417
# 4 7.2466 2.6649 3.8956 28.0646 3.9969 1.3494
# 5 -9.3004 8.2504 6.0003 3.9969 48.3764 4.6474
# 6 20.2340 7.2384 13.4417 1.3494 4.6474 31.1418
#
#
#
# Elastic Compliance Matrix: (Units=1/GPa)
#
#
# Indices 1 2 3 4 5 6 
#
# 1 0.008895 0.000210 -0.002053 -0.002152 0.002610 -0.005239
# 2 0.000210 0.020418 0.000644 -0.001438 -0.002955 -0.004657
# 3 -0.002053 0.000644 0.007736 -0.000333 -0.001249 -0.001954
# 4 -0.002152 -0.001438 -0.000333 0.036795 -0.003241 0.000765
# 5 0.002610 -0.002955 -0.001249 -0.003241 0.022453 -0.003680
# 6 -0.005239 -0.004657 -0.001954 0.000765 -0.003680 0.037957
#
#
# Mechanical properties :
#
#
# Convention : Reuss Voigt Hill
#
# Bulk Modulus (GPa) = 28.85869 46.26212 37.56041
# Shear Modulus (GPa) = 33.73782 41.11441 37.42611
#
# Velocity S-wave (km/s) = 3.70382 4.08873 3.90102
# Velocity P-wave (km/s) = 5.47954 6.41101 5.96349
#
# Compressibility (1/GPa) = 0.03465161
#
# Stress axis : x y z
#
# Youngs Moduli (GPa) = 112.41950 48.97690 129.27053
#
# Poissons Ratio (x) = -0.01031 0.26534
# Poissons Ratio (y) = -0.02366 -0.08319
# Poissons Ratio (z) = 0.23075 -0.03152
#
# Static dielectric constant tensor:
#      x y z
#    x 5.022350 0.052330 -0.398090 
#    y 0.052330 3.930630 0.016920 
#    z -0.398090 0.016920 5.720170 
# 
# 
# High freq. dielectric constant tensor:
#      x y z
#    x 2.003150 0.003170 0.000400 
#    y 0.003170 1.936790 0.016170 
#    z 0.000400 0.016170 2.011920 
# 
# From -- ./inp_files/207098.got.cif
#   From: 2010.06.25/outbox.cif.g09.slc.cpg/sg2_104_cif.got.tgz:207098.got - 2010.06.27 13:26:56.
