data_PCOD8023506
_publ_section_title
;
Structure prediction by ZEFSAII (Michael W. Deem and Ramdas Pophale) SiO2 
 PCOD8023506
Probable space group: P -1
;
_chemical_formula_sum "Si O2"
_cell_formula_units_Z 14
_cell_length_a 21.842197
_cell_length_b 7.479937
_cell_length_c 27.736379
_cell_angle_alpha 130.939641
_cell_angle_beta 11.036739
_cell_angle_gamma 132.588237
_cell_volume 637.402478
_symmetry_space_group_name_H-M "P -1"
_symmetry_group_IT_number 2
_symmetry_cell_setting 'triclinic'
loop_
_space_group_symop_operation_xyz
x,y,z
-x,-y,-z
loop_
_atom_site_type_symbol
_atom_site_label
_atom_site_fract_x
_atom_site_fract_y
_atom_site_fract_z
Si Si1 0.853663 0.858083 0.540556
Si Si2 0.734860 0.027487 0.098236
Si Si3 0.262339 0.012992 0.544985
Si Si4 0.818402 0.117979 0.200711
Si Si5 0.663581 0.306008 0.720330
Si Si6 0.769158 0.529198 0.838123
Si Si7 0.848378 0.328702 0.965545
O O1 0.508534 0.658749 0.778235
O O2 0.120139 0.726084 0.287720
O O3 0.753347 0.053385 0.618422
O O4 0.000000 0.000000 0.500000
O O5 0.527635 0.124955 0.318002
O O6 0.509303 0.761638 0.209545
O O7 0.824585 0.221582 0.019778
O O8 0.078052 0.976379 0.844482
O O9 0.088962 0.738343 0.615369
O O10 0.433652 0.025031 0.467981
O O11 0.984848 0.163621 0.792159
O O12 0.913895 0.407757 0.172459
O O13 0.000000 0.000000 0.000000
O O14 0.000000 0.500000 0.500000
O O15 0.388885 0.396556 0.978465
O O16 0.500000 0.500000 0.000000
#
# Coordination Sequence:
#
# PCOD8023506 Si02
#       7
#     2   2   2   2   2   2   2
#     4  11  22  39  67  96 130 184 216 277 346 393
#     4  10  23  44  65  99 137 176 226 284 333 401
#     4  11  22  43  69  98 133 182 226 278 345 397
#     4  10  23  41  68  98 134 183 225 281 340 401
#     4  11  24  42  64 100 138 171 230 279 335 414
#     4  12  22  43  70  96 137 179 219 284 342 403
#     4  11  23  45  65  99 140 173 234 279 336 408
#
# _framework density 21.964146
#
# number of rings (size 3 to 8) (size 9 to 14) (size 15 to 20)
#    0.000    1.143    4.286    3.000    2.000    3.429 
#    5.143    0.000    0.000    0.000    0.000    0.000 
#    0.000    0.000    0.000    0.000    0.000    0.000 
#
# Total GULP energy -173439.468071 kJ/mol
# GULP energy per Si atom -12388.533434 kJ/mol
# Density = 2.191415 g / cm^3
# Si number density = 21.964146 Si / 1000 Ang^3
#
#
#
# Elastic Constant Matrix: (Units=GPa)
#
#
# Indices 1 2 3 4 5 6 
#
# 1 102.2291 24.6395 34.8596 3.4655 -14.6235 13.6438
# 2 24.6395 105.6182 37.4707 15.2618 -9.2200 10.8768
# 3 34.8596 37.4707 111.7306 25.3265 -12.3106 1.6439
# 4 3.4655 15.2618 25.3265 52.6626 13.7289 -6.8823
# 5 -14.6235 -9.2200 -12.3106 13.7289 44.9076 -11.8624
# 6 13.6438 10.8768 1.6439 -6.8823 -11.8624 31.5760
#
#
#
# Elastic Compliance Matrix: (Units=1/GPa)
#
#
# Indices 1 2 3 4 5 6 
#
# 1 0.011877 -0.001129 -0.003095 0.000071 0.001731 -0.003916
# 2 -0.001129 0.011555 -0.002725 -0.002726 0.001165 -0.003507
# 3 -0.003095 -0.002725 0.012605 -0.005914 0.004200 0.001909
# 4 0.000071 -0.002726 -0.005914 0.025414 -0.009040 0.003359
# 5 0.001731 0.001165 0.004200 -0.009040 0.028980 0.007549
# 6 -0.003916 -0.003507 0.001909 0.003359 0.007549 0.038039
#
#
# Mechanical properties :
#
#
# Convention : Reuss Voigt Hill
#
# Bulk Modulus (GPa) = 45.16750 57.05750 51.11250
# Shear Modulus (GPa) = 33.38966 40.66977 37.02972
#
# Velocity S-wave (km/s) = 3.90319 4.30774 4.11045
# Velocity P-wave (km/s) = 6.39703 7.12574 6.77120
#
# Compressibility (1/GPa) = 0.02213981
#
# Stress axis : x y z
#
# Youngs Moduli (GPa) = 84.19456 86.54314 79.33427
#
# Poissons Ratio (x) = 0.09767 0.24552
# Poissons Ratio (y) = 0.09502 0.21620
# Poissons Ratio (z) = 0.26056 0.23585
#
# Static dielectric constant tensor:
#      x y z
#    x 4.470910 0.711910 -0.175740 
#    y 0.711910 3.496100 -0.749940 
#    z -0.175740 -0.749940 3.701580 
# 
# 
# High freq. dielectric constant tensor:
#      x y z
#    x 1.856070 0.027210 -0.022050 
#    y 0.027210 1.868920 0.003780 
#    z -0.022050 0.003780 1.876460 
# 
# From -- ./inp_files/624137.got.cif
#   From: 2010.06.25/outbox.cif.g09.slc.cpg/sg2_313_cif.got.tgz:624137.got - 2010.06.27 13:26:56.
