data_PCOD8023491
_publ_section_title
;
Structure prediction by ZEFSAII (Michael W. Deem and Ramdas Pophale) SiO2 
 PCOD8023491
Probable space group: P -1
;
_chemical_formula_sum "Si O2"
_cell_formula_units_Z 16
_cell_length_a 9.338057
_cell_length_b 9.664621
_cell_length_c 11.702811
_cell_angle_alpha 77.631027
_cell_angle_beta 100.623913
_cell_angle_gamma 131.812397
_cell_volume 767.667543
_symmetry_space_group_name_H-M "P -1"
_symmetry_group_IT_number 2
_symmetry_cell_setting 'triclinic'
loop_
_space_group_symop_operation_xyz
x,y,z
-x,-y,-z
loop_
_atom_site_type_symbol
_atom_site_label
_atom_site_fract_x
_atom_site_fract_y
_atom_site_fract_z
Si Si1 0.205020 0.983478 0.706262
Si Si2 0.541558 0.866573 0.061163
Si Si3 0.762306 0.466586 0.433884
Si Si4 0.979096 0.119447 0.671491
Si Si5 0.601982 0.916311 0.510998
Si Si6 0.852906 0.021254 0.926334
Si Si7 0.869787 0.357526 0.907493
Si Si8 0.007913 0.420651 0.335922
O O1 0.303061 0.050854 0.831102
O O2 0.373722 0.094096 0.618228
O O3 0.062493 0.023789 0.662356
O O4 0.072834 0.761935 0.714366
O O5 0.330664 0.681278 0.100511
O O6 0.500000 0.000000 0.000000
O O7 0.634759 0.842046 0.969320
O O8 0.530161 0.297260 0.421510
O O9 0.846487 0.378890 0.404154
O O10 0.844140 0.655782 0.345548
O O11 0.813374 0.508107 0.569068
O O12 0.872701 0.041693 0.790640
O O13 0.814605 0.059506 0.569635
O O14 0.500000 0.000000 0.500000
O O15 0.875822 0.191824 0.954937
O O16 0.000000 0.000000 0.000000
O O17 0.936696 0.426242 0.775730
O O18 0.000000 0.500000 0.000000
#
# Coordination Sequence:
#
# PCOD8023491 Si02
#       8
#     2   2   2   2   2   2   2   2
#     4  12  24  44  69  97 139 176 226 278 349 398
#     4  10  23  41  68  96 127 177 230 275 334 406
#     4  11  23  42  67  99 133 179 225 273 338 404
#     4  12  26  46  67  99 143 180 218 288 346 402
#     4  12  25  42  72 101 133 182 229 276 338 410
#     4  11  23  46  68  93 134 179 223 282 352 394
#     4  11  24  41  68 100 130 173 230 282 333 405
#     4  11  21  41  68  96 136 173 223 281 332 401
#
# _framework density 20.842355999999999
#
# number of rings (size 3 to 8) (size 9 to 14) (size 15 to 20)
#    0.000    0.750    5.000    3.375    3.500    1.500 
#    2.250    0.625    0.000    0.000    0.000    0.000 
#    0.000    0.000    0.000    0.000    0.000    0.000 
#
# Total GULP energy -198315.198792 kJ/mol
# GULP energy per Si atom -12394.699925 kJ/mol
# Density = 2.079492 g / cm^3
# Si number density = 20.842356 Si / 1000 Ang^3
#
#
#
# Elastic Constant Matrix: (Units=GPa)
#
#
# Indices 1 2 3 4 5 6 
#
# 1 131.3239 39.0045 32.4687 -9.2673 -4.7674 3.3281
# 2 39.0045 97.1185 15.3543 -6.4803 -3.4183 8.3329
# 3 32.4687 15.3543 106.8101 -10.6571 -12.5192 4.8111
# 4 -9.2673 -6.4803 -10.6571 27.3956 3.2097 -2.6672
# 5 -4.7674 -3.4183 -12.5192 3.2097 39.3740 -4.9626
# 6 3.3281 8.3329 4.8111 -2.6672 -4.9626 30.0187
#
#
#
# Elastic Compliance Matrix: (Units=1/GPa)
#
#
# Indices 1 2 3 4 5 6 
#
# 1 0.009234 -0.003291 -0.002192 0.001523 0.000060 0.000386
# 2 -0.003291 0.012017 -0.000470 0.001271 0.000042 -0.002776
# 3 -0.002192 -0.000470 0.010745 0.002939 0.002792 -0.000626
# 4 0.001523 0.001271 0.002939 0.038869 -0.001664 0.002186
# 5 0.000060 0.000042 0.002792 -0.001664 0.026915 0.003836
# 6 0.000386 -0.002776 -0.000626 0.002186 0.003836 0.034969
#
#
# Mechanical properties :
#
#
# Convention : Reuss Voigt Hill
#
# Bulk Modulus (GPa) = 49.77928 56.54525 53.16227
# Shear Modulus (GPa) = 33.03509 35.91933 34.47721
#
# Velocity S-wave (km/s) = 3.98552 4.15587 4.07159
# Velocity P-wave (km/s) = 6.71675 7.08641 6.90405
#
# Compressibility (1/GPa) = 0.02008868
#
# Stress axis : x y z
#
# Youngs Moduli (GPa) = 108.29254 83.21259 93.06556
#
# Poissons Ratio (x) = 0.27389 0.20403
# Poissons Ratio (y) = 0.35644 0.04376
# Poissons Ratio (z) = 0.23742 0.03913
#
# Static dielectric constant tensor:
#      x y z
#    x 4.268640 0.338110 -0.235290 
#    y 0.338110 3.890280 -0.269500 
#    z -0.235290 -0.269500 4.127480 
# 
# 
# High freq. dielectric constant tensor:
#      x y z
#    x 1.819850 0.007720 -0.015400 
#    y 0.007720 1.805760 -0.012970 
#    z -0.015400 -0.012970 1.828880 
# 
# From -- ./inp_files/186362.got.cif
#   From: 2010.06.25/outbox.cif.g09.slc.cpg/sg2_94_cif.got.tgz:186362.got - 2010.06.27 13:26:56.
