data_PCOD8023025
_publ_section_title
;
Structure prediction by ZEFSAII (Michael W. Deem and Ramdas Pophale) SiO2 
 PCOD8023025
Probable space group: P -1
;
_chemical_formula_sum "Si O2"
_cell_formula_units_Z 16
_cell_length_a 14.975695
_cell_length_b 8.593399
_cell_length_c 9.742513
_cell_angle_alpha 99.924767
_cell_angle_beta 65.546761
_cell_angle_gamma 54.002115
_cell_volume 762.249479
_symmetry_space_group_name_H-M "P -1"
_symmetry_group_IT_number 2
_symmetry_cell_setting 'triclinic'
loop_
_space_group_symop_operation_xyz
x,y,z
-x,-y,-z
loop_
_atom_site_type_symbol
_atom_site_label
_atom_site_fract_x
_atom_site_fract_y
_atom_site_fract_z
Si Si1 0.779964 0.733961 0.097948
Si Si2 0.412058 0.327945 0.184716
Si Si3 0.285941 0.925845 0.022602
Si Si4 0.071341 0.448899 0.752549
Si Si5 0.763788 0.929023 0.619118
Si Si6 0.867423 0.141259 0.503723
Si Si7 0.018867 0.079390 0.135596
Si Si8 0.479783 0.102496 0.824492
O O1 0.803186 0.737787 0.245052
O O2 0.656778 0.743999 0.168969
O O3 0.932695 0.506750 0.894386
O O4 0.722881 0.953613 0.086440
O O5 0.256756 0.587522 0.341335
O O6 0.441523 0.161832 0.257143
O O7 0.541985 0.307447 0.098727
O O8 0.407613 0.237114 0.033311
O O9 0.222243 0.084547 0.225964
O O10 0.188565 0.885112 0.048221
O O11 0.032542 0.679840 0.815285
O O12 0.125679 0.333855 0.549754
O O13 0.800300 0.048819 0.541966
O O14 0.600029 0.085364 0.698635
O O15 0.920843 0.106710 0.311470
O O16 0.000000 0.000000 0.500000
O O17 0.000000 0.000000 0.000000
#
# Coordination Sequence:
#
# PCOD8023025 Si02
#       8
#     2   2   2   2   2   2   2   2
#     4   9  20  37  65  94 116 168 210 259 310 368
#     4   9  20  40  64  94 127 162 213 259 322 368
#     4   9  20  42  65  93 126 164 207 264 311 380
#     4  10  23  40  65  93 125 166 213 267 307 379
#     4  11  23  40  61  99 125 163 214 258 317 370
#     4  12  26  42  62  96 130 168 211 266 311 381
#     4  11  25  44  63  91 131 169 213 259 324 370
#     4   9  19  38  67  92 125 167 206 265 312 378
#
# _framework density 20.990501999999999
#
# number of rings (size 3 to 8) (size 9 to 14) (size 15 to 20)
#    0.000    2.000    1.250    1.500    7.000    4.500 
#    2.250    0.625    0.000    0.000    0.000    0.000 
#    0.000    0.000    0.000    0.000    0.000    0.000 
#
# Total GULP energy -198276.871899 kJ/mol
# GULP energy per Si atom -12392.304494 kJ/mol
# Density = 2.094273 g / cm^3
# Si number density = 20.990502 Si / 1000 Ang^3
#
#
#
# Elastic Constant Matrix: (Units=GPa)
#
#
# Indices 1 2 3 4 5 6 
#
# 1 167.9779 47.4040 60.5141 14.6172 -21.4629 -12.0469
# 2 47.4040 80.1286 44.3823 2.7436 -3.0158 -5.9057
# 3 60.5141 44.3823 111.2829 3.2063 -1.4149 -2.0772
# 4 14.6172 2.7436 3.2063 24.3587 2.9266 -8.0573
# 5 -21.4629 -3.0158 -1.4149 2.9266 34.8050 0.3477
# 6 -12.0469 -5.9057 -2.0772 -8.0573 0.3477 37.0954
#
#
#
# Elastic Compliance Matrix: (Units=1/GPa)
#
#
# Indices 1 2 3 4 5 6 
#
# 1 0.009405 -0.003060 -0.003650 -0.005120 0.005805 0.001196
# 2 -0.003060 0.017243 -0.005225 0.001244 -0.000727 0.001736
# 3 -0.003650 -0.005225 0.012978 0.000992 -0.002249 -0.001054
# 4 -0.005120 0.001244 0.000992 0.047692 -0.007110 0.009016
# 5 0.005805 -0.000727 -0.002249 -0.007110 0.032756 -0.000208
# 6 0.001196 0.001736 -0.001054 0.009016 -0.000208 0.029524
#
#
# Mechanical properties :
#
#
# Convention : Reuss Voigt Hill
#
# Bulk Modulus (GPa) = 63.47492 73.77670 68.62581
# Shear Modulus (GPa) = 27.97685 33.05776 30.51731
#
# Velocity S-wave (km/s) = 3.65476 3.97280 3.81709
# Velocity P-wave (km/s) = 6.93651 7.50121 7.22438
#
# Compressibility (1/GPa) = 0.01575425
#
# Stress axis : x y z
#
# Youngs Moduli (GPa) = 106.33030 57.99604 77.05305
#
# Poissons Ratio (x) = 0.17748 0.28124
# Poissons Ratio (y) = 0.32539 0.40263
# Poissons Ratio (z) = 0.38811 0.30305
#
# Static dielectric constant tensor:
#      x y z
#    x 4.266380 -0.197400 -0.361370 
#    y -0.197400 3.637030 -0.052360 
#    z -0.361370 -0.052360 3.831220 
# 
# 
# High freq. dielectric constant tensor:
#      x y z
#    x 1.837140 -0.014450 -0.021180 
#    y -0.014450 1.798330 -0.007740 
#    z -0.021180 -0.007740 1.815560 
# 
# From -- ./inp_files/298768.got.cif
#   From: 2010.06.25/outbox.cif.g09.slc.cpg/sg2_150_cif.got.tgz:298768.got - 2010.06.27 13:26:56.
