data_PCOD8023503
_publ_section_title
;
Structure prediction by ZEFSAII (Michael W. Deem and Ramdas Pophale) SiO2 
 PCOD8023503
Probable space group: P -1
;
_chemical_formula_sum "Si O2"
_cell_formula_units_Z 16
_cell_length_a 21.708480
_cell_length_b 6.048994
_cell_length_c 8.559709
_cell_angle_alpha 62.647404
_cell_angle_beta 134.249573
_cell_angle_gamma 124.218454
_cell_volume 661.487567
_symmetry_space_group_name_H-M "P -1"
_symmetry_group_IT_number 2
_symmetry_cell_setting 'triclinic'
loop_
_space_group_symop_operation_xyz
x,y,z
-x,-y,-z
loop_
_atom_site_type_symbol
_atom_site_label
_atom_site_fract_x
_atom_site_fract_y
_atom_site_fract_z
Si Si1 0.392517 0.819812 0.357947
Si Si2 0.952847 0.068947 0.543344
Si Si3 0.281331 0.895437 0.395404
Si Si4 0.097719 0.461502 0.180229
Si Si5 0.562870 0.817740 0.177467
Si Si6 0.879595 0.468065 0.163310
Si Si7 0.393909 0.309346 0.043328
Si Si8 0.713955 0.600941 0.928377
O O1 0.339337 0.740842 0.456098
O O2 0.370102 0.571340 0.281560
O O3 0.500000 0.000000 0.500000
O O4 0.352336 0.029995 0.150066
O O5 0.876275 0.172941 0.301637
O O6 0.022386 0.305300 0.693810
O O7 0.910542 0.818861 0.666824
O O8 0.000000 0.000000 0.500000
O O9 0.181863 0.686273 0.351427
O O10 0.348172 0.054567 0.600034
O O11 0.252819 0.095064 0.171194
O O12 0.135377 0.496445 0.058130
O O13 0.000000 0.500000 0.000000
O O14 0.497692 0.514026 0.214190
O O15 0.607527 0.768724 0.112513
O O16 0.500000 0.000000 0.000000
O O17 0.798422 0.504094 0.106632
O O18 0.323411 0.444699 0.941893
#
# Coordination Sequence:
#
# PCOD8023503 Si02
#       8
#     2   2   2   2   2   2   2   2
#     4  11  21  41  70  98 134 188 247 298 365 443
#     4  11  25  48  78 109 144 197 252 307 384 454
#     4  11  25  43  70 110 138 196 255 303 382 457
#     4  12  24  50  78 107 154 196 244 320 382 447
#     4  11  23  46  67 101 152 192 248 313 384 446
#     4  11  25  49  75 107 148 197 247 311 380 453
#     4  10  23  41  68  97 141 197 234 312 373 434
#     4  11  23  44  69 103 144 191 250 303 370 457
#
# _framework density 24.187905000000001
#
# number of rings (size 3 to 8) (size 9 to 14) (size 15 to 20)
#    0.000    1.000    2.500    4.125    0.000    3.000 
#    6.750    1.250    0.000    0.000    0.000    0.000 
#    0.000    0.000    0.000    0.000    0.000    0.000 
#
# Total GULP energy -198244.636963 kJ/mol
# GULP energy per Si atom -12390.289810 kJ/mol
# Density = 2.413285 g / cm^3
# Si number density = 24.187905 Si / 1000 Ang^3
#
#
#
# Elastic Constant Matrix: (Units=GPa)
#
#
# Indices 1 2 3 4 5 6 
#
# 1 184.2443 47.7712 58.4560 -1.1088 4.5262 -15.7388
# 2 47.7712 119.2065 44.6902 -6.9297 -5.5947 9.5552
# 3 58.4560 44.6902 106.3434 -3.2231 0.2319 3.4464
# 4 -1.1088 -6.9297 -3.2231 40.8363 -1.0559 0.4860
# 5 4.5262 -5.5947 0.2319 -1.0559 38.1000 5.3393
# 6 -15.7388 9.5552 3.4464 0.4860 5.3393 40.2233
#
#
#
# Elastic Compliance Matrix: (Units=1/GPa)
#
#
# Indices 1 2 3 4 5 6 
#
# 1 0.007412 -0.002158 -0.003307 -0.000518 -0.001743 0.003934
# 2 -0.002158 0.010969 -0.003265 0.001650 0.002425 -0.003512
# 3 -0.003307 -0.003265 0.012657 0.000376 0.000073 -0.001617
# 4 -0.000518 0.001650 0.000376 0.024826 0.001141 -0.001078
# 5 -0.001743 0.002425 0.000073 0.001141 0.027532 -0.004933
# 6 0.003934 -0.003512 -0.001617 -0.001078 -0.004933 0.028041
#
#
# Mechanical properties :
#
#
# Convention : Reuss Voigt Hill
#
# Bulk Modulus (GPa) = 73.64557 79.06987 76.35772
# Shear Modulus (GPa) = 37.47505 41.09040 39.28272
#
# Velocity S-wave (km/s) = 3.94042 4.12612 4.03434
# Velocity P-wave (km/s) = 7.15653 7.44719 7.30331
#
# Compressibility (1/GPa) = 0.01357855
#
# Stress axis : x y z
#
# Youngs Moduli (GPa) = 134.91703 91.16829 79.00783
#
# Poissons Ratio (x) = 0.19672 0.26127
# Poissons Ratio (y) = 0.29112 0.25795
# Poissons Ratio (z) = 0.44615 0.29766
#
# Static dielectric constant tensor:
#      x y z
#    x 4.550620 -0.046870 -0.086210 
#    y -0.046870 5.014890 -0.180870 
#    z -0.086210 -0.180870 4.377210 
# 
# 
# High freq. dielectric constant tensor:
#      x y z
#    x 1.969810 -0.004030 0.001920 
#    y -0.004030 1.978640 0.006480 
#    z 0.001920 0.006480 1.948720 
# 
# From -- ./inp_files/340279.got.cif
#   From: 2010.06.25/outbox.cif.g09.slc.cpg/sg2_171_cif.got.tgz:340279.got - 2010.06.27 13:26:56.
