data_PCOD8023571
_publ_section_title
;
Structure prediction by ZEFSAII (Michael W. Deem and Ramdas Pophale) SiO2 
 PCOD8023571
Probable space group: P -1
;
_chemical_formula_sum "Si O2"
_cell_formula_units_Z 14
_cell_length_a 9.391621
_cell_length_b 22.222602
_cell_length_c 6.584305
_cell_angle_alpha 59.623472
_cell_angle_beta 129.345365
_cell_angle_gamma 149.032163
_cell_volume 544.333708
_symmetry_space_group_name_H-M "P -1"
_symmetry_group_IT_number 2
_symmetry_cell_setting 'triclinic'
loop_
_space_group_symop_operation_xyz
x,y,z
-x,-y,-z
loop_
_atom_site_type_symbol
_atom_site_label
_atom_site_fract_x
_atom_site_fract_y
_atom_site_fract_z
Si Si1 0.824669 0.597056 0.371596
Si Si2 0.177500 0.149955 0.332677
Si Si3 0.150282 0.995429 0.355642
Si Si4 0.757125 0.191960 0.342603
Si Si5 0.310016 0.538893 0.167802
Si Si6 0.818992 0.322334 0.839762
Si Si7 0.792519 0.787382 0.156688
O O1 0.560786 0.574736 0.195659
O O2 0.700903 0.491106 0.558759
O O3 0.141047 0.719275 0.554138
O O4 0.908802 0.608797 0.195226
O O5 0.505791 0.255446 0.567627
O O6 0.889519 0.064726 0.374591
O O7 0.155363 0.074956 0.300608
O O8 0.136673 0.198076 0.046237
O O9 0.845958 0.882446 0.133661
O O10 0.434721 0.061851 0.354340
O O11 0.995207 0.199944 0.539139
O O12 0.746889 0.227231 0.053736
O O13 0.431325 0.656186 0.085207
O O14 0.973739 0.428870 0.944462
#
# Coordination Sequence:
#
# PCOD8023571 Si02
#       7
#     2   2   2   2   2   2   2
#     4   9  18  39  66  95 131 167 214 260 315 388
#     4  11  27  42  67  96 126 179 213 260 329 381
#     4  11  25  46  66  91 134 173 218 260 321 393
#     4  10  23  41  70  98 125 170 220 264 318 375
#     4   9  21  38  64  98 129 168 209 265 324 372
#     4  11  22  40  69  97 126 173 215 259 321 388
#     4  11  25  43  64  99 133 165 212 273 322 372
#
# _framework density 25.719517
#
# number of rings (size 3 to 8) (size 9 to 14) (size 15 to 20)
#    0.000    1.714    1.429    2.143    6.000    4.571 
#    0.000    1.429    0.000    0.000    0.000    0.000 
#    0.000    0.000    0.000    0.000    0.000    0.000 
#
# Total GULP energy -173436.348163 kJ/mol
# GULP energy per Si atom -12388.310583 kJ/mol
# Density = 2.566098 g / cm^3
# Si number density = 25.719517 Si / 1000 Ang^3
#
#
#
# Elastic Constant Matrix: (Units=GPa)
#
#
# Indices 1 2 3 4 5 6 
#
# 1 16.9936 36.3737 -11.8328 11.8783 -14.1941 54.8664
# 2 36.3737 171.8137 46.8416 0.7954 -14.9271 -8.1420
# 3 -11.8328 46.8416 96.4473 6.2595 -18.9171 24.5434
# 4 11.8783 0.7954 6.2595 26.6963 8.9459 -37.0776
# 5 -14.1941 -14.9271 -18.9171 8.9459 32.1281 -10.2634
# 6 54.8664 -8.1420 24.5434 -37.0776 -10.2634 14.8581
#
#
#
# Elastic Compliance Matrix: (Units=1/GPa)
#
#
# Indices 1 2 3 4 5 6 
#
# 1 0.007751 -0.000193 -0.002770 0.014283 0.001793 0.012728
# 2 -0.000193 0.006383 -0.001635 -0.004575 0.002249 -0.002952
# 3 -0.002770 -0.001635 0.010316 0.003658 0.004524 0.004545
# 4 0.014283 -0.004575 0.003658 0.022681 -0.001894 -0.006002
# 5 0.001793 0.002249 0.004524 -0.001894 0.039181 0.009476
# 6 0.012728 -0.002952 0.004545 -0.006002 0.009476 0.002746
#
#
# Mechanical properties :
#
#
# Convention : Reuss Voigt Hill
#
# Bulk Modulus (GPa) = 65.54861 47.55772 56.55317
# Shear Modulus (GPa) = 48.38524 28.99465 38.68994
#
# Velocity S-wave (km/s) = 4.34206 3.36123 3.88274
# Velocity P-wave (km/s) = 7.11894 5.79611 6.49131
#
# Compressibility (1/GPa) = 0.01525585
#
# Stress axis : x y z
#
# Youngs Moduli (GPa) = 129.01736 156.65585 96.93768
#
# Poissons Ratio (x) = 0.03024 0.26847
# Poissons Ratio (y) = 0.02491 0.15846
# Poissons Ratio (z) = 0.35732 0.25607
#
# Static dielectric constant tensor:
#      x y z
#    x 4.158350 0.069480 -0.393740 
#    y 0.069480 5.383560 -0.126420 
#    z -0.393740 -0.126420 4.784100 
# 
# 
# High freq. dielectric constant tensor:
#      x y z
#    x 2.004850 0.011060 -0.025060 
#    y 0.011060 2.051950 -0.010340 
#    z -0.025060 -0.010340 2.030460 
# 
# From -- ./inp_files/84790.got.cif
#   From: 2010.06.25/outbox.cif.g09.slc.cpg/sg2_43_cif.got.tgz:84790.got - 2010.06.27 13:26:56.
