data_PCOD8023700
_publ_section_title
;
Structure prediction by ZEFSAII (Michael W. Deem and Ramdas Pophale) SiO2 
 PCOD8023700
Probable space group: P -1
;
_chemical_formula_sum "Si O2"
_cell_formula_units_Z 14
_cell_length_a 12.814181
_cell_length_b 12.013627
_cell_length_c 12.248748
_cell_angle_alpha 146.638667
_cell_angle_beta 115.041714
_cell_angle_gamma 80.742813
_cell_volume 866.382950
_symmetry_space_group_name_H-M "P -1"
_symmetry_group_IT_number 2
_symmetry_cell_setting 'triclinic'
loop_
_space_group_symop_operation_xyz
x,y,z
-x,-y,-z
loop_
_atom_site_type_symbol
_atom_site_label
_atom_site_fract_x
_atom_site_fract_y
_atom_site_fract_z
Si Si1 0.159325 0.032268 0.152874
Si Si2 0.169075 0.030262 0.547690
Si Si3 0.994983 0.247963 0.578536
Si Si4 0.892618 0.266601 0.923853
Si Si5 0.000994 0.266440 0.338670
Si Si6 0.447296 0.239203 0.768659
Si Si7 0.364654 0.959771 0.295410
O O1 0.130812 0.252367 0.339862
O O2 0.304995 0.065627 0.261234
O O3 0.074007 0.869737 0.076763
O O4 0.115185 0.925953 0.928059
O O5 0.099488 0.830368 0.270190
O O6 0.130172 0.933520 0.572798
O O7 0.117986 0.217720 0.651761
O O8 0.317866 0.139155 0.694419
O O9 0.984705 0.228721 0.428924
O O10 0.009043 0.486405 0.821807
O O11 0.748203 0.237574 0.855855
O O12 0.000000 0.500000 0.500000
O O13 0.434495 0.156659 0.570962
O O14 0.542075 0.148713 0.798506
O O15 0.500000 0.500000 0.000000
#
# Coordination Sequence:
#
# PCOD8023700 Si02
#       7
#     2   2   2   2   2   2   2
#     4   9  19  30  47  72  99 122 162 202 236 279
#     4  10  21  31  46  74 105 127 156 198 238 303
#     4  11  19  31  48  72 105 132 153 189 250 291
#     4   9  16  32  47  69  99 127 153 192 243 285
#     4  11  18  30  50  72  98 129 162 196 234 290
#     4  10  17  29  50  69  93 126 165 200 238 277
#     4   8  17  30  46  68  95 120 157 205 234 275
#
# _framework density 16.159136
#
# number of rings (size 3 to 8) (size 9 to 14) (size 15 to 20)
#    0.857    1.429    2.857    1.286    0.000    1.143 
#    0.000    0.000    0.000    0.857    0.000    2.000 
#    0.000    0.000    0.000    0.000    0.000    0.000 
#
# Total GULP energy -173449.182363 kJ/mol
# GULP energy per Si atom -12389.227312 kJ/mol
# Density = 1.612236 g / cm^3
# Si number density = 16.159136 Si / 1000 Ang^3
#
#
#
# Elastic Constant Matrix: (Units=GPa)
#
#
# Indices 1 2 3 4 5 6 
#
# 1 77.6345 20.7621 25.5196 15.6939 -2.3505 -15.9371
# 2 20.7621 65.1827 32.0967 6.9596 -0.1237 -3.3718
# 3 25.5196 32.0967 86.3342 8.0629 -8.2259 -3.9904
# 4 15.6939 6.9596 8.0629 22.5876 -5.5024 -5.1800
# 5 -2.3505 -0.1237 -8.2259 -5.5024 18.3822 0.8026
# 6 -15.9371 -3.3718 -3.9904 -5.1800 0.8026 30.9850
#
#
#
# Elastic Compliance Matrix: (Units=1/GPa)
#
#
# Indices 1 2 3 4 5 6 
#
# 1 0.017973 -0.002727 -0.003317 -0.009425 -0.002332 0.007005
# 2 -0.002727 0.019780 -0.006685 -0.002915 -0.004058 -0.000493
# 3 -0.003317 -0.006685 0.015629 0.000275 0.006631 -0.000546
# 4 -0.009425 -0.002915 0.000275 0.056307 0.015584 0.003880
# 5 -0.002332 -0.004058 0.006631 0.015584 0.061698 0.000220
# 6 0.007005 -0.000493 -0.000546 0.003880 0.000220 0.036396
#
#
# Mechanical properties :
#
#
# Convention : Reuss Voigt Hill
#
# Bulk Modulus (GPa) = 35.81054 42.87868 39.34461
# Shear Modulus (GPa) = 20.61441 24.44248 22.52844
#
# Velocity S-wave (km/s) = 3.57559 3.89345 3.73790
# Velocity P-wave (km/s) = 6.26544 6.84140 6.55974
#
# Compressibility (1/GPa) = 0.02792474
#
# Stress axis : x y z
#
# Youngs Moduli (GPa) = 55.63784 50.55662 63.98210
#
# Poissons Ratio (x) = 0.13788 0.21223
# Poissons Ratio (y) = 0.15174 0.42770
# Poissons Ratio (z) = 0.18455 0.33795
#
# Static dielectric constant tensor:
#      x y z
#    x 2.981420 -0.234190 -0.170120 
#    y -0.234190 2.972220 -0.029630 
#    z -0.170120 -0.029630 2.995670 
# 
# 
# High freq. dielectric constant tensor:
#      x y z
#    x 1.602760 -0.022850 -0.020340 
#    y -0.022850 1.604900 -0.000890 
#    z -0.020340 -0.000890 1.622410 
# 
# From -- ./inp_files/109123.got.cif
#   From: 2010.06.25/outbox.cif.g09.slc.cpg/sg2_55_cif.got.tgz:109123.got - 2010.06.27 13:26:56.
