data_PCOD8023067
_publ_section_title
;
Structure prediction by ZEFSAII (Michael W. Deem and Ramdas Pophale) SiO2 
 PCOD8023067
Probable space group: P -1
;
_chemical_formula_sum "Si O2"
_cell_formula_units_Z 16
_cell_length_a 21.146762
_cell_length_b 12.411005
_cell_length_c 18.855309
_cell_angle_alpha 29.878275
_cell_angle_beta 161.830591
_cell_angle_gamma 140.810054
_cell_volume 729.806572
_symmetry_space_group_name_H-M "P -1"
_symmetry_group_IT_number 2
_symmetry_cell_setting 'triclinic'
loop_
_space_group_symop_operation_xyz
x,y,z
-x,-y,-z
loop_
_atom_site_type_symbol
_atom_site_label
_atom_site_fract_x
_atom_site_fract_y
_atom_site_fract_z
Si Si1 0.519222 0.966624 0.842210
Si Si2 0.431020 0.834355 0.072858
Si Si3 0.496474 0.256254 0.343478
Si Si4 0.386807 0.546499 0.927892
Si Si5 0.189748 0.561128 0.345018
Si Si6 0.890483 0.357192 0.229564
Si Si7 0.968166 0.844177 0.353201
Si Si8 0.928107 0.733396 0.833791
O O1 0.605162 0.068058 0.942907
O O2 0.329009 0.166019 0.488978
O O3 0.442355 0.755840 0.906036
O O4 0.719803 0.869880 0.056876
O O5 0.619244 0.595652 0.409629
O O6 0.206485 0.804190 0.828484
O O7 0.500000 0.000000 0.000000
O O8 0.717637 0.282234 0.594423
O O9 0.500000 0.000000 0.500000
O O10 0.471160 0.326678 0.193195
O O11 0.294120 0.408086 0.084839
O O12 0.127289 0.644149 0.587985
O O13 0.500000 0.500000 0.000000
O O14 0.083952 0.407493 0.366406
O O15 0.017276 0.715187 0.018936
O O16 0.983855 0.224277 0.475469
O O17 0.992092 0.090566 0.226461
O O18 0.000000 0.500000 0.000000
#
# Coordination Sequence:
#
# PCOD8023067 Si02
#       8
#     2   2   2   2   2   2   2   2
#     4  11  23  40  65  93 130 179 224 269 329 398
#     4  11  21  36  64  95 131 172 219 269 328 398
#     4  10  23  44  69  98 131 168 224 281 341 402
#     4  10  23  44  68  97 129 167 226 285 331 400
#     4  11  24  42  64  97 136 172 220 277 331 397
#     4  10  23  40  66  99 129 174 224 274 336 400
#     4  10  23  42  64  94 130 172 224 272 331 395
#     4  11  24  41  60  95 141 177 219 269 327 394
#
# _framework density 21.923617
#
# number of rings (size 3 to 8) (size 9 to 14) (size 15 to 20)
#    0.000    1.500    1.250    4.500    1.750    7.500 
#    0.000    3.750    0.000    0.000    0.000    0.000 
#    0.000    0.000    0.000    0.000    0.000    0.000 
#
# Total GULP energy -198408.143487 kJ/mol
# GULP energy per Si atom -12400.508968 kJ/mol
# Density = 2.187372 g / cm^3
# Si number density = 21.923617 Si / 1000 Ang^3
#
#
#
# Elastic Constant Matrix: (Units=GPa)
#
#
# Indices 1 2 3 4 5 6 
#
# 1 105.5040 27.3151 53.2817 0.1462 2.5116 13.0867
# 2 27.3151 101.5617 34.6116 -3.9499 -8.9364 19.8413
# 3 53.2817 34.6116 141.5937 2.2076 1.6087 14.5135
# 4 0.1462 -3.9499 2.2076 36.4869 13.4605 -0.0456
# 5 2.5116 -8.9364 1.6087 13.4605 35.2953 1.8818
# 6 13.0867 19.8413 14.5135 -0.0456 1.8818 29.3888
#
#
#
# Elastic Compliance Matrix: (Units=1/GPa)
#
#
# Indices 1 2 3 4 5 6 
#
# 1 0.012200 -0.001552 -0.003964 0.000433 -0.001120 -0.002355
# 2 -0.001552 0.012613 -0.001808 0.000095 0.003732 -0.007170
# 3 -0.003964 -0.001808 0.009165 -0.000637 -0.000269 -0.001524
# 4 0.000433 0.000095 -0.000637 0.031961 -0.012214 0.000889
# 5 -0.001120 0.003732 -0.000269 -0.012214 0.034246 -0.004100
# 6 -0.002355 -0.007170 -0.001524 0.000889 -0.004100 0.040932
#
#
# Mechanical properties :
#
#
# Convention : Reuss Voigt Hill
#
# Bulk Modulus (GPa) = 51.73344 64.34181 58.03762
# Shear Modulus (GPa) = 30.82426 35.79759 33.31093
#
# Velocity S-wave (km/s) = 3.75371 4.04522 3.90219
# Velocity P-wave (km/s) = 6.51425 7.15753 6.84346
#
# Compressibility (1/GPa) = 0.01932986
#
# Stress axis : x y z
#
# Youngs Moduli (GPa) = 81.96513 79.28554 109.10607
#
# Poissons Ratio (x) = 0.12305 0.43253
# Poissons Ratio (y) = 0.12721 0.19727
# Poissons Ratio (z) = 0.32493 0.14335
#
# Static dielectric constant tensor:
#      x y z
#    x 5.044630 -0.178830 0.293960 
#    y -0.178830 4.023140 0.108830 
#    z 0.293960 0.108830 4.417370 
# 
# 
# High freq. dielectric constant tensor:
#      x y z
#    x 1.853200 0.007760 0.009580 
#    y 0.007760 1.860750 0.004540 
#    z 0.009580 0.004540 1.881130 
# 
# From -- ./inp_files/577924.got.cif
#   From: 2010.06.25/outbox.cif.g09.slc.cpg/sg2_289_cif.got.tgz:577924.got - 2010.06.27 13:26:56.
