data_PCOD8023895
_publ_section_title
;
Structure prediction by ZEFSAII (Michael W. Deem and Ramdas Pophale) SiO2 
 PCOD8023895
Probable space group: P -1
;
_chemical_formula_sum "Si O2"
_cell_formula_units_Z 16
_cell_length_a 15.291006
_cell_length_b 8.935047
_cell_length_c 12.554139
_cell_angle_alpha 80.956529
_cell_angle_beta 28.029106
_cell_angle_gamma 74.057770
_cell_volume 761.091276
_symmetry_space_group_name_H-M "P -1"
_symmetry_group_IT_number 2
_symmetry_cell_setting 'triclinic'
loop_
_space_group_symop_operation_xyz
x,y,z
-x,-y,-z
loop_
_atom_site_type_symbol
_atom_site_label
_atom_site_fract_x
_atom_site_fract_y
_atom_site_fract_z
Si Si1 0.078217 0.887058 0.272636
Si Si2 0.484949 0.347578 0.466888
Si Si3 0.199978 0.622277 0.022313
Si Si4 0.274566 0.042944 0.208694
Si Si5 0.005731 0.150576 0.155845
Si Si6 0.153853 0.230366 0.766550
Si Si7 0.620559 0.102212 0.525986
Si Si8 0.248187 0.266736 0.031761
O O1 0.135487 0.704409 0.196426
O O2 0.854924 0.940819 0.547645
O O3 0.227848 0.908656 0.199642
O O4 0.097717 0.980944 0.133090
O O5 0.500000 0.500000 0.500000
O O6 0.265869 0.358367 0.664673
O O7 0.548137 0.185121 0.482870
O O8 0.617504 0.326934 0.222942
O O9 0.029151 0.666939 0.114324
O O10 0.278464 0.437133 0.983399
O O11 0.207666 0.210337 0.199027
O O12 0.500000 0.000000 0.000000
O O13 0.773854 0.186637 0.399113
O O14 0.085496 0.148791 0.950822
O O15 0.063702 0.280254 0.151393
O O16 0.286162 0.086462 0.568788
O O17 0.439548 0.134416 0.797194
#
# Coordination Sequence:
#
# PCOD8023895 Si02
#       8
#     2   2   2   2   2   2   2   2
#     4  10  23  42  67  95 124 157 217 267 318 376
#     4  12  25  39  58  93 138 176 217 256 300 369
#     4  12  25  42  61 100 133 172 207 262 311 383
#     4  10  23  46  70  94 117 162 211 276 325 381
#     4  11  21  40  64  93 128 174 212 258 305 380
#     4  12  25  37  65  92 133 179 214 247 313 377
#     4  12  22  38  60  91 124 174 216 257 299 373
#     4  11  26  40  66  92 131 165 212 262 326 367
#
# _framework density 21.022445999999999
#
# number of rings (size 3 to 8) (size 9 to 14) (size 15 to 20)
#    0.000    0.750    5.000    2.250    5.250    1.500 
#    0.000    0.625    0.000    0.000    0.000    0.000 
#    0.000    0.000    0.000    0.000    0.000    0.000 
#
# Total GULP energy -198415.550016 kJ/mol
# GULP energy per Si atom -12400.971876 kJ/mol
# Density = 2.097460 g / cm^3
# Si number density = 21.022446 Si / 1000 Ang^3
#
#
#
# Elastic Constant Matrix: (Units=GPa)
#
#
# Indices 1 2 3 4 5 6 
#
# 1 92.5992 19.8682 53.9082 -6.0325 -8.8534 12.3405
# 2 19.8682 77.3840 37.8900 -4.1778 8.3722 2.3657
# 3 53.9082 37.8900 101.5534 -13.5402 -3.7478 14.6127
# 4 -6.0325 -4.1778 -13.5402 26.2126 9.5126 -7.4787
# 5 -8.8534 8.3722 -3.7478 9.5126 35.8807 -6.2204
# 6 12.3405 2.3657 14.6127 -7.4787 -6.2204 28.3208
#
#
#
# Elastic Compliance Matrix: (Units=1/GPa)
#
#
# Indices 1 2 3 4 5 6 
#
# 1 0.016246 -0.000576 -0.008245 -0.002661 0.003518 -0.002707
# 2 -0.000576 0.016597 -0.006054 0.001513 -0.004818 0.001330
# 3 -0.008245 -0.006054 0.017733 0.005543 -0.000895 -0.003784
# 4 -0.002661 0.001513 0.005543 0.047131 -0.011524 0.008088
# 5 0.003518 -0.004818 -0.000895 -0.011524 0.033454 0.003636
# 6 -0.002707 0.001330 -0.003784 0.008088 0.003636 0.041265
#
#
# Mechanical properties :
#
#
# Convention : Reuss Voigt Hill
#
# Bulk Modulus (GPa) = 48.01454 54.98546 51.50000
# Shear Modulus (GPa) = 23.90987 28.74084 26.32535
#
# Velocity S-wave (km/s) = 3.37612 3.70151 3.54255
# Velocity P-wave (km/s) = 6.17145 6.66938 6.42524
#
# Compressibility (1/GPa) = 0.02082702
#
# Stress axis : x y z
#
# Youngs Moduli (GPa) = 61.55229 60.25185 56.39214
#
# Poissons Ratio (x) = 0.03469 0.46494
# Poissons Ratio (y) = 0.03544 0.34140
# Poissons Ratio (z) = 0.50748 0.36477
#
# Static dielectric constant tensor:
#      x y z
#    x 3.928520 0.150400 -0.084230 
#    y 0.150400 3.669280 -0.239190 
#    z -0.084230 -0.239190 3.881350 
# 
# 
# High freq. dielectric constant tensor:
#      x y z
#    x 1.824160 0.009110 -0.008100 
#    y 0.009110 1.813890 -0.017770 
#    z -0.008100 -0.017770 1.826950 
# 
# From -- ./inp_files/207537.got.cif
#   From: 2010.06.25/outbox.cif.g09.slc.cpg/sg2_104_cif.got.tgz:207537.got - 2010.06.27 13:26:56.
