data_PCOD8023489
_publ_section_title
;
Structure prediction by ZEFSAII (Michael W. Deem and Ramdas Pophale) SiO2 
 PCOD8023489
Probable space group: P -1
;
_chemical_formula_sum "Si O2"
_cell_formula_units_Z 16
_cell_length_a 14.116903
_cell_length_b 11.221438
_cell_length_c 14.168983
_cell_angle_alpha 108.810761
_cell_angle_beta 50.103186
_cell_angle_gamma 150.186381
_cell_volume 675.992122
_symmetry_space_group_name_H-M "P -1"
_symmetry_group_IT_number 2
_symmetry_cell_setting 'triclinic'
loop_
_space_group_symop_operation_xyz
x,y,z
-x,-y,-z
loop_
_atom_site_type_symbol
_atom_site_label
_atom_site_fract_x
_atom_site_fract_y
_atom_site_fract_z
Si Si1 0.392179 0.694044 0.464796
Si Si2 0.353573 0.633006 0.138171
Si Si3 0.619819 0.240827 0.251140
Si Si4 0.812044 0.252920 0.465401
Si Si5 0.865982 0.956842 0.935239
Si Si6 0.700557 0.564076 0.374516
Si Si7 0.273386 0.798251 0.007984
Si Si8 0.033896 0.849865 0.882038
O O1 0.149390 0.563497 0.540590
O O2 0.237380 0.441481 0.563197
O O3 0.589154 0.966646 0.472355
O O4 0.612824 0.840176 0.282753
O O5 0.128573 0.477066 0.320778
O O6 0.173097 0.454414 0.107100
O O7 0.507830 0.646283 0.077808
O O8 0.638094 0.989225 0.044433
O O9 0.539941 0.311955 0.344819
O O10 0.923094 0.482820 0.178008
O O11 0.340530 0.893404 0.370811
O O12 0.680418 0.277325 0.110976
O O13 0.998787 0.115821 0.788434
O O14 0.926936 0.869296 0.894839
O O15 0.012328 0.175548 0.983103
O O16 0.500000 0.500000 0.500000
O O17 0.500000 0.000000 0.000000
#
# Coordination Sequence:
#
# PCOD8023489 Si02
#       8
#     2   2   2   2   2   2   2   2
#     4   9  19  37  64  94 128 173 218 267 333 402
#     4  11  24  41  67  99 133 172 226 286 334 405
#     4  10  24  46  65  97 138 181 222 281 340 414
#     4   9  21  38  66  95 133 175 216 275 341 400
#     4  11  23  42  67  98 132 180 230 274 342 403
#     4  11  21  40  69  96 131 182 229 274 340 408
#     4  11  26  40  66 101 135 175 220 281 349 403
#     4  10  23  41  68  95 133 180 224 282 332 407
#
# _framework density 23.668914999999998
#
# number of rings (size 3 to 8) (size 9 to 14) (size 15 to 20)
#    0.000    1.750    2.500    0.375   10.500    0.500 
#    0.000    0.000    0.000    1.500    0.000    0.000 
#    0.000    0.000    0.000    0.000    0.000    0.000 
#
# Total GULP energy -198254.502291 kJ/mol
# GULP energy per Si atom -12390.906393 kJ/mol
# Density = 2.361504 g / cm^3
# Si number density = 23.668915 Si / 1000 Ang^3
#
#
#
# Elastic Constant Matrix: (Units=GPa)
#
#
# Indices 1 2 3 4 5 6 
#
# 1 92.0035 17.3076 68.9170 -10.0628 -28.0599 -15.3214
# 2 17.3076 64.8161 23.7471 16.4906 -5.0014 7.8191
# 3 68.9170 23.7471 156.1075 -4.1470 -22.2048 -9.4555
# 4 -10.0628 16.4906 -4.1470 33.6009 -5.9777 -5.1529
# 5 -28.0599 -5.0014 -22.2048 -5.9777 41.5203 -1.1250
# 6 -15.3214 7.8191 -9.4555 -5.1529 -1.1250 30.4954
#
#
#
# Elastic Compliance Matrix: (Units=1/GPa)
#
#
# Indices 1 2 3 4 5 6 
#
# 1 0.028730 -0.010993 -0.006826 0.019230 0.017726 0.019040
# 2 -0.010993 0.025393 -0.001754 -0.020002 -0.008629 -0.016276
# 3 -0.006826 -0.001754 0.009752 0.000105 0.000408 0.000077
# 4 0.019230 -0.020002 0.000105 0.052442 0.018853 0.024379
# 5 0.017726 -0.008629 0.000408 0.018853 0.038387 0.015847
# 6 0.019040 -0.016276 0.000077 0.024379 0.015847 0.051259
#
#
# Mechanical properties :
#
#
# Convention : Reuss Voigt Hill
#
# Bulk Modulus (GPa) = 40.43836 59.20783 49.82310
# Shear Modulus (GPa) = 19.73542 34.65368 27.19455
#
# Velocity S-wave (km/s) = 2.89071 3.83051 3.39330
# Velocity P-wave (km/s) = 5.31636 6.68080 6.03725
#
# Compressibility (1/GPa) = 0.02472899
#
# Stress axis : x y z
#
# Youngs Moduli (GPa) = 34.80625 39.38113 102.54672
#
# Poissons Ratio (x) = 0.43290 0.69998
# Poissons Ratio (y) = 0.38261 0.17992
# Poissons Ratio (z) = 0.23759 0.06909
#
# Static dielectric constant tensor:
#      x y z
#    x 4.373870 -0.277640 -0.001420 
#    y -0.277640 4.185760 0.058920 
#    z -0.001420 0.058920 4.695560 
# 
# 
# High freq. dielectric constant tensor:
#      x y z
#    x 1.927610 -0.009650 -0.008730 
#    y -0.009650 1.922720 0.014390 
#    z -0.008730 0.014390 1.951330 
# 
# From -- ./inp_files/532552.got.cif
#   From: 2010.06.25/outbox.cif.g09.slc.cpg/sg2_267_cif.got.tgz:532552.got - 2010.06.27 13:26:56.
