data_PCOD8023690
_publ_section_title
;
Structure prediction by ZEFSAII (Michael W. Deem and Ramdas Pophale) SiO2 
 PCOD8023690
Probable space group: P -1
;
_chemical_formula_sum "Si O2"
_cell_formula_units_Z 16
_cell_length_a 11.646834
_cell_length_b 11.916094
_cell_length_c 14.572447
_cell_angle_alpha 63.536971
_cell_angle_beta 28.986627
_cell_angle_gamma 79.963989
_cell_volume 761.451519
_symmetry_space_group_name_H-M "P -1"
_symmetry_group_IT_number 2
_symmetry_cell_setting 'triclinic'
loop_
_space_group_symop_operation_xyz
x,y,z
-x,-y,-z
loop_
_atom_site_type_symbol
_atom_site_label
_atom_site_fract_x
_atom_site_fract_y
_atom_site_fract_z
Si Si1 0.577192 0.730028 0.194485
Si Si2 0.401003 0.031658 0.652709
Si Si3 0.805710 0.757753 0.542007
Si Si4 0.078519 0.924534 0.644436
Si Si5 0.835602 0.777987 0.195063
Si Si6 0.093602 0.777131 0.523244
Si Si7 0.302370 0.528502 0.065033
Si Si8 0.858352 0.592932 0.400550
O O1 0.690687 0.729058 0.216052
O O2 0.408054 0.815950 0.282958
O O3 0.391240 0.567133 0.346419
O O4 0.821108 0.811197 0.923271
O O5 0.662964 0.096885 0.510820
O O6 0.300098 0.148748 0.673966
O O7 0.500000 0.000000 0.500000
O O8 0.156579 0.885696 0.918497
O O9 0.903186 0.711140 0.401461
O O10 0.979299 0.758594 0.507500
O O11 0.851494 0.915922 0.436153
O O12 0.483254 0.642547 0.818968
O O13 0.040577 0.893558 0.572491
O O14 0.804719 0.639831 0.321298
O O15 0.930838 0.627956 0.750978
O O16 0.145909 0.596269 0.204445
O O17 0.500000 0.500000 0.000000
#
# Coordination Sequence:
#
# PCOD8023690 Si02
#       8
#     2   2   2   2   2   2   2   2
#     4  11  24  42  63  93 128 170 206 259 322 368
#     4  11  22  39  65  91 123 167 205 255 316 369
#     4  11  24  40  65  97 125 166 216 258 312 372
#     4  12  23  40  65  93 130 163 213 260 317 373
#     4  11  23  41  65  92 129 163 211 258 312 375
#     4  10  23  42  63  92 128 168 209 261 314 372
#     4   9  21  42  66  88 124 165 211 254 311 365
#     4  11  24  41  65  96 127 165 212 260 309 376
#
# _framework density 21.012499999999999
#
# number of rings (size 3 to 8) (size 9 to 14) (size 15 to 20)
#    0.000    1.250    2.500    3.000    1.750    8.000 
#    0.000    0.625    0.000    0.000    0.000    0.000 
#    0.000    0.000    0.000    0.000    0.000    0.000 
#
# Total GULP energy -198356.578173 kJ/mol
# GULP energy per Si atom -12397.286136 kJ/mol
# Density = 2.096467 g / cm^3
# Si number density = 21.012500 Si / 1000 Ang^3
#
#
#
# Elastic Constant Matrix: (Units=GPa)
#
#
# Indices 1 2 3 4 5 6 
#
# 1 89.2061 28.3852 34.4696 16.7511 -2.8356 0.2934
# 2 28.3852 123.8891 43.6734 17.5651 1.8443 0.6075
# 3 34.4696 43.6734 112.3321 20.1450 -8.4169 -21.0404
# 4 16.7511 17.5651 20.1450 31.6452 -5.2650 4.4891
# 5 -2.8356 1.8443 -8.4169 -5.2650 27.3793 1.2921
# 6 0.2934 0.6075 -21.0404 4.4891 1.2921 34.9175
#
#
#
# Elastic Compliance Matrix: (Units=1/GPa)
#
#
# Indices 1 2 3 4 5 6 
#
# 1 0.013683 -0.001399 -0.003175 -0.004276 -0.000219 -0.001446
# 2 -0.001399 0.010062 -0.003512 -0.002737 -0.002342 -0.001841
# 3 -0.003175 -0.003512 0.014365 -0.006418 0.002643 0.009471
# 4 -0.004276 -0.002737 -0.006418 0.041843 0.006258 -0.009395
# 5 -0.000219 -0.002342 0.002643 0.006258 0.038703 -0.000602
# 6 -0.001446 -0.001841 0.009471 -0.009395 -0.000602 0.035620
#
#
# Mechanical properties :
#
#
# Convention : Reuss Voigt Hill
#
# Bulk Modulus (GPa) = 45.58399 59.83151 52.70775
# Shear Modulus (GPa) = 28.12745 33.38167 30.75456
#
# Velocity S-wave (km/s) = 3.66267 3.99012 3.82989
# Velocity P-wave (km/s) = 6.29505 7.05437 6.68550
#
# Compressibility (1/GPa) = 0.02193753
#
# Stress axis : x y z
#
# Youngs Moduli (GPa) = 73.08424 99.37962 69.61363
#
# Poissons Ratio (x) = 0.13904 0.22102
# Poissons Ratio (y) = 0.10225 0.24450
# Poissons Ratio (z) = 0.23204 0.34905
#
# Static dielectric constant tensor:
#      x y z
#    x 3.792250 -0.065990 -0.173450 
#    y -0.065990 3.869860 -0.012720 
#    z -0.173450 -0.012720 4.164300 
# 
# 
# High freq. dielectric constant tensor:
#      x y z
#    x 1.815250 0.000060 -0.008650 
#    y 0.000060 1.832570 0.005890 
#    z -0.008650 0.005890 1.834870 
# 
# From -- ./inp_files/68471.got.cif
#   From: 2010.06.25/outbox.cif.g09.slc.cpg/sg2_35_cif.got.tgz:68471.got - 2010.06.27 13:26:56.
