data_PCOD8023799
_publ_section_title
;
Structure prediction by ZEFSAII (Michael W. Deem and Ramdas Pophale) SiO2 
 PCOD8023799
Probable space group: P -1
;
_chemical_formula_sum "Si O2"
_cell_formula_units_Z 16
_cell_length_a 9.044050
_cell_length_b 28.787677
_cell_length_c 9.786054
_cell_angle_alpha 142.448148
_cell_angle_beta 109.727840
_cell_angle_gamma 40.345594
_cell_volume 740.938407
_symmetry_space_group_name_H-M "P -1"
_symmetry_group_IT_number 2
_symmetry_cell_setting 'triclinic'
loop_
_space_group_symop_operation_xyz
x,y,z
-x,-y,-z
loop_
_atom_site_type_symbol
_atom_site_label
_atom_site_fract_x
_atom_site_fract_y
_atom_site_fract_z
Si Si1 0.373060 0.498726 0.337361
Si Si2 0.793270 0.067042 0.295805
Si Si3 0.765871 0.751104 0.111766
Si Si4 0.547661 0.706785 0.075384
Si Si5 0.080072 0.070660 0.722413
Si Si6 0.158913 0.043532 0.217015
Si Si7 0.257337 0.640338 0.149159
Si Si8 0.818690 0.801006 0.957413
O O1 0.500000 0.500000 0.500000
O O2 0.016991 0.673851 0.606429
O O3 0.340320 0.425393 0.201578
O O4 0.573754 0.417321 0.075190
O O5 0.477799 0.239338 0.658868
O O6 0.043164 0.028617 0.252794
O O7 0.928244 0.947846 0.164082
O O8 0.720497 0.049110 0.096381
O O9 0.779600 0.654591 0.923259
O O10 0.969147 0.705324 0.186436
O O11 0.409104 0.921746 0.408945
O O12 0.880204 0.727185 0.942647
O O13 0.187153 0.865978 0.287620
O O14 0.012489 0.188149 0.951186
O O15 0.884532 0.219910 0.514366
O O16 0.457122 0.961215 0.182539
O O17 0.500000 0.500000 0.000000
#
# Coordination Sequence:
#
# PCOD8023799 Si02
#       8
#     2   2   2   2   2   2   2   2
#     4  12  25  45  67  99 142 180 220 282 347 400
#     4  10  23  42  66 100 133 178 224 280 342 395
#     4  11  23  42  69 103 132 177 232 281 339 405
#     4  11  22  43  68 103 141 172 225 290 344 400
#     4  11  21  38  73 100 137 170 226 292 338 395
#     4  11  24  46  70  96 135 181 234 275 332 418
#     4  12  27  47  69  99 145 185 222 280 347 409
#     4  12  24  41  72 102 130 177 235 280 335 406
#
# _framework density 21.594237
#
# number of rings (size 3 to 8) (size 9 to 14) (size 15 to 20)
#    0.000    0.750    5.000    3.375    1.750    3.000 
#    4.500    1.250    0.000    0.000    0.000    0.000 
#    0.000    0.000    0.000    0.000    0.000    0.000 
#
# Total GULP energy -198313.628515 kJ/mol
# GULP energy per Si atom -12394.601782 kJ/mol
# Density = 2.154509 g / cm^3
# Si number density = 21.594237 Si / 1000 Ang^3
#
#
#
# Elastic Constant Matrix: (Units=GPa)
#
#
# Indices 1 2 3 4 5 6 
#
# 1 141.9419 25.6601 38.3271 -3.6825 20.5583 14.9635
# 2 25.6601 55.3909 22.2108 1.7106 7.6439 0.7378
# 3 38.3271 22.2108 108.4040 4.5927 18.3361 8.3982
# 4 -3.6825 1.7106 4.5927 29.6743 -2.6575 -2.2209
# 5 20.5583 7.6439 18.3361 -2.6575 29.4396 4.9333
# 6 14.9635 0.7378 8.3982 -2.2209 4.9333 33.9662
#
#
#
# Elastic Compliance Matrix: (Units=1/GPa)
#
#
# Indices 1 2 3 4 5 6 
#
# 1 0.008915 -0.002899 -0.001734 0.000988 -0.003832 -0.002815
# 2 -0.002899 0.020883 -0.003019 -0.001135 -0.001917 0.001774
# 3 -0.001734 -0.003019 0.011543 -0.002398 -0.005172 -0.001430
# 4 0.000988 -0.001135 -0.002398 0.034750 0.003919 0.001885
# 5 -0.003832 -0.001917 -0.005172 0.003919 0.041172 -0.002715
# 6 -0.002815 0.001774 -0.001430 0.001885 -0.002715 0.031514
#
#
# Mechanical properties :
#
#
# Convention : Reuss Voigt Hill
#
# Bulk Modulus (GPa) = 38.40445 53.12585 45.76515
# Shear Modulus (GPa) = 28.94211 33.25195 31.09703
#
# Velocity S-wave (km/s) = 3.66494 3.92835 3.79893
# Velocity P-wave (km/s) = 5.97765 6.72542 6.36253
#
# Compressibility (1/GPa) = 0.02603865
#
# Stress axis : x y z
#
# Youngs Moduli (GPa) = 112.17522 47.88606 86.62949
#
# Poissons Ratio (x) = 0.13881 0.15017
# Poissons Ratio (y) = 0.32518 0.26152
# Poissons Ratio (z) = 0.19446 0.14456
#
# Static dielectric constant tensor:
#      x y z
#    x 4.382590 0.111250 0.064370 
#    y 0.111250 3.714810 0.039430 
#    z 0.064370 0.039430 3.998660 
# 
# 
# High freq. dielectric constant tensor:
#      x y z
#    x 1.874370 0.005810 0.004000 
#    y 0.005810 1.823330 0.000460 
#    z 0.004000 0.000460 1.851780 
# 
# From -- ./inp_files/227703.got.cif
#   From: 2010.06.25/outbox.cif.g09.slc.cpg/sg2_114_cif.got.tgz:227703.got - 2010.06.27 13:26:56.
