data_PCOD8023406
_publ_section_title
;
Structure prediction by ZEFSAII (Michael W. Deem and Ramdas Pophale) SiO2 
 PCOD8023406
Probable space group: P -1
;
_chemical_formula_sum "Si O2"
_cell_formula_units_Z 14
_cell_length_a 12.032847
_cell_length_b 18.821803
_cell_length_c 8.845497
_cell_angle_alpha 132.019998
_cell_angle_beta 139.479861
_cell_angle_gamma 27.486608
_cell_volume 600.655753
_symmetry_space_group_name_H-M "P -1"
_symmetry_group_IT_number 2
_symmetry_cell_setting 'triclinic'
loop_
_space_group_symop_operation_xyz
x,y,z
-x,-y,-z
loop_
_atom_site_type_symbol
_atom_site_label
_atom_site_fract_x
_atom_site_fract_y
_atom_site_fract_z
Si Si1 0.236044 0.524897 0.111439
Si Si2 0.241666 0.150217 0.848713
Si Si3 0.182152 0.212011 0.525663
Si Si4 0.451755 0.782780 0.135599
Si Si5 0.388385 0.473497 0.540563
Si Si6 0.099226 0.851224 0.365263
Si Si7 0.978278 0.902099 0.985864
O O1 0.311475 0.506344 0.335077
O O2 0.420029 0.520519 0.203194
O O3 0.906345 0.692778 0.998813
O O4 0.311743 0.385604 0.936847
O O5 0.299632 0.147655 0.728007
O O6 0.011293 0.166881 0.638419
O O7 0.500000 0.000000 0.000000
O O8 0.394256 0.185866 0.613263
O O9 0.150960 0.122021 0.290588
O O10 0.893405 0.394423 0.470822
O O11 0.208227 0.920015 0.963274
O O12 0.295878 0.793418 0.122487
O O13 0.566945 0.299846 0.512809
O O14 0.000000 0.000000 0.500000
O O15 0.970780 0.867865 0.099888
#
# Coordination Sequence:
#
# PCOD8023406 Si02
#       7
#     2   2   2   2   2   2   2
#     4   9  18  38  64  93 127 173 214 262 320 385
#     4  10  23  41  66  98 130 166 219 276 316 375
#     4  11  23  43  69  93 130 173 215 269 322 385
#     4  11  23  39  69  93 126 176 219 254 326 393
#     4   9  19  37  64  92 128 168 215 266 320 377
#     4  11  24  41  66  95 129 171 213 270 330 379
#     4  11  25  42  66  94 132 173 214 269 320 391
#
# _framework density 23.307860000000002
#
# number of rings (size 3 to 8) (size 9 to 14) (size 15 to 20)
#    0.000    1.714    1.429    3.000    4.000    4.000 
#    0.000    0.714    0.000    0.000    0.000    0.000 
#    0.000    0.000    0.000    0.000    0.000    0.000 
#
# Total GULP energy -173445.467033 kJ/mol
# GULP energy per Si atom -12388.961931 kJ/mol
# Density = 2.325481 g / cm^3
# Si number density = 23.307860 Si / 1000 Ang^3
#
#
#
# Elastic Constant Matrix: (Units=GPa)
#
#
# Indices 1 2 3 4 5 6 
#
# 1 54.2175 -0.1814 37.9395 22.1149 22.3395 2.2608
# 2 -0.1814 201.6950 39.2065 4.6971 1.7538 -8.6834
# 3 37.9395 39.2065 71.3418 -1.1200 17.9949 -7.3403
# 4 22.1149 4.6971 -1.1200 30.8704 3.6947 0.3880
# 5 22.3395 1.7538 17.9949 3.6947 21.5061 1.2771
# 6 2.2608 -8.6834 -7.3403 0.3880 1.2771 22.5094
#
#
#
# Elastic Compliance Matrix: (Units=1/GPa)
#
#
# Indices 1 2 3 4 5 6 
#
# 1 0.116993 0.012821 -0.057749 -0.080512 -0.059179 -0.020892
# 2 0.012821 0.007150 -0.010160 -0.010197 -0.003561 -0.001465
# 3 -0.057749 -0.010160 0.050086 0.043268 0.010472 0.016874
# 4 -0.080512 -0.010197 0.043268 0.089168 0.032056 0.014907
# 5 -0.059179 -0.003561 0.010472 0.032056 0.093867 0.002107
# 6 -0.020892 -0.001465 0.016874 0.014907 0.002107 0.051085
#
#
# Mechanical properties :
#
#
# Convention : Reuss Voigt Hill
#
# Bulk Modulus (GPa) = 15.61231 53.46483 34.53857
# Shear Modulus (GPa) = 9.26138 31.66315 20.46227
#
# Velocity S-wave (km/s) = 1.99553 3.68975 2.96617
# Velocity P-wave (km/s) = 3.46733 6.41410 5.15573
#
# Compressibility (1/GPa) = 0.06405203
#
# Stress axis : x y z
#
# Youngs Moduli (GPa) = 8.54750 139.86336 19.96580
#
# Poissons Ratio (x) = -1.79318 1.15301
# Poissons Ratio (y) = -0.10959 0.20285
# Poissons Ratio (z) = 0.49361 1.42102
#
# Static dielectric constant tensor:
#      x y z
#    x 4.211550 -0.133640 0.142190 
#    y -0.133640 4.914690 -0.161420 
#    z 0.142190 -0.161420 3.750030 
# 
# 
# High freq. dielectric constant tensor:
#      x y z
#    x 1.906070 -0.007750 0.015250 
#    y -0.007750 1.954480 -0.004590 
#    z 0.015250 -0.004590 1.882770 
# 
# From -- ./inp_files/279993.got.cif
#   From: 2010.06.25/outbox.cif.g09.slc.cpg/sg2_140_cif.got.tgz:279993.got - 2010.06.27 13:26:56.
