data_PCOD8023349
_publ_section_title
;
Structure prediction by ZEFSAII (Michael W. Deem and Ramdas Pophale) SiO2 
 PCOD8023349
Probable space group: P -1
;
_chemical_formula_sum "Si O2"
_cell_formula_units_Z 14
_cell_length_a 13.742894
_cell_length_b 11.520145
_cell_length_c 11.263675
_cell_angle_alpha 51.432277
_cell_angle_beta 147.028285
_cell_angle_gamma 137.942962
_cell_volume 650.106922
_symmetry_space_group_name_H-M "P -1"
_symmetry_group_IT_number 2
_symmetry_cell_setting 'triclinic'
loop_
_space_group_symop_operation_xyz
x,y,z
-x,-y,-z
loop_
_atom_site_type_symbol
_atom_site_label
_atom_site_fract_x
_atom_site_fract_y
_atom_site_fract_z
Si Si1 0.735895 0.102592 0.998717
Si Si2 0.448118 0.608386 0.759479
Si Si3 0.803272 0.694278 0.698041
Si Si4 0.106023 0.198212 0.012978
Si Si5 0.526232 0.701353 0.036231
Si Si6 0.580592 0.326355 0.799961
Si Si7 0.307517 0.827475 0.359225
O O1 0.612396 0.164567 0.916083
O O2 0.692458 0.134194 0.801693
O O3 0.670416 0.904775 0.078614
O O4 0.979197 0.215955 0.205665
O O5 0.405956 0.664742 0.810156
O O6 0.349016 0.670300 0.518706
O O7 0.698149 0.692618 0.943122
O O8 0.345371 0.400228 0.777606
O O9 0.733739 0.492937 0.771305
O O10 0.653524 0.726482 0.440354
O O11 0.817142 0.776713 0.788373
O O12 0.920614 0.238385 0.776650
O O13 0.000000 0.000000 0.000000
O O14 0.375804 0.622765 0.047795
O O15 0.500000 0.000000 0.500000
#
# Coordination Sequence:
#
# PCOD8023349 Si02
#       7
#     2   2   2   2   2   2   2
#     4  11  23  42  66  96 126 166 217 266 309 384
#     4  11  22  43  62  92 137 164 209 269 318 377
#     4  10  23  41  65  99 122 167 221 255 319 379
#     4  11  20  37  68  97 124 161 217 268 306 373
#     4  11  24  42  64  93 134 171 204 267 328 368
#     4  11  23  42  67  91 132 171 210 261 322 379
#     4  11  21  38  68  97 120 167 221 254 315 377
#
# _framework density 21.534918999999999
#
# number of rings (size 3 to 8) (size 9 to 14) (size 15 to 20)
#    0.000    1.143    4.286    2.571    2.000    0.571 
#    0.000    5.714    0.000    0.000    0.000    0.000 
#    0.000    0.000    0.000    0.000    0.000    0.000 
#
# Total GULP energy -173542.471817 kJ/mol
# GULP energy per Si atom -12395.890844 kJ/mol
# Density = 2.148590 g / cm^3
# Si number density = 21.534919 Si / 1000 Ang^3
#
#
#
# Elastic Constant Matrix: (Units=GPa)
#
#
# Indices 1 2 3 4 5 6 
#
# 1 97.0103 28.1764 40.3135 -4.3367 6.3864 -8.4828
# 2 28.1764 125.8537 44.9104 -21.9562 11.9075 -18.1439
# 3 40.3135 44.9104 84.0387 -3.0291 18.1345 3.0508
# 4 -4.3367 -21.9562 -3.0291 30.8970 -2.4182 -2.7122
# 5 6.3864 11.9075 18.1345 -2.4182 26.8244 0.2298
# 6 -8.4828 -18.1439 3.0508 -2.7122 0.2298 33.5484
#
#
#
# Elastic Compliance Matrix: (Units=1/GPa)
#
#
# Indices 1 2 3 4 5 6 
#
# 1 0.013527 0.000324 -0.007090 0.001942 0.001566 0.004387
# 2 0.000324 0.013432 -0.007228 0.009625 -0.000361 0.008784
# 3 -0.007090 -0.007228 0.021415 -0.005520 -0.010010 -0.008027
# 4 0.001942 0.009625 -0.005520 0.039960 0.002518 0.009412
# 5 0.001566 -0.000361 -0.010010 0.002518 0.044053 0.001013
# 6 0.004387 0.008784 -0.008027 0.009412 0.001013 0.037152
#
#
# Mechanical properties :
#
#
# Convention : Reuss Voigt Hill
#
# Bulk Modulus (GPa) = 49.04676 59.30035 54.17355
# Shear Modulus (GPa) = 24.47129 31.15411 27.81270
#
# Velocity S-wave (km/s) = 3.37464 3.80765 3.59767
# Velocity P-wave (km/s) = 6.16516 6.85037 6.51678
#
# Compressibility (1/GPa) = 0.02038871
#
# Stress axis : x y z
#
# Youngs Moduli (GPa) = 73.92390 74.44899 46.69587
#
# Poissons Ratio (x) = -0.02415 0.33106
# Poissons Ratio (y) = -0.02398 0.33751
# Poissons Ratio (z) = 0.52409 0.53810
#
# Static dielectric constant tensor:
#      x y z
#    x 5.779960 3.217070 3.425940 
#    y 3.217070 10.717850 6.637030 
#    z 3.425940 6.637030 10.809160 
# 
# 
# High freq. dielectric constant tensor:
#      x y z
#    x 1.845510 -0.011420 -0.008050 
#    y -0.011420 1.855650 -0.009280 
#    z -0.008050 -0.009280 1.830020 
# 
# From -- ./inp_files/451182.got.cif
#   From: 2010.06.25/outbox.cif.g09.slc.cpg/sg2_226_cif.got.tgz:451182.got - 2010.06.27 13:26:56.
