data_PCOD8023102
_publ_section_title
;
Structure prediction by ZEFSAII (Michael W. Deem and Ramdas Pophale) SiO2 
 PCOD8023102
Probable space group: P -1
;
_chemical_formula_sum "Si O2"
_cell_formula_units_Z 16
_cell_length_a 16.387561
_cell_length_b 12.521363
_cell_length_c 16.140455
_cell_angle_alpha 55.667707
_cell_angle_beta 153.758905
_cell_angle_gamma 142.733152
_cell_volume 734.895421
_symmetry_space_group_name_H-M "P -1"
_symmetry_group_IT_number 2
_symmetry_cell_setting 'triclinic'
loop_
_space_group_symop_operation_xyz
x,y,z
-x,-y,-z
loop_
_atom_site_type_symbol
_atom_site_label
_atom_site_fract_x
_atom_site_fract_y
_atom_site_fract_z
Si Si1 0.735284 0.970336 0.118449
Si Si2 0.868868 0.908685 0.718840
Si Si3 0.315614 0.412511 0.201083
Si Si4 0.222662 0.539963 0.911732
Si Si5 0.953859 0.665946 0.634285
Si Si6 0.155496 0.328783 0.789430
Si Si7 0.261381 0.883125 0.653856
Si Si8 0.354200 0.665150 0.245533
O O1 0.578062 0.781015 0.121985
O O2 0.467366 0.869985 0.857452
O O3 0.987563 0.039912 0.263461
O O4 0.870325 0.168063 0.202910
O O5 0.918261 0.820367 0.868187
O O6 0.508095 0.730106 0.448298
O O7 0.028637 0.125986 0.804088
O O8 0.597066 0.485586 0.394650
O O9 0.413811 0.567956 0.292097
O O10 0.167615 0.404128 0.992834
O O11 0.118307 0.420686 0.782259
O O12 0.018515 0.549355 0.744776
O O13 0.055120 0.789265 0.587502
O O14 0.949925 0.254974 0.557216
O O15 0.500000 0.500000 0.000000
O O16 0.481356 0.127437 0.741902
O O17 0.000000 0.500000 0.000000
#
# Coordination Sequence:
#
# PCOD8023102 Si02
#       8
#     2   2   2   2   2   2   2   2
#     4  11  21  43  67 103 136 169 228 278 336 403
#     4  11  25  42  68 102 133 179 226 275 332 410
#     4  12  25  40  68 100 142 175 218 277 350 395
#     4  11  25  43  68  96 136 182 223 281 330 394
#     4  11  24  41  68 107 139 170 223 279 345 405
#     4  11  23  47  69  94 132 178 240 275 325 394
#     4  10  23  40  68 104 129 180 227 278 331 400
#     4  11  23  40  71  98 140 179 219 275 349 403
#
# _framework density 21.771805000000001
#
# number of rings (size 3 to 8) (size 9 to 14) (size 15 to 20)
#    0.000    1.000    2.500    4.875    5.250    3.500 
#    2.250    0.625    0.000    0.000    0.000    0.000 
#    0.000    0.000    0.000    0.000    0.000    0.000 
#
# Total GULP energy -198430.840036 kJ/mol
# GULP energy per Si atom -12401.927502 kJ/mol
# Density = 2.172225 g / cm^3
# Si number density = 21.771805 Si / 1000 Ang^3
#
#
#
# Elastic Constant Matrix: (Units=GPa)
#
#
# Indices 1 2 3 4 5 6 
#
# 1 90.1059 41.1070 30.1752 -1.1711 9.1332 -17.8331
# 2 41.1070 111.4371 37.6885 -9.2547 -8.4556 -1.1918
# 3 30.1752 37.6885 79.6162 1.8707 1.2365 -7.1745
# 4 -1.1711 -9.2547 1.8707 29.9906 1.8768 -8.3177
# 5 9.1332 -8.4556 1.2365 1.8768 34.2041 -0.8008
# 6 -17.8331 -1.1918 -7.1745 -8.3177 -0.8008 43.9108
#
#
#
# Elastic Compliance Matrix: (Units=1/GPa)
#
#
# Indices 1 2 3 4 5 6 
#
# 1 0.016288 -0.005202 -0.003106 0.001259 -0.005449 0.006105
# 2 -0.005202 0.013015 -0.004499 0.003315 0.004545 -0.001784
# 3 -0.003106 -0.004499 0.016002 -0.002243 -0.000720 0.000793
# 4 0.001259 0.003315 -0.002243 0.036618 -0.001278 0.007148
# 5 -0.005449 0.004545 -0.000720 -0.001278 0.031867 -0.001868
# 6 0.006105 -0.001784 0.000793 0.007148 -0.001868 0.026654
#
#
# Mechanical properties :
#
#
# Convention : Reuss Voigt Hill
#
# Bulk Modulus (GPa) = 50.77891 55.45562 53.11727
# Shear Modulus (GPa) = 28.96504 33.10032 31.03268
#
# Velocity S-wave (km/s) = 3.65141 3.90337 3.77949
# Velocity P-wave (km/s) = 6.41490 6.77065 6.59517
#
# Compressibility (1/GPa) = 0.01969321
#
# Stress axis : x y z
#
# Youngs Moduli (GPa) = 61.39415 76.83410 62.49080
#
# Poissons Ratio (x) = 0.39966 0.19408
# Poissons Ratio (y) = 0.31935 0.28113
# Poissons Ratio (z) = 0.19068 0.34566
#
# Static dielectric constant tensor:
#      x y z
#    x 3.926160 0.110040 0.056290 
#    y 0.110040 4.208620 -0.070660 
#    z 0.056290 -0.070660 3.878290 
# 
# 
# High freq. dielectric constant tensor:
#      x y z
#    x 1.851190 0.002570 0.007970 
#    y 0.002570 1.868910 -0.008820 
#    z 0.007970 -0.008820 1.849270 
# 
# From -- ./inp_files/532505.got.cif
#   From: 2010.06.25/outbox.cif.g09.slc.cpg/sg2_267_cif.got.tgz:532505.got - 2010.06.27 13:26:56.
