data_PCOD8023757
_publ_section_title
;
Structure prediction by ZEFSAII (Michael W. Deem and Ramdas Pophale) SiO2 
 PCOD8023757
Probable space group: P -1
;
_chemical_formula_sum "Si O2"
_cell_formula_units_Z 14
_cell_length_a 9.015700
_cell_length_b 7.810670
_cell_length_c 20.389787
_cell_angle_alpha 113.486429
_cell_angle_beta 150.254252
_cell_angle_gamma 77.008794
_cell_volume 629.759464
_symmetry_space_group_name_H-M "P -1"
_symmetry_group_IT_number 2
_symmetry_cell_setting 'triclinic'
loop_
_space_group_symop_operation_xyz
x,y,z
-x,-y,-z
loop_
_atom_site_type_symbol
_atom_site_label
_atom_site_fract_x
_atom_site_fract_y
_atom_site_fract_z
Si Si1 0.337839 0.761675 0.214252
Si Si2 0.361043 0.477766 0.871685
Si Si3 0.714485 0.655821 0.905909
Si Si4 0.840434 0.629485 0.645983
Si Si5 0.441935 0.036192 0.407566
Si Si6 0.119569 0.679934 0.622477
Si Si7 0.106477 0.100241 0.644096
O O1 0.271482 0.532430 0.158803
O O2 0.685399 0.861042 0.335808
O O3 0.307364 0.834809 0.287200
O O4 0.060870 0.801723 0.067890
O O5 0.591908 0.598510 0.923936
O O6 0.284712 0.248373 0.790832
O O7 0.059221 0.562155 0.772104
O O8 0.500000 0.500000 0.000000
O O9 0.490467 0.746826 0.789366
O O10 0.500000 0.500000 0.500000
O O11 0.819579 0.848345 0.683640
O O12 0.959632 0.596736 0.615385
O O13 0.770446 0.146020 0.515401
O O14 0.500000 0.000000 0.500000
O O15 0.000000 0.500000 0.500000
O O16 0.029056 0.873002 0.596573
#
# Coordination Sequence:
#
# PCOD8023757 Si02
#       7
#     2   2   2   2   2   2   2
#     4  10  23  42  65  91 132 178 217 272 326 400
#     4  10  23  43  69  94 135 175 218 280 332 392
#     4   9  22  43  65  94 130 175 223 263 335 394
#     4  11  24  42  63  99 131 167 222 269 333 390
#     4  12  24  40  67  99 132 174 222 276 330 392
#     4  11  24  42  67  96 132 171 220 278 326 400
#     4  11  23  42  64  96 131 173 225 264 338 389
#
# _framework density 22.230709000000001
#
# number of rings (size 3 to 8) (size 9 to 14) (size 15 to 20)
#    0.000    1.429    2.857    1.286    4.000    1.714 
#    5.143    2.857    0.000    0.000    0.000    0.000 
#    0.000    0.000    0.000    0.000    0.000    0.000 
#
# Total GULP energy -173510.122109 kJ/mol
# GULP energy per Si atom -12393.580151 kJ/mol
# Density = 2.218011 g / cm^3
# Si number density = 22.230709 Si / 1000 Ang^3
#
#
#
# Elastic Constant Matrix: (Units=GPa)
#
#
# Indices 1 2 3 4 5 6 
#
# 1 86.4327 38.1618 57.2485 -3.3681 -15.7752 -25.3977
# 2 38.1618 103.5763 39.0373 -12.7629 -17.6679 -16.9472
# 3 57.2485 39.0373 100.8544 -18.4220 -5.9147 -14.6909
# 4 -3.3681 -12.7629 -18.4220 40.5030 -7.0646 2.5610
# 5 -15.7752 -17.6679 -5.9147 -7.0646 48.1564 4.1118
# 6 -25.3977 -16.9472 -14.6909 2.5610 4.1118 31.0081
#
#
#
# Elastic Compliance Matrix: (Units=1/GPa)
#
#
# Indices 1 2 3 4 5 6 
#
# 1 0.024957 -0.002369 -0.011829 -0.004180 0.004101 0.013344
# 2 -0.002369 0.013039 -0.002395 0.003300 0.003919 0.003259
# 3 -0.011829 -0.002395 0.018275 0.006514 -0.001323 -0.002701
# 4 -0.004180 0.003300 0.006514 0.029335 0.005084 -0.001631
# 5 0.004101 0.003919 -0.001323 0.005084 0.024022 0.001269
# 6 0.013344 0.003259 -0.002701 -0.001631 0.001269 0.043647
#
#
# Mechanical properties :
#
#
# Convention : Reuss Voigt Hill
#
# Bulk Modulus (GPa) = 43.31653 62.19539 52.75596
# Shear Modulus (GPa) = 25.75270 34.36123 30.05697
#
# Velocity S-wave (km/s) = 3.40726 3.93576 3.68101
# Velocity P-wave (km/s) = 5.91663 6.97794 6.46909
#
# Compressibility (1/GPa) = 0.02308587
#
# Stress axis : x y z
#
# Youngs Moduli (GPa) = 40.06883 76.69577 54.71863
#
# Poissons Ratio (x) = 0.18171 0.64725
# Poissons Ratio (y) = 0.09493 0.13103
# Poissons Ratio (z) = 0.47396 0.18366
#
# Static dielectric constant tensor:
#      x y z
#    x 4.190750 -0.846870 0.371100 
#    y -0.846870 4.982710 -0.567790 
#    z 0.371100 -0.567790 4.428730 
# 
# 
# High freq. dielectric constant tensor:
#      x y z
#    x 1.871960 -0.029370 0.006680 
#    y -0.029370 1.867260 -0.003900 
#    z 0.006680 -0.003900 1.885470 
# 
# From -- ./inp_files/184889.got.cif
#   From: 2010.06.25/outbox.cif.g09.slc.cpg/sg2_93_cif.got.tgz:184889.got - 2010.06.27 13:26:56.
