data_PCOD8023815
_publ_section_title
;
Structure prediction by ZEFSAII (Michael W. Deem and Ramdas Pophale) SiO2 
 PCOD8023815
Probable space group: P -1
;
_chemical_formula_sum "Si O2"
_cell_formula_units_Z 14
_cell_length_a 9.229133
_cell_length_b 9.201472
_cell_length_c 11.502418
_cell_angle_alpha 63.910118
_cell_angle_beta 111.461590
_cell_angle_gamma 133.070404
_cell_volume 637.654003
_symmetry_space_group_name_H-M "P -1"
_symmetry_group_IT_number 2
_symmetry_cell_setting 'triclinic'
loop_
_space_group_symop_operation_xyz
x,y,z
-x,-y,-z
loop_
_atom_site_type_symbol
_atom_site_label
_atom_site_fract_x
_atom_site_fract_y
_atom_site_fract_z
Si Si1 0.913211 0.556278 0.055047
Si Si2 0.638116 0.649225 0.884989
Si Si3 0.431645 0.833207 0.770786
Si Si4 0.441752 0.320499 0.392871
Si Si5 0.774666 0.269937 0.725395
Si Si6 0.193821 0.370425 0.462058
Si Si7 0.772529 0.146053 0.510385
O O1 0.721422 0.331576 0.121358
O O2 0.069228 0.706917 0.147558
O O3 0.849313 0.694456 0.942469
O O4 0.000000 0.500000 0.000000
O O5 0.624904 0.836908 0.817631
O O6 0.565202 0.566861 0.761292
O O7 0.500000 0.500000 0.000000
O O8 0.308194 0.775345 0.634827
O O9 0.544293 0.071862 0.757357
O O10 0.281295 0.269813 0.460462
O O11 0.667118 0.484086 0.442294
O O12 0.395952 0.100697 0.433653
O O13 0.802887 0.479274 0.681191
O O14 0.823724 0.261558 0.608016
O O15 0.972906 0.191349 0.505930
#
# Coordination Sequence:
#
# PCOD8023815 Si02
#       7
#     2   2   2   2   2   2   2
#     4  11  26  46  67  94 137 179 221 268 324 400
#     4  10  23  42  66  90 133 175 215 271 319 383
#     4  11  23  43  69  99 132 168 221 279 330 384
#     4  11  23  44  63  98 139 168 219 277 335 389
#     4  12  23  40  71  98 127 175 220 271 334 394
#     4  11  24  38  68 100 133 174 214 273 348 387
#     4  12  23  40  72  99 132 166 224 282 329 393
#
# _framework density 21.955482
#
# number of rings (size 3 to 8) (size 9 to 14) (size 15 to 20)
#    0.000    0.857    4.286    3.000    4.000    1.143 
#    0.000    0.000    0.000    0.000    0.000    0.000 
#    0.000    0.000    0.000    0.000    0.000    0.000 
#
# Total GULP energy -173457.189090 kJ/mol
# GULP energy per Si atom -12389.799221 kJ/mol
# Density = 2.190551 g / cm^3
# Si number density = 21.955482 Si / 1000 Ang^3
#
#
#
# Elastic Constant Matrix: (Units=GPa)
#
#
# Indices 1 2 3 4 5 6 
#
# 1 105.6417 17.9296 39.8550 7.4607 5.6339 5.2049
# 2 17.9296 58.1563 20.6048 4.8758 -4.9297 7.6801
# 3 39.8550 20.6048 144.5808 13.7980 16.8359 2.0117
# 4 7.4607 4.8758 13.7980 28.2520 7.3991 0.5194
# 5 5.6339 -4.9297 16.8359 7.3991 37.4942 -2.7181
# 6 5.2049 7.6801 2.0117 0.5194 -2.7181 37.1958
#
#
#
# Elastic Compliance Matrix: (Units=1/GPa)
#
#
# Indices 1 2 3 4 5 6 
#
# 1 0.010963 -0.002340 -0.002492 -0.001075 -0.000693 -0.000952
# 2 -0.002340 0.019782 -0.002373 -0.002707 0.004315 -0.003276
# 3 -0.002492 -0.002373 0.008539 -0.002237 -0.003318 0.000166
# 4 -0.001075 -0.002707 -0.002237 0.039054 -0.006913 -0.000220
# 5 -0.000693 0.004315 -0.003318 -0.006913 0.030319 0.001698
# 6 -0.000952 -0.003276 0.000166 -0.000220 0.001698 0.027812
#
#
# Mechanical properties :
#
#
# Convention : Reuss Voigt Hill
#
# Bulk Modulus (GPa) = 40.20049 51.68416 45.94233
# Shear Modulus (GPa) = 31.41266 35.92105 33.66685
#
# Velocity S-wave (km/s) = 3.78662 4.04924 3.92013
# Velocity P-wave (km/s) = 6.12109 6.74191 6.43899
#
# Compressibility (1/GPa) = 0.02487532
#
# Stress axis : x y z
#
# Youngs Moduli (GPa) = 91.21566 50.54996 117.10629
#
# Poissons Ratio (x) = 0.11828 0.29184
# Poissons Ratio (y) = 0.21343 0.27787
# Poissons Ratio (z) = 0.22732 0.11994
#
# Static dielectric constant tensor:
#      x y z
#    x 4.184630 0.003020 0.325540 
#    y 0.003020 3.770550 -0.057840 
#    z 0.325540 -0.057840 4.369060 
# 
# 
# High freq. dielectric constant tensor:
#      x y z
#    x 1.872940 0.002980 0.010450 
#    y 0.002980 1.841310 0.000460 
#    z 0.010450 0.000460 1.878990 
# 
# From -- ./inp_files/175806.got.cif
#   From: 2010.06.25/outbox.cif.g09.slc.cpg/sg2_88_cif.got.tgz:175806.got - 2010.06.27 13:26:56.
