data_PCOD8023667
_publ_section_title
;
Structure prediction by ZEFSAII (Michael W. Deem and Ramdas Pophale) SiO2 
 PCOD8023667
Probable space group: P -1
;
_chemical_formula_sum "Si O2"
_cell_formula_units_Z 14
_cell_length_a 12.218436
_cell_length_b 9.646004
_cell_length_c 9.645893
_cell_angle_alpha 98.067563
_cell_angle_beta 73.487056
_cell_angle_gamma 141.132528
_cell_volume 677.756059
_symmetry_space_group_name_H-M "P -1"
_symmetry_group_IT_number 2
_symmetry_cell_setting 'triclinic'
loop_
_space_group_symop_operation_xyz
x,y,z
-x,-y,-z
loop_
_atom_site_type_symbol
_atom_site_label
_atom_site_fract_x
_atom_site_fract_y
_atom_site_fract_z
Si Si1 0.420404 0.273848 0.541623
Si Si2 0.420801 0.766341 0.724772
Si Si3 0.483921 0.653987 0.182255
Si Si4 0.911042 0.059798 0.578082
Si Si5 0.900729 0.487390 0.360017
Si Si6 0.614296 0.758204 0.859426
Si Si7 0.732167 0.284118 0.674016
O O1 0.500000 0.500000 0.500000
O O2 0.557619 0.285271 0.441644
O O3 0.390637 0.230743 0.710238
O O4 0.232064 0.052203 0.507760
O O5 0.212514 0.622529 0.760969
O O6 0.450596 0.676120 0.819524
O O7 0.559646 0.024402 0.740700
O O8 0.399608 0.421670 0.158521
O O9 0.319137 0.605639 0.255080
O O10 0.606625 0.810358 0.026262
O O11 0.064245 0.323384 0.565535
O O12 0.809220 0.973322 0.750909
O O13 0.000000 0.000000 0.500000
O O14 0.783620 0.301700 0.497872
O O15 0.092148 0.590832 0.279008
#
# Coordination Sequence:
#
# PCOD8023667 Si02
#       7
#     2   2   2   2   2   2   2
#     4  11  19  37  65  93 116 167 211 254 310 364
#     4  11  21  41  65  91 126 164 215 256 309 373
#     4  11  22  39  66  89 130 164 209 257 320 373
#     4  11  21  37  64  93 123 160 216 259 307 364
#     4  11  22  37  64  95 129 155 212 268 304 368
#     4  10  23  42  62  92 124 171 206 258 317 375
#     4  11  23  38  63  97 127 164 206 266 315 361
#
# _framework density 20.656399
#
# number of rings (size 3 to 8) (size 9 to 14) (size 15 to 20)
#    0.000    1.143    7.143    2.143    0.000    0.571 
#    0.000    1.429    3.143    0.000    0.000    0.000 
#    0.000    0.000    0.000    0.000    0.000    0.000 
#
# Total GULP energy -173514.046719 kJ/mol
# GULP energy per Si atom -12393.860480 kJ/mol
# Density = 2.060938 g / cm^3
# Si number density = 20.656399 Si / 1000 Ang^3
#
#
#
# Elastic Constant Matrix: (Units=GPa)
#
#
# Indices 1 2 3 4 5 6 
#
# 1 138.4492 52.3591 39.9612 -2.9960 8.4306 4.9596
# 2 52.3591 83.3692 18.0541 6.0733 8.8935 8.7207
# 3 39.9612 18.0541 134.2772 -3.0092 10.8996 9.2752
# 4 -2.9960 6.0733 -3.0092 12.1259 0.7228 -0.5704
# 5 8.4306 8.8935 10.8996 0.7228 22.3634 3.7448
# 6 4.9596 8.7207 9.2752 -0.5704 3.7448 31.9845
#
#
#
# Elastic Compliance Matrix: (Units=1/GPa)
#
#
# Indices 1 2 3 4 5 6 
#
# 1 0.010416 -0.006506 -0.002118 0.005389 -0.000639 0.000944
# 2 -0.006506 0.017618 -0.000133 -0.010418 -0.003561 -0.003525
# 3 -0.002118 -0.000133 0.008502 0.001755 -0.003062 -0.001711
# 4 0.005389 -0.010418 0.001755 0.089742 -0.002206 0.003354
# 5 -0.000639 -0.003561 -0.003062 -0.002206 0.048568 -0.003767
# 6 0.000944 -0.003525 -0.001711 0.003354 -0.003767 0.033077
#
#
# Mechanical properties :
#
#
# Convention : Reuss Voigt Hill
#
# Bulk Modulus (GPa) = 52.57443 64.09382 58.33413
# Shear Modulus (GPa) = 21.57236 29.67617 25.62427
#
# Velocity S-wave (km/s) = 3.23513 3.79444 3.52589
# Velocity P-wave (km/s) = 6.28187 7.09175 6.69906
#
# Compressibility (1/GPa) = 0.01902065
#
# Stress axis : x y z
#
# Youngs Moduli (GPa) = 96.00161 56.76146 117.62590
#
# Poissons Ratio (x) = 0.36932 0.24909
# Poissons Ratio (y) = 0.62463 0.01568
# Poissons Ratio (z) = 0.20330 0.00757
#
# Static dielectric constant tensor:
#      x y z
#    x 3.828280 -0.257300 0.295720 
#    y -0.257300 3.467560 0.084390 
#    z 0.295720 0.084390 3.617460 
# 
# 
# High freq. dielectric constant tensor:
#      x y z
#    x 1.828530 -0.013490 0.006200 
#    y -0.013490 1.796910 0.001920 
#    z 0.006200 0.001920 1.779620 
# 
# From -- ./inp_files/244543.got.cif
#   From: 2010.06.25/outbox.cif.g09.slc.cpg/sg2_123_cif.got.tgz:244543.got - 2010.06.27 13:26:56.
