data_PCOD8023849
_publ_section_title
;
Structure prediction by ZEFSAII (Michael W. Deem and Ramdas Pophale) SiO2 
 PCOD8023849
Probable space group: P -1
;
_chemical_formula_sum "Si O2"
_cell_formula_units_Z 14
_cell_length_a 8.367143
_cell_length_b 8.565286
_cell_length_c 19.378320
_cell_angle_alpha 138.273603
_cell_angle_beta 44.115782
_cell_angle_gamma 128.162179
_cell_volume 633.266943
_symmetry_space_group_name_H-M "P -1"
_symmetry_group_IT_number 2
_symmetry_cell_setting 'triclinic'
loop_
_space_group_symop_operation_xyz
x,y,z
-x,-y,-z
loop_
_atom_site_type_symbol
_atom_site_label
_atom_site_fract_x
_atom_site_fract_y
_atom_site_fract_z
Si Si1 0.495698 0.598747 0.768127
Si Si2 0.880302 0.745140 0.803393
Si Si3 0.770492 0.582703 0.932880
Si Si4 0.128348 0.235056 0.691093
Si Si5 0.890165 0.725506 0.586367
Si Si6 0.932199 0.259530 0.985804
Si Si7 0.233280 0.413746 0.568223
O O1 0.683595 0.580674 0.763860
O O2 0.346494 0.342079 0.707950
O O3 0.633593 0.713418 0.695524
O O4 0.316559 0.759906 0.905158
O O5 0.804542 0.732999 0.902197
O O6 0.119329 0.649927 0.687657
O O7 0.917582 0.026450 0.864424
O O8 0.906028 0.360022 0.815230
O O9 0.869154 0.750101 0.021660
O O10 0.500000 0.500000 0.000000
O O11 0.197837 0.259344 0.597374
O O12 0.060383 0.957494 0.638918
O O13 0.874067 0.746958 0.516067
O O14 0.000000 0.500000 0.500000
O O15 0.000000 0.500000 0.000000
O O16 0.500000 0.500000 0.500000
#
# Coordination Sequence:
#
# PCOD8023849 Si02
#       7
#     2   2   2   2   2   2   2
#     4  11  24  43  71 100 134 176 222 276 339 385
#     4  11  24  43  68  99 136 173 226 273 332 404
#     4  10  23  42  66  98 133 174 221 272 338 393
#     4  10  25  44  69 100 135 173 229 273 333 400
#     4  12  25  45  69  99 136 177 225 276 331 398
#     4  11  25  43  69 102 135 175 222 274 339 400
#     4  11  23  46  67  99 135 181 225 276 333 390
#
# _framework density 22.107581
#
# number of rings (size 3 to 8) (size 9 to 14) (size 15 to 20)
#    0.000    1.143    2.857    2.143    6.000    1.714 
#    2.571    0.000    0.000    0.000    0.000    0.000 
#    0.000    0.000    0.000    0.000    0.000    0.000 
#
# Total GULP energy -173616.792165 kJ/mol
# GULP energy per Si atom -12401.199440 kJ/mol
# Density = 2.205726 g / cm^3
# Si number density = 22.107581 Si / 1000 Ang^3
#
#
#
# Elastic Constant Matrix: (Units=GPa)
#
#
# Indices 1 2 3 4 5 6 
#
# 1 126.7341 49.7902 37.8666 1.0286 11.3773 20.6861
# 2 49.7902 143.5030 69.5317 16.8141 -9.6632 21.1141
# 3 37.8666 69.5317 112.6125 -11.7809 -1.0365 12.3432
# 4 1.0286 16.8141 -11.7809 44.4210 7.2747 -3.2512
# 5 11.3773 -9.6632 -1.0365 7.2747 42.1096 -3.8949
# 6 20.6861 21.1141 12.3432 -3.2512 -3.8949 35.0856
#
#
#
# Elastic Compliance Matrix: (Units=1/GPa)
#
#
# Indices 1 2 3 4 5 6 
#
# 1 0.010415 -0.002679 -0.001319 0.000753 -0.004002 -0.004439
# 2 -0.002679 0.013586 -0.007859 -0.008231 0.004693 -0.004073
# 3 -0.001319 -0.007859 0.014848 0.007370 -0.002289 0.000713
# 4 0.000753 -0.008231 0.007370 0.028921 -0.006549 0.003869
# 5 -0.004002 0.004693 -0.002289 -0.006549 0.027236 0.002757
# 6 -0.004439 -0.004073 0.000713 0.003869 0.002757 0.033984
#
#
# Mechanical properties :
#
#
# Convention : Reuss Voigt Hill
#
# Bulk Modulus (GPa) = 66.07775 77.46960 71.77367
# Shear Modulus (GPa) = 31.69601 39.36733 35.53167
#
# Velocity S-wave (km/s) = 3.79055 4.22443 4.01336
# Velocity P-wave (km/s) = 7.00798 7.67545 7.34930
#
# Compressibility (1/GPa) = 0.01513369
#
# Stress axis : x y z
#
# Youngs Moduli (GPa) = 96.01642 73.60636 67.34882
#
# Poissons Ratio (x) = 0.19719 0.08887
# Poissons Ratio (y) = 0.25722 0.52930
# Poissons Ratio (z) = 0.12669 0.57848
#
# Static dielectric constant tensor:
#      x y z
#    x 4.140460 0.094690 0.213230 
#    y 0.094690 3.835830 -0.191850 
#    z 0.213230 -0.191850 4.135610 
# 
# 
# High freq. dielectric constant tensor:
#      x y z
#    x 1.876660 0.011700 0.015890 
#    y 0.011700 1.860560 -0.013350 
#    z 0.015890 -0.013350 1.882820 
# 
# From -- ./inp_files/53139.got.cif
#   From: 2010.06.25/outbox.cif.g09.slc.cpg/sg2_27_cif.got.tgz:53139.got - 2010.06.27 13:26:56.
