data_PCOD8023135
_publ_section_title
;
Structure prediction by ZEFSAII (Michael W. Deem and Ramdas Pophale) SiO2 
 PCOD8023135
Probable space group: P -1
;
_chemical_formula_sum "Si O2"
_cell_formula_units_Z 14
_cell_length_a 10.524701
_cell_length_b 14.647906
_cell_length_c 7.960043
_cell_angle_alpha 108.174965
_cell_angle_beta 60.778281
_cell_angle_gamma 59.570771
_cell_volume 617.996630
_symmetry_space_group_name_H-M "P -1"
_symmetry_group_IT_number 2
_symmetry_cell_setting 'triclinic'
loop_
_space_group_symop_operation_xyz
x,y,z
-x,-y,-z
loop_
_atom_site_type_symbol
_atom_site_label
_atom_site_fract_x
_atom_site_fract_y
_atom_site_fract_z
Si Si1 0.528697 0.973166 0.214541
Si Si2 0.668518 0.598659 0.583946
Si Si3 0.786851 0.964577 0.300606
Si Si4 0.823822 0.727783 0.584633
Si Si5 0.780135 0.344839 0.272459
Si Si6 0.378218 0.460434 0.072758
Si Si7 0.628840 0.249263 0.476874
O O1 0.724706 0.932042 0.161177
O O2 0.409484 0.948444 0.380364
O O3 0.307842 0.161507 0.430275
O O4 0.658873 0.854568 0.910766
O O5 0.825496 0.611265 0.516932
O O6 0.856639 0.412428 0.317047
O O7 0.533726 0.639631 0.869592
O O8 0.490297 0.707239 0.604133
O O9 0.797461 0.071324 0.311700
O O10 0.057035 0.782342 0.059666
O O11 0.092871 0.624246 0.360794
O O12 0.500000 0.500000 0.500000
O O13 0.796492 0.256634 0.360991
O O14 0.500000 0.500000 0.000000
O O15 0.435969 0.365949 0.816974
#
# Coordination Sequence:
#
# PCOD8023135 Si02
#       7
#     2   2   2   2   2   2   2
#     4  10  24  41  68 100 137 187 230 294 346 406
#     4  11  23  45  69 102 141 182 235 287 346 412
#     4  11  22  44  68  99 139 182 240 282 347 424
#     4  11  24  45  68 101 144 181 237 291 347 417
#     4  10  23  40  69 102 140 180 228 291 349 411
#     4  12  26  43  70 105 143 184 231 290 353 414
#     4  11  24  43  70 104 139 188 232 282 358 414
#
# _framework density 22.653845
#
# number of rings (size 3 to 8) (size 9 to 14) (size 15 to 20)
#    0.000    1.143    2.857    2.571    4.000    2.857 
#    0.000    0.000    0.000   10.286    0.000    0.000 
#    0.000    0.000    0.000    0.000    0.000    0.000 
#
# Total GULP energy -173466.621407 kJ/mol
# GULP energy per Si atom -12390.472958 kJ/mol
# Density = 2.260228 g / cm^3
# Si number density = 22.653845 Si / 1000 Ang^3
#
#
#
# Elastic Constant Matrix: (Units=GPa)
#
#
# Indices 1 2 3 4 5 6 
#
# 1 237.8910 75.3320 -47.1881 63.3162 68.8584 37.3103
# 2 75.3320 117.1379 28.5793 11.2346 11.3480 35.2364
# 3 -47.1881 28.5793 179.0635 -25.1765 -46.8505 2.7723
# 4 63.3162 11.2346 -25.1765 64.2234 29.1327 13.3241
# 5 68.8584 11.3480 -46.8505 29.1327 68.7658 0.7955
# 6 37.3103 35.2364 2.7723 13.3241 0.7955 57.6134
#
#
#
# Elastic Compliance Matrix: (Units=1/GPa)
#
#
# Indices 1 2 3 4 5 6 
#
# 1 0.008990 -0.004430 0.000982 -0.004772 -0.005558 -0.001980
# 2 -0.004430 0.013828 -0.003200 0.002368 -0.000961 -0.005969
# 3 0.000982 -0.003200 0.007581 0.000324 0.004563 0.000819
# 4 -0.004772 0.002368 0.000324 0.023066 -0.005122 -0.003637
# 5 -0.005558 -0.000961 0.004563 -0.005122 0.025490 0.004800
# 6 -0.001980 -0.005969 0.000819 -0.003637 0.004800 0.023025
#
#
# Mechanical properties :
#
#
# Convention : Reuss Voigt Hill
#
# Bulk Modulus (GPa) = 58.47018 71.94876 65.20947
# Shear Modulus (GPa) = 41.32993 69.94514 55.63754
#
# Velocity S-wave (km/s) = 4.27595 5.56261 4.96117
# Velocity P-wave (km/s) = 7.08834 8.54903 7.85272
#
# Compressibility (1/GPa) = 0.01710274
#
# Stress axis : x y z
#
# Youngs Moduli (GPa) = 111.22906 72.31707 131.90963
#
# Poissons Ratio (x) = 0.32033 -0.12949
# Poissons Ratio (y) = 0.49270 0.42217
# Poissons Ratio (z) = -0.10919 0.23145
#
# Static dielectric constant tensor:
#      x y z
#    x 4.232130 0.251340 0.207980 
#    y 0.251340 4.570580 -0.030310 
#    z 0.207980 -0.030310 4.114930 
# 
# 
# High freq. dielectric constant tensor:
#      x y z
#    x 1.887000 0.017020 0.006090 
#    y 0.017020 1.904930 -0.002910 
#    z 0.006090 -0.002910 1.895460 
# 
# From -- ./inp_files/154072.got.cif
#   From: 2010.06.25/outbox.cif.g09.slc.cpg/sg2_78_cif.got.tgz:154072.got - 2010.06.27 13:26:56.
