data_PCOD8023303
_publ_section_title
;
Structure prediction by ZEFSAII (Michael W. Deem and Ramdas Pophale) SiO2 
 PCOD8023303
Probable space group: P -1
;
_chemical_formula_sum "Si O2"
_cell_formula_units_Z 16
_cell_length_a 25.855985
_cell_length_b 11.825450
_cell_length_c 5.478669
_cell_angle_alpha 51.554551
_cell_angle_beta 51.093833
_cell_angle_gamma 31.576888
_cell_volume 666.965627
_symmetry_space_group_name_H-M "P -1"
_symmetry_group_IT_number 2
_symmetry_cell_setting 'triclinic'
loop_
_space_group_symop_operation_xyz
x,y,z
-x,-y,-z
loop_
_atom_site_type_symbol
_atom_site_label
_atom_site_fract_x
_atom_site_fract_y
_atom_site_fract_z
Si Si1 0.201424 0.410463 0.108978
Si Si2 0.266853 0.536343 0.411789
Si Si3 0.259446 0.004383 0.466725
Si Si4 0.990868 0.847024 0.278334
Si Si5 0.125385 0.006082 0.063728
Si Si6 0.646967 0.357196 0.664958
Si Si7 0.607195 0.865095 0.747920
Si Si8 0.563876 0.248240 0.390744
O O1 0.204032 0.241766 0.230021
O O2 0.302591 0.285287 0.122556
O O3 0.101979 0.593971 0.324513
O O4 0.194412 0.529582 0.740350
O O5 0.305889 0.575672 0.457644
O O6 0.364924 0.300016 0.315471
O O7 0.196420 0.747145 0.156710
O O8 0.261954 0.881648 0.409526
O O9 0.376465 0.849384 0.398178
O O10 0.197370 0.030261 0.838105
O O11 0.932490 0.911288 0.617912
O O12 0.942800 0.858994 0.156955
O O13 0.000000 0.000000 0.000000
O O14 0.558146 0.550618 0.476785
O O15 0.595267 0.342575 0.038481
O O16 0.597028 0.044865 0.425448
O O17 0.500000 0.000000 0.000000
#
# Coordination Sequence:
#
# PCOD8023303 Si02
#       8
#     2   2   2   2   2   2   2   2
#     4  11  27  46  75 105 149 192 247 305 380 439
#     4  12  25  44  74 108 141 199 243 312 367 451
#     4  11  25  46  68 106 146 194 243 312 367 454
#     4  12  26  49  77 116 143 200 249 321 369 450
#     4  12  27  46  80 107 153 191 260 305 379 438
#     4  11  23  41  71 100 146 193 251 301 368 446
#     4  11  26  44  69 105 150 187 245 309 370 448
#     4  10  23  41  65 100 142 198 241 306 364 444
#
# _framework density 23.989242999999998
#
# number of rings (size 3 to 8) (size 9 to 14) (size 15 to 20)
#    0.000    0.750    2.500    3.750    5.250    7.000 
#    0.000    0.000    0.000    0.000    0.000    0.000 
#    0.000    0.000    0.000    0.000    0.000    0.000 
#
# Total GULP energy -198346.931834 kJ/mol
# GULP energy per Si atom -12396.683240 kJ/mol
# Density = 2.393464 g / cm^3
# Si number density = 23.989243 Si / 1000 Ang^3
#
#
#
# Elastic Constant Matrix: (Units=GPa)
#
#
# Indices 1 2 3 4 5 6 
#
# 1 101.6988 60.7147 38.5615 5.2938 -3.7385 13.8900
# 2 60.7147 164.3070 38.1042 3.5939 -15.3224 20.2825
# 3 38.5615 38.1042 92.9034 -3.4624 -16.7834 17.4168
# 4 5.2938 3.5939 -3.4624 45.2461 9.1660 -3.2657
# 5 -3.7385 -15.3224 -16.7834 9.1660 32.5753 -7.4066
# 6 13.8900 20.2825 17.4168 -3.2657 -7.4066 48.9285
#
#
#
# Elastic Compliance Matrix: (Units=1/GPa)
#
#
# Indices 1 2 3 4 5 6 
#
# 1 0.014201 -0.004293 -0.004432 -0.001218 -0.002591 -0.001148
# 2 -0.004293 0.008356 -0.000864 -0.000927 0.002899 -0.001561
# 3 -0.004432 -0.000864 0.014527 0.000317 0.005880 -0.002644
# 4 -0.001218 -0.000927 0.000317 0.023813 -0.006847 0.001170
# 5 -0.002591 0.002899 0.005880 -0.006847 0.037319 0.002633
# 6 -0.001148 -0.001561 -0.002644 0.001170 0.002633 0.022829
#
#
# Mechanical properties :
#
#
# Convention : Reuss Voigt Hill
#
# Bulk Modulus (GPa) = 55.84339 70.40778 63.12559
# Shear Modulus (GPa) = 34.20144 40.11855 37.16000
#
# Velocity S-wave (km/s) = 3.77994 4.09388 3.94004
# Velocity P-wave (km/s) = 6.50996 7.19444 6.86074
#
# Compressibility (1/GPa) = 0.01790722
#
# Stress axis : x y z
#
# Youngs Moduli (GPa) = 70.41533 119.67219 68.83584
#
# Poissons Ratio (x) = 0.51378 0.30509
# Poissons Ratio (y) = 0.30231 0.05944
# Poissons Ratio (z) = 0.31209 0.10334
#
# Static dielectric constant tensor:
#      x y z
#    x 4.354240 -0.146410 -0.272020 
#    y -0.146410 4.814740 -0.189340 
#    z -0.272020 -0.189340 4.274520 
# 
# 
# High freq. dielectric constant tensor:
#      x y z
#    x 1.947300 -0.003420 -0.019750 
#    y -0.003420 1.964570 -0.010120 
#    z -0.019750 -0.010120 1.947940 
# 
# From -- ./inp_files/126800.got.cif
#   From: 2010.06.25/outbox.cif.g09.slc.cpg/sg2_64_cif.got.tgz:126800.got - 2010.06.27 13:26:56.
