data_PCOD8023187
_publ_section_title
;
Structure prediction by ZEFSAII (Michael W. Deem and Ramdas Pophale) SiO2 
 PCOD8023187
Probable space group: P -1
;
_chemical_formula_sum "Si O2"
_cell_formula_units_Z 16
_cell_length_a 12.169828
_cell_length_b 17.629159
_cell_length_c 10.746171
_cell_angle_alpha 105.991577
_cell_angle_beta 106.942438
_cell_angle_gamma 19.399187
_cell_volume 732.537248
_symmetry_space_group_name_H-M "P -1"
_symmetry_group_IT_number 2
_symmetry_cell_setting 'triclinic'
loop_
_space_group_symop_operation_xyz
x,y,z
-x,-y,-z
loop_
_atom_site_type_symbol
_atom_site_label
_atom_site_fract_x
_atom_site_fract_y
_atom_site_fract_z
Si Si1 0.641095 0.771884 0.008790
Si Si2 0.161625 0.974319 0.099278
Si Si3 0.411623 0.172790 0.261270
Si Si4 0.318547 0.502930 0.449362
Si Si5 0.669816 0.849503 0.286625
Si Si6 0.317096 0.321302 0.684681
Si Si7 0.207775 0.721794 0.662219
Si Si8 0.337522 0.862534 0.509824
O O1 0.520955 0.883339 0.887236
O O2 0.338108 0.911528 0.020451
O O3 0.699032 0.808866 0.133411
O O4 0.000000 0.500000 0.000000
O O5 0.453793 0.764612 0.199923
O O6 0.873115 0.209312 0.187557
O O7 0.000000 0.000000 0.000000
O O8 0.677292 0.066417 0.348773
O O9 0.047325 0.443540 0.274944
O O10 0.442234 0.074658 0.312722
O O11 0.196154 0.636608 0.584267
O O12 0.428520 0.482120 0.354190
O O13 0.631024 0.247769 0.483405
O O14 0.024447 0.636439 0.369303
O O15 0.517385 0.872955 0.322434
O O16 0.324497 0.336139 0.547923
O O17 0.960063 0.932503 0.590418
#
# Coordination Sequence:
#
# PCOD8023187 Si02
#       8
#     2   2   2   2   2   2   2   2
#     4  11  22  43  64  94 130 170 222 260 321 386
#     4  10  23  42  68  95 128 174 213 267 325 384
#     4  12  22  38  66  92 129 172 214 265 326 387
#     4  11  22  41  66  94 131 173 212 274 321 391
#     4  11  23  39  64  93 126 169 214 271 321 380
#     4  10  23  41  60  97 128 163 215 267 324 383
#     4  10  24  42  63  96 131 169 221 262 329 392
#     4  11  22  39  63  95 125 170 212 268 332 376
#
# _framework density 21.841892999999999
#
# number of rings (size 3 to 8) (size 9 to 14) (size 15 to 20)
#    0.000    1.250    5.000    1.125    3.500    3.500 
#    0.000    0.000    0.000    6.750    0.000    0.000 
#    0.000    0.000    0.000    0.000    0.000    0.000 
#
# Total GULP energy -198260.780021 kJ/mol
# GULP energy per Si atom -12391.298751 kJ/mol
# Density = 2.179218 g / cm^3
# Si number density = 21.841893 Si / 1000 Ang^3
#
#
#
# Elastic Constant Matrix: (Units=GPa)
#
#
# Indices 1 2 3 4 5 6 
#
# 1 101.0089 24.5399 37.5770 4.4382 11.9147 10.4101
# 2 24.5399 48.9414 11.1443 6.6704 9.2899 12.3223
# 3 37.5770 11.1443 105.8839 7.0450 13.7213 -1.5255
# 4 4.4382 6.6704 7.0450 35.0211 -1.8965 -2.0416
# 5 11.9147 9.2899 13.7213 -1.8965 40.9716 -0.4298
# 6 10.4101 12.3223 -1.5255 -2.0416 -0.4298 35.2537
#
#
#
# Elastic Compliance Matrix: (Units=1/GPa)
#
#
# Indices 1 2 3 4 5 6 
#
# 1 0.012922 -0.004697 -0.003932 -0.000166 -0.001409 -0.002371
# 2 -0.004697 0.026562 -0.000271 -0.005156 -0.004892 -0.008267
# 3 -0.003932 -0.000271 0.011355 -0.001785 -0.002664 0.001611
# 4 -0.000166 -0.005156 -0.001785 0.030301 0.003255 0.003569
# 5 -0.001409 -0.004892 -0.002664 0.003255 0.026995 0.002528
# 6 -0.002371 -0.008267 0.001611 0.003569 0.002528 0.032263
#
#
# Mechanical properties :
#
#
# Convention : Reuss Voigt Hill
#
# Bulk Modulus (GPa) = 30.26661 44.70630 37.48645
# Shear Modulus (GPa) = 29.54892 34.42080 31.98486
#
# Velocity S-wave (km/s) = 3.68211 3.97408 3.83088
# Velocity P-wave (km/s) = 5.65371 6.44750 6.06361
#
# Compressibility (1/GPa) = 0.03303971
#
# Stress axis : x y z
#
# Youngs Moduli (GPa) = 77.38872 37.64758 88.06384
#
# Poissons Ratio (x) = 0.17682 0.34627
# Poissons Ratio (y) = 0.36348 0.02386
# Poissons Ratio (z) = 0.30429 0.01020
#
# Static dielectric constant tensor:
#      x y z
#    x 3.937430 -0.127940 -0.099920 
#    y -0.127940 3.849280 0.171140 
#    z -0.099920 0.171140 4.203330 
# 
# 
# High freq. dielectric constant tensor:
#      x y z
#    x 1.857100 -0.008450 0.002850 
#    y -0.008450 1.847420 0.004880 
#    z 0.002850 0.004880 1.862980 
# 
# From -- ./inp_files/436810.got.cif
#   From: 2010.06.25/outbox.cif.g09.slc.cpg/sg2_219_cif.got.tgz:436810.got - 2010.06.27 13:26:56.
