data_PCOD8023885
_publ_section_title
;
Structure prediction by ZEFSAII (Michael W. Deem and Ramdas Pophale) SiO2 
 PCOD8023885
Probable space group: P -1
;
_chemical_formula_sum "Si O2"
_cell_formula_units_Z 12
_cell_length_a 9.522310
_cell_length_b 12.348315
_cell_length_c 9.398941
_cell_angle_alpha 58.697350
_cell_angle_beta 107.371814
_cell_angle_gamma 144.023270
_cell_volume 538.129494
_symmetry_space_group_name_H-M "P -1"
_symmetry_group_IT_number 2
_symmetry_cell_setting 'triclinic'
loop_
_space_group_symop_operation_xyz
x,y,z
-x,-y,-z
loop_
_atom_site_type_symbol
_atom_site_label
_atom_site_fract_x
_atom_site_fract_y
_atom_site_fract_z
Si Si1 0.188431 0.672042 0.819800
Si Si2 0.802364 0.685153 0.223279
Si Si3 0.881838 0.515099 0.561586
Si Si4 0.043980 0.963280 0.851901
Si Si5 0.634739 0.940090 0.340555
Si Si6 0.439549 0.253911 0.266586
O O1 0.354320 0.668325 0.824048
O O2 0.028728 0.620008 0.679782
O O3 0.363156 0.905792 0.769980
O O4 0.000000 0.500000 0.000000
O O5 0.902971 0.667306 0.392817
O O6 0.550198 0.454504 0.240873
O O7 0.003500 0.834207 0.054788
O O8 0.757392 0.793710 0.202711
O O9 0.602232 0.277026 0.666016
O O10 0.000000 0.500000 0.500000
O O11 0.786992 0.859079 0.820222
O O12 0.127460 0.950193 0.744125
O O13 0.644466 0.903848 0.531833
#
# Coordination Sequence:
#
# PCOD8023885 Si02
#       6
#     2   2   2   2   2   2
#     4  12  26  43  70 103 133 177 229 279 334 397
#     4  10  23  42  67  93 135 177 224 266 339 386
#     4  11  24  45  69  94 136 178 222 280 329 395
#     4  11  24  41  67 101 133 177 221 276 330 408
#     4  11  25  41  69 101 134 179 227 271 342 394
#     4  11  23  42  67  95 137 177 217 280 332 397
#
# _framework density 22.299465000000001
#
# number of rings (size 3 to 8) (size 9 to 14) (size 15 to 20)
#    0.000    1.000    3.333    3.500    2.333    7.333 
#    0.000    0.000    0.000    0.000    0.000    0.000 
#    0.000    0.000    0.000    0.000    0.000    0.000 
#
# Total GULP energy -148837.662896 kJ/mol
# GULP energy per Si atom -12403.138575 kJ/mol
# Density = 2.224871 g / cm^3
# Si number density = 22.299465 Si / 1000 Ang^3
#
#
#
# Elastic Constant Matrix: (Units=GPa)
#
#
# Indices 1 2 3 4 5 6 
#
# 1 76.6873 45.1532 35.8892 2.5044 -11.6831 2.3698
# 2 45.1532 90.3515 36.2870 -8.9692 9.1256 -4.3401
# 3 35.8892 36.2870 117.2558 -12.6079 -9.3868 -5.3060
# 4 2.5044 -8.9692 -12.6079 30.3013 -11.5413 5.6789
# 5 -11.6831 9.1256 -9.3868 -11.5413 35.8577 -2.1577
# 6 2.3698 -4.3401 -5.3060 5.6789 -2.1577 36.1060
#
#
#
# Elastic Compliance Matrix: (Units=1/GPa)
#
#
# Indices 1 2 3 4 5 6 
#
# 1 0.022590 -0.011251 -0.003187 -0.002919 0.008308 -0.002348
# 2 -0.011251 0.018956 -0.002836 0.001762 -0.008556 0.001812
# 3 -0.003187 -0.002836 0.011406 0.005740 0.004572 0.000915
# 4 -0.002919 0.001762 0.005740 0.042107 0.013380 -0.004576
# 5 0.008308 -0.008556 0.004572 0.013380 0.038232 -0.000722
# 6 -0.002348 0.001812 0.000915 -0.004576 -0.000722 0.028879
#
#
# Mechanical properties :
#
#
# Convention : Reuss Voigt Hill
#
# Bulk Modulus (GPa) = 54.33895 57.66151 56.00023
# Shear Modulus (GPa) = 24.64841 31.58401 28.11621
#
# Velocity S-wave (km/s) = 3.32827 3.76754 3.55469
# Velocity P-wave (km/s) = 6.26023 6.69624 6.48191
#
# Compressibility (1/GPa) = 0.01840301
#
# Stress axis : x y z
#
# Youngs Moduli (GPa) = 44.26803 52.75485 87.67198
#
# Poissons Ratio (x) = 0.59353 0.27945
# Poissons Ratio (y) = 0.49805 0.24864
# Poissons Ratio (z) = 0.14110 0.14962
#
# Static dielectric constant tensor:
#      x y z
#    x 3.753310 -0.171470 -0.024050 
#    y -0.171470 4.139950 -0.300970 
#    z -0.024050 -0.300970 4.054180 
# 
# 
# High freq. dielectric constant tensor:
#      x y z
#    x 1.864940 -0.015700 0.003280 
#    y -0.015700 1.887230 -0.005830 
#    z 0.003280 -0.005830 1.892400 
# 
# From -- ./inp_files/148536.got.cif
#   From: 2010.06.25/outbox.cif.g09.slc.cpg/sg2_75_cif.got.tgz:148536.got - 2010.06.27 13:26:56.
