data_PCOD8023386
_publ_section_title
;
Structure prediction by ZEFSAII (Michael W. Deem and Ramdas Pophale) SiO2 
 PCOD8023386
Probable space group: P -1
;
_chemical_formula_sum "Si O2"
_cell_formula_units_Z 16
_cell_length_a 14.705295
_cell_length_b 14.596558
_cell_length_c 9.526828
_cell_angle_alpha 76.233902
_cell_angle_beta 95.081649
_cell_angle_gamma 28.425818
_cell_volume 723.136634
_symmetry_space_group_name_H-M "P -1"
_symmetry_group_IT_number 2
_symmetry_cell_setting 'triclinic'
loop_
_space_group_symop_operation_xyz
x,y,z
-x,-y,-z
loop_
_atom_site_type_symbol
_atom_site_label
_atom_site_fract_x
_atom_site_fract_y
_atom_site_fract_z
Si Si1 0.879966 0.486705 0.965016
Si Si2 0.149123 0.770518 0.261690
Si Si3 0.830335 0.251699 0.402654
Si Si4 0.962557 0.764453 0.645264
Si Si5 0.691244 0.197393 0.850928
Si Si6 0.622257 0.677891 0.352503
Si Si7 0.405236 0.357643 0.338386
Si Si8 0.640023 0.885135 0.917721
O O1 0.767998 0.504515 0.865135
O O2 0.653541 0.775006 0.870919
O O3 0.026383 0.308320 0.187015
O O4 0.072547 0.356533 0.936602
O O5 0.155846 0.728994 0.438815
O O6 0.183033 0.851877 0.228319
O O7 0.373557 0.501326 0.305055
O O8 0.884810 0.992041 0.077755
O O9 0.928880 0.235894 0.315089
O O10 0.541058 0.517766 0.224448
O O11 0.000000 0.000000 0.500000
O O12 0.131167 0.554138 0.625035
O O13 0.679191 0.054834 0.453008
O O14 0.587611 0.198338 0.771610
O O15 0.706168 0.580000 0.557997
O O16 0.506039 0.893143 0.263534
O O17 0.500000 0.000000 0.000000
#
# Coordination Sequence:
#
# PCOD8023386 Si02
#       8
#     2   2   2   2   2   2   2   2
#     4  11  26  44  71 103 132 177 228 275 342 401
#     4  11  23  40  67  98 133 188 222 272 339 390
#     4  11  24  39  65  97 140 177 228 279 327 395
#     4  11  24  43  66  99 135 178 222 273 336 401
#     4  10  23  41  66  94 133 178 229 266 332 402
#     4  11  23  45  69  96 138 179 221 283 340 398
#     4  12  25  43  70 102 137 175 226 275 332 407
#     4  11  23  46  74  97 135 177 221 284 342 398
#
# _framework density 22.125833
#
# number of rings (size 3 to 8) (size 9 to 14) (size 15 to 20)
#    0.000    1.000    5.000    1.875    1.750    5.000 
#    0.000    1.250    0.000    0.000    0.000    0.000 
#    0.000    0.000    0.000    0.000    0.000    0.000 
#
# Total GULP energy -198269.917362 kJ/mol
# GULP energy per Si atom -12391.869835 kJ/mol
# Density = 2.207547 g / cm^3
# Si number density = 22.125833 Si / 1000 Ang^3
#
#
#
# Elastic Constant Matrix: (Units=GPa)
#
#
# Indices 1 2 3 4 5 6 
#
# 1 77.2648 29.0682 16.0710 6.3760 -15.8517 1.8367
# 2 29.0682 129.9760 29.5468 -12.7519 -0.9039 2.7690
# 3 16.0710 29.5468 82.8694 -14.3962 -0.0371 -8.8043
# 4 6.3760 -12.7519 -14.3962 33.0890 3.5348 -9.9773
# 5 -15.8517 -0.9039 -0.0371 3.5348 27.0502 -5.4831
# 6 1.8367 2.7690 -8.8043 -9.9773 -5.4831 46.6532
#
#
#
# Elastic Compliance Matrix: (Units=1/GPa)
#
#
# Indices 1 2 3 4 5 6 
#
# 1 0.018261 -0.003936 -0.003765 -0.008384 0.011324 -0.001658
# 2 -0.003936 0.009373 -0.001966 0.003702 -0.002537 -0.000279
# 3 -0.003765 -0.001966 0.015447 0.008357 -0.002393 0.004686
# 4 -0.008384 0.003702 0.008357 0.040611 -0.008177 0.009412
# 5 0.011324 -0.002537 -0.002393 -0.008177 0.045154 0.002811
# 6 -0.001658 -0.000279 0.004686 0.009412 0.002811 0.024744
#
#
# Mechanical properties :
#
#
# Convention : Reuss Voigt Hill
#
# Bulk Modulus (GPa) = 42.11402 48.83136 45.47269
# Shear Modulus (GPa) = 27.64864 35.72012 31.68438
#
# Velocity S-wave (km/s) = 3.53882 4.02233 3.78829
# Velocity P-wave (km/s) = 5.98104 6.60984 6.30328
#
# Compressibility (1/GPa) = 0.02374506
#
# Stress axis : x y z
#
# Youngs Moduli (GPa) = 54.76121 106.69510 64.73762
#
# Poissons Ratio (x) = 0.42000 0.24376
# Poissons Ratio (y) = 0.21556 0.12727
# Poissons Ratio (z) = 0.20620 0.20976
#
# Static dielectric constant tensor:
#      x y z
#    x 4.162220 0.117420 -0.245740 
#    y 0.117420 4.364150 -0.219160 
#    z -0.245740 -0.219160 3.779120 
# 
# 
# High freq. dielectric constant tensor:
#      x y z
#    x 1.870460 0.006250 -0.023610 
#    y 0.006250 1.886370 -0.020330 
#    z -0.023610 -0.020330 1.852570 
# 
# From -- ./inp_files/315118.got.cif
#   From: 2010.06.25/outbox.cif.g09.slc.cpg/sg2_158_cif.got.tgz:315118.got - 2010.06.27 13:26:56.
