data_PCOD8023567
_publ_section_title
;
Structure prediction by ZEFSAII (Michael W. Deem and Ramdas Pophale) SiO2 
 PCOD8023567
Probable space group: P -1
;
_chemical_formula_sum "Si O2"
_cell_formula_units_Z 14
_cell_length_a 17.844452
_cell_length_b 9.041280
_cell_length_c 5.431648
_cell_angle_alpha 122.874114
_cell_angle_beta 57.543404
_cell_angle_gamma 128.058010
_cell_volume 551.800499
_symmetry_space_group_name_H-M "P -1"
_symmetry_group_IT_number 2
_symmetry_cell_setting 'triclinic'
loop_
_space_group_symop_operation_xyz
x,y,z
-x,-y,-z
loop_
_atom_site_type_symbol
_atom_site_label
_atom_site_fract_x
_atom_site_fract_y
_atom_site_fract_z
Si Si1 0.904829 0.599381 0.043201
Si Si2 0.373439 0.101220 0.150448
Si Si3 0.875788 0.246299 0.123527
Si Si4 0.801038 0.840539 0.627376
Si Si5 0.739191 0.280346 0.754520
Si Si6 0.474000 0.289986 0.632317
Si Si7 0.642716 0.492062 0.843401
O O1 0.881837 0.442601 0.162073
O O2 0.878463 0.778236 0.309142
O O3 0.836497 0.483386 0.830508
O O4 0.021658 0.695663 0.853934
O O5 0.292275 0.184694 0.403072
O O6 0.449000 0.167451 0.311757
O O7 0.312931 0.860921 0.047965
O O8 0.424409 0.154507 0.841071
O O9 0.779933 0.162904 0.396245
O O10 0.861826 0.069574 0.805125
O O11 0.749004 0.686989 0.805083
O O12 0.655722 0.323820 0.814124
O O13 0.593137 0.402351 0.579907
O O14 0.436744 0.458579 0.824156
#
# Coordination Sequence:
#
# PCOD8023567 Si02
#       7
#     2   2   2   2   2   2   2
#     4  11  24  42  71 100 138 185 236 290 355 419
#     4  11  24  42  72  98 148 179 242 285 361 409
#     4  11  24  45  65 104 143 177 237 296 351 421
#     4  11  22  46  72 102 136 194 227 294 346 436
#     4  12  23  43  68 104 139 188 229 302 345 434
#     4  10  24  45  64 106 136 194 228 302 342 434
#     4  10  23  41  70  95 144 181 238 282 366 407
#
# _framework density 25.371485
#
# number of rings (size 3 to 8) (size 9 to 14) (size 15 to 20)
#    0.000    1.143    2.857    3.429    0.000    7.429 
#    0.000    1.429    0.000    0.000    0.000    0.000 
#    0.000    0.000    0.000    0.000    0.000    0.000 
#
# Total GULP energy -173546.653968 kJ/mol
# GULP energy per Si atom -12396.189569 kJ/mol
# Density = 2.531374 g / cm^3
# Si number density = 25.371485 Si / 1000 Ang^3
#
#
#
# Elastic Constant Matrix: (Units=GPa)
#
#
# Indices 1 2 3 4 5 6 
#
# 1 129.3874 36.2391 27.1270 7.9930 0.5379 -0.7858
# 2 36.2391 107.4677 22.0984 9.2132 -2.3942 -9.2931
# 3 27.1270 22.0984 68.4631 13.9186 4.6933 -10.1093
# 4 7.9930 9.2132 13.9186 35.5387 1.6510 2.4481
# 5 0.5379 -2.3942 4.6933 1.6510 37.3907 9.3728
# 6 -0.7858 -9.2931 -10.1093 2.4481 9.3728 39.3992
#
#
#
# Elastic Compliance Matrix: (Units=1/GPa)
#
#
# Indices 1 2 3 4 5 6 
#
# 1 0.009058 -0.002534 -0.002953 -0.000156 0.000401 -0.001260
# 2 -0.002534 0.010880 -0.001912 -0.001665 0.000546 0.001999
# 3 -0.002953 -0.001912 0.018757 -0.006404 -0.003541 0.005543
# 4 -0.000156 -0.001665 -0.006404 0.031378 0.000334 -0.004068
# 5 0.000401 0.000546 -0.003541 0.000334 0.029140 -0.007725
# 6 -0.001260 0.001999 0.005543 -0.004068 -0.007725 0.029340
#
#
# Mechanical properties :
#
#
# Convention : Reuss Voigt Hill
#
# Bulk Modulus (GPa) = 41.84509 52.91638 47.38073
# Shear Modulus (GPa) = 33.04342 37.12262 35.08302
#
# Velocity S-wave (km/s) = 3.61277 3.82928 3.72260
# Velocity P-wave (km/s) = 5.82508 6.36028 6.09855
#
# Compressibility (1/GPa) = 0.02389767
#
# Stress axis : x y z
#
# Youngs Moduli (GPa) = 110.40151 91.90817 53.31443
#
# Poissons Ratio (x) = 0.23288 0.15744
# Poissons Ratio (y) = 0.27974 0.10192
# Poissons Ratio (z) = 0.32602 0.17570
#
# Static dielectric constant tensor:
#      x y z
#    x 4.845580 0.084780 -0.112230 
#    y 0.084780 4.614970 0.114160 
#    z -0.112230 0.114160 4.052720 
# 
# 
# High freq. dielectric constant tensor:
#      x y z
#    x 2.027900 0.001150 -0.007520 
#    y 0.001150 2.019710 0.009620 
#    z -0.007520 0.009620 1.979380 
# 
# From -- ./inp_files/91161.got.cif
#   From: 2010.06.25/outbox.cif.g09.slc.cpg/sg2_46_cif.got.tgz:91161.got - 2010.06.27 13:26:56.
