data_PCOD8023041
_publ_section_title
;
Structure prediction by ZEFSAII (Michael W. Deem and Ramdas Pophale) SiO2 
 PCOD8023041
Probable space group: P -1
;
_chemical_formula_sum "Si O2"
_cell_formula_units_Z 16
_cell_length_a 14.081683
_cell_length_b 8.756728
_cell_length_c 7.714688
_cell_angle_alpha 127.241168
_cell_angle_beta 93.351689
_cell_angle_gamma 109.947825
_cell_volume 665.780116
_symmetry_space_group_name_H-M "P -1"
_symmetry_group_IT_number 2
_symmetry_cell_setting 'triclinic'
loop_
_space_group_symop_operation_xyz
x,y,z
-x,-y,-z
loop_
_atom_site_type_symbol
_atom_site_label
_atom_site_fract_x
_atom_site_fract_y
_atom_site_fract_z
Si Si1 0.636637 0.027746 0.876089
Si Si2 0.094139 0.348508 0.015884
Si Si3 0.492330 0.295691 0.664904
Si Si4 0.188671 0.136445 0.662646
Si Si5 0.298613 0.571901 0.398425
Si Si6 0.357317 0.526279 0.745341
Si Si7 0.359666 0.055804 0.800797
Si Si8 0.862034 0.220481 0.866835
O O1 0.761057 0.092594 0.895028
O O2 0.560393 0.871097 0.613183
O O3 0.617166 0.235611 0.026036
O O4 0.600044 0.894192 0.961225
O O5 0.175643 0.398739 0.220076
O O6 0.137597 0.561136 0.045807
O O7 0.093405 0.152992 0.767366
O O8 0.972686 0.274964 0.019089
O O9 0.621962 0.405933 0.738776
O O10 0.456439 0.484186 0.786917
O O11 0.458880 0.164599 0.751275
O O12 0.246005 0.345413 0.689145
O O13 0.274750 0.142528 0.816120
O O14 0.142377 0.916556 0.397146
O O15 0.340443 0.494567 0.515387
O O16 0.298808 0.797071 0.591147
#
# Coordination Sequence:
#
# PCOD8023041 Si02
#       8
#     2   2   2   2   2   2   2   2
#     4  11  22  44  69  97 136 178 217 278 338 383
#     4  11  24  41  70 100 132 177 222 277 335 392
#     4  11  23  46  69  95 142 177 217 280 330 394
#     4  11  21  43  66  98 133 173 222 276 326 397
#     4  11  23  45  65  99 136 175 226 275 327 401
#     4  10  23  40  66 100 132 174 224 271 330 402
#     4  10  23  40  68 102 129 172 229 268 327 405
#     4  11  22  44  70  96 135 179 217 278 344 387
#
# _framework density 24.031956000000001
#
# number of rings (size 3 to 8) (size 9 to 14) (size 15 to 20)
#    0.000    1.250    5.000    1.125    1.750    2.000 
#    4.500    7.500    0.000    0.000    0.000    0.000 
#    0.000    0.000    0.000    0.000    0.000    0.000 
#
# Total GULP energy -198471.323456 kJ/mol
# GULP energy per Si atom -12404.457716 kJ/mol
# Density = 2.397726 g / cm^3
# Si number density = 24.031956 Si / 1000 Ang^3
#
#
#
# Elastic Constant Matrix: (Units=GPa)
#
#
# Indices 1 2 3 4 5 6 
#
# 1 108.0668 18.7174 39.4635 -11.7103 7.1311 1.3051
# 2 18.7174 89.4020 28.9636 -9.8319 -1.9921 -5.9936
# 3 39.4635 28.9636 112.6702 -5.8136 -8.9376 -2.7017
# 4 -11.7103 -9.8319 -5.8136 28.3616 -5.1654 -4.6571
# 5 7.1311 -1.9921 -8.9376 -5.1654 40.3919 1.8267
# 6 1.3051 -5.9936 -2.7017 -4.6571 1.8267 20.3369
#
#
#
# Elastic Compliance Matrix: (Units=1/GPa)
#
#
# Indices 1 2 3 4 5 6 
#
# 1 0.011285 -0.000900 -0.003774 0.003032 -0.002458 -0.000576
# 2 -0.000900 0.013038 -0.002652 0.004452 0.000580 0.004515
# 3 -0.003774 -0.002652 0.011164 0.000492 0.003033 0.000784
# 4 0.003032 0.004452 0.000492 0.040636 0.004534 0.010081
# 5 -0.002458 0.000580 0.003033 0.004534 0.026499 -0.000610
# 6 -0.000576 0.004515 0.000784 0.010081 -0.000610 0.053007
#
#
# Mechanical properties :
#
#
# Convention : Reuss Voigt Hill
#
# Bulk Modulus (GPa) = 47.99625 53.82532 50.91078
# Shear Modulus (GPa) = 28.21256 32.68439 30.44848
#
# Velocity S-wave (km/s) = 3.43003 3.69187 3.56336
# Velocity P-wave (km/s) = 5.97511 6.37332 6.17743
#
# Compressibility (1/GPa) = 0.02083496
#
# Stress axis : x y z
#
# Youngs Moduli (GPa) = 88.61184 76.69660 89.57480
#
# Poissons Ratio (x) = 0.06903 0.33803
# Poissons Ratio (y) = 0.07976 0.23759
# Poissons Ratio (z) = 0.33439 0.20344
#
# Static dielectric constant tensor:
#      x y z
#    x 4.432690 -0.100180 -0.155430 
#    y -0.100180 4.404340 0.022130 
#    z -0.155430 0.022130 4.379160 
# 
# 
# High freq. dielectric constant tensor:
#      x y z
#    x 1.956620 -0.015620 -0.008880 
#    y -0.015620 1.947490 0.008970 
#    z -0.008880 0.008970 1.964370 
# 
# From -- ./inp_files/296844.got.cif
#   From: 2010.06.25/outbox.cif.g09.slc.cpg/sg2_149_cif.got.tgz:296844.got - 2010.06.27 13:26:56.
