data_PCOD8023309
_publ_section_title
;
Structure prediction by ZEFSAII (Michael W. Deem and Ramdas Pophale) SiO2 
 PCOD8023309
Probable space group: P -1
;
_chemical_formula_sum "Si O2"
_cell_formula_units_Z 14
_cell_length_a 8.992049
_cell_length_b 15.072460
_cell_length_c 14.519475
_cell_angle_alpha 42.631053
_cell_angle_beta 31.234661
_cell_angle_gamma 42.090586
_cell_volume 654.354881
_symmetry_space_group_name_H-M "P -1"
_symmetry_group_IT_number 2
_symmetry_cell_setting 'triclinic'
loop_
_space_group_symop_operation_xyz
x,y,z
-x,-y,-z
loop_
_atom_site_type_symbol
_atom_site_label
_atom_site_fract_x
_atom_site_fract_y
_atom_site_fract_z
Si Si1 0.819387 0.918998 0.716707
Si Si2 0.870743 0.914495 0.066479
Si Si3 0.171618 0.392611 0.071833
Si Si4 0.757585 0.784804 0.509415
Si Si5 0.780178 0.553598 0.796874
Si Si6 0.096365 0.957029 0.723325
Si Si7 0.885183 0.351493 0.746020
O O1 0.895671 0.753668 0.784925
O O2 0.869774 0.935843 0.784342
O O3 0.476953 0.001201 0.817651
O O4 0.000000 0.000000 0.500000
O O5 0.943648 0.766521 0.184211
O O6 0.030461 0.889320 0.902718
O O7 0.000000 0.000000 0.000000
O O8 0.043616 0.462746 0.185750
O O9 0.533848 0.366982 0.898601
O O10 0.000000 0.500000 0.000000
O O11 0.691567 0.714385 0.691974
O O12 0.438219 0.881832 0.564124
O O13 0.930795 0.671789 0.428536
O O14 0.962412 0.879897 0.354083
O O15 0.944834 0.476739 0.675955
O O16 0.500000 0.500000 0.000000
#
# Coordination Sequence:
#
# PCOD8023309 Si02
#       7
#     2   2   2   2   2   2   2
#     4  12  26  43  70 104 140 176 231 286 339 399
#     4  12  23  45  69  99 138 179 225 276 344 404
#     4  11  25  45  68  97 139 179 225 283 341 402
#     4  11  22  42  69 100 134 171 234 278 336 405
#     4  10  23  41  65  91 130 181 220 265 334 407
#     4  11  24  39  72 100 133 177 222 286 340 400
#     4  11  23  43  70  96 132 183 226 275 335 413
#
# _framework density 21.395116999999999
#
# number of rings (size 3 to 8) (size 9 to 14) (size 15 to 20)
#    0.000    0.857    2.857    4.286    8.000    0.000 
#    2.571    0.714    0.000    0.000    0.000    0.000 
#    0.000    0.000    0.000    0.000    0.000    0.000 
#
# Total GULP energy -173452.578944 kJ/mol
# GULP energy per Si atom -12389.469925 kJ/mol
# Density = 2.134642 g / cm^3
# Si number density = 21.395117 Si / 1000 Ang^3
#
#
#
# Elastic Constant Matrix: (Units=GPa)
#
#
# Indices 1 2 3 4 5 6 
#
# 1 183.3109 65.5168 51.4316 -3.2863 6.8238 7.4993
# 2 65.5168 107.8460 40.7466 -6.0953 2.5618 -1.0688
# 3 51.4316 40.7466 92.7758 -10.6922 12.4866 1.7936
# 4 -3.2863 -6.0953 -10.6922 43.2491 -6.5522 11.3686
# 5 6.8238 2.5618 12.4866 -6.5522 34.6189 4.1583
# 6 7.4993 -1.0688 1.7936 11.3686 4.1583 35.4440
#
#
#
# Elastic Compliance Matrix: (Units=1/GPa)
#
#
# Indices 1 2 3 4 5 6 
#
# 1 0.007534 -0.003634 -0.002554 -0.000202 -0.000154 -0.001491
# 2 -0.003634 0.012917 -0.003767 0.000498 0.001086 0.001062
# 3 -0.002554 -0.003767 0.014681 0.002472 -0.003968 -0.000644
# 4 -0.000202 0.000498 0.002472 0.027065 0.005360 -0.009377
# 5 -0.000154 0.001086 -0.003968 0.005360 0.031906 -0.005196
# 6 -0.001491 0.001062 -0.000644 -0.009377 -0.005196 0.032211
#
#
# Mechanical properties :
#
#
# Convention : Reuss Voigt Hill
#
# Bulk Modulus (GPa) = 65.70608 77.70253 71.70431
# Shear Modulus (GPa) = 33.04742 37.74491 35.39617
#
# Velocity S-wave (km/s) = 3.93443 4.20477 4.07185
# Velocity P-wave (km/s) = 7.17058 7.74405 7.46282
#
# Compressibility (1/GPa) = 0.01521929
#
# Stress axis : x y z
#
# Youngs Moduli (GPa) = 132.73319 77.41900 68.11723
#
# Poissons Ratio (x) = 0.28138 0.17398
# Poissons Ratio (y) = 0.48241 0.25663
# Poissons Ratio (z) = 0.33901 0.29167
#
# Static dielectric constant tensor:
#      x y z
#    x 4.219700 0.440560 0.060980 
#    y 0.440560 4.384270 -0.327580 
#    z 0.060980 -0.327580 4.157830 
# 
# 
# High freq. dielectric constant tensor:
#      x y z
#    x 1.851790 0.010620 0.016480 
#    y 0.010620 1.847060 -0.015710 
#    z 0.016480 -0.015710 1.841970 
# 
# From -- ./inp_files/184630.got.cif
#   From: 2010.06.25/outbox.cif.g09.slc.cpg/sg2_93_cif.got.tgz:184630.got - 2010.06.27 13:26:56.
