data_PCOD8023685
_publ_section_title
;
Structure prediction by ZEFSAII (Michael W. Deem and Ramdas Pophale) SiO2 
 PCOD8023685
Probable space group: P -1
;
_chemical_formula_sum "Si O2"
_cell_formula_units_Z 16
_cell_length_a 21.169224
_cell_length_b 9.464558
_cell_length_c 6.793403
_cell_angle_alpha 133.226493
_cell_angle_beta 56.240432
_cell_angle_gamma 123.943186
_cell_volume 788.234511
_symmetry_space_group_name_H-M "P -1"
_symmetry_group_IT_number 2
_symmetry_cell_setting 'triclinic'
loop_
_space_group_symop_operation_xyz
x,y,z
-x,-y,-z
loop_
_atom_site_type_symbol
_atom_site_label
_atom_site_fract_x
_atom_site_fract_y
_atom_site_fract_z
Si Si1 0.045587 0.699412 0.999923
Si Si2 0.664683 0.927848 0.758893
Si Si3 0.672134 0.250806 0.737473
Si Si4 0.582757 0.469147 0.392763
Si Si5 0.932432 0.837464 0.071947
Si Si6 0.420680 0.863536 0.603954
Si Si7 0.842087 0.097605 0.668353
Si Si8 0.854590 0.417291 0.628875
O O1 0.096322 0.660946 0.692995
O O2 0.973655 0.782492 0.140558
O O3 0.106351 0.863686 0.186994
O O4 0.000000 0.500000 0.000000
O O5 0.643936 0.687116 0.542029
O O6 0.664932 0.034942 0.648158
O O7 0.749485 0.013090 0.800005
O O8 0.602066 0.983424 0.061617
O O9 0.644072 0.218030 0.530580
O O10 0.763651 0.383742 0.693081
O O11 0.619950 0.368738 0.058221
O O12 0.500000 0.500000 0.500000
O O13 0.568293 0.328516 0.478205
O O14 0.895982 0.654014 0.811900
O O15 0.861505 0.925588 0.339506
O O16 0.000000 0.000000 0.000000
O O17 0.500000 0.000000 0.500000
O O18 0.859957 0.307814 0.720477
#
# Coordination Sequence:
#
# PCOD8023685 Si02
#       8
#     2   2   2   2   2   2   2   2
#     4  12  23  41  66  88 122 166 207 254 309 361
#     4  10  23  42  63  90 125 162 203 251 306 359
#     4  10  23  42  64  89 124 165 201 248 310 362
#     4  11  23  41  65  95 125 159 204 251 298 360
#     4  12  23  41  64  90 122 162 209 254 308 362
#     4  11  23  41  65  94 125 162 204 245 300 368
#     4  11  23  42  63  90 124 161 204 257 307 363
#     4  11  23  43  62  89 127 160 201 259 309 360
#
# _framework density 20.298525999999999
#
# number of rings (size 3 to 8) (size 9 to 14) (size 15 to 20)
#    0.000    1.000    2.500    4.500    0.000    5.000 
#    4.500    0.000    0.000    0.000    0.000    0.000 
#    0.000    0.000    0.000    0.000    0.000    0.000 
#
# Total GULP energy -198457.309161 kJ/mol
# GULP energy per Si atom -12403.581823 kJ/mol
# Density = 2.025233 g / cm^3
# Si number density = 20.298526 Si / 1000 Ang^3
#
#
#
# Elastic Constant Matrix: (Units=GPa)
#
#
# Indices 1 2 3 4 5 6 
#
# 1 103.3501 31.7815 5.3007 1.6361 6.8684 -0.7060
# 2 31.7815 123.8125 19.1148 8.9171 3.1143 4.6837
# 3 5.3007 19.1148 57.6639 14.0300 3.7018 5.8163
# 4 1.6361 8.9171 14.0300 31.9975 1.8514 -3.5031
# 5 6.8684 3.1143 3.7018 1.8514 40.9113 -2.8359
# 6 -0.7060 4.6837 5.8163 -3.5031 -2.8359 32.5421
#
#
#
# Elastic Compliance Matrix: (Units=1/GPa)
#
#
# Indices 1 2 3 4 5 6 
#
# 1 0.010618 -0.002717 -0.000135 0.000424 -0.001544 0.000557
# 2 -0.002717 0.009291 -0.002334 -0.001550 -0.000049 -0.001150
# 3 -0.000135 -0.002334 0.020844 -0.008881 -0.001595 -0.004487
# 4 0.000424 -0.001550 -0.008881 0.036202 -0.000394 0.005682
# 5 -0.001544 -0.000049 -0.001595 -0.000394 0.025035 0.002398
# 6 0.000557 -0.001150 -0.004487 0.005682 0.002398 0.032530
#
#
# Mechanical properties :
#
#
# Convention : Reuss Voigt Hill
#
# Bulk Modulus (GPa) = 32.91676 44.13561 38.52618
# Shear Modulus (GPa) = 32.25420 36.33215 34.29317
#
# Velocity S-wave (km/s) = 3.99054 4.23530 4.11474
# Velocity P-wave (km/s) = 6.12242 6.76073 6.44948
#
# Compressibility (1/GPa) = 0.03037966
#
# Stress axis : x y z
#
# Youngs Moduli (GPa) = 94.17840 107.63166 47.97594
#
# Poissons Ratio (x) = 0.29248 0.00650
# Poissons Ratio (y) = 0.25592 0.11196
# Poissons Ratio (z) = 0.01276 0.25118
#
# Static dielectric constant tensor:
#      x y z
#    x 3.861850 -0.023580 0.002550 
#    y -0.023580 3.756910 -0.076880 
#    z 0.002550 -0.076880 3.692330 
# 
# 
# High freq. dielectric constant tensor:
#      x y z
#    x 1.808660 0.005440 -0.005030 
#    y 0.005440 1.802360 0.000800 
#    z -0.005030 0.000800 1.798410 
# 
# From -- ./inp_files/13717.got.cif
#   From: 2010.06.25/outbox.cif.g09.slc.cpg/sg2_7_cif.got.tgz:13717.got - 2010.06.27 13:26:56.
