data_PCOD8023962
_publ_section_title
;
Structure prediction by ZEFSAII (Michael W. Deem and Ramdas Pophale) SiO2 
 PCOD8023962
Probable space group: P -1
;
_chemical_formula_sum "Si O2"
_cell_formula_units_Z 16
_cell_length_a 14.821446
_cell_length_b 9.382190
_cell_length_c 15.261759
_cell_angle_alpha 67.307786
_cell_angle_beta 149.307723
_cell_angle_gamma 91.654077
_cell_volume 765.273394
_symmetry_space_group_name_H-M "P -1"
_symmetry_group_IT_number 2
_symmetry_cell_setting 'triclinic'
loop_
_space_group_symop_operation_xyz
x,y,z
-x,-y,-z
loop_
_atom_site_type_symbol
_atom_site_label
_atom_site_fract_x
_atom_site_fract_y
_atom_site_fract_z
Si Si1 0.480630 0.328661 0.536802
Si Si2 0.953024 0.493215 0.363091
Si Si3 0.991373 0.857509 0.587808
Si Si4 0.635575 0.478429 0.896336
Si Si5 0.213796 0.362720 0.149740
Si Si6 0.216430 0.105106 0.079557
Si Si7 0.763017 0.479015 0.542036
Si Si8 0.502571 0.827016 0.815952
O O1 0.500000 0.500000 0.500000
O O2 0.427163 0.274115 0.413440
O O3 0.298773 0.399409 0.447104
O O4 0.723576 0.110762 0.815335
O O5 0.963599 0.305615 0.402856
O O6 0.000000 0.500000 0.500000
O O7 0.150961 0.450005 0.475610
O O8 0.699451 0.703580 0.083618
O O9 0.193691 0.736068 0.859388
O O10 0.000000 0.000000 0.500000
O O11 0.742479 0.989285 0.393427
O O12 0.793640 0.506282 0.965152
O O13 0.463505 0.480688 0.690545
O O14 0.485701 0.669554 0.791372
O O15 0.206179 0.193927 0.144773
O O16 0.000000 0.500000 0.000000
O O17 0.422687 0.078189 0.208606
O O18 0.972461 0.244490 0.792641
#
# Coordination Sequence:
#
# PCOD8023962 Si02
#       8
#     2   2   2   2   2   2   2   2
#     4  12  24  42  62  99 136 170 221 271 326 391
#     4  10  24  43  68  92 130 169 216 277 330 387
#     4  11  25  43  68  98 128 173 218 268 333 396
#     4  10  24  43  65  98 134 171 214 279 325 384
#     4  11  22  43  68  95 130 178 224 267 324 389
#     4  10  23  42  68  92 129 180 217 265 330 390
#     4  11  23  44  65  94 134 172 220 278 328 383
#     4   9  22  43  65  93 127 169 222 258 330 393
#
# _framework density 20.90756
#
# number of rings (size 3 to 8) (size 9 to 14) (size 15 to 20)
#    0.000    1.500    2.500    1.875    5.250    3.000 
#    2.250    0.000    0.000    0.000    0.000    0.000 
#    0.000    0.000    0.000    0.000    0.000    0.000 
#
# Total GULP energy -198340.271203 kJ/mol
# GULP energy per Si atom -12396.266950 kJ/mol
# Density = 2.085997 g / cm^3
# Si number density = 20.907560 Si / 1000 Ang^3
#
#
#
# Elastic Constant Matrix: (Units=GPa)
#
#
# Indices 1 2 3 4 5 6 
#
# 1 106.6220 40.0954 45.3809 -8.8591 -8.3480 -11.6279
# 2 40.0954 101.0674 54.0805 -12.2721 -10.9895 4.0224
# 3 45.3809 54.0805 114.3965 -13.1695 0.4698 -2.0122
# 4 -8.8591 -12.2721 -13.1695 38.5465 -1.7095 -6.1477
# 5 -8.3480 -10.9895 0.4698 -1.7095 34.1838 0.5788
# 6 -11.6279 4.0224 -2.0122 -6.1477 0.5788 30.3596
#
#
#
# Elastic Compliance Matrix: (Units=1/GPa)
#
#
# Indices 1 2 3 4 5 6 
#
# 1 0.012880 -0.003067 -0.003366 0.001799 0.002203 0.005439
# 2 -0.003067 0.014997 -0.005744 0.001777 0.004295 -0.003264
# 3 -0.003366 -0.005744 0.013030 0.001848 -0.002768 0.000762
# 4 0.001799 0.001777 0.001848 0.028667 0.002312 0.006337
# 5 0.002203 0.004295 -0.002768 0.002312 0.031327 -0.000038
# 6 0.005439 -0.003264 0.000762 0.006337 -0.000038 0.036789
#
#
# Mechanical properties :
#
#
# Convention : Reuss Voigt Hill
#
# Bulk Modulus (GPa) = 60.40928 66.79993 63.60461
# Shear Modulus (GPa) = 29.84000 32.78656 31.31328
#
# Velocity S-wave (km/s) = 3.78197 3.96431 3.87421
# Velocity P-wave (km/s) = 6.93018 7.27831 7.10638
#
# Compressibility (1/GPa) = 0.01655375
#
# Stress axis : x y z
#
# Youngs Moduli (GPa) = 77.63961 66.67824 76.74839
#
# Poissons Ratio (x) = 0.20451 0.25832
# Poissons Ratio (y) = 0.23813 0.44082
# Poissons Ratio (z) = 0.26132 0.38298
#
# Static dielectric constant tensor:
#      x y z
#    x 3.979630 -0.219550 -0.139070 
#    y -0.219550 3.850170 0.044000 
#    z -0.139070 0.044000 3.988990 
# 
# 
# High freq. dielectric constant tensor:
#      x y z
#    x 1.825800 -0.006840 -0.005210 
#    y -0.006840 1.814000 -0.003920 
#    z -0.005210 -0.003920 1.825070 
# 
# From -- ./inp_files/106701.got.cif
#   From: 2010.06.25/outbox.cif.g09.slc.cpg/sg2_54_cif.got.tgz:106701.got - 2010.06.27 13:26:56.
