data_PCOD8023696
_publ_section_title
;
Structure prediction by ZEFSAII (Michael W. Deem and Ramdas Pophale) SiO2 
 PCOD8023696
Probable space group: P -1
;
_chemical_formula_sum "Si O2"
_cell_formula_units_Z 10
_cell_length_a 7.487274
_cell_length_b 16.895969
_cell_length_c 15.967058
_cell_angle_alpha 154.623956
_cell_angle_beta 146.612869
_cell_angle_gamma 32.738641
_cell_volume 442.970493
_symmetry_space_group_name_H-M "P -1"
_symmetry_group_IT_number 2
_symmetry_cell_setting 'triclinic'
loop_
_space_group_symop_operation_xyz
x,y,z
-x,-y,-z
loop_
_atom_site_type_symbol
_atom_site_label
_atom_site_fract_x
_atom_site_fract_y
_atom_site_fract_z
Si Si1 0.173016 0.192357 0.891946
Si Si2 0.817261 0.437258 0.128454
Si Si3 0.617268 0.405856 0.202245
Si Si4 0.456975 0.147003 0.546764
Si Si5 0.324902 0.183738 0.350377
O O1 0.804291 0.196985 0.717648
O O2 0.453987 0.969309 0.780051
O O3 0.276188 0.352387 0.032177
O O4 0.142335 0.264904 0.046765
O O5 0.735952 0.352804 0.102521
O O6 0.871887 0.645611 0.366579
O O7 0.500000 0.500000 0.000000
O O8 0.539399 0.633997 0.414383
O O9 0.920573 0.261353 0.242327
O O10 0.380345 0.067356 0.350769
O O11 0.500000 0.000000 0.500000
#
# Coordination Sequence:
#
# PCOD8023696 Si02
#       5
#     2   2   2   2   2
#     4  11  23  40  70  91 120 174 203 252 320 360
#     4   9  22  40  61  95 122 162 204 260 304 360
#     4  10  23  45  63  90 134 155 213 258 303 377
#     4  10  23  42  63  94 130 159 212 258 304 374
#     4  10  23  43  64  94 124 168 203 261 310 362
#
# _framework density 22.574866
#
# number of rings (size 3 to 8) (size 9 to 14) (size 15 to 20)
#    0.000    2.000    0.000    1.200    8.400    8.000 
#    3.600    3.000    0.000    0.000    0.000    0.000 
#    0.000    0.000    0.000    0.000    0.000    0.000 
#
# Total GULP energy -123920.153146 kJ/mol
# GULP energy per Si atom -12392.015315 kJ/mol
# Density = 2.252349 g / cm^3
# Si number density = 22.574866 Si / 1000 Ang^3
#
#
#
# Elastic Constant Matrix: (Units=GPa)
#
#
# Indices 1 2 3 4 5 6 
#
# 1 180.9717 56.7438 74.3996 14.2071 -7.6805 11.4607
# 2 56.7438 79.6760 39.4386 7.1364 -0.6543 10.2361
# 3 74.3996 39.4386 86.8910 14.9041 -2.4835 -2.0347
# 4 14.2071 7.1364 14.9041 34.9391 -7.6122 -17.7512
# 5 -7.6805 -0.6543 -2.4835 -7.6122 33.4560 15.3951
# 6 11.4607 10.2361 -2.0347 -17.7512 15.3951 41.7554
#
#
#
# Elastic Compliance Matrix: (Units=1/GPa)
#
#
# Indices 1 2 3 4 5 6 
#
# 1 0.009755 -0.002853 -0.006720 -0.002028 0.003229 -0.004358
# 2 -0.002853 0.018272 -0.005461 -0.002828 0.001240 -0.005622
# 3 -0.006720 -0.005461 0.020363 -0.003568 -0.002617 0.003624
# 4 -0.002028 -0.002828 -0.003568 0.040935 0.000030 0.018467
# 5 0.003229 0.001240 -0.002617 0.000030 0.037417 -0.015100
# 6 -0.004358 -0.005622 0.003624 0.018467 -0.015100 0.040118
#
#
# Mechanical properties :
#
#
# Convention : Reuss Voigt Hill
#
# Bulk Modulus (GPa) = 54.57993 76.52254 65.55124
# Shear Modulus (GPa) = 24.62623 33.82721 29.22672
#
# Velocity S-wave (km/s) = 3.30641 3.87518 3.60204
# Velocity P-wave (km/s) = 6.22947 7.34802 6.81175
#
# Compressibility (1/GPa) = 0.01832175
#
# Stress axis : x y z
#
# Youngs Moduli (GPa) = 102.51044 54.72876 49.10853
#
# Poissons Ratio (x) = 0.15615 0.32999
# Poissons Ratio (y) = 0.29249 0.26820
# Poissons Ratio (z) = 0.68882 0.29890
#
# Static dielectric constant tensor:
#      x y z
#    x 4.435490 -0.265270 -0.604430 
#    y -0.265270 4.070850 0.366660 
#    z -0.604430 0.366660 4.450470 
# 
# 
# High freq. dielectric constant tensor:
#      x y z
#    x 1.887710 0.003810 -0.023780 
#    y 0.003810 1.876090 0.016390 
#    z -0.023780 0.016390 1.894040 
# 
# From -- ./inp_files/19970.got.cif
#   From: 2010.06.25/outbox.cif.g09.slc.cpg/sg2_10_cif.got.tgz:19970.got - 2010.06.27 13:26:56.
