data_PCOD8023311
_publ_section_title
;
Structure prediction by ZEFSAII (Michael W. Deem and Ramdas Pophale) SiO2 
 PCOD8023311
Probable space group: P -1
;
_chemical_formula_sum "Si O2"
_cell_formula_units_Z 16
_cell_length_a 11.282187
_cell_length_b 9.715712
_cell_length_c 9.452657
_cell_angle_alpha 98.501867
_cell_angle_beta 123.565289
_cell_angle_gamma 61.938095
_cell_volume 752.948135
_symmetry_space_group_name_H-M "P -1"
_symmetry_group_IT_number 2
_symmetry_cell_setting 'triclinic'
loop_
_space_group_symop_operation_xyz
x,y,z
-x,-y,-z
loop_
_atom_site_type_symbol
_atom_site_label
_atom_site_fract_x
_atom_site_fract_y
_atom_site_fract_z
Si Si1 0.944416 0.965662 0.102420
Si Si2 0.422103 0.442261 0.660607
Si Si3 0.045402 0.615474 0.468374
Si Si4 0.964376 0.383898 0.860286
Si Si5 0.571916 0.152864 0.929192
Si Si6 0.469376 0.896148 0.784156
Si Si7 0.604048 0.598422 0.676655
Si Si8 0.894323 0.961146 0.528175
O O1 0.072279 0.981017 0.292065
O O2 0.763083 0.088643 0.043297
O O3 0.949975 0.796699 0.063568
O O4 0.000000 0.000000 0.000000
O O5 0.235311 0.553964 0.586354
O O6 0.493445 0.317559 0.817092
O O7 0.498445 0.560342 0.715004
O O8 0.462732 0.355929 0.521022
O O9 0.980888 0.622695 0.267234
O O10 0.000000 0.500000 0.500000
O O11 0.951815 0.776556 0.518929
O O12 0.774927 0.445085 0.755026
O O13 0.000000 0.500000 0.000000
O O14 0.512145 0.036486 0.803734
O O15 0.514191 0.166891 0.054822
O O16 0.606967 0.752180 0.764242
O O17 0.294375 0.941803 0.613454
O O18 0.000000 0.000000 0.500000
#
# Coordination Sequence:
#
# PCOD8023311 Si02
#       8
#     2   2   2   2   2   2   2   2
#     4  12  27  44  69  99 134 171 224 275 329 390
#     4  10  23  41  65  92 129 164 215 264 317 384
#     4  11  24  43  68  97 130 175 221 264 327 394
#     4  11  24  44  66  96 136 173 214 271 329 389
#     4  11  24  44  64  99 131 169 216 270 324 387
#     4  11  24  42  69  94 131 172 215 267 327 388
#     4  10  23  41  66  92 125 171 211 261 323 381
#     4  12  23  45  70  96 131 177 222 273 326 387
#
# _framework density 21.249803
#
# number of rings (size 3 to 8) (size 9 to 14) (size 15 to 20)
#    0.000    1.000    2.500    3.000    7.000    4.000 
#    0.000    0.000    0.000    0.000    0.000    0.000 
#    0.000    0.000    0.000    0.000    0.000    0.000 
#
# Total GULP energy -198310.700088 kJ/mol
# GULP energy per Si atom -12394.418756 kJ/mol
# Density = 2.120144 g / cm^3
# Si number density = 21.249803 Si / 1000 Ang^3
#
#
#
# Elastic Constant Matrix: (Units=GPa)
#
#
# Indices 1 2 3 4 5 6 
#
# 1 67.2071 0.4226 10.4389 -7.6268 -13.4632 14.7648
# 2 0.4226 111.0083 36.4224 5.7999 -18.5038 6.7270
# 3 10.4389 36.4224 104.8028 1.7046 -7.3298 15.9146
# 4 -7.6268 5.7999 1.7046 43.1213 3.9798 -0.2722
# 5 -13.4632 -18.5038 -7.3298 3.9798 31.3106 -4.5648
# 6 14.7648 6.7270 15.9146 -0.2722 -4.5648 34.9307
#
#
#
# Elastic Compliance Matrix: (Units=1/GPa)
#
#
# Indices 1 2 3 4 5 6 
#
# 1 0.018210 0.001751 -0.000937 0.002299 0.007387 -0.006624
# 2 0.001751 0.011428 -0.003575 -0.001719 0.006825 -0.000434
# 3 -0.000937 -0.003575 0.011489 -0.000127 -0.000423 -0.004206
# 4 0.002299 -0.001719 -0.000127 0.024127 -0.003243 -0.000819
# 5 0.007387 0.006825 -0.000423 -0.003243 0.039593 0.000905
# 6 -0.006624 -0.000434 -0.004206 -0.000819 0.000905 0.033540
#
#
# Mechanical properties :
#
#
# Convention : Reuss Voigt Hill
#
# Bulk Modulus (GPa) = 28.08637 41.95398 35.02017
# Shear Modulus (GPa) = 32.09707 37.58815 34.84261
#
# Velocity S-wave (km/s) = 3.89069 4.21036 4.05367
# Velocity P-wave (km/s) = 5.78180 6.58955 6.19885
#
# Compressibility (1/GPa) = 0.03560446
#
# Stress axis : x y z
#
# Youngs Moduli (GPa) = 54.91519 87.50139 87.04253
#
# Poissons Ratio (x) = -0.15320 0.08157
# Poissons Ratio (y) = -0.09615 0.31118
# Poissons Ratio (z) = 0.05146 0.31282
#
# Static dielectric constant tensor:
#      x y z
#    x 3.838160 0.079170 0.075330 
#    y 0.079170 3.791650 -0.107560 
#    z 0.075330 -0.107560 3.739150 
# 
# 
# High freq. dielectric constant tensor:
#      x y z
#    x 1.844330 -0.001530 0.000560 
#    y -0.001530 1.843580 0.004060 
#    z 0.000560 0.004060 1.837460 
# 
# From -- ./inp_files/244721.got.cif
#   From: 2010.06.25/outbox.cif.g09.slc.cpg/sg2_123_cif.got.tgz:244721.got - 2010.06.27 13:26:56.
