data_PCOD8023665
_publ_section_title
;
Structure prediction by ZEFSAII (Michael W. Deem and Ramdas Pophale) SiO2 
 PCOD8023665
Probable space group: P -1
;
_chemical_formula_sum "Si O2"
_cell_formula_units_Z 16
_cell_length_a 20.480732
_cell_length_b 11.811414
_cell_length_c 9.020665
_cell_angle_alpha 34.999856
_cell_angle_beta 126.420128
_cell_angle_gamma 140.598147
_cell_volume 789.843720
_symmetry_space_group_name_H-M "P -1"
_symmetry_group_IT_number 2
_symmetry_cell_setting 'triclinic'
loop_
_space_group_symop_operation_xyz
x,y,z
-x,-y,-z
loop_
_atom_site_type_symbol
_atom_site_label
_atom_site_fract_x
_atom_site_fract_y
_atom_site_fract_z
Si Si1 0.531126 0.060411 0.145336
Si Si2 0.828892 0.880276 0.213537
Si Si3 0.554818 0.478179 0.898651
Si Si4 0.930789 0.626721 0.625300
Si Si5 0.715587 0.045292 0.441308
Si Si6 0.402454 0.573416 0.667355
Si Si7 0.148050 0.821041 0.794509
Si Si8 0.110284 0.677169 0.382512
O O1 0.637958 0.110788 0.265607
O O2 0.438331 0.831296 0.364583
O O3 0.545754 0.312322 0.930079
O O4 0.500000 0.000000 0.000000
O O5 0.909805 0.825862 0.405516
O O6 0.720254 0.625043 0.292613
O O7 0.814492 0.977184 0.242205
O O8 0.874681 0.086443 0.924976
O O9 0.454028 0.465380 0.768865
O O10 0.659066 0.761831 0.721534
O O11 0.558165 0.361940 0.180358
O O12 0.879848 0.476276 0.564764
O O13 0.053816 0.776895 0.624201
O O14 0.884824 0.440012 0.903954
O O15 0.758543 0.074698 0.303456
O O16 0.803773 0.235261 0.472767
O O17 0.000000 0.500000 0.500000
#
# Coordination Sequence:
#
# PCOD8023665 Si02
#       8
#     2   2   2   2   2   2   2   2
#     4  11  27  41  65  98 123 165 215 262 322 383
#     4  11  24  40  69  95 123 173 217 249 322 378
#     4  10  23  45  63  90 128 162 211 260 313 379
#     4  10  23  42  64  92 128 170 216 255 313 378
#     4  11  24  42  65  92 129 169 208 262 325 367
#     4  10  23  42  66  91 125 166 208 262 311 373
#     4  10  23  42  62  91 134 168 205 267 313 374
#     4  11  23  44  64  95 132 167 213 267 311 373
#
# _framework density 20.257172000000001
#
# number of rings (size 3 to 8) (size 9 to 14) (size 15 to 20)
#    0.000    1.500    2.500    0.750    7.000    2.500 
#    2.250    0.000    0.000    0.000    0.000    0.000 
#    0.000    0.000    0.000    0.000    0.000    0.000 
#
# Total GULP energy -198508.190814 kJ/mol
# GULP energy per Si atom -12406.761926 kJ/mol
# Density = 2.021107 g / cm^3
# Si number density = 20.257172 Si / 1000 Ang^3
#
#
#
# Elastic Constant Matrix: (Units=GPa)
#
#
# Indices 1 2 3 4 5 6 
#
# 1 89.0127 26.3537 29.5234 -5.2442 -7.7623 2.0190
# 2 26.3537 100.7359 22.8597 6.1343 1.0577 2.5064
# 3 29.5234 22.8597 63.3979 5.7616 -2.9108 8.8491
# 4 -5.2442 6.1343 5.7616 25.0556 -0.8729 -6.7311
# 5 -7.7623 1.0577 -2.9108 -0.8729 36.5453 -6.0678
# 6 2.0190 2.5064 8.8491 -6.7311 -6.0678 34.6978
#
#
#
# Elastic Compliance Matrix: (Units=1/GPa)
#
#
# Indices 1 2 3 4 5 6 
#
# 1 0.014905 -0.002860 -0.006722 0.006247 0.003335 0.002849
# 2 -0.002860 0.011459 -0.002456 -0.003122 -0.001355 -0.000878
# 3 -0.006722 -0.002456 0.021332 -0.007485 -0.000913 -0.006484
# 4 0.006247 -0.003122 -0.007485 0.046942 0.003860 0.011552
# 5 0.003335 -0.001355 -0.000913 0.003860 0.029123 0.005978
# 6 0.002849 -0.000878 -0.006484 0.011552 0.005978 0.033658
#
#
# Mechanical properties :
#
#
# Convention : Reuss Voigt Hill
#
# Bulk Modulus (GPa) = 42.33634 45.62446 43.98040
# Shear Modulus (GPa) = 26.40353 30.88705 28.64529
#
# Velocity S-wave (km/s) = 3.61420 3.90904 3.76451
# Velocity P-wave (km/s) = 6.19366 6.55329 6.37601
#
# Compressibility (1/GPa) = 0.02362037
#
# Stress axis : x y z
#
# Youngs Moduli (GPa) = 67.09173 87.27008 46.87701
#
# Poissons Ratio (x) = 0.24961 0.31510
# Poissons Ratio (y) = 0.19190 0.11512
# Poissons Ratio (z) = 0.45098 0.21431
#
# Static dielectric constant tensor:
#      x y z
#    x 3.678420 0.042370 -0.031110 
#    y 0.042370 3.719090 0.069580 
#    z -0.031110 0.069580 3.783060 
# 
# 
# High freq. dielectric constant tensor:
#      x y z
#    x 1.793350 -0.000420 -0.006040 
#    y -0.000420 1.800870 0.002420 
#    z -0.006040 0.002420 1.794740 
# 
# From -- ./inp_files/37405.got.cif
#   From: 2010.06.25/outbox.cif.g09.slc.cpg/sg2_19_cif.got.tgz:37405.got - 2010.06.27 13:26:56.
