data_PCOD8023995
_publ_section_title
;
Structure prediction by ZEFSAII (Michael W. Deem and Ramdas Pophale) SiO2 
 PCOD8023995
Probable space group: P -1
;
_chemical_formula_sum "Si O2"
_cell_formula_units_Z 14
_cell_length_a 9.375885
_cell_length_b 7.811867
_cell_length_c 9.314629
_cell_angle_alpha 103.384825
_cell_angle_beta 103.220041
_cell_angle_gamma 68.782939
_cell_volume 610.763249
_symmetry_space_group_name_H-M "P -1"
_symmetry_group_IT_number 2
_symmetry_cell_setting 'triclinic'
loop_
_space_group_symop_operation_xyz
x,y,z
-x,-y,-z
loop_
_atom_site_type_symbol
_atom_site_label
_atom_site_fract_x
_atom_site_fract_y
_atom_site_fract_z
Si Si1 0.477122 0.184545 0.119516
Si Si2 0.337193 0.657672 0.984027
Si Si3 0.519762 0.704156 0.535817
Si Si4 0.162026 0.411588 0.942748
Si Si5 0.990268 0.320586 0.658668
Si Si6 0.158737 0.281834 0.398610
Si Si7 0.244044 0.867864 0.300226
O O1 0.635078 0.223507 0.118718
O O2 0.481576 0.188138 0.292823
O O3 0.307545 0.326337 0.065298
O O4 0.500000 0.000000 0.000000
O O5 0.198652 0.579087 0.898972
O O6 0.500000 0.500000 0.000000
O O7 0.301148 0.764623 0.146266
O O8 0.500000 0.500000 0.500000
O O9 0.683727 0.690292 0.498563
O O10 0.386756 0.838973 0.434691
O O11 0.137625 0.267113 0.791310
O O12 0.000000 0.500000 0.000000
O O13 0.910894 0.546115 0.693785
O O14 0.878639 0.208061 0.661218
O O15 0.044699 0.273066 0.500136
O O16 0.181512 0.086053 0.286290
#
# Coordination Sequence:
#
# PCOD8023995 Si02
#       7
#     2   2   2   2   2   2   2
#     4  11  26  44  68 106 140 181 240 294 347 426
#     4  10  23  42  68  99 136 183 233 282 353 419
#     4  12  24  43  73  99 143 185 238 289 349 419
#     4  11  22  43  69  92 140 186 226 279 363 415
#     4  11  25  45  69 101 144 182 227 294 352 424
#     4  11  26  43  68 105 138 181 237 286 355 413
#     4  12  24  46  73 104 138 183 237 292 349 421
#
# _framework density 22.922139000000001
#
# number of rings (size 3 to 8) (size 9 to 14) (size 15 to 20)
#    0.000    0.857    2.857    4.286    8.000    0.000 
#    2.571    1.429    0.000    0.000    0.000    0.000 
#    0.000    0.000    0.000    0.000    0.000    0.000 
#
# Total GULP energy -173447.684759 kJ/mol
# GULP energy per Si atom -12389.120340 kJ/mol
# Density = 2.286997 g / cm^3
# Si number density = 22.922139 Si / 1000 Ang^3
#
#
#
# Elastic Constant Matrix: (Units=GPa)
#
#
# Indices 1 2 3 4 5 6 
#
# 1 159.3461 27.0031 10.9870 5.1429 -2.3814 8.3381
# 2 27.0031 83.8458 -7.8325 26.3256 -4.3138 7.9459
# 3 10.9870 -7.8325 62.5055 8.2262 5.0191 -15.6333
# 4 5.1429 26.3256 8.2262 36.8565 -2.6224 -2.3303
# 5 -2.3814 -4.3138 5.0191 -2.6224 36.1866 1.2432
# 6 8.3381 7.9459 -15.6333 -2.3303 1.2432 24.4760
#
#
#
# Elastic Compliance Matrix: (Units=1/GPa)
#
#
# Indices 1 2 3 4 5 6 
#
# 1 0.007020 -0.002572 -0.002558 0.001283 0.000710 -0.003104
# 2 -0.002572 0.017616 0.003342 -0.013176 0.000650 -0.003996
# 3 -0.002558 0.003342 0.021205 -0.006202 -0.003605 0.012923
# 4 0.001283 -0.013176 -0.006202 0.038108 0.002019 0.003405
# 5 0.000710 0.000650 -0.003605 0.002019 0.028543 -0.004013
# 6 -0.003104 -0.003996 0.012923 0.003405 -0.004013 0.051993
#
#
# Mechanical properties :
#
#
# Convention : Reuss Voigt Hill
#
# Bulk Modulus (GPa) = 23.66034 40.66809 32.16422
# Shear Modulus (GPa) = 27.45003 37.87314 32.66158
#
# Velocity S-wave (km/s) = 3.46429 4.06920 3.77887
# Velocity P-wave (km/s) = 5.13286 6.31334 5.75345
#
# Compressibility (1/GPa) = 0.04226482
#
# Stress axis : x y z
#
# Youngs Moduli (GPa) = 142.46021 56.76587 47.15859
#
# Poissons Ratio (x) = 0.14598 0.12065
# Poissons Ratio (y) = 0.36636 -0.15761
# Poissons Ratio (z) = 0.36447 -0.18971
#
# Static dielectric constant tensor:
#      x y z
#    x 4.599390 0.101290 -0.181600 
#    y 0.101290 4.257750 -0.059320 
#    z -0.181600 -0.059320 4.101920 
# 
# 
# High freq. dielectric constant tensor:
#      x y z
#    x 1.936100 0.012070 -0.004350 
#    y 0.012070 1.896900 0.012540 
#    z -0.004350 0.012540 1.900050 
# 
# From -- ./inp_files/159924.got.cif
#   From: 2010.06.25/outbox.cif.g09.slc.cpg/sg2_80_cif.got.tgz:159924.got - 2010.06.27 13:26:56.
