data_PCOD8023132
_publ_section_title
;
Structure prediction by ZEFSAII (Michael W. Deem and Ramdas Pophale) SiO2 
 PCOD8023132
Probable space group: P -1
;
_chemical_formula_sum "Si O2"
_cell_formula_units_Z 14
_cell_length_a 9.591752
_cell_length_b 12.996868
_cell_length_c 8.275423
_cell_angle_alpha 61.307343
_cell_angle_beta 122.277808
_cell_angle_gamma 133.613790
_cell_volume 620.878683
_symmetry_space_group_name_H-M "P -1"
_symmetry_group_IT_number 2
_symmetry_cell_setting 'triclinic'
loop_
_space_group_symop_operation_xyz
x,y,z
-x,-y,-z
loop_
_atom_site_type_symbol
_atom_site_label
_atom_site_fract_x
_atom_site_fract_y
_atom_site_fract_z
Si Si1 0.191264 0.079520 0.938807
Si Si2 0.369549 0.598108 0.451660
Si Si3 0.225637 0.279542 0.565311
Si Si4 0.041241 0.609409 0.079105
Si Si5 0.145119 0.887229 0.760693
Si Si6 0.434544 0.897251 0.691089
Si Si7 0.796767 0.413751 0.334099
O O1 0.232164 0.230229 0.789768
O O2 0.163935 0.001573 0.810127
O O3 0.379601 0.105362 0.133269
O O4 0.000000 0.000000 0.000000
O O5 0.246524 0.428263 0.465167
O O6 0.591290 0.697898 0.441575
O O7 0.245391 0.657534 0.262937
O O8 0.388529 0.619809 0.642022
O O9 0.018599 0.152514 0.448551
O O10 0.839458 0.521662 0.133137
O O11 0.066187 0.748634 0.925006
O O12 0.000000 0.500000 0.000000
O O13 0.357350 0.947049 0.753953
O O14 0.247993 0.735087 0.648954
O O15 0.500000 0.000000 0.500000
O O16 0.000000 0.500000 0.500000
#
# Coordination Sequence:
#
# PCOD8023132 Si02
#       7
#     2   2   2   2   2   2   2
#     4  12  30  45  67 100 144 186 227 279 349 417
#     4  10  23  40  69 100 133 177 221 293 338 408
#     4  11  24  45  66  97 142 177 228 275 356 406
#     4  11  20  41  69 101 130 168 238 283 336 395
#     4  12  25  45  72  98 137 189 226 288 336 415
#     4  12  27  46  73 104 138 182 236 284 344 409
#     4  10  23  40  70 100 134 172 226 286 337 401
#
# _framework density 22.548687000000001
#
# number of rings (size 3 to 8) (size 9 to 14) (size 15 to 20)
#    0.000    0.857    2.857    3.429   10.000    0.000 
#    0.000    1.429    0.000    0.000    0.000    0.000 
#    0.000    0.000    0.000    0.000    0.000    0.000 
#
# Total GULP energy -173579.619280 kJ/mol
# GULP energy per Si atom -12398.544234 kJ/mol
# Density = 2.249737 g / cm^3
# Si number density = 22.548687 Si / 1000 Ang^3
#
#
#
# Elastic Constant Matrix: (Units=GPa)
#
#
# Indices 1 2 3 4 5 6 
#
# 1 132.4513 17.9559 37.4593 0.8887 -28.9555 15.4820
# 2 17.9559 61.8324 23.3652 -1.1194 -0.3741 7.6541
# 3 37.4593 23.3652 137.5945 -16.2609 -7.1319 19.9384
# 4 0.8887 -1.1194 -16.2609 41.0412 9.7792 -9.5595
# 5 -28.9555 -0.3741 -7.1319 9.7792 46.4087 -0.5344
# 6 15.4820 7.6541 19.9384 -9.5595 -0.5344 34.5439
#
#
#
# Elastic Compliance Matrix: (Units=1/GPa)
#
#
# Indices 1 2 3 4 5 6 
#
# 1 0.010347 -0.001776 -0.002012 -0.003630 0.006851 -0.003981
# 2 -0.001776 0.017816 -0.002392 -0.000585 -0.001231 -0.001952
# 3 -0.002012 -0.002392 0.008970 0.002983 -0.000559 -0.002928
# 4 -0.003630 -0.000585 0.002983 0.029367 -0.007906 0.008039
# 5 0.006851 -0.001231 -0.000559 -0.007906 0.027344 -0.004240
# 6 -0.003981 -0.001952 -0.002928 0.008039 -0.004240 0.035015
#
#
# Mechanical properties :
#
#
# Convention : Reuss Voigt Hill
#
# Bulk Modulus (GPa) = 40.36724 54.38209 47.37466
# Shear Modulus (GPa) = 33.45018 41.27195 37.36106
#
# Velocity S-wave (km/s) = 3.85576 4.28290 4.07493
# Velocity P-wave (km/s) = 6.14521 6.97335 6.57234
#
# Compressibility (1/GPa) = 0.02477256
#
# Stress axis : x y z
#
# Youngs Moduli (GPa) = 96.64366 56.12960 111.48617
#
# Poissons Ratio (x) = 0.09968 0.22435
# Poissons Ratio (y) = 0.17162 0.26667
# Poissons Ratio (z) = 0.19448 0.13426
#
# Static dielectric constant tensor:
#      x y z
#    x 4.469920 0.111610 -0.598330 
#    y 0.111610 3.641540 0.483210 
#    z -0.598330 0.483210 3.486160 
# 
# 
# High freq. dielectric constant tensor:
#      x y z
#    x 1.899690 0.004930 -0.017960 
#    y 0.004930 1.886150 -0.009430 
#    z -0.017960 -0.009430 1.898390 
# 
# From -- ./inp_files/185422.got.cif
#   From: 2010.06.25/outbox.cif.g09.slc.cpg/sg2_93_cif.got.tgz:185422.got - 2010.06.27 13:26:56.
