data_PCOD8023913
_publ_section_title
;
Structure prediction by ZEFSAII (Michael W. Deem and Ramdas Pophale) SiO2 
 PCOD8023913
Probable space group: P -1
;
_chemical_formula_sum "Si O2"
_cell_formula_units_Z 14
_cell_length_a 7.302167
_cell_length_b 16.919885
_cell_length_c 7.616402
_cell_angle_alpha 137.644751
_cell_angle_beta 94.307552
_cell_angle_gamma 89.012131
_cell_volume 631.172215
_symmetry_space_group_name_H-M "P -1"
_symmetry_group_IT_number 2
_symmetry_cell_setting 'triclinic'
loop_
_space_group_symop_operation_xyz
x,y,z
-x,-y,-z
loop_
_atom_site_type_symbol
_atom_site_label
_atom_site_fract_x
_atom_site_fract_y
_atom_site_fract_z
Si Si1 0.049759 0.526973 0.746874
Si Si2 0.069332 0.851089 0.928279
Si Si3 0.061014 0.801745 0.233339
Si Si4 0.461208 0.523936 0.835109
Si Si5 0.745255 0.357399 0.547782
Si Si6 0.432646 0.766032 0.331856
Si Si7 0.187392 0.110714 0.333598
O O1 0.253585 0.485734 0.715107
O O2 0.000000 0.500000 0.500000
O O3 0.923217 0.446104 0.736285
O O4 0.027333 0.662035 0.013120
O O5 0.999212 0.853008 0.126222
O O6 0.183358 0.970572 0.078534
O O7 0.207146 0.744944 0.751971
O O8 0.894244 0.830721 0.751470
O O9 0.279290 0.839597 0.342128
O O10 0.937045 0.860709 0.463928
O O11 0.588748 0.439705 0.591519
O O12 0.500000 0.500000 0.000000
O O13 0.505328 0.664745 0.040637
O O14 0.685586 0.299369 0.630737
O O15 0.600625 0.846771 0.552441
#
# Coordination Sequence:
#
# PCOD8023913 Si02
#       7
#     2   2   2   2   2   2   2
#     4  11  23  40  65  99 136 168 216 265 330 395
#     4  11  25  45  70  96 130 176 230 270 329 390
#     4  11  23  46  67  99 134 171 218 279 327 394
#     4   9  22  37  61  94 125 171 209 256 327 394
#     4  11  22  41  64  97 135 170 213 271 320 399
#     4  10  23  42  67  97 132 172 221 266 335 392
#     4  11  25  48  67  95 131 178 225 277 327 384
#
# _framework density 22.180951
#
# number of rings (size 3 to 8) (size 9 to 14) (size 15 to 20)
#    0.000    1.429    2.857    1.286    4.000    6.857 
#    5.143    0.000    0.000    0.000    0.000    0.000 
#    0.000    0.000    0.000    0.000    0.000    0.000 
#
# Total GULP energy -173560.073328 kJ/mol
# GULP energy per Si atom -12397.148095 kJ/mol
# Density = 2.213047 g / cm^3
# Si number density = 22.180951 Si / 1000 Ang^3
#
#
#
# Elastic Constant Matrix: (Units=GPa)
#
#
# Indices 1 2 3 4 5 6 
#
# 1 145.8378 45.3087 61.6184 2.0910 27.9548 -6.2909
# 2 45.3087 82.9353 27.5583 -11.8401 12.7578 -0.3726
# 3 61.6184 27.5583 83.6539 0.1170 14.8001 -3.3239
# 4 2.0910 -11.8401 0.1170 41.7428 -0.6007 8.3891
# 5 27.9548 12.7578 14.8001 -0.6007 29.2934 2.7959
# 6 -6.2909 -0.3726 -3.3239 8.3891 2.7959 22.6438
#
#
#
# Elastic Compliance Matrix: (Units=1/GPa)
#
#
# Indices 1 2 3 4 5 6 
#
# 1 0.012397 -0.003884 -0.006368 -0.002686 -0.007393 0.004354
# 2 -0.003884 0.015915 -0.002198 0.005268 -0.001732 -0.002878
# 3 -0.006368 -0.002198 0.017791 -0.000646 -0.002093 0.001304
# 4 -0.002686 0.005268 -0.000646 0.027905 0.002253 -0.011371
# 5 -0.007393 -0.001732 -0.002093 0.002253 0.043875 -0.008642
# 6 0.004354 -0.002878 0.001304 -0.011371 -0.008642 0.050796
#
#
# Mechanical properties :
#
#
# Convention : Reuss Voigt Hill
#
# Bulk Modulus (GPa) = 47.15631 64.59975 55.87803
# Shear Modulus (GPa) = 24.91960 30.59877 27.75919
#
# Velocity S-wave (km/s) = 3.35545 3.71820 3.54147
# Velocity P-wave (km/s) = 6.02645 6.90076 6.47837
#
# Compressibility (1/GPa) = 0.02120607
#
# Stress axis : x y z
#
# Youngs Moduli (GPa) = 80.66280 62.83330 56.20739
#
# Poissons Ratio (x) = 0.24402 0.35791
# Poissons Ratio (y) = 0.31326 0.12352
# Poissons Ratio (z) = 0.51363 0.13808
#
# Static dielectric constant tensor:
#      x y z
#    x 4.386560 -0.198390 -0.126100 
#    y -0.198390 3.987950 0.183580 
#    z -0.126100 0.183580 4.380910 
# 
# 
# High freq. dielectric constant tensor:
#      x y z
#    x 1.869600 -0.014250 -0.002100 
#    y -0.014250 1.865340 0.004700 
#    z -0.002100 0.004700 1.881410 
# 
# From -- ./inp_files/140903.got.cif
#   From: 2010.06.25/outbox.cif.g09.slc.cpg/sg2_71_cif.got.tgz:140903.got - 2010.06.27 13:26:56.
