data_PCOD8023997
_publ_section_title
;
Structure prediction by ZEFSAII (Michael W. Deem and Ramdas Pophale) SiO2 
 PCOD8023997
Probable space group: P -1
;
_chemical_formula_sum "Si O2"
_cell_formula_units_Z 16
_cell_length_a 11.389641
_cell_length_b 9.164896
_cell_length_c 16.910471
_cell_angle_alpha 85.948651
_cell_angle_beta 58.251113
_cell_angle_gamma 38.507475
_cell_volume 714.761080
_symmetry_space_group_name_H-M "P -1"
_symmetry_group_IT_number 2
_symmetry_cell_setting 'triclinic'
loop_
_space_group_symop_operation_xyz
x,y,z
-x,-y,-z
loop_
_atom_site_type_symbol
_atom_site_label
_atom_site_fract_x
_atom_site_fract_y
_atom_site_fract_z
Si Si1 0.940356 0.613781 0.430227
Si Si2 0.063710 0.288734 0.835892
Si Si3 0.408243 0.124271 0.939309
Si Si4 0.727374 0.359439 0.864246
Si Si5 0.797996 0.905790 0.693101
Si Si6 0.506790 0.760140 0.807659
Si Si7 0.582273 0.769766 0.342708
Si Si8 0.798836 0.278104 0.362232
O O1 0.000000 0.500000 0.500000
O O2 0.967925 0.445181 0.371956
O O3 0.172963 0.517536 0.328120
O O4 0.634784 0.980966 0.519446
O O5 0.204872 0.290378 0.737338
O O6 0.839574 0.410928 0.855366
O O7 0.292352 0.957335 0.801076
O O8 0.907303 0.509322 0.957651
O O9 0.607503 0.065543 0.833414
O O10 0.402782 0.988278 0.891550
O O11 0.500000 0.000000 0.000000
O O12 0.519438 0.593097 0.854552
O O13 0.500000 0.500000 0.000000
O O14 0.017027 0.001718 0.749256
O O15 0.985897 0.878934 0.635672
O O16 0.596403 0.091495 0.680327
O O17 0.741158 0.472700 0.320248
O O18 0.500000 0.500000 0.500000
#
# Coordination Sequence:
#
# PCOD8023997 Si02
#       8
#     2   2   2   2   2   2   2   2
#     4   9  18  40  66 107 132 158 219 301 344 377
#     4  12  24  41  77 102 126 178 241 282 338 408
#     4  11  20  39  67 106 134 165 217 304 340 385
#     4  12  30  48  64  98 150 191 223 279 351 423
#     4  10  23  42  68  99 138 172 223 288 349 389
#     4  11  23  42  71 100 134 177 229 285 348 401
#     4  11  24  42  75 104 131 173 236 294 337 405
#     4  12  29  46  67 103 143 192 229 272 354 432
#
# _framework density 22.385103000000001
#
# number of rings (size 3 to 8) (size 9 to 14) (size 15 to 20)
#    0.000    1.000    5.000    2.625    5.250    2.500 
#    0.000    0.000    0.000    0.000    0.000    0.000 
#    0.000    0.000    0.000    0.000    0.000    0.000 
#
# Total GULP energy -198264.181751 kJ/mol
# GULP energy per Si atom -12391.511359 kJ/mol
# Density = 2.233415 g / cm^3
# Si number density = 22.385103 Si / 1000 Ang^3
#
#
#
# Elastic Constant Matrix: (Units=GPa)
#
#
# Indices 1 2 3 4 5 6 
#
# 1 68.6860 13.7205 25.9967 -0.9454 -18.4033 -1.9126
# 2 13.7205 129.8627 46.5723 -3.4780 -6.0821 15.4506
# 3 25.9967 46.5723 168.4592 11.9170 -4.2558 14.3711
# 4 -0.9454 -3.4780 11.9170 43.1127 7.8030 6.8352
# 5 -18.4033 -6.0821 -4.2558 7.8030 30.6215 0.6701
# 6 -1.9126 15.4506 14.3711 6.8352 0.6701 17.4764
#
#
#
# Elastic Compliance Matrix: (Units=1/GPa)
#
#
# Indices 1 2 3 4 5 6 
#
# 1 0.018916 -0.001253 -0.002643 -0.001862 0.011103 0.005654
# 2 -0.001253 0.009562 -0.001933 0.002467 0.000423 -0.007982
# 3 -0.002643 -0.001933 0.007313 -0.001517 -0.000482 -0.003983
# 4 -0.001862 0.002467 -0.001517 0.026926 -0.007452 -0.011383
# 5 0.011103 0.000423 -0.000482 -0.007452 0.041189 0.002573
# 6 0.005654 -0.007982 -0.003983 -0.011383 0.002573 0.072524
#
#
# Mechanical properties :
#
#
# Convention : Reuss Voigt Hill
#
# Bulk Modulus (GPa) = 41.43687 59.95412 50.69550
# Shear Modulus (GPa) = 25.49294 36.95667 31.22481
#
# Velocity S-wave (km/s) = 3.37832 4.06760 3.73888
# Velocity P-wave (km/s) = 5.81107 6.99297 6.42924
#
# Compressibility (1/GPa) = 0.02413310
#
# Stress axis : x y z
#
# Youngs Moduli (GPa) = 52.86444 104.58478 136.73876
#
# Poissons Ratio (x) = 0.13108 0.36137
# Poissons Ratio (y) = 0.06626 0.26430
# Poissons Ratio (z) = 0.13971 0.20215
#
# Static dielectric constant tensor:
#      x y z
#    x 3.885680 0.041810 0.158400 
#    y 0.041810 4.149660 0.346680 
#    z 0.158400 0.346680 4.513250 
# 
# 
# High freq. dielectric constant tensor:
#      x y z
#    x 1.865200 -0.007290 0.005950 
#    y -0.007290 1.888010 0.009020 
#    z 0.005950 0.009020 1.901920 
# 
# From -- ./inp_files/566719.got.cif
#   From: 2010.06.25/outbox.cif.g09.slc.cpg/sg2_284_cif.got.tgz:566719.got - 2010.06.27 13:26:56.
