data_PCOD8023823
_publ_section_title
;
Structure prediction by ZEFSAII (Michael W. Deem and Ramdas Pophale) SiO2 
 PCOD8023823
Probable space group: P -1
;
_chemical_formula_sum "Si O2"
_cell_formula_units_Z 16
_cell_length_a 9.347982
_cell_length_b 6.232308
_cell_length_c 18.490187
_cell_angle_alpha 40.606637
_cell_angle_beta 82.755465
_cell_angle_gamma 84.011225
_cell_volume 695.468914
_symmetry_space_group_name_H-M "P -1"
_symmetry_group_IT_number 2
_symmetry_cell_setting 'triclinic'
loop_
_space_group_symop_operation_xyz
x,y,z
-x,-y,-z
loop_
_atom_site_type_symbol
_atom_site_label
_atom_site_fract_x
_atom_site_fract_y
_atom_site_fract_z
Si Si1 0.245810 0.723230 0.415283
Si Si2 0.974833 0.796078 0.625759
Si Si3 0.666162 0.967521 0.973098
Si Si4 0.531466 0.938430 0.597159
Si Si5 0.267168 0.677555 0.261967
Si Si6 0.854081 0.309640 0.129015
Si Si7 0.219405 0.995725 0.647885
Si Si8 0.108608 0.749092 0.019527
O O1 0.295802 0.789462 0.313160
O O2 0.188590 0.354639 0.524145
O O3 0.120098 0.982470 0.371203
O O4 0.382051 0.756648 0.452024
O O5 0.898327 0.446383 0.705131
O O6 0.000000 0.000000 0.500000
O O7 0.125978 0.735906 0.673169
O O8 0.691997 0.028823 0.870216
O O9 0.748371 0.256018 0.938644
O O10 0.738745 0.608914 0.074980
O O11 0.500000 0.000000 0.000000
O O12 0.627179 0.621031 0.687450
O O13 0.500000 0.000000 0.500000
O O14 0.383910 0.884016 0.661673
O O15 0.022060 0.407276 0.106954
O O16 0.822408 0.016610 0.261950
O O17 0.841507 0.156114 0.089107
O O18 0.000000 0.000000 0.000000
#
# Coordination Sequence:
#
# PCOD8023823 Si02
#       8
#     2   2   2   2   2   2   2   2
#     4  11  24  42  64  96 130 166 211 257 328 384
#     4  11  23  43  61  97 133 165 213 263 317 384
#     4  11  24  43  65  96 130 169 220 262 318 380
#     4  11  23  43  62  93 132 166 209 256 319 383
#     4  11  24  42  68  92 131 175 205 267 321 374
#     4  10  23  42  66  94 126 171 214 266 316 376
#     4  12  22  40  66  97 130 164 213 265 316 385
#     4   9  21  45  63  88 126 166 218 265 315 368
#
# _framework density 23.006062
#
# number of rings (size 3 to 8) (size 9 to 14) (size 15 to 20)
#    0.000    1.250    2.500    3.000    0.000    6.500 
#    9.000    0.000    0.000    0.000    0.000    0.000 
#    0.000    0.000    0.000    0.000    0.000    0.000 
#
# Total GULP energy -198387.798293 kJ/mol
# GULP energy per Si atom -12399.237393 kJ/mol
# Density = 2.295370 g / cm^3
# Si number density = 23.006062 Si / 1000 Ang^3
#
#
#
# Elastic Constant Matrix: (Units=GPa)
#
#
# Indices 1 2 3 4 5 6 
#
# 1 124.2516 29.8327 19.9202 8.0206 -18.1728 21.2723
# 2 29.8327 95.3879 26.7341 32.3146 -7.8459 16.7821
# 3 19.9202 26.7341 128.4846 43.6806 -12.5501 9.1968
# 4 8.0206 32.3146 43.6806 40.5933 -5.4702 1.7796
# 5 -18.1728 -7.8459 -12.5501 -5.4702 29.8894 6.2857
# 6 21.2723 16.7821 9.1968 1.7796 6.2857 34.2354
#
#
#
# Elastic Compliance Matrix: (Units=1/GPa)
#
#
# Indices 1 2 3 4 5 6 
#
# 1 0.010818 -0.001705 -0.000393 0.000994 0.007669 -0.007240
# 2 -0.001705 0.017207 0.002936 -0.015696 0.003522 -0.007995
# 3 -0.000393 0.002936 0.013388 -0.015886 0.004244 -0.004745
# 4 0.000994 -0.015696 -0.015886 0.053320 -0.002320 0.008999
# 5 0.007669 0.003522 0.004244 -0.002320 0.043667 -0.015528
# 6 -0.007240 -0.007995 -0.004745 0.008999 -0.015528 0.041285
#
#
# Mechanical properties :
#
#
# Convention : Reuss Voigt Hill
#
# Bulk Modulus (GPa) = 23.20753 55.67758 39.44255
# Shear Modulus (GPa) = 25.99140 39.05276 32.52208
#
# Velocity S-wave (km/s) = 3.36484 4.12454 3.76391
# Velocity P-wave (km/s) = 5.02053 6.85100 6.00591
#
# Compressibility (1/GPa) = 0.04308947
#
# Stress axis : x y z
#
# Youngs Moduli (GPa) = 92.44229 58.11449 74.69436
#
# Poissons Ratio (x) = 0.09910 0.02934
# Poissons Ratio (y) = 0.15763 -0.21933
# Poissons Ratio (z) = 0.03631 -0.17064
#
# Static dielectric constant tensor:
#      x y z
#    x 5.799350 -0.313990 0.082240 
#    y -0.313990 4.508600 0.058700 
#    z 0.082240 0.058700 4.042710 
# 
# 
# High freq. dielectric constant tensor:
#      x y z
#    x 1.917370 0.004450 -0.004900 
#    y 0.004450 1.909150 0.021880 
#    z -0.004900 0.021880 1.900880 
# 
# From -- ./inp_files/553161.got.cif
#   From: 2010.06.25/outbox.cif.g09.slc.cpg/sg2_277_cif.got.tgz:553161.got - 2010.06.27 13:26:56.
