data_PCOD8023456
_publ_section_title
;
Structure prediction by ZEFSAII (Michael W. Deem and Ramdas Pophale) SiO2 
 PCOD8023456
Probable space group: P -1
;
_chemical_formula_sum "Si O2"
_cell_formula_units_Z 14
_cell_length_a 20.200872
_cell_length_b 8.581285
_cell_length_c 8.502750
_cell_angle_alpha 128.348072
_cell_angle_beta 49.989227
_cell_angle_gamma 151.124354
_cell_volume 538.557742
_symmetry_space_group_name_H-M "P -1"
_symmetry_group_IT_number 2
_symmetry_cell_setting 'triclinic'
loop_
_space_group_symop_operation_xyz
x,y,z
-x,-y,-z
loop_
_atom_site_type_symbol
_atom_site_label
_atom_site_fract_x
_atom_site_fract_y
_atom_site_fract_z
Si Si1 0.639366 0.283060 0.242878
Si Si2 0.806899 0.161053 0.566559
Si Si3 0.919612 0.653782 0.176803
Si Si4 0.602411 0.467561 0.910126
Si Si5 0.554037 0.500818 0.669343
Si Si6 0.988305 0.408971 0.725320
Si Si7 0.184837 0.360231 0.101701
O O1 0.759336 0.445746 0.290720
O O2 0.529183 0.242148 0.461788
O O3 0.547106 0.925383 0.108053
O O4 0.724800 0.536946 0.125808
O O5 0.864722 0.231156 0.345329
O O6 0.826716 0.425296 0.749566
O O7 0.893112 0.183434 0.576327
O O8 0.644271 0.798479 0.595971
O O9 0.974742 0.724128 0.316151
O O10 0.025658 0.982096 0.115893
O O11 0.909439 0.418792 0.965057
O O12 0.639185 0.617819 0.775868
O O13 0.731180 0.564951 0.827552
O O14 0.586455 0.628921 0.153761
#
# Coordination Sequence:
#
# PCOD8023456 Si02
#       7
#     2   2   2   2   2   2   2
#     4  12  25  45  73 102 140 179 233 285 340 408
#     4  11  23  42  66 103 139 181 223 286 339 413
#     4  11  24  44  68 106 134 181 226 288 337 412
#     4  11  26  50  68 100 140 184 230 285 338 417
#     4  11  25  45  73  96 138 185 230 280 347 401
#     4  10  23  41  67  97 147 175 227 276 353 401
#     4  12  25  43  72 100 144 177 231 283 345 404
#
# _framework density 25.995356999999998
#
# number of rings (size 3 to 8) (size 9 to 14) (size 15 to 20)
#    0.000    0.857    2.857    3.000    6.000    4.571 
#    2.571    0.000    0.000    0.000    0.000    0.000 
#    0.000    0.000    0.000    0.000    0.000    0.000 
#
# Total GULP energy -173578.636187 kJ/mol
# GULP energy per Si atom -12398.474013 kJ/mol
# Density = 2.593619 g / cm^3
# Si number density = 25.995357 Si / 1000 Ang^3
#
#
#
# Elastic Constant Matrix: (Units=GPa)
#
#
# Indices 1 2 3 4 5 6 
#
# 1 91.7038 3.5582 5.3340 4.8769 1.6523 -4.1205
# 2 3.5582 77.0495 4.7777 -8.8390 -12.1824 -7.5879
# 3 5.3340 4.7777 99.2684 -9.5571 -15.1830 -4.5352
# 4 4.8769 -8.8390 -9.5571 31.8429 -11.5470 5.8265
# 5 1.6523 -12.1824 -15.1830 -11.5470 29.5244 -7.6580
# 6 -4.1205 -7.5879 -4.5352 5.8265 -7.6580 35.2000
#
#
#
# Elastic Compliance Matrix: (Units=1/GPa)
#
#
# Indices 1 2 3 4 5 6 
#
# 1 0.011327 -0.001286 -0.001351 -0.003781 -0.003126 0.000820
# 2 -0.001286 0.016520 0.002401 0.009325 0.013072 0.005020
# 3 -0.001351 0.002401 0.012779 0.008385 0.011740 0.003172
# 4 -0.003781 0.009325 0.008385 0.046677 0.026823 0.000757
# 5 -0.003126 0.013072 0.011740 0.026823 0.059183 0.012400
# 6 0.000820 0.005020 0.003172 0.000757 0.012400 0.032568
#
#
# Mechanical properties :
#
#
# Convention : Reuss Voigt Hill
#
# Bulk Modulus (GPa) = 24.90555 32.81793 28.86174
# Shear Modulus (GPa) = 25.91835 36.27024 31.09430
#
# Velocity S-wave (km/s) = 3.16102 3.73937 3.46229
# Velocity P-wave (km/s) = 4.78793 5.59426 5.20673
#
# Compressibility (1/GPa) = 0.04015169
#
# Stress axis : x y z
#
# Youngs Moduli (GPa) = 88.28109 60.53177 78.25586
#
# Poissons Ratio (x) = 0.07787 0.10575
# Poissons Ratio (y) = 0.11357 -0.18786
# Poissons Ratio (z) = 0.11930 -0.14531
#
# Static dielectric constant tensor:
#      x y z
#    x 4.799550 -0.344960 0.067280 
#    y -0.344960 4.446960 -0.334570 
#    z 0.067280 -0.334570 4.645380 
# 
# 
# High freq. dielectric constant tensor:
#      x y z
#    x 2.045280 -0.018780 -0.004010 
#    y -0.018780 2.026230 -0.019480 
#    z -0.004010 -0.019480 2.037370 
# 
# From -- ./inp_files/156928.got.cif
#   From: 2010.06.25/outbox.cif.g09.slc.cpg/sg2_79_cif.got.tgz:156928.got - 2010.06.27 13:26:56.
