data_PCOD8023723
_publ_section_title
;
Structure prediction by ZEFSAII (Michael W. Deem and Ramdas Pophale) SiO2 
 PCOD8023723
Probable space group: P -1
;
_chemical_formula_sum "Si O2"
_cell_formula_units_Z 16
_cell_length_a 10.170515
_cell_length_b 11.615623
_cell_length_c 12.670226
_cell_angle_alpha 135.214827
_cell_angle_beta 64.972039
_cell_angle_gamma 135.673586
_cell_volume 725.798734
_symmetry_space_group_name_H-M "P -1"
_symmetry_group_IT_number 2
_symmetry_cell_setting 'triclinic'
loop_
_space_group_symop_operation_xyz
x,y,z
-x,-y,-z
loop_
_atom_site_type_symbol
_atom_site_label
_atom_site_fract_x
_atom_site_fract_y
_atom_site_fract_z
Si Si1 0.502057 0.636477 0.763532
Si Si2 0.460949 0.824154 0.095491
Si Si3 0.735832 0.264199 0.374174
Si Si4 0.088282 0.037292 0.261958
Si Si5 0.270318 0.072127 0.758914
Si Si6 0.433171 0.222334 0.574436
Si Si7 0.146670 0.817270 0.264956
Si Si8 0.853026 0.598539 0.397520
O O1 0.725138 0.807499 0.772007
O O2 0.443482 0.424828 0.700157
O O3 0.374981 0.562399 0.652771
O O4 0.451734 0.745167 0.930966
O O5 0.250007 0.721352 0.140068
O O6 0.579486 0.081519 0.223678
O O7 0.566680 0.773211 0.106723
O O8 0.833303 0.178341 0.341403
O O9 0.637312 0.299199 0.522094
O O10 0.886539 0.485092 0.402311
O O11 0.073044 0.172855 0.439240
O O12 0.894299 0.909544 0.174154
O O13 0.081047 0.858200 0.206174
O O14 0.381330 0.130247 0.649577
O O15 0.274155 0.039950 0.429997
O O16 0.963037 0.632514 0.275647
#
# Coordination Sequence:
#
# PCOD8023723 Si02
#       8
#     2   2   2   2   2   2   2   2
#     4  12  24  40  69  94 135 168 212 264 321 380
#     4   9  25  46  61  97 130 176 207 257 328 384
#     4   9  22  41  61  95 130 163 218 254 322 375
#     4  12  23  40  67 101 127 163 217 270 319 371
#     4  10  23  42  64  94 132 169 212 262 321 379
#     4  11  19  40  69  92 127 169 212 269 309 376
#     4  11  23  42  70  97 126 166 218 269 320 371
#     4  12  22  39  68 101 122 165 221 270 311 376
#
# _framework density 22.04468
#
# number of rings (size 3 to 8) (size 9 to 14) (size 15 to 20)
#    0.750    0.500    3.750    3.375    0.000    4.000 
#    2.250    1.250    0.000    0.000    0.000    0.000 
#    0.000    0.000    0.000    0.000    0.000    0.000 
#
# Total GULP energy -198343.747284 kJ/mol
# GULP energy per Si atom -12396.484205 kJ/mol
# Density = 2.199451 g / cm^3
# Si number density = 22.044680 Si / 1000 Ang^3
#
#
#
# Elastic Constant Matrix: (Units=GPa)
#
#
# Indices 1 2 3 4 5 6 
#
# 1 101.7252 49.2559 -2.9707 -18.4433 -1.9321 1.0759
# 2 49.2559 107.0698 15.1145 -22.4799 -6.5655 -11.9654
# 3 -2.9707 15.1145 54.8095 -12.7463 -14.9843 4.5521
# 4 -18.4433 -22.4799 -12.7463 19.3036 3.4707 -1.1317
# 5 -1.9321 -6.5655 -14.9843 3.4707 22.2278 -9.6218
# 6 1.0759 -11.9654 4.5521 -1.1317 -9.6218 35.0437
#
#
#
# Elastic Compliance Matrix: (Units=1/GPa)
#
#
# Indices 1 2 3 4 5 6 
#
# 1 0.014597 -0.005435 0.005093 0.010774 0.000319 -0.002530
# 2 -0.005435 0.015576 -0.001193 0.011750 0.004648 0.007296
# 3 0.005093 -0.001193 0.027561 0.018831 0.016114 0.000889
# 4 0.010774 0.011750 0.018831 0.087488 0.005900 0.005680
# 5 0.000319 0.004648 0.016114 0.005900 0.063769 0.017183
# 6 -0.002530 0.007296 0.000889 0.005680 0.017183 0.035890
#
#
# Mechanical properties :
#
#
# Convention : Reuss Voigt Hill
#
# Bulk Modulus (GPa) = 18.29343 42.93378 30.61361
# Shear Modulus (GPa) = 18.78484 28.79536 23.79010
#
# Velocity S-wave (km/s) = 2.92229 3.61810 3.28865
# Velocity P-wave (km/s) = 4.43877 6.08048 5.32330
#
# Compressibility (1/GPa) = 0.05466443
#
# Stress axis : x y z
#
# Youngs Moduli (GPa) = 68.50645 64.20235 36.28343
#
# Poissons Ratio (x) = 0.34895 -0.18479
# Poissons Ratio (y) = 0.37235 0.04327
# Poissons Ratio (z) = -0.34891 0.07656
#
# Static dielectric constant tensor:
#      x y z
#    x 4.008810 0.003370 -0.048960 
#    y 0.003370 3.800620 -0.090510 
#    z -0.048960 -0.090510 3.629850 
# 
# 
# High freq. dielectric constant tensor:
#      x y z
#    x 1.871660 -0.001910 -0.003910 
#    y -0.001910 1.864470 -0.009730 
#    z -0.003910 -0.009730 1.841310 
# 
# From -- ./inp_files/426676.got.cif
#   From: 2010.06.25/outbox.cif.g09.slc.cpg/sg2_214_cif.got.tgz:426676.got - 2010.06.27 13:26:56.
