data_PCOD8023108
_publ_section_title
;
Structure prediction by ZEFSAII (Michael W. Deem and Ramdas Pophale) SiO2 
 PCOD8023108
Probable space group: P -1
;
_chemical_formula_sum "Si O2"
_cell_formula_units_Z 14
_cell_length_a 22.793592
_cell_length_b 9.691905
_cell_length_c 5.308727
_cell_angle_alpha 107.881266
_cell_angle_beta 91.919461
_cell_angle_gamma 36.203979
_cell_volume 609.478434
_symmetry_space_group_name_H-M "P -1"
_symmetry_group_IT_number 2
_symmetry_cell_setting 'triclinic'
loop_
_space_group_symop_operation_xyz
x,y,z
-x,-y,-z
loop_
_atom_site_type_symbol
_atom_site_label
_atom_site_fract_x
_atom_site_fract_y
_atom_site_fract_z
Si Si1 0.268921 0.550157 0.998595
Si Si2 0.840994 0.924061 0.794711
Si Si3 0.226491 0.212641 0.020114
Si Si4 0.734084 0.599841 0.581851
Si Si5 0.056943 0.486769 0.810987
Si Si6 0.535425 0.263286 0.380821
Si Si7 0.497275 0.175531 0.834630
O O1 0.219014 0.566419 0.761466
O O2 0.398453 0.268049 0.847572
O O3 0.225158 0.574704 0.266707
O O4 0.239821 0.779751 0.111869
O O5 0.785351 0.934019 0.000022
O O6 0.857910 0.783561 0.484285
O O7 0.957444 0.756278 0.785529
O O8 0.223026 0.323311 0.330373
O O9 0.126823 0.461396 0.959967
O O10 0.336022 0.019189 0.780071
O O11 0.605145 0.859072 0.695675
O O12 0.000000 0.500000 0.000000
O O13 0.500000 0.500000 0.500000
O O14 0.498698 0.275709 0.648207
O O15 0.478220 0.306249 0.159643
#
# Coordination Sequence:
#
# PCOD8023108 Si02
#       7
#     2   2   2   2   2   2   2
#     4  12  25  42  68  96 135 172 228 267 312 381
#     4  10  23  41  71  96 122 170 223 272 324 394
#     4  10  23  40  68  90 134 172 212 266 336 385
#     4  11  25  42  63  99 135 179 215 262 326 388
#     4   9  21  42  69  93 126 164 219 266 343 391
#     4  11  23  36  62 101 133 167 222 271 316 374
#     4  11  23  41  61  91 137 185 213 254 320 392
#
# _framework density 22.970459000000002
#
# number of rings (size 3 to 8) (size 9 to 14) (size 15 to 20)
#    0.000    1.429    0.000    4.714   12.000    0.000 
#    0.000    1.429    0.000    0.000    0.000    0.000 
#    0.000    0.000    0.000    0.000    0.000    0.000 
#
# Total GULP energy -173552.138846 kJ/mol
# GULP energy per Si atom -12396.581346 kJ/mol
# Density = 2.291818 g / cm^3
# Si number density = 22.970459 Si / 1000 Ang^3
#
#
#
# Elastic Constant Matrix: (Units=GPa)
#
#
# Indices 1 2 3 4 5 6 
#
# 1 82.5331 35.8307 16.6226 -11.7082 15.2234 -13.4312
# 2 35.8307 79.4861 35.7308 -23.6398 11.7832 2.8969
# 3 16.6226 35.7308 81.3674 -29.7477 8.8212 -6.0125
# 4 -11.7082 -23.6398 -29.7477 39.6741 1.7938 -0.5008
# 5 15.2234 11.7832 8.8212 1.7938 28.3005 -7.1488
# 6 -13.4312 2.8969 -6.0125 -0.5008 -7.1488 46.8380
#
#
#
# Elastic Compliance Matrix: (Units=1/GPa)
#
#
# Indices 1 2 3 4 5 6 
#
# 1 0.016955 -0.006925 0.001327 0.002185 -0.005621 0.004626
# 2 -0.006925 0.020913 -0.005097 0.006763 -0.004990 -0.004623
# 3 0.001327 -0.005097 0.019408 0.012155 -0.004757 0.002591
# 4 0.002185 0.006763 0.012155 0.039459 -0.010118 0.000646
# 5 -0.005621 -0.004990 -0.004757 -0.010118 0.043736 0.004653
# 6 0.004626 -0.004623 0.002591 0.000646 0.004653 0.024012
#
#
# Mechanical properties :
#
#
# Convention : Reuss Voigt Hill
#
# Bulk Modulus (GPa) = 27.86562 46.63942 37.25252
# Shear Modulus (GPa) = 25.27356 33.30937 29.29146
#
# Velocity S-wave (km/s) = 3.32062 3.81214 3.57484
# Velocity P-wave (km/s) = 5.18261 6.30276 5.76993
#
# Compressibility (1/GPa) = 0.03588652
#
# Stress axis : x y z
#
# Youngs Moduli (GPa) = 58.97943 47.81638 51.52551
#
# Poissons Ratio (x) = 0.33114 -0.06839
# Poissons Ratio (y) = 0.40844 0.26262
# Poissons Ratio (z) = -0.07828 0.24372
#
# Static dielectric constant tensor:
#      x y z
#    x 4.457630 -0.698520 0.048550 
#    y -0.698520 4.550440 -0.310280 
#    z 0.048550 -0.310280 4.505680 
# 
# 
# High freq. dielectric constant tensor:
#      x y z
#    x 1.904620 -0.010090 0.005700 
#    y -0.010090 1.897530 -0.026430 
#    z 0.005700 -0.026430 1.909410 
# 
# From -- ./inp_files/53145.got.cif
#   From: 2010.06.25/outbox.cif.g09.slc.cpg/sg2_27_cif.got.tgz:53145.got - 2010.06.27 13:26:56.
