data_PCOD8023939
_publ_section_title
;
Structure prediction by ZEFSAII (Michael W. Deem and Ramdas Pophale) SiO2 
 PCOD8023939
Probable space group: P -1
;
_chemical_formula_sum "Si O2"
_cell_formula_units_Z 12
_cell_length_a 13.080434
_cell_length_b 8.481967
_cell_length_c 10.468614
_cell_angle_alpha 82.498409
_cell_angle_beta 145.176610
_cell_angle_gamma 115.902030
_cell_volume 534.607863
_symmetry_space_group_name_H-M "P -1"
_symmetry_group_IT_number 2
_symmetry_cell_setting 'triclinic'
loop_
_space_group_symop_operation_xyz
x,y,z
-x,-y,-z
loop_
_atom_site_type_symbol
_atom_site_label
_atom_site_fract_x
_atom_site_fract_y
_atom_site_fract_z
Si Si1 0.452248 0.096800 0.682241
Si Si2 0.808408 0.724542 0.176527
Si Si3 0.063549 0.629764 0.927153
Si Si4 0.488511 0.699045 0.033902
Si Si5 0.036762 0.059466 0.176998
Si Si6 0.823096 0.320710 0.490793
O O1 0.491861 0.140734 0.870082
O O2 0.284283 0.142410 0.457396
O O3 0.355263 0.869389 0.588145
O O4 0.673478 0.228501 0.816163
O O5 0.730657 0.788034 0.213164
O O6 0.025021 0.729014 0.424093
O O7 0.600127 0.500474 0.956157
O O8 0.855246 0.868327 0.092547
O O9 0.973586 0.760174 0.826511
O O10 0.974055 0.501701 0.720594
O O11 0.000000 0.500000 0.000000
O O12 0.303485 0.633919 0.743183
O O13 0.000000 0.000000 0.000000
#
# Coordination Sequence:
#
# PCOD8023939 Si02
#       6
#     2   2   2   2   2   2
#     4  11  26  45  70 104 137 182 229 280 343 406
#     4  10  23  42  68 101 140 178 227 277 336 403
#     4  12  27  46  72 101 135 184 234 282 341 404
#     4  11  23  41  72 104 142 179 228 276 344 410
#     4  11  27  48  71  99 139 181 231 286 340 407
#     4  11  24  43  70 101 143 177 226 285 337 406
#
# _framework density 22.446359000000001
#
# number of rings (size 3 to 8) (size 9 to 14) (size 15 to 20)
#    0.000    1.000    1.667    4.000    4.667    7.333 
#    0.000    0.000    0.000    0.000    0.000    0.000 
#    0.000    0.000    0.000    0.000    0.000    0.000 
#
# Total GULP energy -148807.213893 kJ/mol
# GULP energy per Si atom -12400.601158 kJ/mol
# Density = 2.239527 g / cm^3
# Si number density = 22.446359 Si / 1000 Ang^3
#
#
#
# Elastic Constant Matrix: (Units=GPa)
#
#
# Indices 1 2 3 4 5 6 
#
# 1 53.5933 37.1876 24.3246 3.6479 13.3313 12.6223
# 2 37.1876 150.1320 42.0550 0.5485 16.1269 12.1046
# 3 24.3246 42.0550 101.8420 -3.4854 12.0335 11.6807
# 4 3.6479 0.5485 -3.4854 34.2448 3.7035 9.3206
# 5 13.3313 16.1269 12.0335 3.7035 27.8284 5.2917
# 6 12.6223 12.1046 11.6807 9.3206 5.2917 40.3774
#
#
#
# Elastic Compliance Matrix: (Units=1/GPa)
#
#
# Indices 1 2 3 4 5 6 
#
# 1 0.026189 -0.004436 -0.003002 -0.000896 -0.007649 -0.004779
# 2 -0.004436 0.008614 -0.002213 0.000424 -0.001889 -0.000406
# 3 -0.003002 -0.002213 0.012063 0.002424 -0.002413 -0.002131
# 4 -0.000896 0.000424 0.002424 0.031963 -0.003703 -0.007441
# 5 -0.007649 -0.001889 -0.002413 -0.003703 0.042429 -0.001050
# 6 -0.004779 -0.000406 -0.002131 -0.007441 -0.001050 0.028854
#
#
# Mechanical properties :
#
#
# Convention : Reuss Voigt Hill
#
# Bulk Modulus (GPa) = 36.28083 56.96686 46.62385
# Shear Modulus (GPa) = 27.99547 33.95681 30.97614
#
# Velocity S-wave (km/s) = 3.53543 3.89369 3.71887
# Velocity P-wave (km/s) = 5.73272 6.75638 6.26549
#
# Compressibility (1/GPa) = 0.02756276
#
# Stress axis : x y z
#
# Youngs Moduli (GPa) = 38.18420 116.09582 82.90124
#
# Poissons Ratio (x) = 0.51497 0.24888
# Poissons Ratio (y) = 0.16938 0.18348
# Poissons Ratio (z) = 0.11463 0.25695
#
# Static dielectric constant tensor:
#      x y z
#    x 4.200140 0.003070 0.158140 
#    y 0.003070 4.320020 0.113220 
#    z 0.158140 0.113220 3.907700 
# 
# 
# High freq. dielectric constant tensor:
#      x y z
#    x 1.890530 0.000260 0.017890 
#    y 0.000260 1.904230 0.006420 
#    z 0.017890 0.006420 1.875590 
# 
# From -- ./inp_files/96653.got.cif
#   From: 2010.06.25/outbox.cif.g09.slc.cpg/sg2_49_cif.got.tgz:96653.got - 2010.06.27 13:26:56.
