data_PCOD8023575
_publ_section_title
;
Structure prediction by ZEFSAII (Michael W. Deem and Ramdas Pophale) SiO2 
 PCOD8023575
Probable space group: P -1
;
_chemical_formula_sum "Si O2"
_cell_formula_units_Z 12
_cell_length_a 15.352819
_cell_length_b 24.037993
_cell_length_c 8.928215
_cell_angle_alpha 31.136629
_cell_angle_beta 29.650003
_cell_angle_gamma 21.130944
_cell_volume 568.342158
_symmetry_space_group_name_H-M "P -1"
_symmetry_group_IT_number 2
_symmetry_cell_setting 'triclinic'
loop_
_space_group_symop_operation_xyz
x,y,z
-x,-y,-z
loop_
_atom_site_type_symbol
_atom_site_label
_atom_site_fract_x
_atom_site_fract_y
_atom_site_fract_z
Si Si1 0.503662 0.976896 0.720700
Si Si2 0.870840 0.610700 0.086024
Si Si3 0.368349 0.456056 0.873075
Si Si4 0.532546 0.595850 0.813951
Si Si5 0.268556 0.907968 0.885754
Si Si6 0.033039 0.073298 0.159793
O O1 0.500000 0.000000 0.500000
O O2 0.618373 0.033361 0.496357
O O3 0.675869 0.794663 0.915495
O O4 0.196495 0.095636 0.947462
O O5 0.716951 0.589285 0.456709
O O6 0.000000 0.500000 0.000000
O O7 0.083333 0.569058 0.971186
O O8 0.500000 0.500000 0.500000
O O9 0.345802 0.480614 0.028775
O O10 0.527147 0.278018 0.010420
O O11 0.240050 0.773017 0.861409
O O12 0.500000 0.500000 0.000000
O O13 0.224894 0.941121 0.050913
O O14 0.000000 0.000000 0.000000
O O15 0.000000 0.000000 0.500000
#
# Coordination Sequence:
#
# PCOD8023575 Si02
#       6
#     2   2   2   2   2   2
#     4  10  23  41  70  99 131 182 226 279 340 412
#     4  12  25  46  71 104 142 184 231 286 355 415
#     4  12  27  47  70 104 141 182 237 288 351 416
#     4  12  28  45  70 101 143 186 230 293 346 414
#     4  11  23  44  71  97 137 180 230 287 342 410
#     4  11  23  45  68 101 136 176 236 277 348 413
#
# _framework density 21.114041
#
# number of rings (size 3 to 8) (size 9 to 14) (size 15 to 20)
#    0.000    0.667    3.333    4.500   11.667    0.000 
#    0.000    1.667    0.000    0.000    0.000    0.000 
#    0.000    0.000    0.000    0.000    0.000    0.000 
#
# Total GULP energy -148750.756334 kJ/mol
# GULP energy per Si atom -12395.896361 kJ/mol
# Density = 2.106598 g / cm^3
# Si number density = 21.114041 Si / 1000 Ang^3
#
#
#
# Elastic Constant Matrix: (Units=GPa)
#
#
# Indices 1 2 3 4 5 6 
#
# 1 137.4062 42.7288 77.6633 7.5853 -4.3280 -17.4048
# 2 42.7288 67.9328 49.0650 10.3344 1.0598 -15.7065
# 3 77.6633 49.0650 213.9063 11.0709 -15.4871 -9.7553
# 4 7.5853 10.3344 11.0709 39.7472 -9.0341 -6.7383
# 5 -4.3280 1.0598 -15.4871 -9.0341 44.4397 5.9290
# 6 -17.4048 -15.7065 -9.7553 -6.7383 5.9290 49.0139
#
#
#
# Elastic Compliance Matrix: (Units=1/GPa)
#
#
# Indices 1 2 3 4 5 6 
#
# 1 0.010325 -0.004120 -0.002733 0.000159 -0.000061 0.001831
# 2 -0.004120 0.021365 -0.003243 -0.003864 -0.003443 0.004623
# 3 -0.002733 -0.003243 0.006531 -0.000124 0.002194 -0.000992
# 4 0.000159 -0.003864 -0.000124 0.027735 0.005443 0.001948
# 5 -0.000061 -0.003443 0.002194 0.005443 0.024843 -0.002945
# 6 0.001831 0.004623 -0.000992 0.001948 -0.002945 0.022961
#
#
# Mechanical properties :
#
#
# Convention : Reuss Voigt Hill
#
# Bulk Modulus (GPa) = 55.46745 84.23995 69.85370
# Shear Modulus (GPa) = 35.72432 43.29273 39.50853
#
# Velocity S-wave (km/s) = 4.11782 4.53307 4.33043
# Velocity P-wave (km/s) = 6.99543 8.20869 7.62622
#
# Compressibility (1/GPa) = 0.01802859
#
# Stress axis : x y z
#
# Youngs Moduli (GPa) = 96.85467 46.80595 153.11588
#
# Poissons Ratio (x) = 0.19285 0.41841
# Poissons Ratio (y) = 0.39907 0.49657
# Poissons Ratio (z) = 0.26467 0.15180
#
# Static dielectric constant tensor:
#      x y z
#    x 5.481070 -0.547460 -1.167200 
#    y -0.547460 3.925480 0.380400 
#    z -1.167200 0.380400 4.821330 
# 
# 
# High freq. dielectric constant tensor:
#      x y z
#    x 1.834810 -0.020550 -0.013440 
#    y -0.020550 1.833400 0.003370 
#    z -0.013440 0.003370 1.853580 
# 
# From -- ./inp_files/146773.got.cif
#   From: 2010.06.25/outbox.cif.g09.slc.cpg/sg2_74_cif.got.tgz:146773.got - 2010.06.27 13:26:56.
