data_PCOD8023220
_publ_section_title
;
Structure prediction by ZEFSAII (Michael W. Deem and Ramdas Pophale) SiO2 
 PCOD8023220
Probable space group: P -1
;
_chemical_formula_sum "Si O2"
_cell_formula_units_Z 16
_cell_length_a 9.345287
_cell_length_b 20.340734
_cell_length_c 13.401814
_cell_angle_alpha 155.704545
_cell_angle_beta 42.198172
_cell_angle_gamma 140.252985
_cell_volume 662.388341
_symmetry_space_group_name_H-M "P -1"
_symmetry_group_IT_number 2
_symmetry_cell_setting 'triclinic'
loop_
_space_group_symop_operation_xyz
x,y,z
-x,-y,-z
loop_
_atom_site_type_symbol
_atom_site_label
_atom_site_fract_x
_atom_site_fract_y
_atom_site_fract_z
Si Si1 0.503849 0.180718 0.624101
Si Si2 0.029030 0.017747 0.724233
Si Si3 0.984331 0.622804 0.764275
Si Si4 0.001222 0.765152 0.556406
Si Si5 0.214189 0.211658 0.630943
Si Si6 0.489644 0.462093 0.149329
Si Si7 0.594559 0.650714 0.740334
Si Si8 0.138968 0.621497 0.890254
O O1 0.730930 0.135850 0.420101
O O2 0.396557 0.205607 0.609350
O O3 0.608902 0.345930 0.869768
O O4 0.299078 0.050972 0.615476
O O5 0.904635 0.966692 0.610327
O O6 0.933134 0.864416 0.638753
O O7 0.966564 0.179805 0.018899
O O8 0.146466 0.599500 0.735837
O O9 0.000000 0.500000 0.500000
O O10 0.721378 0.552332 0.835955
O O11 0.841624 0.773605 0.745679
O O12 0.948875 0.568096 0.278948
O O13 0.341376 0.346627 0.666906
O O14 0.020640 0.269961 0.859729
O O15 0.387527 0.402400 0.228773
O O16 0.500000 0.500000 0.500000
O O17 0.390133 0.730409 0.953260
#
# Coordination Sequence:
#
# PCOD8023220 Si02
#       8
#     2   2   2   2   2   2   2   2
#     4  11  23  43  71 105 147 189 235 294 353 421
#     4  11  26  43  72 109 145 183 238 298 360 413
#     4  11  24  47  72  98 143 192 236 290 356 430
#     4  11  23  45  69 105 146 189 240 287 355 427
#     4  12  22  42  74 110 142 179 249 297 352 418
#     4  11  22  41  72 107 137 187 244 284 352 429
#     4  10  23  41  63 102 146 188 234 288 350 420
#     4  11  22  41  74 102 143 189 237 293 354 420
#
# _framework density 24.155013
#
# number of rings (size 3 to 8) (size 9 to 14) (size 15 to 20)
#    0.000    1.000    3.750    4.875    1.750    1.000 
#    0.000    8.125    0.000    0.000    0.000    0.000 
#    0.000    0.000    0.000    0.000    0.000    0.000 
#
# Total GULP energy -198235.130315 kJ/mol
# GULP energy per Si atom -12389.695645 kJ/mol
# Density = 2.410004 g / cm^3
# Si number density = 24.155013 Si / 1000 Ang^3
#
#
#
# Elastic Constant Matrix: (Units=GPa)
#
#
# Indices 1 2 3 4 5 6 
#
# 1 100.2057 43.3960 40.4228 -7.3185 0.5541 3.6874
# 2 43.3960 128.8620 32.9193 -7.3942 -4.6259 -2.7376
# 3 40.4228 32.9193 96.1408 5.6694 12.8625 -12.6202
# 4 -7.3185 -7.3942 5.6694 31.5529 1.6407 -1.7368
# 5 0.5541 -4.6259 12.8625 1.6407 29.9440 -1.0058
# 6 3.6874 -2.7376 -12.6202 -1.7368 -1.0058 35.1372
#
#
#
# Elastic Compliance Matrix: (Units=1/GPa)
#
#
# Indices 1 2 3 4 5 6 
#
# 1 0.013961 -0.003095 -0.005653 0.003261 0.001394 -0.003536
# 2 -0.003095 0.009614 -0.002381 0.001855 0.002477 0.000381
# 3 -0.005653 -0.002381 0.015427 -0.003998 -0.006484 0.005566
# 4 0.003261 0.001855 -0.003998 0.033599 0.000103 0.000030
# 5 0.001394 0.002477 -0.006484 0.000103 0.036491 -0.001233
# 6 -0.003536 0.000381 0.005566 0.000030 -0.001233 0.030826
#
#
# Mechanical properties :
#
#
# Convention : Reuss Voigt Hill
#
# Bulk Modulus (GPa) = 59.72472 62.07609 60.90040
# Shear Modulus (GPa) = 29.80475 33.22484 31.51479
#
# Velocity S-wave (km/s) = 3.51649 3.71278 3.61597
# Velocity P-wave (km/s) = 6.42393 6.64338 6.53458
#
# Compressibility (1/GPa) = 0.01674349
#
# Stress axis : x y z
#
# Youngs Moduli (GPa) = 71.62821 104.01040 64.81950
#
# Poissons Ratio (x) = 0.32195 0.36643
# Poissons Ratio (y) = 0.22171 0.15436
# Poissons Ratio (z) = 0.40492 0.24768
#
# Static dielectric constant tensor:
#      x y z
#    x 5.021520 0.502480 -0.596000 
#    y 0.502480 4.494120 -0.362030 
#    z -0.596000 -0.362030 4.787460 
# 
# 
# High freq. dielectric constant tensor:
#      x y z
#    x 1.973250 0.006670 -0.004730 
#    y 0.006670 1.955620 -0.007870 
#    z -0.004730 -0.007870 1.941370 
# 
# From -- ./inp_files/403505.got.cif
#   From: 2010.06.25/outbox.cif.g09.slc.cpg/sg2_202_cif.got.tgz:403505.got - 2010.06.27 13:26:56.
