data_PCOD8023797
_publ_section_title
;
Structure prediction by ZEFSAII (Michael W. Deem and Ramdas Pophale) SiO2 
 PCOD8023797
Probable space group: P -1
;
_chemical_formula_sum "Si O2"
_cell_formula_units_Z 16
_cell_length_a 14.395769
_cell_length_b 14.889228
_cell_length_c 15.104415
_cell_angle_alpha 136.642515
_cell_angle_beta 40.580824
_cell_angle_gamma 159.960857
_cell_volume 720.328718
_symmetry_space_group_name_H-M "P -1"
_symmetry_group_IT_number 2
_symmetry_cell_setting 'triclinic'
loop_
_space_group_symop_operation_xyz
x,y,z
-x,-y,-z
loop_
_atom_site_type_symbol
_atom_site_label
_atom_site_fract_x
_atom_site_fract_y
_atom_site_fract_z
Si Si1 0.233765 0.756531 0.956487
Si Si2 0.519870 0.604601 0.927043
Si Si3 0.021842 0.867591 0.134548
Si Si4 0.269443 0.928148 0.629302
Si Si5 0.884977 0.935623 0.440794
Si Si6 0.318363 0.532010 0.202117
Si Si7 0.076419 0.776593 0.466621
Si Si8 0.394457 0.731033 0.650693
O O1 0.112659 0.789420 0.021388
O O2 0.318668 0.720076 0.794477
O O3 0.000000 0.500000 0.000000
O O4 0.500000 0.000000 0.000000
O O5 0.688806 0.619417 0.860611
O O6 0.252861 0.335570 0.873946
O O7 0.721101 0.846215 0.889289
O O8 0.404470 0.605822 0.089860
O O9 0.936602 0.850311 0.281424
O O10 0.091085 0.810074 0.584153
O O11 0.014031 0.683235 0.706126
O O12 0.500000 0.000000 0.500000
O O13 0.447127 0.196692 0.720953
O O14 0.550460 0.712541 0.531325
O O15 0.051315 0.190941 0.459421
O O16 0.000000 0.000000 0.500000
O O17 0.878425 0.499059 0.381226
O O18 0.393489 0.997361 0.356287
#
# Coordination Sequence:
#
# PCOD8023797 Si02
#       8
#     2   2   2   2   2   2   2   2
#     4  12  26  47  67  96 139 184 231 290 350 409
#     4  11  25  46  71 103 136 182 230 294 353 409
#     4  12  26  42  73 103 137 181 241 288 343 427
#     4  12  25  42  70 105 142 185 234 280 354 424
#     4  10  24  42  69  99 132 176 234 281 342 406
#     4  11  24  45  72 100 144 179 230 291 352 416
#     4  10  23  42  65  98 136 178 222 291 332 409
#     4  10  24  42  67  93 135 180 218 280 353 400
#
# _framework density 22.212081999999999
#
# number of rings (size 3 to 8) (size 9 to 14) (size 15 to 20)
#    0.750    0.250    0.000    6.375    5.250    5.500 
#    0.000    0.000    0.000    0.000    0.000    0.000 
#    0.000    0.000    0.000    0.000    0.000    0.000 
#
# Total GULP energy -198370.971737 kJ/mol
# GULP energy per Si atom -12398.185734 kJ/mol
# Density = 2.216153 g / cm^3
# Si number density = 22.212082 Si / 1000 Ang^3
#
#
#
# Elastic Constant Matrix: (Units=GPa)
#
#
# Indices 1 2 3 4 5 6 
#
# 1 76.2974 20.8973 46.0936 1.9643 11.2097 1.4952
# 2 20.8973 156.4463 69.9786 1.3477 14.0364 18.5396
# 3 46.0936 69.9786 156.0056 -14.7112 26.7625 3.2836
# 4 1.9643 1.3477 -14.7112 35.9292 5.0631 4.4330
# 5 11.2097 14.0364 26.7625 5.0631 33.4278 3.1373
# 6 1.4952 18.5396 3.2836 4.4330 3.1373 32.2413
#
#
#
# Elastic Compliance Matrix: (Units=1/GPa)
#
#
# Indices 1 2 3 4 5 6 
#
# 1 0.016293 0.000145 -0.004945 -0.002777 -0.001160 0.000160
# 2 0.000145 0.008688 -0.004009 -0.001452 0.000147 -0.004409
# 3 -0.004945 -0.004009 0.011356 0.005871 -0.006754 0.001228
# 4 -0.002777 -0.001452 0.005871 0.031930 -0.007688 -0.003276
# 5 -0.001160 0.000147 -0.006754 -0.007688 0.036991 -0.001885
# 6 0.000160 -0.004409 0.001228 -0.003276 -0.001885 0.034053
#
#
# Mechanical properties :
#
#
# Convention : Reuss Voigt Hill
#
# Bulk Modulus (GPa) = 53.42544 73.63201 63.52872
# Shear Modulus (GPa) = 30.64296 37.10500 33.87398
#
# Velocity S-wave (km/s) = 3.71828 4.09159 3.90939
# Velocity P-wave (km/s) = 6.52217 7.45272 7.00292
#
# Compressibility (1/GPa) = 0.01871768
#
# Stress axis : x y z
#
# Youngs Moduli (GPa) = 61.37487 115.10539 88.05965
#
# Poissons Ratio (x) = -0.01666 0.43548
# Poissons Ratio (y) = -0.00888 0.35304
# Poissons Ratio (z) = 0.30352 0.46147
#
# Static dielectric constant tensor:
#      x y z
#    x 4.309960 -0.384870 0.062570 
#    y -0.384870 4.602680 -0.040190 
#    z 0.062570 -0.040190 4.235860 
# 
# 
# High freq. dielectric constant tensor:
#      x y z
#    x 1.868710 0.005980 0.011090 
#    y 0.005980 1.885370 -0.006530 
#    z 0.011090 -0.006530 1.886550 
# 
# From -- ./inp_files/534422.got.cif
#   From: 2010.06.25/outbox.cif.g09.slc.cpg/sg2_268_cif.got.tgz:534422.got - 2010.06.27 13:26:56.
