data_PCOD8023157
_publ_section_title
;
Structure prediction by ZEFSAII (Michael W. Deem and Ramdas Pophale) SiO2 
 PCOD8023157
Probable space group: P -1
;
_chemical_formula_sum "Si O2"
_cell_formula_units_Z 14
_cell_length_a 14.821800
_cell_length_b 11.120212
_cell_length_c 14.410617
_cell_angle_alpha 42.988281
_cell_angle_beta 151.114275
_cell_angle_gamma 116.967265
_cell_volume 644.015243
_symmetry_space_group_name_H-M "P -1"
_symmetry_group_IT_number 2
_symmetry_cell_setting 'triclinic'
loop_
_space_group_symop_operation_xyz
x,y,z
-x,-y,-z
loop_
_atom_site_type_symbol
_atom_site_label
_atom_site_fract_x
_atom_site_fract_y
_atom_site_fract_z
Si Si1 0.006842 0.348541 0.169916
Si Si2 0.096739 0.040912 0.153492
Si Si3 0.352811 0.345843 0.722529
Si Si4 0.506146 0.084686 0.826312
Si Si5 0.729506 0.268602 0.841871
Si Si6 0.147135 0.378810 0.943107
Si Si7 0.477210 0.592840 0.824170
O O1 0.265130 0.155121 0.529319
O O2 0.884241 0.476100 0.080229
O O3 0.000000 0.500000 0.000000
O O4 0.875420 0.246050 0.075586
O O5 0.247334 0.829917 0.471506
O O6 0.239991 0.138360 0.197583
O O7 0.876871 0.225226 0.907848
O O8 0.000000 0.000000 0.000000
O O9 0.475361 0.242209 0.793430
O O10 0.481519 0.432636 0.843560
O O11 0.090162 0.536277 0.368660
O O12 0.356781 0.162226 0.886212
O O13 0.661980 0.099230 0.882600
O O14 0.500000 0.500000 0.500000
O O15 0.315959 0.383755 0.021054
O O16 0.500000 0.500000 0.000000
#
# Coordination Sequence:
#
# PCOD8023157 Si02
#       7
#     2   2   2   2   2   2   2
#     4  11  21  39  69 105 132 175 239 287 349 417
#     4  12  27  47  71 104 142 189 237 282 359 424
#     4  10  23  46  66 100 138 178 237 281 358 409
#     4  10  23  40  70  99 136 182 223 297 344 413
#     4  12  24  42  71 103 138 176 236 292 350 406
#     4  11  24  47  72  96 140 186 234 296 344 416
#     4  12  29  45  70 101 144 190 235 287 348 424
#
# _framework density 21.738619
#
# number of rings (size 3 to 8) (size 9 to 14) (size 15 to 20)
#    0.000    0.857    4.286    2.143    6.000    1.714 
#    0.000    4.286    0.000    0.000    0.000    0.000 
#    0.000    0.000    0.000    0.000    0.000    0.000 
#
# Total GULP energy -173626.493863 kJ/mol
# GULP energy per Si atom -12401.892419 kJ/mol
# Density = 2.168914 g / cm^3
# Si number density = 21.738619 Si / 1000 Ang^3
#
#
#
# Elastic Constant Matrix: (Units=GPa)
#
#
# Indices 1 2 3 4 5 6 
#
# 1 116.7179 41.0768 45.7849 4.2947 -3.0486 21.2204
# 2 41.0768 114.3169 42.1229 14.6496 3.6707 6.8810
# 3 45.7849 42.1229 102.5517 -4.4753 -17.2286 1.3007
# 4 4.2947 14.6496 -4.4753 36.7452 1.1612 -8.7871
# 5 -3.0486 3.6707 -17.2286 1.1612 30.8282 0.8066
# 6 21.2204 6.8810 1.3007 -8.7871 0.8066 40.4400
#
#
#
# Elastic Compliance Matrix: (Units=1/GPa)
#
#
# Indices 1 2 3 4 5 6 
#
# 1 0.012484 -0.001811 -0.005055 -0.002919 -0.001090 -0.006692
# 2 -0.001811 0.012305 -0.005185 -0.005700 -0.004271 -0.002130
# 3 -0.005055 -0.005185 0.015766 0.005262 0.008625 0.003999
# 4 -0.002919 -0.005700 0.005262 0.032656 0.001855 0.009391
# 5 -0.001090 -0.004271 0.008625 0.001855 0.037571 0.000675
# 6 -0.006692 -0.002130 0.003999 0.009391 0.000675 0.030501
#
#
# Mechanical properties :
#
#
# Convention : Reuss Voigt Hill
#
# Bulk Modulus (GPa) = 60.78333 65.72841 63.25587
# Shear Modulus (GPa) = 29.26236 35.24281 32.25259
#
# Velocity S-wave (km/s) = 3.67290 4.03079 3.85600
# Velocity P-wave (km/s) = 6.78297 7.20864 6.99904
#
# Compressibility (1/GPa) = 0.01645188
#
# Stress axis : x y z
#
# Youngs Moduli (GPa) = 80.10448 81.27014 63.42895
#
# Poissons Ratio (x) = 0.14719 0.32064
# Poissons Ratio (y) = 0.14508 0.32887
# Poissons Ratio (z) = 0.40493 0.42137
#
# Static dielectric constant tensor:
#      x y z
#    x 3.736250 0.136430 -0.366310 
#    y 0.136430 4.397470 -0.008500 
#    z -0.366310 -0.008500 3.963300 
# 
# 
# High freq. dielectric constant tensor:
#      x y z
#    x 1.850990 0.008940 -0.007770 
#    y 0.008940 1.864170 0.002300 
#    z -0.007770 0.002300 1.858130 
# 
# From -- ./inp_files/532349.got.cif
#   From: 2010.06.25/outbox.cif.g09.slc.cpg/sg2_267_cif.got.tgz:532349.got - 2010.06.27 13:26:56.
