data_PCOD8023721
_publ_section_title
;
Structure prediction by ZEFSAII (Michael W. Deem and Ramdas Pophale) SiO2 
 PCOD8023721
Probable space group: P -1
;
_chemical_formula_sum "Si O2"
_cell_formula_units_Z 16
_cell_length_a 5.128693
_cell_length_b 23.326675
_cell_length_c 6.963287
_cell_angle_alpha 77.225661
_cell_angle_beta 102.815160
_cell_angle_gamma 73.224678
_cell_volume 740.576414
_symmetry_space_group_name_H-M "P -1"
_symmetry_group_IT_number 2
_symmetry_cell_setting 'triclinic'
loop_
_space_group_symop_operation_xyz
x,y,z
-x,-y,-z
loop_
_atom_site_type_symbol
_atom_site_label
_atom_site_fract_x
_atom_site_fract_y
_atom_site_fract_z
Si Si1 0.822407 0.456804 0.552123
Si Si2 0.649641 0.727471 0.162472
Si Si3 0.090760 0.072987 0.298493
Si Si4 0.761710 0.151421 0.845466
Si Si5 0.332456 0.926114 0.451109
Si Si6 0.185284 0.375281 0.013952
Si Si7 0.776306 0.271844 0.616418
Si Si8 0.742398 0.372552 0.259768
O O1 0.500000 0.500000 0.500000
O O2 0.816435 0.409932 0.417060
O O3 0.000000 0.500000 0.500000
O O4 0.969854 0.418888 0.792199
O O5 0.481202 0.803041 0.083604
O O6 0.526475 0.697807 0.342454
O O7 0.986194 0.710630 0.242767
O O8 0.613697 0.692651 0.988668
O O9 0.348991 0.090674 0.409571
O O10 0.838791 0.095765 0.397030
O O11 0.178650 0.999356 0.326335
O O12 0.008327 0.106934 0.054786
O O13 0.643860 0.109808 0.719635
O O14 0.870022 0.195567 0.688305
O O15 0.415170 0.406529 0.102779
O O16 0.988322 0.363252 0.153719
O O17 0.750345 0.303186 0.380086
#
# Coordination Sequence:
#
# PCOD8023721 Si02
#       8
#     2   2   2   2   2   2   2   2
#     4  12  28  47  74 102 141 174 225 286 317 388
#     4  10  23  43  65  97 136 172 225 268 330 406
#     4  10  23  42  64  94 129 173 225 275 334 399
#     4  10  25  41  68  94 137 170 224 274 344 386
#     4  10  23  42  64  94 129 173 225 275 334 399
#     4  12  26  46  74 100 137 183 222 270 340 399
#     4  10  23  43  65  97 136 172 225 268 330 406
#     4  12  26  46  74 100 137 183 222 270 340 399
#
# _framework density 21.604794999999999
#
# number of rings (size 3 to 8) (size 9 to 14) (size 15 to 20)
#    0.750    0.500    1.250    3.375    5.250    4.000 
#    0.000    3.750    0.000    0.000    0.000    0.000 
#    0.000    0.000    0.000    0.000    0.000    0.000 
#
# Total GULP energy -198277.211307 kJ/mol
# GULP energy per Si atom -12392.325707 kJ/mol
# Density = 2.155562 g / cm^3
# Si number density = 21.604795 Si / 1000 Ang^3
#
#
#
# Elastic Constant Matrix: (Units=GPa)
#
#
# Indices 1 2 3 4 5 6 
#
# 1 147.1988 47.4535 50.8843 3.4248 -3.2880 8.6148
# 2 47.4535 103.9286 77.3572 -3.5175 -2.3056 5.7052
# 3 50.8843 77.3572 142.5598 0.4103 4.1669 10.3681
# 4 3.4248 -3.5175 0.4103 13.1678 -1.8499 2.5298
# 5 -3.2880 -2.3056 4.1669 -1.8499 37.8641 5.9572
# 6 8.6148 5.7052 10.3681 2.5298 5.9572 16.6592
#
#
#
# Elastic Compliance Matrix: (Units=1/GPa)
#
#
# Indices 1 2 3 4 5 6 
#
# 1 0.008362 -0.002736 -0.001336 -0.002228 0.001003 -0.002576
# 2 -0.002736 0.017556 -0.008560 0.006175 0.002234 -0.001007
# 3 -0.001336 -0.008560 0.012425 -0.001925 -0.001587 -0.003251
# 4 -0.002228 0.006175 -0.001925 0.081979 0.006698 -0.014609
# 5 0.001003 0.002234 -0.001587 0.006698 0.028972 -0.011673
# 6 -0.002576 -0.001007 -0.003251 -0.014609 -0.011673 0.070120
#
#
# Mechanical properties :
#
#
# Convention : Reuss Voigt Hill
#
# Bulk Modulus (GPa) = 76.45072 82.78636 79.61854
# Shear Modulus (GPa) = 20.07733 28.07104 24.07418
#
# Velocity S-wave (km/s) = 3.05175 3.60849 3.34173
# Velocity P-wave (km/s) = 6.91956 7.46748 7.19874
#
# Compressibility (1/GPa) = 0.01308032
#
# Stress axis : x y z
#
# Youngs Moduli (GPa) = 119.58522 56.95945 80.48498
#
# Poissons Ratio (x) = 0.15582 0.10752
# Poissons Ratio (y) = 0.32713 0.68895
# Poissons Ratio (z) = 0.15975 0.48757
#
# Static dielectric constant tensor:
#      x y z
#    x 4.079840 0.096470 0.051980 
#    y 0.096470 3.977600 -0.050060 
#    z 0.051980 -0.050060 3.938680 
# 
# 
# High freq. dielectric constant tensor:
#      x y z
#    x 1.863030 0.005990 0.008250 
#    y 0.005990 1.843890 0.000510 
#    z 0.008250 0.000510 1.849540 
# 
# From -- ./inp_files/14112.got.cif
#   From: 2010.06.25/outbox.cif.g09.slc.cpg/sg2_8_cif.got.tgz:14112.got - 2010.06.27 13:26:56.
