data_PCOD8023043
_publ_section_title
;
Structure prediction by ZEFSAII (Michael W. Deem and Ramdas Pophale) SiO2 
 PCOD8023043
Probable space group: P -1
;
_chemical_formula_sum "Si O2"
_cell_formula_units_Z 14
_cell_length_a 13.798775
_cell_length_b 11.896625
_cell_length_c 5.437987
_cell_angle_alpha 120.324450
_cell_angle_beta 99.317711
_cell_angle_gamma 114.759502
_cell_volume 615.240415
_symmetry_space_group_name_H-M "P -1"
_symmetry_group_IT_number 2
_symmetry_cell_setting 'triclinic'
loop_
_space_group_symop_operation_xyz
x,y,z
-x,-y,-z
loop_
_atom_site_type_symbol
_atom_site_label
_atom_site_fract_x
_atom_site_fract_y
_atom_site_fract_z
Si Si1 0.202394 0.982198 0.356200
Si Si2 0.655925 0.264596 0.343694
Si Si3 0.981602 0.196972 0.546883
Si Si4 0.570387 0.968634 0.300544
Si Si5 0.227728 0.391236 0.080070
Si Si6 0.883818 0.324000 0.303832
Si Si7 0.185284 0.228186 0.396077
O O1 0.342701 0.070656 0.583868
O O2 0.117974 0.970163 0.533917
O O3 0.195507 0.078751 0.233560
O O4 0.143287 0.798263 0.059151
O O5 0.650821 0.128677 0.348432
O O6 0.683304 0.415147 0.677801
O O7 0.768390 0.330574 0.277512
O O8 0.528104 0.187608 0.070735
O O9 0.044835 0.165593 0.312780
O O10 0.908487 0.265322 0.499908
O O11 0.087200 0.326179 0.922193
O O12 0.500000 0.000000 0.500000
O O13 0.241414 0.325871 0.273788
O O14 0.262749 0.333115 0.788016
O O15 0.000000 0.500000 0.500000
#
# Coordination Sequence:
#
# PCOD8023043 Si02
#       7
#     2   2   2   2   2   2   2
#     4  12  24  42  68  99 139 178 237 280 341 422
#     4  11  24  45  68  99 140 177 238 286 349 410
#     4  10  23  40  66 100 140 180 221 284 343 416
#     4  11  25  44  69  98 132 189 228 293 343 402
#     4  10  25  45  70 100 142 178 227 285 345 412
#     4  12  25  38  70 106 142 180 224 288 359 415
#     4  10  25  44  69 102 139 185 224 283 353 406
#
# _framework density 22.755334000000001
#
# number of rings (size 3 to 8) (size 9 to 14) (size 15 to 20)
#    0.857    0.286    2.857    3.000    6.000    2.286 
#    0.000    1.429    0.000    0.000    0.000    0.000 
#    0.000    0.000    0.000    0.000    0.000    0.000 
#
# Total GULP energy -173543.485741 kJ/mol
# GULP energy per Si atom -12395.963267 kJ/mol
# Density = 2.270354 g / cm^3
# Si number density = 22.755334 Si / 1000 Ang^3
#
#
#
# Elastic Constant Matrix: (Units=GPa)
#
#
# Indices 1 2 3 4 5 6 
#
# 1 68.5945 21.3278 33.0425 11.8337 20.9625 -0.3826
# 2 21.3278 70.4549 31.9907 -6.6287 23.8206 -1.5317
# 3 33.0425 31.9907 90.1671 -3.0309 13.0867 -1.4227
# 4 11.8337 -6.6287 -3.0309 38.6753 1.3267 1.6284
# 5 20.9625 23.8206 13.0867 1.3267 34.7768 -4.6193
# 6 -0.3826 -1.5317 -1.4227 1.6284 -4.6193 31.9842
#
#
#
# Elastic Compliance Matrix: (Units=1/GPa)
#
#
# Indices 1 2 3 4 5 6 
#
# 1 0.022446 -0.001028 -0.006638 -0.007164 -0.010212 -0.001186
# 2 -0.001028 0.021469 -0.005324 0.004053 -0.012399 -0.001218
# 3 -0.006638 -0.005324 0.015218 0.002225 0.001903 0.000504
# 4 -0.007164 0.004053 0.002225 0.028994 -0.000581 -0.001353
# 5 -0.010212 -0.012399 0.001903 -0.000581 0.043463 0.005675
# 6 -0.001186 -0.001218 0.000504 -0.001353 0.005675 0.032104
#
#
# Mechanical properties :
#
#
# Convention : Reuss Voigt Hill
#
# Bulk Modulus (GPa) = 30.16256 44.65982 37.41119
# Shear Modulus (GPa) = 24.90976 30.61095 27.76035
#
# Velocity S-wave (km/s) = 3.31218 3.67170 3.49657
# Velocity P-wave (km/s) = 5.28312 6.13546 5.72517
#
# Compressibility (1/GPa) = 0.03315369
#
# Stress axis : x y z
#
# Youngs Moduli (GPa) = 44.55192 46.57928 65.70953
#
# Poissons Ratio (x) = 0.04787 0.43619
# Poissons Ratio (y) = 0.04579 0.34982
# Poissons Ratio (z) = 0.29574 0.24798
#
# Static dielectric constant tensor:
#      x y z
#    x 3.828570 -0.118120 0.216350 
#    y -0.118120 4.016110 0.102730 
#    z 0.216350 0.102730 4.076460 
# 
# 
# High freq. dielectric constant tensor:
#      x y z
#    x 1.877190 -0.002420 0.006240 
#    y -0.002420 1.891980 -0.005850 
#    z 0.006240 -0.005850 1.902400 
# 
# From -- ./inp_files/72411.got.cif
#   From: 2010.06.25/outbox.cif.g09.slc.cpg/sg2_37_cif.got.tgz:72411.got - 2010.06.27 13:26:56.
