data_PCOD8023697
_publ_section_title
;
Structure prediction by ZEFSAII (Michael W. Deem and Ramdas Pophale) SiO2 
 PCOD8023697
Probable space group: P -1
;
_chemical_formula_sum "Si O2"
_cell_formula_units_Z 16
_cell_length_a 13.764177
_cell_length_b 12.010025
_cell_length_c 14.342352
_cell_angle_alpha 42.749799
_cell_angle_beta 149.254580
_cell_angle_gamma 140.866146
_cell_volume 747.960107
_symmetry_space_group_name_H-M "P -1"
_symmetry_group_IT_number 2
_symmetry_cell_setting 'triclinic'
loop_
_space_group_symop_operation_xyz
x,y,z
-x,-y,-z
loop_
_atom_site_type_symbol
_atom_site_label
_atom_site_fract_x
_atom_site_fract_y
_atom_site_fract_z
Si Si1 0.164274 0.199446 0.489959
Si Si2 0.747670 0.534593 0.449642
Si Si3 0.697399 0.555547 0.879675
Si Si4 0.407964 0.324568 0.092112
Si Si5 0.021335 0.797151 0.856023
Si Si6 0.125447 0.179372 0.784647
Si Si7 0.823567 0.322402 0.506066
Si Si8 0.582478 0.200842 0.906447
O O1 0.115243 0.333346 0.437806
O O2 0.135512 0.258944 0.326527
O O3 0.399440 0.220361 0.684140
O O4 0.000000 0.000000 0.500000
O O5 0.505797 0.434346 0.342122
O O6 0.754482 0.646038 0.290034
O O7 0.824351 0.377905 0.582549
O O8 0.717662 0.633046 0.953258
O O9 0.906163 0.680782 0.921125
O O10 0.658743 0.344224 0.967288
O O11 0.589221 0.263250 0.309910
O O12 0.500000 0.500000 0.000000
O O13 0.250812 0.174782 0.984531
O O14 0.092528 0.008367 0.800780
O O15 0.223097 0.757718 0.027449
O O16 0.898864 0.164920 0.643703
O O17 0.000000 0.500000 0.500000
O O18 0.500000 0.000000 0.000000
#
# Coordination Sequence:
#
# PCOD8023697 Si02
#       8
#     2   2   2   2   2   2   2   2
#     4  11  21  40  65  94 119 171 207 258 320 366
#     4   9  18  37  59  89 120 153 219 254 303 379
#     4  10  23  42  63  94 131 164 207 266 323 371
#     4  11  20  38  66  90 120 168 208 262 315 365
#     4  12  25  42  61  92 137 167 206 266 314 378
#     4  11  21  38  60  90 125 162 213 261 302 374
#     4   9  18  34  58  94 115 151 212 264 302 361
#     4  11  23  42  68  97 124 161 221 259 306 392
#
# _framework density 21.391514999999998
#
# number of rings (size 3 to 8) (size 9 to 14) (size 15 to 20)
#    0.000    1.500    6.250    1.125    0.000    4.500 
#    0.000    5.000    0.000    0.000    0.000    0.000 
#    0.000    0.000    0.000    0.000    0.000    0.000 
#
# Total GULP energy -198253.009263 kJ/mol
# GULP energy per Si atom -12390.813079 kJ/mol
# Density = 2.134283 g / cm^3
# Si number density = 21.391515 Si / 1000 Ang^3
#
#
#
# Elastic Constant Matrix: (Units=GPa)
#
#
# Indices 1 2 3 4 5 6 
#
# 1 133.9319 27.2898 46.5122 18.6496 13.5059 -11.0052
# 2 27.2898 40.0172 25.0328 19.1558 1.3292 -12.6224
# 3 46.5122 25.0328 100.0937 23.1057 14.2215 -15.6603
# 4 18.6496 19.1558 23.1057 25.7411 -5.6889 -5.0422
# 5 13.5059 1.3292 14.2215 -5.6889 42.2904 0.7881
# 6 -11.0052 -12.6224 -15.6603 -5.0422 0.7881 47.9849
#
#
#
# Elastic Compliance Matrix: (Units=1/GPa)
#
#
# Indices 1 2 3 4 5 6 
#
# 1 0.009741 -0.003671 -0.002676 -0.002424 -0.002425 0.000180
# 2 -0.003671 0.044481 -0.001001 -0.028930 -0.003922 0.007557
# 3 -0.002676 -0.001001 0.015603 -0.012060 -0.006040 0.003047
# 4 -0.002424 -0.028930 -0.012060 0.075629 0.015995 -0.004418
# 5 -0.002425 -0.003922 -0.006040 0.015995 0.028770 -0.002351
# 6 0.000180 0.007557 0.003047 -0.004418 -0.002351 0.023438
#
#
# Mechanical properties :
#
#
# Convention : Reuss Voigt Hill
#
# Bulk Modulus (GPa) = 18.13914 52.41247 35.27581
# Shear Modulus (GPa) = 21.66994 34.88381 28.27688
#
# Velocity S-wave (km/s) = 3.18624 4.04261 3.63970
# Velocity P-wave (km/s) = 4.69406 6.80772 5.84719
#
# Compressibility (1/GPa) = 0.05512940
#
# Stress axis : x y z
#
# Youngs Moduli (GPa) = 102.66230 22.48148 64.08839
#
# Poissons Ratio (x) = 0.08253 0.17150
# Poissons Ratio (y) = 0.37688 0.06414
# Poissons Ratio (z) = 0.27472 0.02250
#
# Static dielectric constant tensor:
#      x y z
#    x 4.327690 -0.514350 0.321950 
#    y -0.514350 3.945300 0.366120 
#    z 0.321950 0.366120 4.375040 
# 
# 
# High freq. dielectric constant tensor:
#      x y z
#    x 1.852720 -0.024420 0.024390 
#    y -0.024420 1.830470 0.019740 
#    z 0.024390 0.019740 1.814490 
# 
# From -- ./inp_files/531673.got.cif
#   From: 2010.06.25/outbox.cif.g09.slc.cpg/sg2_266_cif.got.tgz:531673.got - 2010.06.27 13:26:56.
