data_PCOD8023514
_publ_section_title
;
Structure prediction by ZEFSAII (Michael W. Deem and Ramdas Pophale) SiO2 
 PCOD8023514
Probable space group: P -1
;
_chemical_formula_sum "Si O2"
_cell_formula_units_Z 14
_cell_length_a 20.171536
_cell_length_b 9.326720
_cell_length_c 13.023469
_cell_angle_alpha 47.334933
_cell_angle_beta 154.809692
_cell_angle_gamma 142.459727
_cell_volume 627.900389
_symmetry_space_group_name_H-M "P -1"
_symmetry_group_IT_number 2
_symmetry_cell_setting 'triclinic'
loop_
_space_group_symop_operation_xyz
x,y,z
-x,-y,-z
loop_
_atom_site_type_symbol
_atom_site_label
_atom_site_fract_x
_atom_site_fract_y
_atom_site_fract_z
Si Si1 0.651859 0.885397 0.873313
Si Si2 0.602237 0.471322 0.563941
Si Si3 0.956853 0.742495 0.057885
Si Si4 0.492743 0.612639 0.143090
Si Si5 0.815499 0.999099 0.263824
Si Si6 0.671670 0.076066 0.604396
Si Si7 0.159506 0.600281 0.760163
O O1 0.655951 0.654478 0.979726
O O2 0.759902 0.070004 0.840527
O O3 0.428528 0.785895 0.599041
O O4 0.742476 0.019723 0.041292
O O5 0.500000 0.500000 0.500000
O O6 0.599721 0.611581 0.394481
O O7 0.495187 0.192592 0.530706
O O8 0.819964 0.591861 0.843812
O O9 0.870246 0.610964 0.107988
O O10 0.158262 0.780178 0.307189
O O11 0.000000 0.000000 0.000000
O O12 0.649825 0.762349 0.203823
O O13 0.367405 0.716536 0.942910
O O14 0.858567 0.219059 0.285187
O O15 0.000000 0.000000 0.500000
O O16 0.000000 0.500000 0.500000
#
# Coordination Sequence:
#
# PCOD8023514 Si02
#       7
#     2   2   2   2   2   2   2
#     4  10  23  46  67  97 139 177 233 282 358 410
#     4  11  21  42  66 104 138 175 239 283 351 411
#     4  12  24  40  74 102 138 184 232 292 348 414
#     4  11  25  46  71  97 140 188 223 297 346 417
#     4  12  28  44  70 101 141 186 231 286 353 421
#     4  10  23  41  69 100 137 180 224 299 344 414
#     4  12  28  46  70 106 140 183 241 280 355 424
#
# _framework density 22.296531000000002
#
# number of rings (size 3 to 8) (size 9 to 14) (size 15 to 20)
#    0.000    0.857    2.857    3.429    8.000    0.000 
#    0.000    2.857    0.000    0.000    0.000    0.000 
#    0.000    0.000    0.000    0.000    0.000    0.000 
#
# Total GULP energy -173601.514255 kJ/mol
# GULP energy per Si atom -12400.108161 kJ/mol
# Density = 2.224578 g / cm^3
# Si number density = 22.296531 Si / 1000 Ang^3
#
#
#
# Elastic Constant Matrix: (Units=GPa)
#
#
# Indices 1 2 3 4 5 6 
#
# 1 121.4968 31.8451 51.4319 4.7683 4.6923 -8.2778
# 2 31.8451 62.3864 40.0449 0.7698 -2.6851 -9.4099
# 3 51.4319 40.0449 122.0599 9.2060 -8.7083 -0.4803
# 4 4.7683 0.7698 9.2060 30.7782 -3.5490 2.4160
# 5 4.6923 -2.6851 -8.7083 -3.5490 64.3792 5.3652
# 6 -8.2778 -9.4099 -0.4803 2.4160 5.3652 40.8590
#
#
#
# Elastic Compliance Matrix: (Units=1/GPa)
#
#
# Indices 1 2 3 4 5 6 
#
# 1 0.010742 -0.002978 -0.003593 -0.000831 -0.001581 0.001705
# 2 -0.002978 0.022086 -0.006077 0.001391 0.000032 0.004325
# 3 -0.003593 -0.006077 0.012002 -0.002528 0.001664 -0.002055
# 4 -0.000831 0.001391 -0.002528 0.033715 0.001811 -0.002109
# 5 -0.001581 0.000032 0.001664 0.001811 0.016185 -0.002526
# 6 0.001705 0.004325 -0.002055 -0.002109 -0.002526 0.026248
#
#
# Mechanical properties :
#
#
# Convention : Reuss Voigt Hill
#
# Bulk Modulus (GPa) = 51.18974 61.39854 56.29414
# Shear Modulus (GPa) = 32.72591 39.37803 36.05197
#
# Velocity S-wave (km/s) = 3.83529 4.20707 4.02547
# Velocity P-wave (km/s) = 6.52848 7.15515 6.84899
#
# Compressibility (1/GPa) = 0.01953516
#
# Stress axis : x y z
#
# Youngs Moduli (GPa) = 93.09380 45.27678 83.32280
#
# Poissons Ratio (x) = 0.13482 0.29936
# Poissons Ratio (y) = 0.27720 0.50634
# Poissons Ratio (z) = 0.33446 0.27514
#
# Static dielectric constant tensor:
#      x y z
#    x 4.217160 0.555930 0.395040 
#    y 0.555930 3.029400 -0.567230 
#    z 0.395040 -0.567230 3.807440 
# 
# 
# High freq. dielectric constant tensor:
#      x y z
#    x 1.898610 -0.006770 0.000800 
#    y -0.006770 1.867510 -0.005750 
#    z 0.000800 -0.005750 1.881890 
# 
# From -- ./inp_files/308583.got.cif
#   From: 2010.06.25/outbox.cif.g09.slc.cpg/sg2_155_cif.got.tgz:308583.got - 2010.06.27 13:26:56.
