data_PCOD8023608
_publ_section_title
;
Structure prediction by ZEFSAII (Michael W. Deem and Ramdas Pophale) SiO2 
 PCOD8023608
Probable space group: P -1
;
_chemical_formula_sum "Si O2"
_cell_formula_units_Z 12
_cell_length_a 20.320704
_cell_length_b 5.297864
_cell_length_c 12.732793
_cell_angle_alpha 122.594742
_cell_angle_beta 152.146665
_cell_angle_gamma 46.532441
_cell_volume 454.922611
_symmetry_space_group_name_H-M "P -1"
_symmetry_group_IT_number 2
_symmetry_cell_setting 'triclinic'
loop_
_space_group_symop_operation_xyz
x,y,z
-x,-y,-z
loop_
_atom_site_type_symbol
_atom_site_label
_atom_site_fract_x
_atom_site_fract_y
_atom_site_fract_z
Si Si1 0.020914 0.306018 0.810060
Si Si2 0.328255 0.654759 0.170263
Si Si3 0.092896 0.461552 0.514541
Si Si4 0.409958 0.386234 0.004543
Si Si5 0.287343 0.643557 0.542415
Si Si6 0.304958 0.356696 0.283067
O O1 0.037651 0.285336 0.702140
O O2 0.824682 0.507256 0.608884
O O3 0.105927 0.510529 0.021566
O O4 0.128587 0.903595 0.918433
O O5 0.408853 0.370298 0.126613
O O6 0.370683 0.447516 0.292312
O O7 0.400406 0.920900 0.334508
O O8 0.000000 0.500000 0.500000
O O9 0.187942 0.061141 0.517276
O O10 0.222151 0.596363 0.740948
O O11 0.530097 0.538907 0.182203
O O12 0.500000 0.000000 0.000000
O O13 0.319843 0.566689 0.447424
#
# Coordination Sequence:
#
# PCOD8023608 Si02
#       6
#     2   2   2   2   2   2
#     4  10  23  41  72 101 138 183 231 290 346 409
#     4  10  24  47  72 104 139 184 234 288 346 415
#     4  11  24  44  71  98 143 187 240 284 346 416
#     4  10  24  47  67 103 141 188 232 287 349 418
#     4  11  24  42  68 104 142 181 232 294 350 414
#     4  10  24  44  76 104 139 180 239 285 352 411
#
# _framework density 26.378111000000001
#
# number of rings (size 3 to 8) (size 9 to 14) (size 15 to 20)
#    1.000    0.667    0.000    3.500    2.333    6.000 
#    9.000    0.000    0.000    0.000    0.000    0.000 
#    0.000    0.000    0.000    0.000    0.000    0.000 
#
# Total GULP energy -148663.841747 kJ/mol
# GULP energy per Si atom -12388.653479 kJ/mol
# Density = 2.631807 g / cm^3
# Si number density = 26.378111 Si / 1000 Ang^3
#
#
#
# Elastic Constant Matrix: (Units=GPa)
#
#
# Indices 1 2 3 4 5 6 
#
# 1 93.8915 58.3734 38.3387 4.8454 -15.3820 -10.0822
# 2 58.3734 88.5234 44.0634 14.3807 -15.3771 -12.7616
# 3 38.3387 44.0634 169.6526 24.9990 9.8138 -0.4043
# 4 4.8454 14.3807 24.9990 36.0115 4.8395 -12.9073
# 5 -15.3820 -15.3771 9.8138 4.8395 57.1256 5.9888
# 6 -10.0822 -12.7616 -0.4043 -12.9073 5.9888 50.2760
#
#
#
# Elastic Compliance Matrix: (Units=1/GPa)
#
#
# Indices 1 2 3 4 5 6 
#
# 1 0.018904 -0.011573 -0.001918 0.003730 0.001823 0.001578
# 2 -0.011573 0.021841 -0.002456 -0.005431 0.003499 0.001392
# 3 -0.001918 -0.002456 0.007744 -0.004554 -0.001924 -0.001886
# 4 0.003730 -0.005431 -0.004554 0.036361 -0.003711 0.009110
# 5 0.001823 0.003499 -0.001924 -0.003711 0.019800 -0.002073
# 6 0.001578 0.001392 -0.001886 0.009110 -0.002073 0.023131
#
#
# Mechanical properties :
#
#
# Convention : Reuss Voigt Hill
#
# Bulk Modulus (GPa) = 60.25721 70.40202 65.32961
# Shear Modulus (GPa) = 30.26522 42.76877 36.51700
#
# Velocity S-wave (km/s) = 3.39095 4.03100 3.72475
# Velocity P-wave (km/s) = 6.18260 6.95793 6.58169
#
# Compressibility (1/GPa) = 0.01659553
#
# Stress axis : x y z
#
# Youngs Moduli (GPa) = 52.89811 45.78502 129.13967
#
# Poissons Ratio (x) = 0.52987 0.24763
# Poissons Ratio (y) = 0.61218 0.31721
# Poissons Ratio (z) = 0.10143 0.11246
#
# Static dielectric constant tensor:
#      x y z
#    x 4.820420 -0.202150 0.516970 
#    y -0.202150 4.246490 0.244350 
#    z 0.516970 0.244350 5.968870 
# 
# 
# High freq. dielectric constant tensor:
#      x y z
#    x 2.054680 -0.021590 0.018600 
#    y -0.021590 2.023120 0.021020 
#    z 0.018600 0.021020 2.104960 
# 
# From -- ./inp_files/82449.got.cif
#   From: 2010.06.25/outbox.cif.g09.slc.cpg/sg2_42_cif.got.tgz:82449.got - 2010.06.27 13:26:56.
