data_PCOD8023752
_publ_section_title
;
Structure prediction by ZEFSAII (Michael W. Deem and Ramdas Pophale) SiO2 
 PCOD8023752
Probable space group: P -1
;
_chemical_formula_sum "Si O2"
_cell_formula_units_Z 16
_cell_length_a 13.477468
_cell_length_b 14.176031
_cell_length_c 9.604240
_cell_angle_alpha 119.162225
_cell_angle_beta 93.959011
_cell_angle_gamma 137.397910
_cell_volume 748.646274
_symmetry_space_group_name_H-M "P -1"
_symmetry_group_IT_number 2
_symmetry_cell_setting 'triclinic'
loop_
_space_group_symop_operation_xyz
x,y,z
-x,-y,-z
loop_
_atom_site_type_symbol
_atom_site_label
_atom_site_fract_x
_atom_site_fract_y
_atom_site_fract_z
Si Si1 0.379051 0.524979 0.629286
Si Si2 0.985294 0.603965 0.794770
Si Si3 0.314104 0.878227 0.571338
Si Si4 0.586986 0.567821 0.904203
Si Si5 0.703243 0.103076 0.730606
Si Si6 0.682113 0.976736 0.062322
Si Si7 0.589704 0.375541 0.588695
Si Si8 0.946706 0.023129 0.144098
O O1 0.468948 0.525485 0.746518
O O2 0.451138 0.582462 0.515234
O O3 0.129441 0.262733 0.414644
O O4 0.437158 0.707697 0.805961
O O5 0.198438 0.820848 0.877119
O O6 0.854194 0.372130 0.571645
O O7 0.828622 0.556075 0.733229
O O8 0.069672 0.669103 0.007310
O O9 0.247526 0.858358 0.400056
O O10 0.311704 0.976953 0.745943
O O11 0.553140 0.061264 0.719406
O O12 0.565794 0.421234 0.760083
O O13 0.500000 0.500000 0.000000
O O14 0.834374 0.839372 0.116731
O O15 0.588323 0.886010 0.618011
O O16 0.787643 0.962476 0.033176
O O17 0.000000 0.000000 0.000000
#
# Coordination Sequence:
#
# PCOD8023752 Si02
#       8
#     2   2   2   2   2   2   2   2
#     4  11  23  42  67  90 129 175 209 260 325 383
#     4  11  21  41  66  94 124 168 219 263 320 389
#     4  10  24  42  61  94 128 168 213 269 323 387
#     4  11  26  42  66  99 134 166 215 272 319 378
#     4  10  23  42  65  88 131 171 210 262 333 382
#     4  11  23  38  65  96 126 161 219 269 313 378
#     4  11  22  41  65  94 127 171 220 256 322 398
#     4  11  23  42  67  95 128 169 218 258 315 392
#
# _framework density 21.371908000000001
#
# number of rings (size 3 to 8) (size 9 to 14) (size 15 to 20)
#    0.000    1.250    3.750    1.125    5.250    3.000 
#    2.250    0.000    0.000    0.000    0.000    0.000 
#    0.000    0.000    0.000    0.000    0.000    0.000 
#
# Total GULP energy -198292.946428 kJ/mol
# GULP energy per Si atom -12393.309152 kJ/mol
# Density = 2.132326 g / cm^3
# Si number density = 21.371908 Si / 1000 Ang^3
#
#
#
# Elastic Constant Matrix: (Units=GPa)
#
#
# Indices 1 2 3 4 5 6 
#
# 1 61.2346 35.0558 42.3721 -18.0659 -9.3858 0.0654
# 2 35.0558 111.7936 48.2533 -12.1756 -8.0617 10.0307
# 3 42.3721 48.2533 140.7346 -4.5913 -8.9127 13.7105
# 4 -18.0659 -12.1756 -4.5913 39.4465 2.9282 -0.5812
# 5 -9.3858 -8.0617 -8.9127 2.9282 28.9701 -9.5497
# 6 0.0654 10.0307 13.7105 -0.5812 -9.5497 24.8909
#
#
#
# Elastic Compliance Matrix: (Units=1/GPa)
#
#
# Indices 1 2 3 4 5 6 
#
# 1 0.027976 -0.005008 -0.006759 0.010055 0.007464 0.008766
# 2 -0.005008 0.011888 -0.002195 0.001089 -0.000307 -0.003661
# 3 -0.006759 -0.002195 0.010248 -0.002575 -0.001111 -0.005229
# 4 0.010055 0.001089 -0.002575 0.029995 0.000323 0.001777
# 5 0.007464 -0.000307 -0.001111 0.000323 0.042031 0.016849
# 6 0.008766 -0.003661 -0.005229 0.001777 0.016849 0.051014
#
#
# Mechanical properties :
#
#
# Convention : Reuss Voigt Hill
#
# Bulk Modulus (GPa) = 45.07185 62.79169 53.93177
# Shear Modulus (GPa) = 23.98388 31.20027 27.59208
#
# Velocity S-wave (km/s) = 3.35358 3.82497 3.59701
# Velocity P-wave (km/s) = 6.01086 6.99653 6.52234
#
# Compressibility (1/GPa) = 0.02218680
#
# Stress axis : x y z
#
# Youngs Moduli (GPa) = 35.74469 84.11764 97.57670
#
# Poissons Ratio (x) = 0.42130 0.65953
# Poissons Ratio (y) = 0.17903 0.21422
# Poissons Ratio (z) = 0.24160 0.18467
#
# Static dielectric constant tensor:
#      x y z
#    x 3.674660 0.053990 0.065410 
#    y 0.053990 4.188150 0.444330 
#    z 0.065410 0.444330 4.222020 
# 
# 
# High freq. dielectric constant tensor:
#      x y z
#    x 1.814130 -0.012550 -0.005140 
#    y -0.012550 1.843130 0.015090 
#    z -0.005140 0.015090 1.854900 
# 
# From -- ./inp_files/313936.got.cif
#   From: 2010.06.25/outbox.cif.g09.slc.cpg/sg2_157_cif.got.tgz:313936.got - 2010.06.27 13:26:56.
