data_PCOD8023047
_publ_section_title
;
Structure prediction by ZEFSAII (Michael W. Deem and Ramdas Pophale) SiO2 
 PCOD8023047
Probable space group: P -1
;
_chemical_formula_sum "Si O2"
_cell_formula_units_Z 14
_cell_length_a 10.625518
_cell_length_b 9.290909
_cell_length_c 9.431243
_cell_angle_alpha 45.562772
_cell_angle_beta 110.558410
_cell_angle_gamma 113.597870
_cell_volume 605.615230
_symmetry_space_group_name_H-M "P -1"
_symmetry_group_IT_number 2
_symmetry_cell_setting 'triclinic'
loop_
_space_group_symop_operation_xyz
x,y,z
-x,-y,-z
loop_
_atom_site_type_symbol
_atom_site_label
_atom_site_fract_x
_atom_site_fract_y
_atom_site_fract_z
Si Si1 0.253066 0.198545 0.816680
Si Si2 0.469661 0.711121 0.282355
Si Si3 0.044634 0.402932 0.440913
Si Si4 0.181697 0.746621 0.048448
Si Si5 0.198837 0.819897 0.678389
Si Si6 0.385625 0.536439 0.828284
Si Si7 0.456402 0.130927 0.518112
O O1 0.403437 0.178926 0.840374
O O2 0.176993 0.311581 0.591271
O O3 0.272057 0.330928 0.878307
O O4 0.172170 0.961750 0.973486
O O5 0.500000 0.500000 0.500000
O O6 0.328114 0.683141 0.159910
O O7 0.467403 0.876212 0.296230
O O8 0.072102 0.572706 0.209296
O O9 0.000000 0.500000 0.500000
O O10 0.925291 0.216758 0.459050
O O11 0.144255 0.767355 0.853345
O O12 0.304715 0.682362 0.774702
O O13 0.289769 0.058216 0.530670
O O14 0.480831 0.630691 0.665979
O O15 0.500000 0.500000 0.000000
O O16 0.500000 0.000000 0.500000
#
# Coordination Sequence:
#
# PCOD8023047 Si02
#       7
#     2   2   2   2   2   2   2
#     4  12  25  45  73 106 134 189 232 289 350 414
#     4  12  22  44  74 103 144 178 226 296 358 403
#     4  12  27  51  70  97 147 189 238 284 347 423
#     4  12  27  45  75 105 138 181 242 288 352 417
#     4  11  25  46  68 100 140 186 231 290 343 418
#     4  11  23  40  68 105 141 176 232 287 352 411
#     4  10  23  40  66 103 137 181 223 283 352 405
#
# _framework density 23.116987999999999
#
# number of rings (size 3 to 8) (size 9 to 14) (size 15 to 20)
#    0.000    0.571    5.714    1.714    6.000    1.143 
#    2.571    0.000    0.000    0.000    0.000    0.000 
#    0.000    0.000    0.000    0.000    0.000    0.000 
#
# Total GULP energy -173475.232141 kJ/mol
# GULP energy per Si atom -12391.088010 kJ/mol
# Density = 2.306437 g / cm^3
# Si number density = 23.116988 Si / 1000 Ang^3
#
#
#
# Elastic Constant Matrix: (Units=GPa)
#
#
# Indices 1 2 3 4 5 6 
#
# 1 69.9592 18.6723 19.4016 9.1892 -7.4930 7.4282
# 2 18.6723 114.0798 24.9812 13.7433 4.2174 13.3719
# 3 19.4016 24.9812 64.1262 3.5097 -4.4158 3.5948
# 4 9.1892 13.7433 3.5097 44.4684 4.1512 3.5198
# 5 -7.4930 4.2174 -4.4158 4.1512 41.0305 4.2686
# 6 7.4282 13.3719 3.5948 3.5198 4.2686 34.7251
#
#
#
# Elastic Compliance Matrix: (Units=1/GPa)
#
#
# Indices 1 2 3 4 5 6 
#
# 1 0.016790 -0.001322 -0.004023 -0.002835 0.003346 -0.002790
# 2 -0.001322 0.010408 -0.003437 -0.002329 -0.001134 -0.002994
# 3 -0.004023 -0.003437 0.018236 0.000304 0.001543 0.000076
# 4 -0.002835 -0.002329 0.000304 0.024065 -0.002613 -0.000646
# 5 0.003346 -0.001134 0.001543 -0.002613 0.025879 -0.003355
# 6 -0.002790 -0.002994 0.000076 -0.000646 -0.003355 0.031017
#
#
# Mechanical properties :
#
#
# Convention : Reuss Voigt Hill
#
# Bulk Modulus (GPa) = 35.88232 41.58615 38.73424
# Shear Modulus (GPa) = 32.62656 36.38547 34.50602
#
# Velocity S-wave (km/s) = 3.76089 3.97163 3.86770
# Velocity P-wave (km/s) = 5.86642 6.24983 6.06115
#
# Compressibility (1/GPa) = 0.02786887
#
# Stress axis : x y z
#
# Youngs Moduli (GPa) = 59.56089 96.07584 54.83743
#
# Poissons Ratio (x) = 0.12705 0.22059
# Poissons Ratio (y) = 0.07876 0.18850
# Poissons Ratio (z) = 0.23959 0.33025
#
# Static dielectric constant tensor:
#      x y z
#    x 3.690820 0.190360 -0.158590 
#    y 0.190360 4.622420 -0.239070 
#    z -0.158590 -0.239070 4.229420 
# 
# 
# High freq. dielectric constant tensor:
#      x y z
#    x 1.897030 0.001140 -0.010980 
#    y 0.001140 1.938710 0.005630 
#    z -0.010980 0.005630 1.906790 
# 
# From -- ./inp_files/242234.got.cif
#   From: 2010.06.25/outbox.cif.g09.slc.cpg/sg2_122_cif.got.tgz:242234.got - 2010.06.27 13:26:56.
