data_PCOD8023559
_publ_section_title
;
Structure prediction by ZEFSAII (Michael W. Deem and Ramdas Pophale) SiO2 
 PCOD8023559
Probable space group: P -1
;
_chemical_formula_sum "Si O2"
_cell_formula_units_Z 14
_cell_length_a 23.009056
_cell_length_b 13.876281
_cell_length_c 5.285334
_cell_angle_alpha 65.681256
_cell_angle_beta 60.995097
_cell_angle_gamma 20.924575
_cell_volume 522.502196
_symmetry_space_group_name_H-M "P -1"
_symmetry_group_IT_number 2
_symmetry_cell_setting 'triclinic'
loop_
_space_group_symop_operation_xyz
x,y,z
-x,-y,-z
loop_
_atom_site_type_symbol
_atom_site_label
_atom_site_fract_x
_atom_site_fract_y
_atom_site_fract_z
Si Si1 0.635152 0.041982 0.800433
Si Si2 0.133815 0.488700 0.236393
Si Si3 0.579668 0.834696 0.757035
Si Si4 0.791689 0.292347 0.835006
Si Si5 0.944080 0.254954 0.297303
Si Si6 0.793451 0.008457 0.648705
Si Si7 0.617619 0.476268 0.499086
O O1 0.790822 0.738335 0.721582
O O2 0.703978 0.026635 0.877799
O O3 0.574217 0.202195 0.513115
O O4 0.470897 0.217366 0.072552
O O5 0.221823 0.414027 0.379591
O O6 0.928395 0.789060 0.372205
O O7 0.180025 0.495474 0.892007
O O8 0.500000 0.000000 0.500000
O O9 0.500000 0.000000 0.000000
O O10 0.821768 0.374697 0.633302
O O11 0.661402 0.439288 0.736318
O O12 0.737721 0.358437 0.168527
O O13 0.970912 0.966927 0.793845
O O14 0.094490 0.110956 0.230559
O O15 0.643707 0.312194 0.573243
#
# Coordination Sequence:
#
# PCOD8023559 Si02
#       7
#     2   2   2   2   2   2   2
#     4  11  26  46  69 106 144 188 231 292 365 415
#     4  11  24  46  73 102 140 185 240 295 345 423
#     4  10  25  47  70 101 139 183 229 286 346 417
#     4  10  23  43  74 104 139 185 239 293 344 414
#     4  10  23  41  70 108 138 182 237 296 348 409
#     4  11  25  46  71 101 146 186 237 291 351 428
#     4  11  24  47  71 104 141 189 238 290 351 419
#
# _framework density 26.794146999999999
#
# number of rings (size 3 to 8) (size 9 to 14) (size 15 to 20)
#    0.000    1.429    1.429    1.714    8.000    4.571 
#    7.714    2.143    0.000    0.000    0.000    0.000 
#    0.000    0.000    0.000    0.000    0.000    0.000 
#
# Total GULP energy -173509.425285 kJ/mol
# GULP energy per Si atom -12393.530378 kJ/mol
# Density = 2.673316 g / cm^3
# Si number density = 26.794147 Si / 1000 Ang^3
#
#
#
# Elastic Constant Matrix: (Units=GPa)
#
#
# Indices 1 2 3 4 5 6 
#
# 1 174.7545 54.1478 45.5259 -23.5738 -38.4876 7.8422
# 2 54.1478 119.3782 26.4096 -29.4478 -17.5320 18.7685
# 3 45.5259 26.4096 86.6304 -20.5617 -5.7807 -2.9567
# 4 -23.5738 -29.4478 -20.5617 48.6510 2.1742 -8.4609
# 5 -38.4876 -17.5320 -5.7807 2.1742 41.6898 -5.1754
# 6 7.8422 18.7685 -2.9567 -8.4609 -5.1754 52.8420
#
#
#
# Elastic Compliance Matrix: (Units=1/GPa)
#
#
# Indices 1 2 3 4 5 6 
#
# 1 0.008881 -0.001956 -0.003266 0.001450 0.006860 0.000098
# 2 -0.001956 0.011537 -0.001274 0.004896 0.002257 -0.002874
# 3 -0.003266 -0.001274 0.014651 0.004304 -0.001458 0.002303
# 4 0.001450 0.004896 0.004304 0.026394 0.002965 0.002803
# 5 0.006860 0.002257 -0.001458 0.002965 0.031113 0.001621
# 6 0.000098 -0.002874 0.002303 0.002803 0.001621 0.020667
#
#
# Mechanical properties :
#
#
# Convention : Reuss Voigt Hill
#
# Bulk Modulus (GPa) = 45.29754 70.32552 57.81153
# Shear Modulus (GPa) = 37.42641 45.61521 41.52081
#
# Velocity S-wave (km/s) = 3.74145 4.13053 3.94079
# Velocity P-wave (km/s) = 5.96717 7.00371 6.50611
#
# Compressibility (1/GPa) = 0.02207626
#
# Stress axis : x y z
#
# Youngs Moduli (GPa) = 112.59708 86.67772 68.25528
#
# Poissons Ratio (x) = 0.16956 0.22290
# Poissons Ratio (y) = 0.22027 0.08699
# Poissons Ratio (z) = 0.36771 0.11047
#
# Static dielectric constant tensor:
#      x y z
#    x 5.135070 0.305230 -0.001570 
#    y 0.305230 5.614800 0.069680 
#    z -0.001570 0.069680 4.639090 
# 
# 
# High freq. dielectric constant tensor:
#      x y z
#    x 2.093200 0.026090 -0.000270 
#    y 0.026090 2.114270 0.000140 
#    z -0.000270 0.000140 2.053890 
# 
# From -- ./inp_files/124114.got.cif
#   From: 2010.06.25/outbox.cif.g09.slc.cpg/sg2_63_cif.got.tgz:124114.got - 2010.06.27 13:26:56.
