data_PCOD8023869
_publ_section_title
;
Structure prediction by ZEFSAII (Michael W. Deem and Ramdas Pophale) SiO2 
 PCOD8023869
Probable space group: P -1
;
_chemical_formula_sum "Si O2"
_cell_formula_units_Z 16
_cell_length_a 9.163411
_cell_length_b 14.105409
_cell_length_c 20.043028
_cell_angle_alpha 21.119777
_cell_angle_beta 53.951786
_cell_angle_gamma 52.539319
_cell_volume 738.929269
_symmetry_space_group_name_H-M "P -1"
_symmetry_group_IT_number 2
_symmetry_cell_setting 'triclinic'
loop_
_space_group_symop_operation_xyz
x,y,z
-x,-y,-z
loop_
_atom_site_type_symbol
_atom_site_label
_atom_site_fract_x
_atom_site_fract_y
_atom_site_fract_z
Si Si1 0.330417 0.202311 0.743822
Si Si2 0.820384 0.221466 0.415848
Si Si3 0.001624 0.284387 0.696940
Si Si4 0.990291 0.290347 0.953378
Si Si5 0.405642 0.757886 0.668787
Si Si6 0.763148 0.324834 0.858330
Si Si7 0.265476 0.813685 0.392532
Si Si8 0.063579 0.742150 0.860176
O O1 0.266059 0.498569 0.595622
O O2 0.549609 0.116796 0.733600
O O3 0.221666 0.192059 0.710433
O O4 0.251393 0.983434 0.952996
O O5 0.677526 0.213499 0.401122
O O6 0.736370 0.123514 0.569948
O O7 0.859422 0.522117 0.214594
O O8 0.000000 0.000000 0.500000
O O9 0.890279 0.415093 0.707093
O O10 0.000000 0.500000 0.500000
O O11 0.917420 0.028120 0.865387
O O12 0.846921 0.367488 0.880448
O O13 0.896328 0.332184 0.024317
O O14 0.555083 0.484668 0.809811
O O15 0.254121 0.770857 0.757848
O O16 0.500000 0.000000 0.500000
O O17 0.091477 0.985614 0.287105
O O18 0.000000 0.500000 0.000000
#
# Coordination Sequence:
#
# PCOD8023869 Si02
#       8
#     2   2   2   2   2   2   2   2
#     4  10  23  42  67 101 134 181 221 290 343 409
#     4  12  23  44  68  99 135 188 228 279 348 411
#     4  11  24  43  70 101 138 182 228 289 349 411
#     4  11  24  42  75  97 135 193 226 284 350 409
#     4  12  28  42  70 103 139 182 231 290 345 414
#     4  11  25  46  68 101 145 175 231 283 352 416
#     4  11  23  41  71  98 140 175 234 282 343 414
#     4  12  24  46  69 102 141 181 237 286 343 413
#
# _framework density 21.652951999999999
#
# number of rings (size 3 to 8) (size 9 to 14) (size 15 to 20)
#    0.000    0.750    2.500    5.250    5.250    1.500 
#    0.000    1.250    0.000    0.000    0.000    0.000 
#    0.000    0.000    0.000    0.000    0.000    0.000 
#
# Total GULP energy -198330.445668 kJ/mol
# GULP energy per Si atom -12395.652854 kJ/mol
# Density = 2.160367 g / cm^3
# Si number density = 21.652952 Si / 1000 Ang^3
#
#
#
# Elastic Constant Matrix: (Units=GPa)
#
#
# Indices 1 2 3 4 5 6 
#
# 1 134.2122 55.3494 60.9091 5.5976 2.6191 5.0901
# 2 55.3494 112.7780 45.2342 14.2826 9.1115 2.1118
# 3 60.9091 45.2342 118.9102 4.7907 1.3514 1.5270
# 4 5.5976 14.2826 4.7907 45.4910 4.1468 6.4780
# 5 2.6191 9.1115 1.3514 4.1468 44.7400 1.2827
# 6 5.0901 2.1118 1.5270 6.4780 1.2827 44.1553
#
#
#
# Elastic Compliance Matrix: (Units=1/GPa)
#
#
# Indices 1 2 3 4 5 6 
#
# 1 0.010897 -0.003725 -0.004170 0.000388 0.000239 -0.000998
# 2 -0.003725 0.012277 -0.002625 -0.003004 -0.001937 0.000430
# 3 -0.004170 -0.002625 0.011535 0.000058 0.000420 0.000187
# 4 0.000388 -0.003004 0.000058 0.023479 -0.001494 -0.003304
# 5 0.000239 -0.001937 0.000420 -0.001494 0.022869 -0.000395
# 6 -0.000998 0.000430 0.000187 -0.003304 -0.000395 0.023232
#
#
# Mechanical properties :
#
#
# Convention : Reuss Voigt Hill
#
# Bulk Modulus (GPa) = 73.16010 76.54287 74.85149
# Shear Modulus (GPa) = 38.49636 40.50444 39.50040
#
# Velocity S-wave (km/s) = 4.22107 4.32976 4.27576
# Velocity P-wave (km/s) = 7.59062 7.77318 7.68244
#
# Compressibility (1/GPa) = 0.01366865
#
# Stress axis : x y z
#
# Youngs Moduli (GPa) = 91.77200 81.45466 86.69560
#
# Poissons Ratio (x) = 0.30343 0.36152
# Poissons Ratio (y) = 0.34186 0.22754
# Poissons Ratio (z) = 0.38269 0.21378
#
# Static dielectric constant tensor:
#      x y z
#    x 10.280140 -1.911250 3.139190 
#    y -1.911250 4.477300 -1.135000 
#    z 3.139190 -1.135000 5.784240 
# 
# 
# High freq. dielectric constant tensor:
#      x y z
#    x 1.851310 0.007950 -0.003570 
#    y 0.007950 1.851110 -0.001010 
#    z -0.003570 -0.001010 1.871340 
# 
# From -- ./inp_files/280110.got.cif
#   From: 2010.06.25/outbox.cif.g09.slc.cpg/sg2_141_cif.got.tgz:280110.got - 2010.06.27 13:26:56.
