data_PCOD8023412
_publ_section_title
;
Structure prediction by ZEFSAII (Michael W. Deem and Ramdas Pophale) SiO2 
 PCOD8023412
Probable space group: P -1
;
_chemical_formula_sum "Si O2"
_cell_formula_units_Z 16
_cell_length_a 14.343872
_cell_length_b 14.172527
_cell_length_c 14.276322
_cell_angle_alpha 138.826869
_cell_angle_beta 30.941024
_cell_angle_gamma 150.322549
_cell_volume 738.485345
_symmetry_space_group_name_H-M "P -1"
_symmetry_group_IT_number 2
_symmetry_cell_setting 'triclinic'
loop_
_space_group_symop_operation_xyz
x,y,z
-x,-y,-z
loop_
_atom_site_type_symbol
_atom_site_label
_atom_site_fract_x
_atom_site_fract_y
_atom_site_fract_z
Si Si1 0.004549 0.404040 0.834567
Si Si2 0.730545 0.697699 0.911125
Si Si3 0.996820 0.919172 0.344842
Si Si4 0.164009 0.731167 0.631489
Si Si5 0.490196 0.134774 0.730644
Si Si6 0.493578 0.588850 0.479250
Si Si7 0.245396 0.292145 0.319354
Si Si8 0.875024 0.343531 0.705410
O O1 0.949454 0.218484 0.784434
O O2 0.256166 0.561021 0.678399
O O3 0.820076 0.348588 0.867378
O O4 0.000000 0.500000 0.000000
O O5 0.690193 0.671160 0.816003
O O6 0.977452 0.750585 0.766906
O O7 0.500000 0.500000 0.000000
O O8 0.718163 0.852511 0.078891
O O9 0.742807 0.806680 0.423351
O O10 0.000000 0.000000 0.500000
O O11 0.199825 0.102049 0.243981
O O12 0.301529 0.724735 0.421870
O O13 0.039234 0.549504 0.668252
O O14 0.366147 0.917500 0.657590
O O15 0.616727 0.199589 0.771122
O O16 0.500000 0.500000 0.500000
O O17 0.466721 0.475032 0.325133
O O18 0.004050 0.256719 0.522923
#
# Coordination Sequence:
#
# PCOD8023412 Si02
#       8
#     2   2   2   2   2   2   2   2
#     4  10  23  41  66  98 137 171 221 283 333 397
#     4  12  24  45  70  97 138 176 227 279 340 407
#     4  11  20  43  67  91 131 178 222 272 325 411
#     4  11  24  45  66  96 138 174 222 278 342 398
#     4  11  24  42  69  98 134 175 223 280 333 410
#     4   9  19  39  66  91 129 171 220 263 336 389
#     4  11  23  40  68  98 127 181 225 275 336 408
#     4  11  21  42  65  92 134 175 221 267 347 393
#
# _framework density 21.665966999999998
#
# number of rings (size 3 to 8) (size 9 to 14) (size 15 to 20)
#    0.000    1.250    6.250    1.500    0.000    5.000 
#    4.500    0.625    0.000    0.000    0.000    0.000 
#    0.000    0.000    0.000    0.000    0.000    0.000 
#
# Total GULP energy -198318.952322 kJ/mol
# GULP energy per Si atom -12394.934520 kJ/mol
# Density = 2.161665 g / cm^3
# Si number density = 21.665967 Si / 1000 Ang^3
#
#
#
# Elastic Constant Matrix: (Units=GPa)
#
#
# Indices 1 2 3 4 5 6 
#
# 1 150.1980 65.1193 54.9000 6.0799 22.4776 4.5850
# 2 65.1193 117.6543 29.9122 8.6898 14.2946 12.8365
# 3 54.9000 29.9122 103.0339 17.9906 18.3048 4.7119
# 4 6.0799 8.6898 17.9906 30.9650 0.6169 -3.2139
# 5 22.4776 14.2946 18.3048 0.6169 36.5746 -0.5067
# 6 4.5850 12.8365 4.7119 -3.2139 -0.5067 31.7639
#
#
#
# Elastic Compliance Matrix: (Units=1/GPa)
#
#
# Indices 1 2 3 4 5 6 
#
# 1 0.010481 -0.004699 -0.004141 0.001836 -0.002547 0.001146
# 2 -0.004699 0.012018 0.000059 -0.002916 -0.001852 -0.004512
# 3 -0.004141 0.000059 0.014112 -0.007559 -0.004446 -0.002355
# 4 0.001836 -0.002916 -0.007559 0.037692 0.003240 0.005900
# 5 -0.002547 -0.001852 -0.004446 0.003240 0.031838 0.002611
# 6 0.001146 -0.004512 -0.002355 0.005900 0.002611 0.034128
#
#
# Mechanical properties :
#
#
# Convention : Reuss Voigt Hill
#
# Bulk Modulus (GPa) = 52.49438 74.52770 63.51104
# Shear Modulus (GPa) = 30.45457 34.59101 32.52279
#
# Velocity S-wave (km/s) = 3.75325 4.00003 3.87861
# Velocity P-wave (km/s) = 6.56233 7.47040 7.03104
#
# Compressibility (1/GPa) = 0.01904966
#
# Stress axis : x y z
#
# Youngs Moduli (GPa) = 95.41382 83.20895 70.86149
#
# Poissons Ratio (x) = 0.39102 0.29341
# Poissons Ratio (y) = 0.44837 -0.00421
# Poissons Ratio (z) = 0.39508 -0.00495
#
# Static dielectric constant tensor:
#      x y z
#    x 4.446740 0.612040 -0.289920 
#    y 0.612040 3.752680 -0.124740 
#    z -0.289920 -0.124740 4.715870 
# 
# 
# High freq. dielectric constant tensor:
#      x y z
#    x 1.867270 0.010910 0.006970 
#    y 0.010910 1.849820 0.009580 
#    z 0.006970 0.009580 1.836670 
# 
# From -- ./inp_files/533804.got.cif
#   From: 2010.06.25/outbox.cif.g09.slc.cpg/sg2_267_cif.got.tgz:533804.got - 2010.06.27 13:26:56.
