data_PCOD8023334
_publ_section_title
;
Structure prediction by ZEFSAII (Michael W. Deem and Ramdas Pophale) SiO2 
 PCOD8023334
Probable space group: P -1
;
_chemical_formula_sum "Si O2"
_cell_formula_units_Z 14
_cell_length_a 13.517033
_cell_length_b 5.207024
_cell_length_c 9.425854
_cell_angle_alpha 103.550887
_cell_angle_beta 84.525679
_cell_angle_gamma 69.629772
_cell_volume 593.115683
_symmetry_space_group_name_H-M "P -1"
_symmetry_group_IT_number 2
_symmetry_cell_setting 'triclinic'
loop_
_space_group_symop_operation_xyz
x,y,z
-x,-y,-z
loop_
_atom_site_type_symbol
_atom_site_label
_atom_site_fract_x
_atom_site_fract_y
_atom_site_fract_z
Si Si1 0.949168 0.905595 0.124555
Si Si2 0.889196 0.158080 0.457359
Si Si3 0.325230 0.358324 0.780425
Si Si4 0.166646 0.429642 0.032714
Si Si5 0.756782 0.786198 0.518396
Si Si6 0.354141 0.139428 0.176121
Si Si7 0.560749 0.224505 0.139414
O O1 0.050573 0.634039 0.135263
O O2 0.906717 0.137964 0.283140
O O3 0.848410 0.836558 0.077315
O O4 0.000000 0.000000 0.000000
O O5 0.842706 0.495727 0.538919
O O6 0.808066 0.010540 0.495786
O O7 0.000000 0.000000 0.500000
O O8 0.297939 0.302521 0.618026
O O9 0.408446 0.515462 0.779737
O O10 0.377029 0.060220 0.816395
O O11 0.220314 0.554105 0.914671
O O12 0.242220 0.340430 0.146955
O O13 0.668087 0.937065 0.670887
O O14 0.433324 0.312529 0.190448
O O15 0.409921 0.845770 0.040610
#
# Coordination Sequence:
#
# PCOD8023334 Si02
#       7
#     2   2   2   2   2   2   2
#     4  11  24  40  67  98 129 182 227 270 326 399
#     4  12  27  44  66 100 141 180 225 279 331 401
#     4  11  23  45  70  99 137 175 224 281 336 406
#     4  10  23  41  65  96 133 176 225 275 326 401
#     4  12  26  44  69  99 138 182 220 279 347 393
#     4  10  25  45  69 101 134 176 225 283 338 401
#     4  10  25  45  72 100 132 176 228 281 337 398
#
# _framework density 23.604165999999999
#
# number of rings (size 3 to 8) (size 9 to 14) (size 15 to 20)
#    0.000    1.143    1.429    3.000   10.000    9.714 
#    0.000    0.000    0.000    0.000    0.000    0.000 
#    0.000    0.000    0.000    0.000    0.000    0.000 
#
# Total GULP energy -173605.988535 kJ/mol
# GULP energy per Si atom -12400.427753 kJ/mol
# Density = 2.355044 g / cm^3
# Si number density = 23.604166 Si / 1000 Ang^3
#
#
#
# Elastic Constant Matrix: (Units=GPa)
#
#
# Indices 1 2 3 4 5 6 
#
# 1 135.2483 13.0294 36.1478 -11.2920 -4.3849 14.5223
# 2 13.0294 45.4838 9.0669 -5.6434 -6.0996 10.8308
# 3 36.1478 9.0669 149.5283 -16.1504 -17.9045 3.8678
# 4 -11.2920 -5.6434 -16.1504 21.1540 0.1289 -5.9987
# 5 -4.3849 -6.0996 -17.9045 0.1289 30.9121 -2.9217
# 6 14.5223 10.8308 3.8678 -5.9987 -2.9217 29.4189
#
#
#
# Elastic Compliance Matrix: (Units=1/GPa)
#
#
# Indices 1 2 3 4 5 6 
#
# 1 0.008457 -0.001122 -0.001716 0.002011 -0.000323 -0.003158
# 2 -0.001122 0.025136 -0.000169 0.003826 0.003977 -0.007503
# 3 -0.001716 -0.000169 0.008245 0.005716 0.004612 0.001449
# 4 0.002011 0.003826 0.005716 0.056195 0.004948 0.008797
# 5 -0.000323 0.003977 0.004612 0.004948 0.035992 0.002672
# 6 -0.003158 -0.007503 0.001449 0.008797 0.002672 0.040181
#
#
# Mechanical properties :
#
#
# Convention : Reuss Voigt Hill
#
# Bulk Modulus (GPa) = 27.91557 49.63873 38.77715
# Shear Modulus (GPa) = 26.01959 34.43141 30.22550
#
# Velocity S-wave (km/s) = 3.32374 3.82344 3.58231
# Velocity P-wave (km/s) = 5.15576 6.36921 5.79434
#
# Compressibility (1/GPa) = 0.03582231
#
# Stress axis : x y z
#
# Youngs Moduli (GPa) = 118.24329 39.78404 121.28577
#
# Poissons Ratio (x) = 0.04465 0.20814
# Poissons Ratio (y) = 0.13271 0.02053
# Poissons Ratio (z) = 0.20292 0.00674
#
# Static dielectric constant tensor:
#      x y z
#    x 4.189950 -0.477370 0.168580 
#    y -0.477370 4.509480 0.259510 
#    z 0.168580 0.259510 4.228700 
# 
# 
# High freq. dielectric constant tensor:
#      x y z
#    x 1.953820 -0.001630 0.000760 
#    y -0.001630 1.922870 -0.007770 
#    z 0.000760 -0.007770 1.938310 
# 
# From -- ./inp_files/47038.got.cif
#   From: 2010.06.25/outbox.cif.g09.slc.cpg/sg2_24_cif.got.tgz:47038.got - 2010.06.27 13:26:56.
