data_PCOD8023474
_publ_section_title
;
Structure prediction by ZEFSAII (Michael W. Deem and Ramdas Pophale) SiO2 
 PCOD8023474
Probable space group: P -1
;
_chemical_formula_sum "Si O2"
_cell_formula_units_Z 16
_cell_length_a 9.069607
_cell_length_b 16.743750
_cell_length_c 11.509726
_cell_angle_alpha 146.144845
_cell_angle_beta 50.961449
_cell_angle_gamma 114.574798
_cell_volume 732.748325
_symmetry_space_group_name_H-M "P -1"
_symmetry_group_IT_number 2
_symmetry_cell_setting 'triclinic'
loop_
_space_group_symop_operation_xyz
x,y,z
-x,-y,-z
loop_
_atom_site_type_symbol
_atom_site_label
_atom_site_fract_x
_atom_site_fract_y
_atom_site_fract_z
Si Si1 0.447653 0.110602 0.769292
Si Si2 0.145730 0.602074 0.067605
Si Si3 0.836046 0.930458 0.949170
Si Si4 0.179204 0.864284 0.243140
Si Si5 0.223971 0.828419 0.911262
Si Si6 0.029527 0.378882 0.594228
Si Si7 0.422545 0.420962 0.550933
Si Si8 0.080332 0.364212 0.207322
O O1 0.650422 0.132186 0.745249
O O2 0.500000 0.000000 0.500000
O O3 0.346427 0.036630 0.832232
O O4 0.306010 0.272384 0.002399
O O5 0.072006 0.740411 0.187251
O O6 0.133276 0.648290 0.265532
O O7 0.363935 0.527128 0.820705
O O8 0.000000 0.500000 0.000000
O O9 0.929864 0.753211 0.679922
O O10 0.778660 0.013011 0.953808
O O11 0.000000 0.000000 0.000000
O O12 0.259490 0.840285 0.044686
O O13 0.000000 0.000000 0.500000
O O14 0.415939 0.710559 0.631224
O O15 0.038464 0.763924 0.891496
O O16 0.944999 0.545763 0.791823
O O17 0.239013 0.362914 0.530334
O O18 0.500000 0.500000 0.500000
O O19 0.000000 0.500000 0.500000
#
# Coordination Sequence:
#
# PCOD8023474 Si02
#       8
#     2   2   2   2   2   2   2   2
#     4  12  29  48  75 109 152 193 249 302 374 445
#     4  10  23  41  68 104 142 175 232 302 359 420
#     4  12  26  47  69 106 147 193 241 306 361 439
#     4  12  26  46  76 105 147 193 240 303 373 432
#     4  12  24  42  76 102 143 191 246 300 365 433
#     4  11  23  43  72  99 145 185 244 297 360 433
#     4  11  21  39  69 106 136 176 238 298 354 426
#     4  12  24  46  73 104 144 201 240 294 376 441
#
# _framework density 21.835602000000002
#
# number of rings (size 3 to 8) (size 9 to 14) (size 15 to 20)
#    0.000    0.500    5.000    3.000    3.500    5.000 
#    0.000    0.625    0.000    0.000    0.000    0.000 
#    0.000    0.000    0.000    0.000    0.000    0.000 
#
# Total GULP energy -198277.802279 kJ/mol
# GULP energy per Si atom -12392.362642 kJ/mol
# Density = 2.178590 g / cm^3
# Si number density = 21.835602 Si / 1000 Ang^3
#
#
#
# Elastic Constant Matrix: (Units=GPa)
#
#
# Indices 1 2 3 4 5 6 
#
# 1 110.4201 25.9889 44.1175 5.3082 -14.9483 3.1710
# 2 25.9889 147.0705 51.6679 -0.9551 -8.4211 -16.0661
# 3 44.1175 51.6679 156.6272 -7.4623 -10.8276 -1.9362
# 4 5.3082 -0.9551 -7.4623 48.9415 -11.2484 -1.2688
# 5 -14.9483 -8.4211 -10.8276 -11.2484 47.3004 2.8312
# 6 3.1710 -16.0661 -1.9362 -1.2688 2.8312 31.2971
#
#
#
# Elastic Compliance Matrix: (Units=1/GPa)
#
#
# Indices 1 2 3 4 5 6 
#
# 1 0.010795 -0.001091 -0.002585 -0.001066 0.002497 -0.002083
# 2 -0.001091 0.008297 -0.002347 0.000117 0.000372 0.004196
# 3 -0.002585 -0.002347 0.008033 0.001684 0.001033 -0.000471
# 4 -0.001066 0.000117 0.001684 0.022036 0.005268 0.000689
# 5 0.002497 0.000372 0.001033 0.005268 0.023601 -0.001920
# 6 -0.002083 0.004196 -0.000471 0.000689 -0.001920 0.034489
#
#
# Mechanical properties :
#
#
# Convention : Reuss Voigt Hill
#
# Bulk Modulus (GPa) = 66.31341 73.07403 69.69372
# Shear Modulus (GPa) = 40.21826 44.99738 42.60782
#
# Velocity S-wave (km/s) = 4.29635 4.54446 4.42214
# Velocity P-wave (km/s) = 7.41936 7.81501 7.61975
#
# Compressibility (1/GPa) = 0.01507991
#
# Stress axis : x y z
#
# Youngs Moduli (GPa) = 92.63669 120.52525 124.49378
#
# Poissons Ratio (x) = 0.13150 0.32177
# Poissons Ratio (y) = 0.10107 0.29213
# Poissons Ratio (z) = 0.23943 0.28282
#
# Static dielectric constant tensor:
#      x y z
#    x 4.507050 0.303940 -0.439720 
#    y 0.303940 5.557230 -0.309000 
#    z -0.439720 -0.309000 4.670270 
# 
# 
# High freq. dielectric constant tensor:
#      x y z
#    x 1.848870 -0.009780 0.000000 
#    y -0.009780 1.871710 0.000320 
#    z 0.000000 0.000320 1.874250 
# 
# From -- ./inp_files/403482.got.cif
#   From: 2010.06.25/outbox.cif.g09.slc.cpg/sg2_202_cif.got.tgz:403482.got - 2010.06.27 13:26:56.
