data_PCOD8023073
_publ_section_title
;
Structure prediction by ZEFSAII (Michael W. Deem and Ramdas Pophale) SiO2 
 PCOD8023073
Probable space group: P -1
;
_chemical_formula_sum "Si O2"
_cell_formula_units_Z 14
_cell_length_a 4.972229
_cell_length_b 11.678795
_cell_length_c 14.150140
_cell_angle_alpha 44.690206
_cell_angle_beta 81.838144
_cell_angle_gamma 77.806745
_cell_volume 564.798622
_symmetry_space_group_name_H-M "P -1"
_symmetry_group_IT_number 2
_symmetry_cell_setting 'triclinic'
loop_
_space_group_symop_operation_xyz
x,y,z
-x,-y,-z
loop_
_atom_site_type_symbol
_atom_site_label
_atom_site_fract_x
_atom_site_fract_y
_atom_site_fract_z
Si Si1 0.632599 0.092250 0.765096
Si Si2 0.906587 0.826254 0.587839
Si Si3 0.266801 0.293384 0.014749
Si Si4 0.535759 0.264529 0.473462
Si Si5 0.367965 0.583060 0.209998
Si Si6 0.754954 0.570225 0.875333
Si Si7 0.061035 0.154323 0.848792
O O1 0.518646 0.181977 0.623554
O O2 0.892086 0.164707 0.752378
O O3 0.385470 0.138545 0.825595
O O4 0.728494 0.899243 0.854383
O O5 0.148728 0.728681 0.570369
O O6 0.625357 0.836920 0.533786
O O7 0.897049 0.729120 0.744774
O O8 0.000000 0.000000 0.500000
O O9 0.415255 0.372977 0.051680
O O10 0.408790 0.300631 0.899612
O O11 0.962973 0.397118 0.977380
O O12 0.416983 0.461709 0.368827
O O13 0.421751 0.457315 0.191657
O O14 0.061978 0.686273 0.175285
O O15 0.000000 0.000000 0.000000
#
# Coordination Sequence:
#
# PCOD8023073 Si02
#       7
#     2   2   2   2   2   2   2
#     4  12  27  45  70 104 134 179 228 280 337 400
#     4  11  22  42  67  97 139 182 223 272 336 403
#     4  11  22  42  67  97 137 173 226 280 333 405
#     4  11  25  44  66  98 137 177 225 278 336 400
#     4  11  24  43  69  93 139 176 226 278 336 402
#     4  10  23  40  67 101 130 180 223 276 339 400
#     4  12  26  45  74 100 135 177 229 282 338 396
#
# _framework density 24.787595
#
# number of rings (size 3 to 8) (size 9 to 14) (size 15 to 20)
#    0.000    0.857    2.857    3.857    2.000    2.286 
#    2.571    0.000    0.000    0.000    0.000    0.000 
#    0.000    0.000    0.000    0.000    0.000    0.000 
#
# Total GULP energy -173448.403397 kJ/mol
# GULP energy per Si atom -12389.171671 kJ/mol
# Density = 2.473118 g / cm^3
# Si number density = 24.787595 Si / 1000 Ang^3
#
#
#
# Elastic Constant Matrix: (Units=GPa)
#
#
# Indices 1 2 3 4 5 6 
#
# 1 59.5386 4.4515 0.3595 7.5996 13.6812 -9.8407
# 2 4.4515 101.7479 33.0434 -0.6851 -0.1085 -14.2014
# 3 0.3595 33.0434 165.5997 -3.2473 4.3222 -13.3767
# 4 7.5996 -0.6851 -3.2473 31.6041 4.3087 6.4602
# 5 13.6812 -0.1085 4.3222 4.3087 17.5861 5.3809
# 6 -9.8407 -14.2014 -13.3767 6.4602 5.3809 41.1274
#
#
#
# Elastic Compliance Matrix: (Units=1/GPa)
#
#
# Indices 1 2 3 4 5 6 
#
# 1 0.023643 -0.000160 0.001180 -0.004706 -0.020406 0.009395
# 2 -0.000160 0.010904 -0.001922 -0.000554 -0.000183 0.003213
# 3 0.001180 -0.001922 0.006689 0.000372 -0.003329 0.002171
# 4 -0.004706 -0.000554 0.000372 0.034477 -0.002977 -0.006222
# 5 -0.020406 -0.000183 -0.003329 -0.002977 0.079155 -0.015917
# 6 0.009395 0.003213 0.002171 -0.006222 -0.015917 0.031438
#
#
# Mechanical properties :
#
#
# Convention : Reuss Voigt Hill
#
# Bulk Modulus (GPa) = 25.35992 44.73275 35.04633
# Shear Modulus (GPa) = 24.84423 37.33232 31.08827
#
# Velocity S-wave (km/s) = 3.16932 3.88505 3.54529
# Velocity P-wave (km/s) = 4.86271 6.18145 5.56131
#
# Compressibility (1/GPa) = 0.03943231
#
# Stress axis : x y z
#
# Youngs Moduli (GPa) = 42.29571 91.71057 149.49488
#
# Poissons Ratio (x) = 0.01465 -0.17637
# Poissons Ratio (y) = 0.00676 0.28732
# Poissons Ratio (z) = -0.04990 0.17626
#
# Static dielectric constant tensor:
#      x y z
#    x 4.660780 0.026360 0.071420 
#    y 0.026360 4.884020 -0.014060 
#    z 0.071420 -0.014060 5.007190 
# 
# 
# High freq. dielectric constant tensor:
#      x y z
#    x 1.983050 0.000080 0.000820 
#    y 0.000080 1.986500 -0.003400 
#    z 0.000820 -0.003400 2.002800 
# 
# From -- ./inp_files/65494.got.cif
#   From: 2010.06.25/outbox.cif.g09.slc.cpg/sg2_33_cif.got.tgz:65494.got - 2010.06.27 13:26:56.
