data_PCOD8023372
_publ_section_title
;
Structure prediction by ZEFSAII (Michael W. Deem and Ramdas Pophale) SiO2 
 PCOD8023372
Probable space group: P -1
;
_chemical_formula_sum "Si O2"
_cell_formula_units_Z 14
_cell_length_a 12.042528
_cell_length_b 9.699298
_cell_length_c 25.197482
_cell_angle_alpha 148.643858
_cell_angle_beta 153.056427
_cell_angle_gamma 38.245703
_cell_volume 690.303454
_symmetry_space_group_name_H-M "P -1"
_symmetry_group_IT_number 2
_symmetry_cell_setting 'triclinic'
loop_
_space_group_symop_operation_xyz
x,y,z
-x,-y,-z
loop_
_atom_site_type_symbol
_atom_site_label
_atom_site_fract_x
_atom_site_fract_y
_atom_site_fract_z
Si Si1 0.895922 0.723017 0.372659
Si Si2 0.968710 0.748648 0.029701
Si Si3 0.985629 0.255941 0.452608
Si Si4 0.587353 0.747948 0.782707
Si Si5 0.634162 0.093434 0.819460
Si Si6 0.776997 0.775618 0.680283
Si Si7 0.617115 0.171756 0.562312
O O1 0.896354 0.653956 0.412556
O O2 0.068492 0.508695 0.342368
O O3 0.623918 0.724868 0.233581
O O4 0.000000 0.000000 0.500000
O O5 0.695295 0.784046 0.899648
O O6 0.156065 0.721443 0.049570
O O7 0.029212 0.003379 0.174087
O O8 0.000000 0.500000 0.000000
O O9 0.706047 0.198213 0.322828
O O10 0.000000 0.500000 0.500000
O O11 0.133396 0.987083 0.405326
O O12 0.685528 0.971609 0.859684
O O13 0.679662 0.451426 0.704720
O O14 0.629291 0.841788 0.694028
O O15 0.583249 0.773887 0.550591
O O16 0.500000 0.000000 0.500000
#
# Coordination Sequence:
#
# PCOD8023372 Si02
#       7
#     2   2   2   2   2   2   2
#     4  12  22  41  66 100 130 165 214 270 326 382
#     4  10  24  46  67  88 133 178 218 265 325 387
#     4  12  24  37  63  97 132 163 214 275 320 380
#     4  12  24  42  66  97 130 170 218 270 322 381
#     4  10  24  41  67  90 134 170 219 262 325 383
#     4  10  23  41  66  92 130 171 213 262 325 384
#     4  12  22  40  66  96 128 168 216 268 326 381
#
# _framework density 20.280937000000002
#
# number of rings (size 3 to 8) (size 9 to 14) (size 15 to 20)
#    0.857    0.000    5.714    1.286    4.000    1.143 
#    2.571    1.429    0.000    0.000    0.000    0.000 
#    0.000    0.000    0.000    0.000    0.000    0.000 
#
# Total GULP energy -173587.812702 kJ/mol
# GULP energy per Si atom -12399.129479 kJ/mol
# Density = 2.023478 g / cm^3
# Si number density = 20.280937 Si / 1000 Ang^3
#
#
#
# Elastic Constant Matrix: (Units=GPa)
#
#
# Indices 1 2 3 4 5 6 
#
# 1 73.4689 42.0143 1.7900 -3.0021 7.1680 9.6830
# 2 42.0143 138.8669 32.9719 -5.0595 5.8270 -3.9361
# 3 1.7900 32.9719 69.8389 -0.8941 3.7017 4.9198
# 4 -3.0021 -5.0595 -0.8941 32.8255 4.1102 0.8149
# 5 7.1680 5.8270 3.7017 4.1102 26.1339 -1.5506
# 6 9.6830 -3.9361 4.9198 0.8149 -1.5506 58.4415
#
#
#
# Elastic Compliance Matrix: (Units=1/GPa)
#
#
# Indices 1 2 3 4 5 6 
#
# 1 0.017951 -0.005983 0.002884 0.001448 -0.004449 -0.003758
# 2 -0.005983 0.010244 -0.004820 0.000845 0.000030 0.002076
# 3 0.002884 -0.004820 0.016806 0.000321 -0.002283 -0.002282
# 4 0.001448 0.000845 0.000321 0.031460 -0.005626 -0.000798
# 5 -0.004449 0.000030 -0.002283 -0.005626 0.040810 0.002093
# 6 -0.003758 0.002076 -0.002282 -0.000798 0.002093 0.018132
#
#
# Mechanical properties :
#
#
# Convention : Reuss Voigt Hill
#
# Bulk Modulus (GPa) = 34.29043 48.41410 41.35227
# Shear Modulus (GPa) = 31.06299 37.17341 34.11820
#
# Velocity S-wave (km/s) = 3.91786 4.28591 4.10601
# Velocity P-wave (km/s) = 6.11642 6.95813 6.55081
#
# Compressibility (1/GPa) = 0.02916266
#
# Stress axis : x y z
#
# Youngs Moduli (GPa) = 55.70770 97.61753 59.50176
#
# Poissons Ratio (x) = 0.58402 -0.17158
# Poissons Ratio (y) = 0.33329 0.28680
# Poissons Ratio (z) = -0.16064 0.47052
#
# Static dielectric constant tensor:
#      x y z
#    x 2.774650 0.640130 -0.904130 
#    y 0.640130 3.463980 0.176510 
#    z -0.904130 0.176510 3.346840 
# 
# 
# High freq. dielectric constant tensor:
#      x y z
#    x 1.790060 0.009880 0.004320 
#    y 0.009880 1.803540 -0.014310 
#    z 0.004320 -0.014310 1.783220 
# 
# From -- ./inp_files/425059.got.cif
#   From: 2010.06.25/outbox.cif.g09.slc.cpg/sg2_213_cif.got.tgz:425059.got - 2010.06.27 13:26:56.
