data_PCOD8023024
_publ_section_title
;
Structure prediction by ZEFSAII (Michael W. Deem and Ramdas Pophale) SiO2 
 PCOD8023024
Probable space group: P -1
;
_chemical_formula_sum "Si O2"
_cell_formula_units_Z 16
_cell_length_a 14.506280
_cell_length_b 8.101866
_cell_length_c 19.283154
_cell_angle_alpha 53.879526
_cell_angle_beta 25.643788
_cell_angle_gamma 50.835452
_cell_volume 759.078985
_symmetry_space_group_name_H-M "P -1"
_symmetry_group_IT_number 2
_symmetry_cell_setting 'triclinic'
loop_
_space_group_symop_operation_xyz
x,y,z
-x,-y,-z
loop_
_atom_site_type_symbol
_atom_site_label
_atom_site_fract_x
_atom_site_fract_y
_atom_site_fract_z
Si Si1 0.143173 0.314918 0.405451
Si Si2 0.218331 0.210718 0.798239
Si Si3 0.188535 0.781345 0.426041
Si Si4 0.443620 0.208003 0.938664
Si Si5 0.978985 0.022721 0.894673
Si Si6 0.580705 0.406431 0.041867
Si Si7 0.027984 0.713791 0.815683
Si Si8 0.285514 0.862629 0.484612
O O1 0.000000 0.500000 0.500000
O O2 0.977277 0.362656 0.439085
O O3 0.157000 0.102627 0.492215
O O4 0.392403 0.311538 0.223247
O O5 0.106939 0.458107 0.831345
O O6 0.482254 0.164316 0.628358
O O7 0.152898 0.126581 0.789530
O O8 0.152662 0.073370 0.936560
O O9 0.355194 0.781695 0.249753
O O10 0.320656 0.725127 0.422912
O O11 0.000000 0.000000 0.500000
O O12 0.374457 0.417291 0.981454
O O13 0.238364 0.207715 0.028470
O O14 0.500000 0.000000 0.000000
O O15 0.803700 0.216084 0.926837
O O16 0.094999 0.837253 0.806153
O O17 0.500000 0.500000 0.000000
O O18 0.131128 0.776141 0.660943
#
# Coordination Sequence:
#
# PCOD8023024 Si02
#       8
#     2   2   2   2   2   2   2   2
#     4  11  23  43  63  98 136 179 228 272 348 414
#     4  11  24  49  72  96 142 181 239 285 345 418
#     4  10  23  40  65  92 134 181 217 280 340 404
#     4  12  24  42  65 101 139 183 236 284 347 416
#     4  11  25  47  71 103 137 182 232 292 343 410
#     4  12  26  41  69 102 139 179 226 290 345 410
#     4  12  26  44  70 103 136 183 237 285 350 410
#     4  11  25  45  67  97 141 179 229 290 344 417
#
# _framework density 21.078175000000002
#
# number of rings (size 3 to 8) (size 9 to 14) (size 15 to 20)
#    0.000    0.750    3.750    3.750    8.750    0.500 
#    2.250    0.000    0.000    0.000    0.000    0.000 
#    0.000    0.000    0.000    0.000    0.000    0.000 
#
# Total GULP energy -198257.588166 kJ/mol
# GULP energy per Si atom -12391.099260 kJ/mol
# Density = 2.103020 g / cm^3
# Si number density = 21.078175 Si / 1000 Ang^3
#
#
#
# Elastic Constant Matrix: (Units=GPa)
#
#
# Indices 1 2 3 4 5 6 
#
# 1 130.5432 47.9670 21.1482 5.2022 -20.2134 17.6812
# 2 47.9670 108.8120 14.6958 2.9432 -13.1375 12.0572
# 3 21.1482 14.6958 63.2492 6.2721 -20.5991 -1.1285
# 4 5.2022 2.9432 6.2721 29.4775 -0.6049 -0.3709
# 5 -20.2134 -13.1375 -20.5991 -0.6049 41.3758 -0.4914
# 6 17.6812 12.0572 -1.1285 -0.3709 -0.4914 45.1639
#
#
#
# Elastic Compliance Matrix: (Units=1/GPa)
#
#
# Indices 1 2 3 4 5 6 
#
# 1 0.010125 -0.003527 -0.001532 -0.001085 0.003012 -0.003037
# 2 -0.003527 0.011228 -0.001001 -0.000279 0.001320 -0.001629
# 3 -0.001532 -0.001001 0.019792 -0.003644 0.008751 0.001427
# 4 -0.001085 -0.000279 -0.003644 0.034888 -0.001915 0.000674
# 5 0.003012 0.001320 0.008751 -0.001915 0.030376 -0.000998
# 6 -0.003037 -0.001629 0.001427 0.000674 -0.000998 0.023796
#
#
# Mechanical properties :
#
#
# Convention : Reuss Voigt Hill
#
# Bulk Modulus (GPa) = 34.45184 52.24736 43.34960
# Shear Modulus (GPa) = 32.89481 37.78969 35.34225
#
# Velocity S-wave (km/s) = 3.95474 4.23878 4.09922
# Velocity P-wave (km/s) = 6.10193 6.98553 6.55863
#
# Compressibility (1/GPa) = 0.02902602
#
# Stress axis : x y z
#
# Youngs Moduli (GPa) = 98.76147 89.06560 50.52547
#
# Poissons Ratio (x) = 0.31415 0.07738
# Poissons Ratio (y) = 0.34835 0.05057
# Poissons Ratio (z) = 0.15126 0.08914
#
# Static dielectric constant tensor:
#      x y z
#    x 4.556960 0.285230 -0.300000 
#    y 0.285230 3.983770 -0.124300 
#    z -0.300000 -0.124300 3.790690 
# 
# 
# High freq. dielectric constant tensor:
#      x y z
#    x 1.841450 0.010680 -0.013380 
#    y 0.010680 1.831390 -0.003300 
#    z -0.013380 -0.003300 1.829310 
# 
# From -- ./inp_files/597316.got.cif
#   From: 2010.06.25/outbox.cif.g09.slc.cpg/sg2_299_cif.got.tgz:597316.got - 2010.06.27 13:26:56.
