data_PCOD8023810
_publ_section_title
;
Structure prediction by ZEFSAII (Michael W. Deem and Ramdas Pophale) SiO2 
 PCOD8023810
Probable space group: P -1
;
_chemical_formula_sum "Si O2"
_cell_formula_units_Z 14
_cell_length_a 13.915502
_cell_length_b 18.682950
_cell_length_c 11.764395
_cell_angle_alpha 141.694137
_cell_angle_beta 22.030745
_cell_angle_gamma 150.155089
_cell_volume 567.874538
_symmetry_space_group_name_H-M "P -1"
_symmetry_group_IT_number 2
_symmetry_cell_setting 'triclinic'
loop_
_space_group_symop_operation_xyz
x,y,z
-x,-y,-z
loop_
_atom_site_type_symbol
_atom_site_label
_atom_site_fract_x
_atom_site_fract_y
_atom_site_fract_z
Si Si1 0.950358 0.989012 0.351166
Si Si2 0.342029 0.582008 0.783174
Si Si3 0.693704 0.644702 0.894554
Si Si4 0.264043 0.751295 0.739859
Si Si5 0.204899 0.914372 0.803098
Si Si6 0.966330 0.832052 0.333429
Si Si7 0.159353 0.580960 0.231016
O O1 0.628019 0.833462 0.479908
O O2 0.107088 0.964255 0.255787
O O3 0.903153 0.105777 0.601241
O O4 0.171929 0.032020 0.048915
O O5 0.500000 0.500000 0.500000
O O6 0.580156 0.730852 0.638775
O O7 0.330140 0.621029 0.973330
O O8 0.000000 0.500000 0.000000
O O9 0.869891 0.792771 0.957474
O O10 0.979640 0.654942 0.528658
O O11 0.500000 0.500000 0.000000
O O12 0.442224 0.643062 0.089265
O O13 0.256429 0.835952 0.748090
O O14 0.111791 0.590183 0.665690
O O15 0.076304 0.739154 0.045772
O O16 0.500000 0.000000 0.500000
#
# Coordination Sequence:
#
# PCOD8023810 Si02
#       7
#     2   2   2   2   2   2   2
#     4  10  23  44  69  93 137 180 233 282 356 424
#     4  12  25  44  70 105 145 179 230 296 357 420
#     4  12  26  48  72 102 140 189 245 287 349 420
#     4  11  22  43  71  97 133 179 235 288 355 425
#     4  11  27  44  66 101 138 182 236 294 348 415
#     4  10  23  42  66 103 131 182 228 287 355 425
#     4  12  26  43  75 105 139 187 234 295 353 418
#
# _framework density 24.653331999999999
#
# number of rings (size 3 to 8) (size 9 to 14) (size 15 to 20)
#    0.000    0.857    2.857    3.429    6.000    1.714 
#    0.000    0.000    0.000    0.000    0.000    0.000 
#    0.000    0.000    0.000    0.000    0.000    0.000 
#
# Total GULP energy -173497.647204 kJ/mol
# GULP energy per Si atom -12392.689086 kJ/mol
# Density = 2.459722 g / cm^3
# Si number density = 24.653332 Si / 1000 Ang^3
#
#
#
# Elastic Constant Matrix: (Units=GPa)
#
#
# Indices 1 2 3 4 5 6 
#
# 1 88.8422 30.1169 47.0942 -0.0151 10.3049 30.9665
# 2 30.1169 75.6906 27.2945 1.6911 8.3437 31.7014
# 3 47.0942 27.2945 144.4495 0.8105 22.2691 21.3496
# 4 -0.0151 1.6911 0.8105 44.8360 1.9656 6.7389
# 5 10.3049 8.3437 22.2691 1.9656 52.5826 -0.3870
# 6 30.9665 31.7014 21.3496 6.7389 -0.3870 39.7231
#
#
#
# Elastic Compliance Matrix: (Units=1/GPa)
#
#
# Indices 1 2 3 4 5 6 
#
# 1 0.017701 -0.000678 -0.003625 0.001936 -0.001984 -0.011658
# 2 -0.000678 0.020738 -0.000908 0.001747 -0.002955 -0.015859
# 3 -0.003625 -0.000908 0.008922 0.000197 -0.002941 -0.001307
# 4 0.001936 0.001747 0.000197 0.023358 -0.001665 -0.006988
# 5 -0.001984 -0.002955 -0.002941 -0.001665 0.021227 0.005975
# 6 -0.011658 -0.015859 -0.001307 -0.006988 0.005975 0.048864
#
#
# Mechanical properties :
#
#
# Convention : Reuss Voigt Hill
#
# Bulk Modulus (GPa) = 27.07162 57.55483 42.31322
# Shear Modulus (GPa) = 30.57283 41.06013 35.81648
#
# Velocity S-wave (km/s) = 3.52534 4.08548 3.81570
# Velocity P-wave (km/s) = 5.25123 6.75657 6.05090
#
# Compressibility (1/GPa) = 0.03693905
#
# Stress axis : x y z
#
# Youngs Moduli (GPa) = 56.49389 48.22164 112.08767
#
# Poissons Ratio (x) = 0.03270 0.40630
# Poissons Ratio (y) = 0.03830 0.10174
# Poissons Ratio (z) = 0.20478 0.04377
#
# Static dielectric constant tensor:
#      x y z
#    x 4.834070 0.348130 0.296720 
#    y 0.348130 4.625540 0.170340 
#    z 0.296720 0.170340 4.822740 
# 
# 
# High freq. dielectric constant tensor:
#      x y z
#    x 1.974370 0.023770 0.019020 
#    y 0.023770 1.979020 0.001520 
#    z 0.019020 0.001520 2.001440 
# 
# From -- ./inp_files/67459.got.cif
#   From: 2010.06.25/outbox.cif.g09.slc.cpg/sg2_34_cif.got.tgz:67459.got - 2010.06.27 13:26:56.
