data_PCOD8023624
_publ_section_title
;
Structure prediction by ZEFSAII (Michael W. Deem and Ramdas Pophale) SiO2 
 PCOD8023624
Probable space group: P -1
;
_chemical_formula_sum "Si O2"
_cell_formula_units_Z 16
_cell_length_a 10.463552
_cell_length_b 16.667443
_cell_length_c 10.292362
_cell_angle_alpha 98.205020
_cell_angle_beta 133.963370
_cell_angle_gamma 50.290020
_cell_volume 834.472089
_symmetry_space_group_name_H-M "P -1"
_symmetry_group_IT_number 2
_symmetry_cell_setting 'triclinic'
loop_
_space_group_symop_operation_xyz
x,y,z
-x,-y,-z
loop_
_atom_site_type_symbol
_atom_site_label
_atom_site_fract_x
_atom_site_fract_y
_atom_site_fract_z
Si Si1 0.642429 0.962753 0.292992
Si Si2 0.479686 0.269016 0.972842
Si Si3 0.279106 0.507162 0.856405
Si Si4 0.896016 0.891194 0.173759
Si Si5 0.078289 0.295253 0.559154
Si Si6 0.043855 0.007120 0.384186
Si Si7 0.250156 0.434026 0.071989
Si Si8 0.684687 0.378330 0.515939
O O1 0.738947 0.949933 0.212800
O O2 0.835380 0.824340 0.452256
O O3 0.691046 0.024511 0.435845
O O4 0.325466 0.045194 0.083347
O O5 0.421433 0.373706 0.879675
O O6 0.348689 0.239855 0.798029
O O7 0.797928 0.145049 0.184388
O O8 0.340368 0.322517 0.030383
O O9 0.018064 0.618459 0.611071
O O10 0.500000 0.500000 0.000000
O O11 0.179135 0.530627 0.940977
O O12 0.095893 0.745139 0.270076
O O13 0.065079 0.918102 0.289682
O O14 0.833872 0.379213 0.510668
O O15 0.000000 0.000000 0.500000
O O16 0.503144 0.371842 0.322949
O O17 0.000000 0.500000 0.000000
O O18 0.500000 0.500000 0.500000
#
# Coordination Sequence:
#
# PCOD8023624 Si02
#       8
#     2   2   2   2   2   2   2   2
#     4   9  17  29  52  78 110 141 184 237 285 329
#     4  10  20  31  54  83 117 146 188 237 284 339
#     4  10  20  35  55  79 117 151 192 236 286 336
#     4   9  18  32  48  77 111 144 186 230 286 336
#     4  11  18  35  55  84 115 147 193 239 285 339
#     4  10  17  29  49  79 111 145 179 239 291 328
#     4  10  21  37  52  81 116 150 189 231 286 344
#     4  11  22  36  55  79 117 154 186 234 287 347
#
# _framework density 19.173798000000001
#
# number of rings (size 3 to 8) (size 9 to 14) (size 15 to 20)
#    0.750    1.250    2.500    4.125    1.750    0.000 
#    2.250    0.000    0.000    0.000    0.000    6.125 
#    0.000    0.000    0.000    0.000    0.000    0.000 
#
# Total GULP energy -198255.653885 kJ/mol
# GULP energy per Si atom -12390.978368 kJ/mol
# Density = 1.913016 g / cm^3
# Si number density = 19.173798 Si / 1000 Ang^3
#
#
#
# Elastic Constant Matrix: (Units=GPa)
#
#
# Indices 1 2 3 4 5 6 
#
# 1 68.3894 20.9823 28.2738 -1.2302 2.4114 10.5371
# 2 20.9823 85.6876 38.7337 2.1820 6.2291 16.3459
# 3 28.2738 38.7337 132.3236 5.1277 5.3146 12.4559
# 4 -1.2302 2.1820 5.1277 33.5730 15.6332 5.7632
# 5 2.4114 6.2291 5.3146 15.6332 25.1018 1.7565
# 6 10.5371 16.3459 12.4559 5.7632 1.7565 25.0480
#
#
#
# Elastic Compliance Matrix: (Units=1/GPa)
#
#
# Indices 1 2 3 4 5 6 
#
# 1 0.017254 -0.001950 -0.002657 0.003064 -0.002154 -0.005218
# 2 -0.001950 0.015363 -0.003277 0.002669 -0.004040 -0.007907
# 3 -0.002657 -0.003277 0.009233 -0.001029 -0.000169 -0.001086
# 4 0.003064 0.002669 -0.001029 0.044698 -0.027817 -0.010852
# 5 -0.002154 -0.004040 -0.000169 -0.027817 0.057990 0.005961
# 6 -0.005218 -0.007907 -0.001086 -0.010852 0.005961 0.049898
#
#
# Mechanical properties :
#
#
# Convention : Reuss Voigt Hill
#
# Bulk Modulus (GPa) = 38.34055 51.37559 44.85807
# Shear Modulus (GPa) = 22.84166 29.97194 26.40680
#
# Velocity S-wave (km/s) = 3.45526 3.95799 3.71514
# Velocity P-wave (km/s) = 5.99651 6.90944 6.46910
#
# Compressibility (1/GPa) = 0.02608204
#
# Stress axis : x y z
#
# Youngs Moduli (GPa) = 57.95790 65.09030 108.30448
#
# Poissons Ratio (x) = 0.12692 0.28775
# Poissons Ratio (y) = 0.11301 0.35496
# Poissons Ratio (z) = 0.15399 0.21333
#
# Static dielectric constant tensor:
#      x y z
#    x 3.083030 0.395860 -0.124140 
#    y 0.395860 3.426700 0.080520 
#    z -0.124140 0.080520 3.798110 
# 
# 
# High freq. dielectric constant tensor:
#      x y z
#    x 1.691540 0.043030 0.005800 
#    y 0.043030 1.732320 0.004800 
#    z 0.005800 0.004800 1.766930 
# 
# From -- ./inp_files/435847.got.cif
#   From: 2010.06.25/outbox.cif.g09.slc.cpg/sg2_218_cif.got.tgz:435847.got - 2010.06.27 13:26:56.
