data_PCOD8023675
_publ_section_title
;
Structure prediction by ZEFSAII (Michael W. Deem and Ramdas Pophale) SiO2 
 PCOD8023675
Probable space group: P -1
;
_chemical_formula_sum "Si O2"
_cell_formula_units_Z 16
_cell_length_a 11.381818
_cell_length_b 11.967635
_cell_length_c 12.713062
_cell_angle_alpha 36.105071
_cell_angle_beta 109.727466
_cell_angle_gamma 83.600735
_cell_volume 692.859030
_symmetry_space_group_name_H-M "P -1"
_symmetry_group_IT_number 2
_symmetry_cell_setting 'triclinic'
loop_
_space_group_symop_operation_xyz
x,y,z
-x,-y,-z
loop_
_atom_site_type_symbol
_atom_site_label
_atom_site_fract_x
_atom_site_fract_y
_atom_site_fract_z
Si Si1 0.097152 0.107573 0.569856
Si Si2 0.235664 0.050808 0.133186
Si Si3 0.462196 0.715095 0.897155
Si Si4 0.232009 0.400315 0.008544
Si Si5 0.874307 0.506938 0.657484
Si Si6 0.789744 0.411297 0.916886
Si Si7 0.487543 0.188116 0.776772
Si Si8 0.526285 0.489781 0.308646
O O1 0.120325 0.269896 0.526886
O O2 0.910335 0.304434 0.307641
O O3 0.255682 0.962184 0.644948
O O4 0.113393 0.892373 0.801462
O O5 0.385522 0.971653 0.161918
O O6 0.285337 0.794142 0.391261
O O7 0.195837 0.228431 0.086443
O O8 0.054785 0.230749 0.876451
O O9 0.500000 0.500000 0.000000
O O10 0.570764 0.771811 0.838367
O O11 0.532572 0.615100 0.113145
O O12 0.218653 0.439595 0.099316
O O13 0.877964 0.443232 0.829894
O O14 0.711568 0.585747 0.491217
O O15 0.596265 0.561973 0.707994
O O16 0.539565 0.322652 0.753230
O O17 0.500000 0.000000 0.000000
#
# Coordination Sequence:
#
# PCOD8023675 Si02
#       8
#     2   2   2   2   2   2   2   2
#     4  10  23  42  63 100 141 172 227 276 329 399
#     4  11  26  44  68 102 130 174 233 268 338 411
#     4  11  22  39  67  98 131 178 224 265 336 403
#     4  11  23  42  66  99 141 178 219 278 336 399
#     4  11  26  45  70 101 134 181 226 278 339 401
#     4  11  23  43  68 101 139 180 218 280 343 388
#     4  12  25  50  72  91 138 175 224 289 338 390
#     4  11  24  43  67 101 132 174 224 282 332 399
#
# _framework density 23.092721999999998
#
# number of rings (size 3 to 8) (size 9 to 14) (size 15 to 20)
#    0.000    1.000    3.750    3.750    1.750    4.500 
#    0.000    0.000    0.000    0.000    0.000    0.000 
#    0.000    0.000    0.000    0.000    0.000    0.000 
#
# Total GULP energy -198319.848051 kJ/mol
# GULP energy per Si atom -12394.990503 kJ/mol
# Density = 2.304016 g / cm^3
# Si number density = 23.092722 Si / 1000 Ang^3
#
#
#
# Elastic Constant Matrix: (Units=GPa)
#
#
# Indices 1 2 3 4 5 6 
#
# 1 59.3163 12.1336 25.3484 7.8506 7.9233 -5.2208
# 2 12.1336 114.2144 49.2144 5.2502 1.2159 4.9824
# 3 25.3484 49.2144 103.1153 -9.8417 12.6551 -5.5296
# 4 7.8506 5.2502 -9.8417 33.8988 -1.6198 3.5496
# 5 7.9233 1.2159 12.6551 -1.6198 46.2422 2.7175
# 6 -5.2208 4.9824 -5.5296 3.5496 2.7175 15.1609
#
#
#
# Elastic Compliance Matrix: (Units=1/GPa)
#
#
# Indices 1 2 3 4 5 6 
#
# 1 0.021069 -0.000004 -0.005108 -0.007299 -0.002916 0.007625
# 2 -0.000004 0.011942 -0.006515 -0.003041 0.001710 -0.005896
# 3 -0.005108 -0.006515 0.015303 0.005941 -0.003236 0.005153
# 4 -0.007299 -0.003041 0.005941 0.034247 0.001352 -0.007608
# 5 -0.002916 0.001710 -0.003236 0.001352 0.023440 -0.007264
# 6 0.007625 -0.005896 0.005153 -0.007608 -0.007264 0.075486
#
#
# Mechanical properties :
#
#
# Convention : Reuss Voigt Hill
#
# Bulk Modulus (GPa) = 39.90068 50.00430 44.95249
# Shear Modulus (GPa) = 23.46395 31.72368 27.59381
#
# Velocity S-wave (km/s) = 3.19105 3.71044 3.46050
# Velocity P-wave (km/s) = 5.55815 6.32907 5.95610
#
# Compressibility (1/GPa) = 0.02506223
#
# Stress axis : x y z
#
# Youngs Moduli (GPa) = 47.46329 83.73867 65.34491
#
# Poissons Ratio (x) = 0.00029 0.33375
# Poissons Ratio (y) = 0.00017 0.42572
# Poissons Ratio (z) = 0.24242 0.54556
#
# Static dielectric constant tensor:
#      x y z
#    x 2.852870 -0.099170 -0.067390 
#    y -0.099170 4.196310 -0.106370 
#    z -0.067390 -0.106370 4.489980 
# 
# 
# High freq. dielectric constant tensor:
#      x y z
#    x 1.907210 0.006870 0.010580 
#    y 0.006870 1.906150 -0.005920 
#    z 0.010580 -0.005920 1.922650 
# 
# From -- ./inp_files/427436.got.cif
#   From: 2010.06.25/outbox.cif.g09.slc.cpg/sg2_214_cif.got.tgz:427436.got - 2010.06.27 13:26:56.
