data_PCOD8023357
_publ_section_title
;
Structure prediction by ZEFSAII (Michael W. Deem and Ramdas Pophale) SiO2 
 PCOD8023357
Probable space group: P -1
;
_chemical_formula_sum "Si O2"
_cell_formula_units_Z 16
_cell_length_a 5.042375
_cell_length_b 5.950794
_cell_length_c 23.505254
_cell_angle_alpha 107.385634
_cell_angle_beta 83.773214
_cell_angle_gamma 84.140296
_cell_volume 662.350405
_symmetry_space_group_name_H-M "P -1"
_symmetry_group_IT_number 2
_symmetry_cell_setting 'triclinic'
loop_
_space_group_symop_operation_xyz
x,y,z
-x,-y,-z
loop_
_atom_site_type_symbol
_atom_site_label
_atom_site_fract_x
_atom_site_fract_y
_atom_site_fract_z
Si Si1 0.429436 0.339348 0.264242
Si Si2 0.114788 0.373249 0.683199
Si Si3 0.243361 0.507292 0.570213
Si Si4 0.506976 0.085030 0.353414
Si Si5 0.168048 0.138018 0.463907
Si Si6 0.515871 0.824982 0.874747
Si Si7 0.338888 0.302922 0.961102
Si Si8 0.006316 0.337161 0.075574
O O1 0.698105 0.449681 0.280275
O O2 0.368804 0.149698 0.300294
O O3 0.472975 0.191981 0.194400
O O4 0.184662 0.555086 0.279659
O O5 0.097343 0.396594 0.617665
O O6 0.220446 0.098489 0.676398
O O7 0.464024 0.658492 0.600444
O O8 0.363013 0.283360 0.509658
O O9 0.024978 0.674435 0.553125
O O10 0.331539 0.971258 0.398202
O O11 0.000000 0.000000 0.500000
O O12 0.757276 0.638566 0.881943
O O13 0.218519 0.797691 0.901205
O O14 0.553304 0.090976 0.914367
O O15 0.141467 0.406065 0.922147
O O16 0.500000 0.500000 0.000000
O O17 0.154491 0.204508 0.006969
#
# Coordination Sequence:
#
# PCOD8023357 Si02
#       8
#     2   2   2   2   2   2   2   2
#     4  11  27  48  68 103 136 190 244 291 339 427
#     4  11  25  46  75  96 139 185 241 292 354 416
#     4  10  23  41  66 102 138 172 232 289 357 434
#     4  11  25  45  72  94 142 184 230 295 363 413
#     4  11  23  39  70 104 138 175 229 296 366 426
#     4  12  26  44  73 101 147 187 237 291 351 412
#     4  11  25  44  74 111 147 185 232 289 357 422
#     4  11  25  44  71 109 143 184 229 289 352 418
#
# _framework density 24.156399
#
# number of rings (size 3 to 8) (size 9 to 14) (size 15 to 20)
#    0.000    1.000    2.500    2.625    7.000    5.000 
#    0.000    0.000    0.000    0.000    0.000    0.000 
#    0.000    0.000    0.000    0.000    0.000    0.000 
#
# Total GULP energy -198311.913275 kJ/mol
# GULP energy per Si atom -12394.494580 kJ/mol
# Density = 2.410142 g / cm^3
# Si number density = 24.156399 Si / 1000 Ang^3
#
#
#
# Elastic Constant Matrix: (Units=GPa)
#
#
# Indices 1 2 3 4 5 6 
#
# 1 99.3236 27.7761 53.5214 -9.3263 -3.0749 -16.1298
# 2 27.7761 90.7596 69.0075 -5.1465 -2.6025 -12.2766
# 3 53.5214 69.0075 191.3351 -9.1580 -4.0877 -7.1072
# 4 -9.3263 -5.1465 -9.1580 26.5262 -6.7799 -2.3605
# 5 -3.0749 -2.6025 -4.0877 -6.7799 34.3084 -2.0652
# 6 -16.1298 -12.2766 -7.1072 -2.3605 -2.0652 30.1583
#
#
#
# Elastic Compliance Matrix: (Units=1/GPa)
#
#
# Indices 1 2 3 4 5 6 
#
# 1 0.013477 -0.000565 -0.003042 0.004730 0.002145 0.006778
# 2 -0.000565 0.016096 -0.005339 0.001856 0.001215 0.005221
# 3 -0.003042 -0.005339 0.007966 0.000547 0.000268 -0.001862
# 4 0.004730 0.001856 0.000547 0.043021 0.009579 0.007438
# 5 0.002145 0.001215 0.000268 0.009579 0.031635 0.004621
# 6 0.006778 0.005221 -0.001862 0.007438 0.004621 0.039369
#
#
# Mechanical properties :
#
#
# Convention : Reuss Voigt Hill
#
# Bulk Modulus (GPa) = 50.89698 75.78090 63.33894
# Shear Modulus (GPa) = 28.40854 33.60613 31.00733
#
# Velocity S-wave (km/s) = 3.43304 3.73391 3.58663
# Velocity P-wave (km/s) = 6.06876 7.07308 6.59008
#
# Compressibility (1/GPa) = 0.01964753
#
# Stress axis : x y z
#
# Youngs Moduli (GPa) = 74.20291 62.12556 125.54015
#
# Poissons Ratio (x) = 0.03509 0.38190
# Poissons Ratio (y) = 0.04191 0.67021
# Poissons Ratio (z) = 0.22573 0.33167
#
# Static dielectric constant tensor:
#      x y z
#    x 4.413790 0.176320 -0.010810 
#    y 0.176320 4.842550 -0.024470 
#    z -0.010810 -0.024470 4.680330 
# 
# 
# High freq. dielectric constant tensor:
#      x y z
#    x 1.956300 -0.010330 0.001190 
#    y -0.010330 1.950630 -0.012960 
#    z 0.001190 -0.012960 1.961210 
# 
# From -- ./inp_files/11433.got.cif
#   From: 2010.06.25/outbox.cif.g09.slc.cpg/sg2_6_cif.got.tgz:11433.got - 2010.06.27 13:26:56.
