data_PCOD8023518
_publ_section_title
;
Structure prediction by ZEFSAII (Michael W. Deem and Ramdas Pophale) SiO2 
 PCOD8023518
Probable space group: P -1
;
_chemical_formula_sum "Si O2"
_cell_formula_units_Z 12
_cell_length_a 5.545473
_cell_length_b 15.614800
_cell_length_c 23.607696
_cell_angle_alpha 19.211978
_cell_angle_beta 68.573509
_cell_angle_gamma 58.502628
_cell_volume 510.350960
_symmetry_space_group_name_H-M "P -1"
_symmetry_group_IT_number 2
_symmetry_cell_setting 'triclinic'
loop_
_space_group_symop_operation_xyz
x,y,z
-x,-y,-z
loop_
_atom_site_type_symbol
_atom_site_label
_atom_site_fract_x
_atom_site_fract_y
_atom_site_fract_z
Si Si1 0.891471 0.671073 0.556306
Si Si2 0.550193 0.035223 0.888300
Si Si3 0.321705 0.731863 0.167901
Si Si4 0.449630 0.229184 0.167506
Si Si5 0.777341 0.051840 0.433518
Si Si6 0.772132 0.594175 0.045242
O O1 0.621798 0.609789 0.634261
O O2 0.189685 0.331245 0.720428
O O3 0.759548 0.912003 0.364570
O O4 0.983075 0.799990 0.521702
O O5 0.705473 0.187666 0.812848
O O6 0.588841 0.755559 0.100173
O O7 0.740013 0.855085 0.927964
O O8 0.000000 0.000000 0.000000
O O9 0.140075 0.320630 0.171925
O O10 0.500000 0.500000 0.000000
O O11 0.411834 0.193459 0.126673
O O12 0.625658 0.409894 0.198410
O O13 0.500000 0.000000 0.500000
O O14 0.000000 0.000000 0.500000
#
# Coordination Sequence:
#
# PCOD8023518 Si02
#       6
#     2   2   2   2   2   2
#     4  11  24  44  69 100 142 187 236 300 356 438
#     4  10  23  41  69 103 141 178 239 299 366 431
#     4   9  21  40  67  99 146 181 223 292 373 433
#     4  11  25  48  70  96 145 196 247 296 360 429
#     4  12  27  43  75 112 147 189 245 304 378 442
#     4  11  26  45  71 103 141 193 245 303 359 437
#
# _framework density 23.513231000000001
#
# number of rings (size 3 to 8) (size 9 to 14) (size 15 to 20)
#    0.000    1.333    1.667    2.000   11.667    3.333 
#    0.000    1.667    0.000    0.000    0.000    0.000 
#    0.000    0.000    0.000    0.000    0.000    0.000 
#
# Total GULP energy -148722.484495 kJ/mol
# GULP energy per Si atom -12393.540375 kJ/mol
# Density = 2.345971 g / cm^3
# Si number density = 23.513231 Si / 1000 Ang^3
#
#
#
# Elastic Constant Matrix: (Units=GPa)
#
#
# Indices 1 2 3 4 5 6 
#
# 1 124.3107 45.6705 45.9762 12.6874 -4.7251 33.5544
# 2 45.6705 133.5639 42.8701 2.6584 11.9282 45.6671
# 3 45.9762 42.8701 147.9012 10.1351 5.0012 17.2421
# 4 12.6874 2.6584 10.1351 27.0033 9.0214 -4.6294
# 5 -4.7251 11.9282 5.0012 9.0214 34.5433 2.1224
# 6 33.5544 45.6671 17.2421 -4.6294 2.1224 45.6543
#
#
#
# Elastic Compliance Matrix: (Units=1/GPa)
#
#
# Indices 1 2 3 4 5 6 
#
# 1 0.012518 -0.000958 -0.002246 -0.008060 0.004992 -0.008443
# 2 -0.000958 0.012492 -0.001867 -0.000877 -0.003268 -0.011023
# 3 -0.002246 -0.001867 0.008087 -0.001595 -0.000436 0.000323
# 4 -0.008060 -0.000877 -0.001595 0.048406 -0.014007 0.012963
# 5 0.004992 -0.003268 -0.000436 -0.014007 0.034683 -0.003268
# 6 -0.008443 -0.011023 0.000323 0.012963 -0.003268 0.040480
#
#
# Mechanical properties :
#
#
# Convention : Reuss Voigt Hill
#
# Bulk Modulus (GPa) = 43.56370 74.97882 59.27126
# Shear Modulus (GPa) = 28.65953 39.52410 34.09182
#
# Velocity S-wave (km/s) = 3.49502 4.10436 3.81189
# Velocity P-wave (km/s) = 5.90376 7.37687 6.68104
#
# Compressibility (1/GPa) = 0.02295489
#
# Stress axis : x y z
#
# Youngs Moduli (GPa) = 79.88216 80.04830 123.65319
#
# Poissons Ratio (x) = 0.07670 0.27771
# Poissons Ratio (y) = 0.07654 0.23092
# Poissons Ratio (z) = 0.17941 0.14949
#
# Static dielectric constant tensor:
#      x y z
#    x 4.987580 0.197650 -0.613100 
#    y 0.197650 4.293010 0.031830 
#    z -0.613100 0.031830 4.177080 
# 
# 
# High freq. dielectric constant tensor:
#      x y z
#    x 1.939650 0.025830 -0.004000 
#    y 0.025830 1.913930 -0.002850 
#    z -0.004000 -0.002850 1.932810 
# 
# From -- ./inp_files/40301.got.cif
#   From: 2010.06.25/outbox.cif.g09.slc.cpg/sg2_21_cif.got.tgz:40301.got - 2010.06.27 13:26:56.
