data_PCOD8023294
_publ_section_title
;
Structure prediction by ZEFSAII (Michael W. Deem and Ramdas Pophale) SiO2 
 PCOD8023294
Probable space group: P -1
;
_chemical_formula_sum "Si O2"
_cell_formula_units_Z 16
_cell_length_a 6.244794
_cell_length_b 19.950839
_cell_length_c 8.656275
_cell_angle_alpha 59.693382
_cell_angle_beta 113.454127
_cell_angle_gamma 130.098532
_cell_volume 707.862100
_symmetry_space_group_name_H-M "P -1"
_symmetry_group_IT_number 2
_symmetry_cell_setting 'triclinic'
loop_
_space_group_symop_operation_xyz
x,y,z
-x,-y,-z
loop_
_atom_site_type_symbol
_atom_site_label
_atom_site_fract_x
_atom_site_fract_y
_atom_site_fract_z
Si Si1 0.885015 0.227486 0.205202
Si Si2 0.862939 0.890612 0.609201
Si Si3 0.294350 0.120998 0.081199
Si Si4 0.281053 0.798283 0.464072
Si Si5 0.268272 0.950938 0.126736
Si Si6 0.227646 0.419372 0.927339
Si Si7 0.224489 0.375650 0.620807
Si Si8 0.172442 0.532618 0.354297
O O1 0.620832 0.203330 0.046060
O O2 0.850650 0.240459 0.360565
O O3 0.921630 0.140907 0.298928
O O4 0.144026 0.325011 0.101874
O O5 0.709293 0.871263 0.747849
O O6 0.594981 0.820662 0.502012
O O7 0.000000 0.000000 0.500000
O O8 0.238431 0.023368 0.128454
O O9 0.046752 0.129012 0.933387
O O10 0.343202 0.900242 0.331404
O O11 0.065022 0.725942 0.358110
O O12 0.500000 0.000000 0.000000
O O13 0.281098 0.409169 0.776007
O O14 0.989159 0.442909 0.843721
O O15 0.500000 0.500000 0.000000
O O16 0.192537 0.444963 0.417454
O O17 0.500111 0.377991 0.640786
O O18 0.000000 0.500000 0.500000
#
# Coordination Sequence:
#
# PCOD8023294 Si02
#       8
#     2   2   2   2   2   2   2   2
#     4  11  26  43  66  99 139 176 232 282 340 407
#     4  11  23  44  67  94 138 182 223 280 339 401
#     4  10  23  41  64  96 133 176 226 272 341 403
#     4  11  26  40  69 101 132 177 232 276 338 410
#     4  11  23  41  68  99 139 178 224 283 343 403
#     4  11  27  44  70 100 137 180 224 283 346 405
#     4  10  24  44  72  99 135 177 226 277 342 410
#     4   9  22  45  69  96 132 174 219 277 341 402
#
# _framework density 22.603273000000002
#
# number of rings (size 3 to 8) (size 9 to 14) (size 15 to 20)
#    0.000    1.500    0.000    3.000   12.250    5.500 
#    0.000    0.000    0.000    0.000    0.000    0.000 
#    0.000    0.000    0.000    0.000    0.000    0.000 
#
# Total GULP energy -198209.155746 kJ/mol
# GULP energy per Si atom -12388.072234 kJ/mol
# Density = 2.255183 g / cm^3
# Si number density = 22.603273 Si / 1000 Ang^3
#
#
#
# Elastic Constant Matrix: (Units=GPa)
#
#
# Indices 1 2 3 4 5 6 
#
# 1 113.7138 42.5739 25.2536 13.6454 20.1592 24.3621
# 2 42.5739 125.9979 30.9836 15.6099 4.0094 26.8340
# 3 25.2536 30.9836 81.5085 -4.0007 12.9448 5.7259
# 4 13.6454 15.6099 -4.0007 37.7261 0.3343 6.7632
# 5 20.1592 4.0094 12.9448 0.3343 33.8675 2.8728
# 6 24.3621 26.8340 5.7259 6.7632 2.8728 39.6877
#
#
#
# Elastic Compliance Matrix: (Units=1/GPa)
#
#
# Indices 1 2 3 4 5 6 
#
# 1 0.012505 -0.002140 -0.001895 -0.002884 -0.006011 -0.005030
# 2 -0.002140 0.010992 -0.003600 -0.003244 0.001820 -0.005178
# 3 -0.001895 -0.003600 0.015006 0.003602 -0.004313 0.001130
# 4 -0.002884 -0.003244 0.003602 0.029562 0.000571 -0.001635
# 5 -0.006011 0.001820 -0.004313 0.000571 0.034491 0.000488
# 6 -0.005030 -0.005178 0.001130 -0.001635 0.000488 0.031865
#
#
# Mechanical properties :
#
#
# Convention : Reuss Voigt Hill
#
# Bulk Modulus (GPa) = 43.03879 57.64917 50.34398
# Shear Modulus (GPa) = 31.75927 37.08353 34.42140
#
# Velocity S-wave (km/s) = 3.75250 4.05486 3.90660
# Velocity P-wave (km/s) = 6.15283 6.89077 6.53223
#
# Compressibility (1/GPa) = 0.02323486
#
# Stress axis : x y z
#
# Youngs Moduli (GPa) = 79.96750 90.97923 66.63832
#
# Poissons Ratio (x) = 0.19468 0.12625
# Poissons Ratio (y) = 0.17112 0.23987
# Poissons Ratio (z) = 0.15151 0.32749
#
# Static dielectric constant tensor:
#      x y z
#    x 4.464780 0.273570 0.374600 
#    y 0.273570 3.994510 0.123430 
#    z 0.374600 0.123430 4.103980 
# 
# 
# High freq. dielectric constant tensor:
#      x y z
#    x 1.901790 0.021320 0.012450 
#    y 0.021320 1.890310 0.001090 
#    z 0.012450 0.001090 1.885420 
# 
# From -- ./inp_files/38221.got.cif
#   From: 2010.06.25/outbox.cif.g09.slc.cpg/sg2_20_cif.got.tgz:38221.got - 2010.06.27 13:26:56.
