data_PCOD8023804
_publ_section_title
;
Structure prediction by ZEFSAII (Michael W. Deem and Ramdas Pophale) SiO2 
 PCOD8023804
Probable space group: P -1
;
_chemical_formula_sum "Si O2"
_cell_formula_units_Z 14
_cell_length_a 8.832384
_cell_length_b 8.095993
_cell_length_c 10.719263
_cell_angle_alpha 88.313762
_cell_angle_beta 103.331582
_cell_angle_gamma 49.538774
_cell_volume 550.625195
_symmetry_space_group_name_H-M "P -1"
_symmetry_group_IT_number 2
_symmetry_cell_setting 'triclinic'
loop_
_space_group_symop_operation_xyz
x,y,z
-x,-y,-z
loop_
_atom_site_type_symbol
_atom_site_label
_atom_site_fract_x
_atom_site_fract_y
_atom_site_fract_z
Si Si1 0.504703 0.334868 0.586881
Si Si2 0.534298 0.151978 0.350109
Si Si3 0.720592 0.715225 0.275055
Si Si4 0.096031 0.889735 0.163101
Si Si5 0.074337 0.513134 0.150687
Si Si6 0.313807 0.718313 0.804465
Si Si7 0.417631 0.785272 0.057839
O O1 0.500000 0.500000 0.500000
O O2 0.527287 0.164127 0.498765
O O3 0.299823 0.429619 0.630795
O O4 0.691097 0.221196 0.721168
O O5 0.306860 0.287594 0.238865
O O6 0.633592 0.260065 0.325392
O O7 0.706247 0.892126 0.348948
O O8 0.513925 0.877309 0.139330
O O9 0.926684 0.550355 0.233229
O O10 0.054625 0.725164 0.145181
O O11 0.168799 0.919312 0.040963
O O12 0.930531 0.111033 0.208899
O O13 0.000000 0.500000 0.000000
O O14 0.418674 0.471531 0.860062
O O15 0.421722 0.787397 0.909239
#
# Coordination Sequence:
#
# PCOD8023804 Si02
#       7
#     2   2   2   2   2   2   2
#     4  11  24  50  72  96 139 184 237 287 333 409
#     4  12  24  45  70 100 142 182 228 288 339 405
#     4  11  26  44  69 103 135 182 229 282 352 401
#     4  11  23  45  68 100 135 183 233 280 338 412
#     4  12  26  43  70 106 143 177 225 285 352 410
#     4  11  22  40  70  98 136 183 227 277 345 400
#     4  10  23  42  66 100 141 180 227 282 336 414
#
# _framework density 25.425644999999999
#
# number of rings (size 3 to 8) (size 9 to 14) (size 15 to 20)
#    0.000    0.857    4.286    2.571    4.000    4.571 
#    0.000    0.000    0.000    0.000    0.000    0.000 
#    0.000    0.000    0.000    0.000    0.000    0.000 
#
# Total GULP energy -173434.388961 kJ/mol
# GULP energy per Si atom -12388.170640 kJ/mol
# Density = 2.536778 g / cm^3
# Si number density = 25.425645 Si / 1000 Ang^3
#
#
#
# Elastic Constant Matrix: (Units=GPa)
#
#
# Indices 1 2 3 4 5 6 
#
# 1 117.6712 39.8766 29.1152 7.6875 -20.4656 -22.4133
# 2 39.8766 98.1342 13.3442 13.5493 -7.0446 -26.0081
# 3 29.1152 13.3442 89.7009 40.1130 -17.8456 -1.9423
# 4 7.6875 13.5493 40.1130 36.1305 1.7794 -9.9758
# 5 -20.4656 -7.0446 -17.8456 1.7794 42.7002 13.2743
# 6 -22.4133 -26.0081 -1.9423 -9.9758 13.2743 40.0693
#
#
#
# Elastic Compliance Matrix: (Units=1/GPa)
#
#
# Indices 1 2 3 4 5 6 
#
# 1 0.011999 -0.003426 -0.006768 0.007920 0.000135 0.006087
# 2 -0.003426 0.013607 0.000139 -0.002611 -0.001316 0.006708
# 3 -0.006768 0.000139 0.039034 -0.048859 0.021706 -0.021159
# 4 0.007920 -0.002611 -0.048859 0.092059 -0.031360 0.033675
# 5 0.000135 -0.001316 0.021706 -0.031360 0.040119 -0.020824
# 6 0.006087 0.006708 -0.021159 0.033675 -0.020824 0.046973
#
#
# Mechanical properties :
#
#
# Convention : Reuss Voigt Hill
#
# Bulk Modulus (GPa) = 22.45678 52.24203 37.34940
# Shear Modulus (GPa) = 17.93752 38.65803 28.29778
#
# Velocity S-wave (km/s) = 2.65899 3.90351 3.33973
# Velocity P-wave (km/s) = 4.27533 6.39594 5.43997
#
# Compressibility (1/GPa) = 0.04452999
#
# Stress axis : x y z
#
# Youngs Moduli (GPa) = 83.33685 73.48952 25.61886
#
# Poissons Ratio (x) = 0.25179 0.17339
# Poissons Ratio (y) = 0.28553 -0.00356
# Poissons Ratio (z) = 0.56404 -0.01022
#
# Static dielectric constant tensor:
#      x y z
#    x 4.673660 -0.132670 0.322600 
#    y -0.132670 4.564050 0.506080 
#    z 0.322600 0.506080 4.387880 
# 
# 
# High freq. dielectric constant tensor:
#      x y z
#    x 2.023960 -0.004330 -0.006900 
#    y -0.004330 2.010100 0.029080 
#    z -0.006900 0.029080 2.037430 
# 
# From -- ./inp_files/381973.got.cif
#   From: 2010.06.25/outbox.cif.g09.slc.cpg/sg2_191_cif.got.tgz:381973.got - 2010.06.27 13:26:56.
