data_PCOD8023180
_publ_section_title
;
Structure prediction by ZEFSAII (Michael W. Deem and Ramdas Pophale) SiO2 
 PCOD8023180
Probable space group: P -1
;
_chemical_formula_sum "Si O2"
_cell_formula_units_Z 10
_cell_length_a 7.233231
_cell_length_b 4.975563
_cell_length_c 14.068888
_cell_angle_alpha 101.874313
_cell_angle_beta 121.728773
_cell_angle_gamma 64.077447
_cell_volume 387.135040
_symmetry_space_group_name_H-M "P -1"
_symmetry_group_IT_number 2
_symmetry_cell_setting 'triclinic'
loop_
_space_group_symop_operation_xyz
x,y,z
-x,-y,-z
loop_
_atom_site_type_symbol
_atom_site_label
_atom_site_fract_x
_atom_site_fract_y
_atom_site_fract_z
Si Si1 0.963875 0.170380 0.364859
Si Si2 0.791829 0.691479 0.097956
Si Si3 0.280604 0.171497 0.615978
Si Si4 0.817218 0.853109 0.770929
Si Si5 0.688435 0.167889 0.950826
O O1 0.746768 0.495787 0.337584
O O2 0.188421 0.176032 0.483798
O O3 0.040269 0.069797 0.270066
O O4 0.882384 0.919655 0.363498
O O5 0.585060 0.801484 0.131304
O O6 0.049845 0.503415 0.199173
O O7 0.708490 0.484573 0.990605
O O8 0.799925 0.966266 0.059777
O O9 0.549060 0.933705 0.673846
O O10 0.832781 0.020329 0.884387
#
# Coordination Sequence:
#
# PCOD8023180 Si02
#       5
#     2   2   2   2   2
#     4  10  24  44  64  93 130 163 204 259 314 371
#     4  10  23  41  60  89 128 164 204 256 309 365
#     4  10  24  44  64  93 130 163 204 259 314 371
#     4  12  23  40  70  96 120 168 215 254 308 372
#     4  10  23  41  60  89 128 164 204 256 309 365
#
# _framework density 25.830777999999999
#
# number of rings (size 3 to 8) (size 9 to 14) (size 15 to 20)
#    0.000    1.600    0.000    3.000    0.000   12.800 
#    0.000    6.000    0.000    0.000    0.000    0.000 
#    0.000    0.000    0.000    0.000    0.000    0.000 
#
# Total GULP energy -124033.468003 kJ/mol
# GULP energy per Si atom -12403.346800 kJ/mol
# Density = 2.577199 g / cm^3
# Si number density = 25.830778 Si / 1000 Ang^3
#
#
#
# Elastic Constant Matrix: (Units=GPa)
#
#
# Indices 1 2 3 4 5 6 
#
# 1 85.9783 22.0304 34.5741 -7.2296 -16.2318 -33.7257
# 2 22.0304 102.6460 30.3337 -17.2910 -4.2480 -12.5387
# 3 34.5741 30.3337 96.2266 -19.3277 -14.7275 -18.8785
# 4 -7.2296 -17.2910 -19.3277 41.6190 -19.5784 13.4621
# 5 -16.2318 -4.2480 -14.7275 -19.5784 49.4977 -7.7653
# 6 -33.7257 -12.5387 -18.8785 13.4621 -7.7653 46.1428
#
#
#
# Elastic Compliance Matrix: (Units=1/GPa)
#
#
# Indices 1 2 3 4 5 6 
#
# 1 0.020455 -0.001306 -0.002511 0.001143 0.008604 0.014683
# 2 -0.001306 0.011441 -0.001919 0.004333 0.001760 0.000401
# 3 -0.002511 -0.001919 0.015220 0.008404 0.007279 0.002644
# 4 0.001143 0.004333 0.008404 0.039565 0.018428 -0.002991
# 5 0.008604 0.001760 0.007279 0.018428 0.034219 0.010128
# 6 0.014683 0.000401 0.002644 -0.002991 0.010128 0.036171
#
#
# Mechanical properties :
#
#
# Convention : Reuss Voigt Hill
#
# Bulk Modulus (GPa) = 28.05446 50.96971 39.51208
# Shear Modulus (GPa) = 27.71234 40.64610 34.17922
#
# Velocity S-wave (km/s) = 3.27898 3.97111 3.64152
# Velocity P-wave (km/s) = 5.02196 6.38759 5.74549
#
# Compressibility (1/GPa) = 0.03564496
#
# Stress axis : x y z
#
# Youngs Moduli (GPa) = 48.88738 87.40171 65.70352
#
# Poissons Ratio (x) = 0.11415 0.16496
# Poissons Ratio (y) = 0.06385 0.12609
# Poissons Ratio (z) = 0.12274 0.16773
#
# Static dielectric constant tensor:
#      x y z
#    x 4.617320 -0.367530 -0.019520 
#    y -0.367530 4.600340 -0.248470 
#    z -0.019520 -0.248470 4.674790 
# 
# 
# High freq. dielectric constant tensor:
#      x y z
#    x 2.039090 -0.011510 -0.000520 
#    y -0.011510 2.034710 -0.010230 
#    z -0.000520 -0.010230 2.039410 
# 
# From -- ./inp_files/486617.got.cif
#   From: 2010.06.25/outbox.cif.g09.slc.cpg/sg2_244_cif.got.tgz:486617.got - 2010.06.27 13:26:56.
