data_PCOD8023086
_publ_section_title
;
Structure prediction by ZEFSAII (Michael W. Deem and Ramdas Pophale) SiO2 
 PCOD8023086
Probable space group: P -1
;
_chemical_formula_sum "Si O2"
_cell_formula_units_Z 14
_cell_length_a 15.364988
_cell_length_b 11.552123
_cell_length_c 20.708535
_cell_angle_alpha 31.390849
_cell_angle_beta 159.820386
_cell_angle_gamma 151.217573
_cell_volume 599.806465
_symmetry_space_group_name_H-M "P -1"
_symmetry_group_IT_number 2
_symmetry_cell_setting 'triclinic'
loop_
_space_group_symop_operation_xyz
x,y,z
-x,-y,-z
loop_
_atom_site_type_symbol
_atom_site_label
_atom_site_fract_x
_atom_site_fract_y
_atom_site_fract_z
Si Si1 0.223318 0.127772 0.978417
Si Si2 0.978317 0.099577 0.329318
Si Si3 0.352242 0.178960 0.322580
Si Si4 0.377760 0.041128 0.731623
Si Si5 0.317923 0.585172 0.752695
Si Si6 0.781414 0.574215 0.776043
Si Si7 0.766747 0.642198 0.326944
O O1 0.208837 0.384768 0.829099
O O2 0.396553 0.179593 0.141447
O O3 0.911577 0.915195 0.865420
O O4 0.381635 0.045723 0.073026
O O5 0.189058 0.997719 0.556571
O O6 0.128100 0.345777 0.273740
O O7 0.796234 0.125448 0.249958
O O8 0.776131 0.901300 0.231736
O O9 0.253522 0.202055 0.316291
O O10 0.574683 0.449488 0.336182
O O11 0.500000 0.000000 0.500000
O O12 0.494499 0.330793 0.690174
O O13 0.379082 0.446318 0.801177
O O14 0.083477 0.674501 0.528793
O O15 0.000000 0.500000 0.000000
#
# Coordination Sequence:
#
# PCOD8023086 Si02
#       7
#     2   2   2   2   2   2   2
#     4  11  22  43  66  99 139 175 233 295 341 422
#     4  11  25  45  72  99 140 187 235 291 353 426
#     4  12  25  42  68 101 144 181 232 295 351 419
#     4  11  24  45  70 103 138 185 236 291 355 419
#     4  10  23  40  67  96 132 181 229 283 351 414
#     4  12  26  45  70 103 140 184 239 295 350 420
#     4  11  22  42  67  98 131 186 232 279 356 418
#
# _framework density 23.340862000000001
#
# number of rings (size 3 to 8) (size 9 to 14) (size 15 to 20)
#    0.000    0.857    5.714    1.286    2.000    2.286 
#    0.000    0.000    0.000    0.000    0.000    0.000 
#    0.000    0.000    0.000    0.000    0.000    0.000 
#
# Total GULP energy -173516.178042 kJ/mol
# GULP energy per Si atom -12394.012717 kJ/mol
# Density = 2.328774 g / cm^3
# Si number density = 23.340862 Si / 1000 Ang^3
#
#
#
# Elastic Constant Matrix: (Units=GPa)
#
#
# Indices 1 2 3 4 5 6 
#
# 1 123.1100 30.9859 37.3449 8.4199 -10.6328 -5.3699
# 2 30.9859 86.9140 14.3877 18.0629 -1.6721 -10.7627
# 3 37.3449 14.3877 77.2916 12.1468 12.5912 -4.1460
# 4 8.4199 18.0629 12.1468 37.4974 -4.2296 -6.5004
# 5 -10.6328 -1.6721 12.5912 -4.2296 30.3494 -3.4274
# 6 -5.3699 -10.7627 -4.1460 -6.5004 -3.4274 47.6257
#
#
#
# Elastic Compliance Matrix: (Units=1/GPa)
#
#
# Indices 1 2 3 4 5 6 
#
# 1 0.011287 -0.003166 -0.006214 0.001891 0.006707 0.000757
# 2 -0.003166 0.014061 0.000097 -0.005864 -0.000971 0.001959
# 3 -0.006214 0.000097 0.018589 -0.006005 -0.010795 -0.000657
# 4 0.001891 -0.005864 -0.006005 0.032467 0.007734 0.003353
# 5 0.006707 -0.000971 -0.010795 0.007734 0.041211 0.003619
# 6 0.000757 0.001959 -0.000657 0.003353 0.003619 0.022186
#
#
# Mechanical properties :
#
#
# Convention : Reuss Voigt Hill
#
# Bulk Modulus (GPa) = 39.41292 50.30586 44.85939
# Shear Modulus (GPa) = 29.97170 36.73430 33.35300
#
# Velocity S-wave (km/s) = 3.58730 3.97144 3.78425
# Velocity P-wave (km/s) = 5.83788 6.52911 6.19314
#
# Compressibility (1/GPa) = 0.02537239
#
# Stress axis : x y z
#
# Youngs Moduli (GPa) = 88.59387 71.12018 53.79472
#
# Poissons Ratio (x) = 0.22515 0.33426
# Poissons Ratio (y) = 0.28046 -0.00521
# Poissons Ratio (z) = 0.55049 -0.00689
#
# Static dielectric constant tensor:
#      x y z
#    x 4.293780 -0.193020 -0.095650 
#    y -0.193020 5.250690 -0.136500 
#    z -0.095650 -0.136500 4.249460 
# 
# 
# High freq. dielectric constant tensor:
#      x y z
#    x 1.919300 -0.018320 0.002500 
#    y -0.018320 1.926530 0.016810 
#    z 0.002500 0.016810 1.913120 
# 
# From -- ./inp_files/333510.got.cif
#   From: 2010.06.25/outbox.cif.g09.slc.cpg/sg2_167_cif.got.tgz:333510.got - 2010.06.27 13:26:56.
