data_PCOD8023549
_publ_section_title
;
Structure prediction by ZEFSAII (Michael W. Deem and Ramdas Pophale) SiO2 
 PCOD8023549
Probable space group: P -1
;
_chemical_formula_sum "Si O2"
_cell_formula_units_Z 16
_cell_length_a 9.349321
_cell_length_b 9.287176
_cell_length_c 15.512719
_cell_angle_alpha 69.968861
_cell_angle_beta 79.372471
_cell_angle_gamma 134.467724
_cell_volume 699.178768
_symmetry_space_group_name_H-M "P -1"
_symmetry_group_IT_number 2
_symmetry_cell_setting 'triclinic'
loop_
_space_group_symop_operation_xyz
x,y,z
-x,-y,-z
loop_
_atom_site_type_symbol
_atom_site_label
_atom_site_fract_x
_atom_site_fract_y
_atom_site_fract_z
Si Si1 0.710402 0.029708 0.858804
Si Si2 0.482013 0.298672 0.203545
Si Si3 0.762014 0.380898 0.386006
Si Si4 0.203373 0.315853 0.327294
Si Si5 0.475464 0.117342 0.804368
Si Si6 0.942550 0.127869 0.985058
Si Si7 0.648263 0.721555 0.512211
Si Si8 0.451355 0.966271 0.366098
O O1 0.502499 0.985663 0.884097
O O2 0.964694 0.305981 0.724105
O O3 0.748461 0.011011 0.955542
O O4 0.605584 0.790625 0.867704
O O5 0.392073 0.383314 0.230943
O O6 0.791581 0.548622 0.122171
O O7 0.357059 0.048374 0.322744
O O8 0.544324 0.323063 0.416470
O O9 0.696656 0.201544 0.354858
O O10 0.771686 0.306538 0.494035
O O11 0.283824 0.563629 0.261724
O O12 0.253949 0.312837 0.420778
O O13 0.907420 0.034887 0.386314
O O14 0.469975 0.079032 0.710648
O O15 0.200715 0.956255 0.892176
O O16 0.000000 0.000000 0.000000
O O17 0.500000 0.500000 0.500000
#
# Coordination Sequence:
#
# PCOD8023549 Si02
#       8
#     2   2   2   2   2   2   2   2
#     4  11  26  45  73 104 137 183 235 283 347 420
#     4  11  23  46  71 100 136 187 231 285 353 411
#     4  11  22  43  68 102 144 183 228 279 347 417
#     4  11  23  41  63 100 138 176 232 282 340 407
#     4  11  26  45  68 106 139 180 237 290 343 409
#     4  12  25  50  74  97 143 180 235 298 347 405
#     4  11  23  38  64  98 141 183 227 279 338 412
#     4  10  23  41  70 100 138 186 222 279 349 411
#
# _framework density 22.883990000000001
#
# number of rings (size 3 to 8) (size 9 to 14) (size 15 to 20)
#    0.000    1.000    3.750    1.875    3.500    5.500 
#    4.500    0.000    0.000    0.000    0.000    0.000 
#    0.000    0.000    0.000    0.000    0.000    0.000 
#
# Total GULP energy -198436.172928 kJ/mol
# GULP energy per Si atom -12402.260808 kJ/mol
# Density = 2.283190 g / cm^3
# Si number density = 22.883990 Si / 1000 Ang^3
#
#
#
# Elastic Constant Matrix: (Units=GPa)
#
#
# Indices 1 2 3 4 5 6 
#
# 1 72.1610 37.8998 25.8821 7.9464 -11.8394 -11.6936
# 2 37.8998 143.6869 35.2748 26.6014 -7.8852 -12.4457
# 3 25.8821 35.2748 78.2602 14.7435 -7.7496 -9.9435
# 4 7.9464 26.6014 14.7435 34.8861 -1.5856 -3.1944
# 5 -11.8394 -7.8852 -7.7496 -1.5856 39.6739 -0.2137
# 6 -11.6936 -12.4457 -9.9435 -3.1944 -0.2137 34.1472
#
#
#
# Elastic Compliance Matrix: (Units=1/GPa)
#
#
# Indices 1 2 3 4 5 6 
#
# 1 0.018241 -0.003445 -0.003676 0.000578 0.004085 0.004000
# 2 -0.003445 0.009477 -0.001915 -0.005510 0.000268 0.001203
# 3 -0.003676 -0.001915 0.016100 -0.004223 0.001511 0.002346
# 4 0.000578 -0.005510 -0.004223 0.034520 -0.000367 0.000187
# 5 0.004085 0.000268 0.001511 -0.000367 0.026769 0.002070
# 6 0.004000 0.001203 0.002346 0.000187 0.002070 0.031807
#
#
# Mechanical properties :
#
#
# Convention : Reuss Voigt Hill
#
# Bulk Modulus (GPa) = 38.84040 54.69126 46.76583
# Shear Modulus (GPa) = 30.56829 34.74486 32.65657
#
# Velocity S-wave (km/s) = 3.65882 3.90077 3.78173
# Velocity P-wave (km/s) = 5.90414 6.65126 6.28880
#
# Compressibility (1/GPa) = 0.02574639
#
# Stress axis : x y z
#
# Youngs Moduli (GPa) = 54.82299 105.51330 62.11188
#
# Poissons Ratio (x) = 0.36351 0.22830
# Poissons Ratio (y) = 0.18887 0.11894
# Poissons Ratio (z) = 0.20151 0.20206
#
# Static dielectric constant tensor:
#      x y z
#    x 4.072550 -0.029280 0.016590 
#    y -0.029280 4.360510 0.009470 
#    z 0.016590 0.009470 4.058660 
# 
# 
# High freq. dielectric constant tensor:
#      x y z
#    x 1.896070 -0.008250 0.000010 
#    y -0.008250 1.918330 0.002370 
#    z 0.000010 0.002370 1.896630 
# 
# From -- ./inp_files/494669.got.cif
#   From: 2010.06.25/outbox.cif.g09.slc.cpg/sg2_248_cif.got.tgz:494669.got - 2010.06.27 13:26:56.
