data_PCOD8023562
_publ_section_title
;
Structure prediction by ZEFSAII (Michael W. Deem and Ramdas Pophale) SiO2 
 PCOD8023562
Probable space group: P -1
;
_chemical_formula_sum "Si O2"
_cell_formula_units_Z 16
_cell_length_a 10.437380
_cell_length_b 16.153456
_cell_length_c 15.932581
_cell_angle_alpha 33.471596
_cell_angle_beta 146.472775
_cell_angle_gamma 144.468795
_cell_volume 753.926058
_symmetry_space_group_name_H-M "P -1"
_symmetry_group_IT_number 2
_symmetry_cell_setting 'triclinic'
loop_
_space_group_symop_operation_xyz
x,y,z
-x,-y,-z
loop_
_atom_site_type_symbol
_atom_site_label
_atom_site_fract_x
_atom_site_fract_y
_atom_site_fract_z
Si Si1 0.900620 0.946652 0.582518
Si Si2 0.659281 0.317384 0.042492
Si Si3 0.827165 0.465326 0.777411
Si Si4 0.539775 0.100299 0.313902
Si Si5 0.469299 0.603512 0.658520
Si Si6 0.270066 0.435827 0.536657
Si Si7 0.233254 0.775741 0.496136
Si Si8 0.702571 0.134667 0.052525
O O1 0.718284 0.759901 0.646288
O O2 0.132434 0.967898 0.750166
O O3 0.788072 0.070772 0.450667
O O4 0.000000 0.000000 0.500000
O O5 0.499376 0.209892 0.124476
O O6 0.622703 0.200965 0.039648
O O7 0.959052 0.404315 0.157117
O O8 0.542673 0.450839 0.848969
O O9 0.538696 0.423590 0.682338
O O10 0.858240 0.527620 0.646930
O O11 0.854777 0.292481 0.944769
O O12 0.585041 0.186728 0.355447
O O13 0.303543 0.927699 0.341400
O O14 0.314478 0.576771 0.509731
O O15 0.287698 0.628147 0.608699
O O16 0.058460 0.272082 0.598514
O O17 0.500000 0.000000 0.000000
#
# Coordination Sequence:
#
# PCOD8023562 Si02
#       8
#     2   2   2   2   2   2   2   2
#     4  11  23  39  66  97 135 176 218 270 344 402
#     4  12  22  46  68 102 133 175 223 276 337 395
#     4  11  24  41  70  98 134 173 219 280 338 393
#     4  10  23  41  70  93 132 180 221 270 331 400
#     4  11  24  41  70  96 134 179 225 276 325 396
#     4  11  23  40  68  96 129 171 223 275 329 390
#     4  10  23  44  62  98 131 181 227 266 323 401
#     4  12  26  38  61 103 141 167 214 278 342 395
#
# _framework density 21.222238999999998
#
# number of rings (size 3 to 8) (size 9 to 14) (size 15 to 20)
#    0.000    1.000    5.000    1.500    3.500    0.500 
#    0.000    0.625    0.000    0.000    0.000    0.000 
#    0.000    0.000    0.000    0.000    0.000    0.000 
#
# Total GULP energy -198269.644165 kJ/mol
# GULP energy per Si atom -12391.852760 kJ/mol
# Density = 2.117394 g / cm^3
# Si number density = 21.222239 Si / 1000 Ang^3
#
#
#
# Elastic Constant Matrix: (Units=GPa)
#
#
# Indices 1 2 3 4 5 6 
#
# 1 114.1146 51.1414 42.9344 -1.2407 -7.5878 -0.1371
# 2 51.1414 110.5729 39.9208 11.2094 -11.2284 -9.2742
# 3 42.9344 39.9208 92.1350 -5.2556 -16.8505 -0.1862
# 4 -1.2407 11.2094 -5.2556 33.0938 -1.9656 -3.5169
# 5 -7.5878 -11.2284 -16.8505 -1.9656 29.4159 -1.0445
# 6 -0.1371 -9.2742 -0.1862 -3.5169 -1.0445 46.8753
#
#
#
# Elastic Compliance Matrix: (Units=1/GPa)
#
#
# Indices 1 2 3 4 5 6 
#
# 1 0.012181 -0.004541 -0.003764 0.001271 -0.000691 -0.000798
# 2 -0.004541 0.013307 -0.003637 -0.004920 0.001576 0.002271
# 3 -0.003764 -0.003637 0.015666 0.003964 0.006872 -0.000218
# 4 0.001271 -0.004920 0.003964 0.032905 0.002975 0.001581
# 5 -0.000691 0.001576 0.006872 0.002975 0.038604 0.001421
# 6 -0.000798 0.002271 -0.000218 0.001581 0.001421 0.021930
#
#
# Mechanical properties :
#
#
# Convention : Reuss Voigt Hill
#
# Bulk Modulus (GPa) = 57.90720 64.97953 61.44337
# Shear Modulus (GPa) = 30.44415 34.06541 32.25478
#
# Velocity S-wave (km/s) = 3.79164 4.01081 3.90276
# Velocity P-wave (km/s) = 6.82012 7.22038 7.02310
#
# Compressibility (1/GPa) = 0.01726901
#
# Stress axis : x y z
#
# Youngs Moduli (GPa) = 82.09233 75.15105 63.83140
#
# Poissons Ratio (x) = 0.34125 0.24029
# Poissons Ratio (y) = 0.37277 0.23217
# Poissons Ratio (z) = 0.30903 0.27334
#
# Static dielectric constant tensor:
#      x y z
#    x 3.655070 0.095480 -0.340270 
#    y 0.095480 3.913350 0.005520 
#    z -0.340270 0.005520 3.924050 
# 
# 
# High freq. dielectric constant tensor:
#      x y z
#    x 1.835660 -0.004090 -0.017850 
#    y -0.004090 1.841510 -0.003000 
#    z -0.017850 -0.003000 1.825450 
# 
# From -- ./inp_files/570247.got.cif
#   From: 2010.06.25/outbox.cif.g09.slc.cpg/sg2_286_cif.got.tgz:570247.got - 2010.06.27 13:26:56.
