data_PCOD8023083
_publ_section_title
;
Structure prediction by ZEFSAII (Michael W. Deem and Ramdas Pophale) SiO2 
 PCOD8023083
Probable space group: P -1
;
_chemical_formula_sum "Si O2"
_cell_formula_units_Z 16
_cell_length_a 9.522578
_cell_length_b 18.250490
_cell_length_c 12.963066
_cell_angle_alpha 30.322377
_cell_angle_beta 43.401835
_cell_angle_gamma 56.032844
_cell_volume 766.155871
_symmetry_space_group_name_H-M "P -1"
_symmetry_group_IT_number 2
_symmetry_cell_setting 'triclinic'
loop_
_space_group_symop_operation_xyz
x,y,z
-x,-y,-z
loop_
_atom_site_type_symbol
_atom_site_label
_atom_site_fract_x
_atom_site_fract_y
_atom_site_fract_z
Si Si1 0.299235 0.930465 0.759526
Si Si2 0.794222 0.386277 0.715548
Si Si3 0.421829 0.402896 0.331285
Si Si4 0.899286 0.428809 0.035581
Si Si5 0.617604 0.938005 0.223966
Si Si6 0.147057 0.901307 0.492851
Si Si7 0.055586 0.370371 0.411327
Si Si8 0.947315 0.077293 0.716850
O O1 0.500000 0.000000 0.500000
O O2 0.291023 0.013190 0.772185
O O3 0.279767 0.754433 0.998441
O O4 0.092469 0.955008 0.780346
O O5 0.616843 0.486640 0.689015
O O6 0.000000 0.500000 0.500000
O O7 0.850243 0.326486 0.647239
O O8 0.663205 0.450082 0.120076
O O9 0.368700 0.231616 0.600287
O O10 0.272401 0.431326 0.281832
O O11 0.919341 0.259426 0.225747
O O12 0.009311 0.509278 0.778045
O O13 0.000000 0.500000 0.000000
O O14 0.385408 0.970079 0.308821
O O15 0.746534 0.029294 0.953526
O O16 0.130276 0.889315 0.394256
O O17 0.000000 0.000000 0.500000
O O18 0.086778 0.227205 0.505104
#
# Coordination Sequence:
#
# PCOD8023083 Si02
#       8
#     2   2   2   2   2   2   2   2
#     4  12  25  39  68 103 132 168 222 273 328 390
#     4  10  23  41  64 101 133 163 217 275 326 385
#     4  10  23  40  67  95 129 164 215 273 322 385
#     4  11  24  42  65  91 129 172 217 257 328 392
#     4  11  23  43  67  97 128 175 219 262 333 396
#     4  11  26  44  64  96 132 170 218 275 323 388
#     4  11  21  41  68  93 124 173 211 266 323 384
#     4  12  22  42  68  91 132 174 217 265 327 393
#
# _framework density 20.883479000000001
#
# number of rings (size 3 to 8) (size 9 to 14) (size 15 to 20)
#    0.000    1.000    3.750    3.375    1.750    8.000 
#    0.000    0.625    0.000    0.000    0.000    0.000 
#    0.000    0.000    0.000    0.000    0.000    0.000 
#
# Total GULP energy -198376.575778 kJ/mol
# GULP energy per Si atom -12398.535986 kJ/mol
# Density = 2.083595 g / cm^3
# Si number density = 20.883479 Si / 1000 Ang^3
#
#
#
# Elastic Constant Matrix: (Units=GPa)
#
#
# Indices 1 2 3 4 5 6 
#
# 1 79.1500 17.2093 33.7558 -5.0331 14.5992 -5.0011
# 2 17.2093 105.4942 48.1344 -13.2772 12.3485 -16.6403
# 3 33.7558 48.1344 145.1076 3.5670 11.4924 -8.8933
# 4 -5.0331 -13.2772 3.5670 27.8112 6.7466 6.5934
# 5 14.5992 12.3485 11.4924 6.7466 30.7398 -1.1678
# 6 -5.0011 -16.6403 -8.8933 6.5934 -1.1678 32.7312
#
#
#
# Elastic Compliance Matrix: (Units=1/GPa)
#
#
# Indices 1 2 3 4 5 6 
#
# 1 0.015698 0.000592 -0.003350 0.005285 -0.007583 0.000454
# 2 0.000592 0.013509 -0.004101 0.007474 -0.005658 0.004137
# 3 -0.003350 -0.004101 0.009117 -0.004090 0.000755 0.000731
# 4 0.005285 0.007474 -0.004090 0.045965 -0.014310 -0.006274
# 5 -0.007583 -0.005658 0.000755 -0.014310 0.041284 0.000526
# 6 0.000454 0.004137 0.000731 -0.006274 0.000526 0.034206
#
#
# Mechanical properties :
#
#
# Convention : Reuss Voigt Hill
#
# Bulk Modulus (GPa) = 40.63998 58.66123 49.65061
# Shear Modulus (GPa) = 27.51836 33.63326 30.57581
#
# Velocity S-wave (km/s) = 3.63397 4.01748 3.83053
# Velocity P-wave (km/s) = 6.09181 7.04776 6.58715
#
# Compressibility (1/GPa) = 0.02460631
#
# Stress axis : x y z
#
# Youngs Moduli (GPa) = 63.70417 74.02278 109.69076
#
# Poissons Ratio (x) = -0.04382 0.36741
# Poissons Ratio (y) = -0.03771 0.44985
# Poissons Ratio (z) = 0.21338 0.30357
#
# Static dielectric constant tensor:
#      x y z
#    x 3.767750 0.025420 0.027380 
#    y 0.025420 4.261330 0.029140 
#    z 0.027380 0.029140 3.941660 
# 
# 
# High freq. dielectric constant tensor:
#      x y z
#    x 1.806530 -0.002070 0.001800 
#    y -0.002070 1.825820 -0.005350 
#    z 0.001800 -0.005350 1.829650 
# 
# From -- ./inp_files/218342.got.cif
#   From: 2010.06.25/outbox.cif.g09.slc.cpg/sg2_110_cif.got.tgz:218342.got - 2010.06.27 13:26:56.
