data_PCOD8023140
_publ_section_title
;
Structure prediction by ZEFSAII (Michael W. Deem and Ramdas Pophale) SiO2 
 PCOD8023140
Probable space group: P -1
;
_chemical_formula_sum "Si O2"
_cell_formula_units_Z 16
_cell_length_a 22.697824
_cell_length_b 8.857914
_cell_length_c 11.225804
_cell_angle_alpha 49.081504
_cell_angle_beta 31.071456
_cell_angle_gamma 38.165901
_cell_volume 718.608768
_symmetry_space_group_name_H-M "P -1"
_symmetry_group_IT_number 2
_symmetry_cell_setting 'triclinic'
loop_
_space_group_symop_operation_xyz
x,y,z
-x,-y,-z
loop_
_atom_site_type_symbol
_atom_site_label
_atom_site_fract_x
_atom_site_fract_y
_atom_site_fract_z
Si Si1 0.998185 0.044742 0.165171
Si Si2 0.653056 0.586398 0.273233
Si Si3 0.213177 0.936167 0.644935
Si Si4 0.253048 0.593739 0.047449
Si Si5 0.627305 0.104001 0.276271
Si Si6 0.526070 0.688361 0.800434
Si Si7 0.784564 0.561165 0.285172
Si Si8 0.617662 0.833175 0.787772
O O1 0.932374 0.315053 0.198791
O O2 0.103604 0.017127 0.897932
O O3 0.870481 0.034347 0.346106
O O4 0.087405 0.814850 0.219072
O O5 0.691907 0.592585 0.065028
O O6 0.506556 0.828210 0.447391
O O7 0.777471 0.549729 0.159167
O O8 0.655021 0.344249 0.416830
O O9 0.277181 0.091133 0.454907
O O10 0.336523 0.714533 0.837939
O O11 0.283773 0.444755 0.191926
O O12 0.597206 0.126991 0.174338
O O13 0.754230 0.823511 0.235125
O O14 0.667378 0.535885 0.558408
O O15 0.538775 0.844086 0.799528
O O16 0.500000 0.500000 0.000000
O O17 0.500000 0.000000 0.000000
#
# Coordination Sequence:
#
# PCOD8023140 Si02
#       8
#     2   2   2   2   2   2   2   2
#     4   9  21  44  67  90 127 172 219 266 302 374
#     4   9  19  38  64  92 123 164 212 274 309 366
#     4   9  20  42  67  93 127 168 219 263 314 372
#     4  11  23  39  64  95 129 169 215 259 315 381
#     4  11  22  40  63  96 129 164 219 264 327 371
#     4  11  24  44  60  93 138 169 204 269 332 385
#     4  10  23  40  69  91 124 174 215 262 321 373
#     4  12  27  40  66  99 130 169 212 263 331 385
#
# _framework density 22.265246999999999
#
# number of rings (size 3 to 8) (size 9 to 14) (size 15 to 20)
#    0.000    1.750    1.250    3.375   10.500    1.000 
#    0.000    1.875    0.000    0.000    0.000    0.000 
#    0.000    0.000    0.000    0.000    0.000    0.000 
#
# Total GULP energy -198283.816687 kJ/mol
# GULP energy per Si atom -12392.738543 kJ/mol
# Density = 2.221457 g / cm^3
# Si number density = 22.265247 Si / 1000 Ang^3
#
#
#
# Elastic Constant Matrix: (Units=GPa)
#
#
# Indices 1 2 3 4 5 6 
#
# 1 92.8373 24.7573 21.8020 14.0295 3.4593 -2.0081
# 2 24.7573 133.5805 20.9158 13.5768 1.8860 -6.7160
# 3 21.8020 20.9158 53.5634 -9.5020 -7.3502 10.7006
# 4 14.0295 13.5768 -9.5020 36.6379 3.2836 -1.4272
# 5 3.4593 1.8860 -7.3502 3.2836 25.5452 0.9999
# 6 -2.0081 -6.7160 10.7006 -1.4272 0.9999 29.4969
#
#
#
# Elastic Compliance Matrix: (Units=1/GPa)
#
#
# Indices 1 2 3 4 5 6 
#
# 1 0.013968 -0.000441 -0.007881 -0.006789 -0.003391 0.003496
# 2 -0.000441 0.008991 -0.005039 -0.004177 -0.001662 0.003699
# 3 -0.007881 -0.005039 0.029497 0.011260 0.008955 -0.012143
# 4 -0.006789 -0.004177 0.011260 0.034192 0.000223 -0.003851
# 5 -0.003391 -0.001662 0.008955 0.000223 0.042483 -0.005287
# 6 0.003496 0.003699 -0.012143 -0.003851 -0.005287 0.039380
#
#
# Mechanical properties :
#
#
# Convention : Reuss Voigt Hill
#
# Bulk Modulus (GPa) = 38.86078 46.10349 42.48214
# Shear Modulus (GPa) = 24.53238 32.50307 28.51773
#
# Velocity S-wave (km/s) = 3.32297 3.82489 3.58273
# Velocity P-wave (km/s) = 5.67577 6.34491 6.01964
#
# Compressibility (1/GPa) = 0.02573288
#
# Stress axis : x y z
#
# Youngs Moduli (GPa) = 71.59261 111.22367 33.90134
#
# Poissons Ratio (x) = 0.04906 0.26718
# Poissons Ratio (y) = 0.03158 0.17084
# Poissons Ratio (z) = 0.56424 0.56049
#
# Static dielectric constant tensor:
#      x y z
#    x 4.468000 -0.182070 -0.005210 
#    y -0.182070 4.334530 0.071160 
#    z -0.005210 0.071160 3.692500 
# 
# 
# High freq. dielectric constant tensor:
#      x y z
#    x 1.880080 0.001140 0.000500 
#    y 0.001140 1.893270 0.002800 
#    z 0.000500 0.002800 1.839670 
# 
# From -- ./inp_files/474109.got.cif
#   From: 2010.06.25/outbox.cif.g09.slc.cpg/sg2_238_cif.got.tgz:474109.got - 2010.06.27 13:26:56.
