data_PCOD8023630
_publ_section_title
;
Structure prediction by ZEFSAII (Michael W. Deem and Ramdas Pophale) SiO2 
 PCOD8023630
Probable space group: P -1
;
_chemical_formula_sum "Si O2"
_cell_formula_units_Z 16
_cell_length_a 9.008646
_cell_length_b 19.710802
_cell_length_c 11.998702
_cell_angle_alpha 38.378461
_cell_angle_beta 36.934196
_cell_angle_gamma 38.374693
_cell_volume 720.691170
_symmetry_space_group_name_H-M "P -1"
_symmetry_group_IT_number 2
_symmetry_cell_setting 'triclinic'
loop_
_space_group_symop_operation_xyz
x,y,z
-x,-y,-z
loop_
_atom_site_type_symbol
_atom_site_label
_atom_site_fract_x
_atom_site_fract_y
_atom_site_fract_z
Si Si1 0.958080 0.881694 0.147590
Si Si2 0.694075 0.531421 0.424162
Si Si3 0.173172 0.692790 0.629591
Si Si4 0.091384 0.275162 0.014059
Si Si5 0.869183 0.703550 0.586830
Si Si6 0.989606 0.044707 0.620405
Si Si7 0.758762 0.209535 0.112283
Si Si8 0.390954 0.017277 0.219065
O O1 0.906569 0.820348 0.368924
O O2 0.700427 0.925314 0.164083
O O3 0.198517 0.778720 0.061706
O O4 0.000000 0.000000 0.000000
O O5 0.500000 0.500000 0.500000
O O6 0.493830 0.599793 0.558515
O O7 0.957433 0.408594 0.455762
O O8 0.811003 0.620089 0.187090
O O9 0.131119 0.820302 0.434444
O O10 0.090173 0.701475 0.796109
O O11 0.987535 0.657898 0.699398
O O12 0.358116 0.149526 0.030609
O O13 0.914292 0.266124 0.026291
O O14 0.555347 0.727170 0.745537
O O15 0.234060 0.028220 0.413067
O O16 0.729459 0.037865 0.730627
O O17 0.123247 0.936408 0.766319
#
# Coordination Sequence:
#
# PCOD8023630 Si02
#       8
#     2   2   2   2   2   2   2   2
#     4  12  27  39  66 101 140 174 212 263 337 403
#     4  10  25  44  67  95 130 175 224 271 319 390
#     4  10  23  41  73  93 128 177 218 274 321 386
#     4  10  24  43  69  99 125 172 230 266 323 389
#     4  11  26  45  62  97 139 170 218 270 331 391
#     4   9  18  38  65  95 129 165 211 268 325 376
#     4  11  25  41  67 100 135 174 210 277 331 385
#     4   9  20  37  64  97 131 163 213 267 319 390
#
# _framework density 22.20091
#
# number of rings (size 3 to 8) (size 9 to 14) (size 15 to 20)
#    0.000    1.750    1.250    1.500   10.500    5.500 
#    0.000    1.250    0.000    0.000    0.000    0.000 
#    0.000    0.000    0.000    0.000    0.000    0.000 
#
# Total GULP energy -198230.822413 kJ/mol
# GULP energy per Si atom -12389.426401 kJ/mol
# Density = 2.215038 g / cm^3
# Si number density = 22.200910 Si / 1000 Ang^3
#
#
#
# Elastic Constant Matrix: (Units=GPa)
#
#
# Indices 1 2 3 4 5 6 
#
# 1 74.9964 32.2164 36.0611 10.0481 -1.3706 2.7161
# 2 32.2164 110.4921 32.8094 13.0446 -15.5069 1.2277
# 3 36.0611 32.8094 96.4878 -0.3674 -18.6144 6.5269
# 4 10.0481 13.0446 -0.3674 34.3252 7.9812 -4.0394
# 5 -1.3706 -15.5069 -18.6144 7.9812 30.7775 4.5640
# 6 2.7161 1.2277 6.5269 -4.0394 4.5640 29.3363
#
#
#
# Elastic Compliance Matrix: (Units=1/GPa)
#
#
# Indices 1 2 3 4 5 6 
#
# 1 0.018323 -0.003654 -0.006421 -0.003072 -0.004127 0.000104
# 2 -0.003654 0.012110 -0.001362 -0.005307 0.006735 -0.001644
# 3 -0.006421 -0.001362 0.015207 0.000025 0.008827 -0.004102
# 4 -0.003072 -0.005307 0.000025 0.036015 -0.013250 0.007521
# 5 -0.004127 0.006735 0.008827 -0.013250 0.046086 -0.010858
# 6 0.000104 -0.001644 -0.004102 0.007521 -0.010858 0.037784
#
#
# Mechanical properties :
#
#
# Convention : Reuss Voigt Hill
#
# Bulk Modulus (GPa) = 43.92126 53.79446 48.85786
# Shear Modulus (GPa) = 25.51184 30.94711 28.22947
#
# Velocity S-wave (km/s) = 3.39357 3.73762 3.56974
# Velocity P-wave (km/s) = 5.93140 6.55056 6.24865
#
# Compressibility (1/GPa) = 0.02276802
#
# Stress axis : x y z
#
# Youngs Moduli (GPa) = 54.57584 82.57536 65.75822
#
# Poissons Ratio (x) = 0.30170 0.42220
# Poissons Ratio (y) = 0.19940 0.08957
# Poissons Ratio (z) = 0.35041 0.11248
#
# Static dielectric constant tensor:
#      x y z
#    x 3.758410 -0.011090 -0.101470 
#    y -0.011090 4.454840 0.057340 
#    z -0.101470 0.057340 4.082290 
# 
# 
# High freq. dielectric constant tensor:
#      x y z
#    x 1.858420 0.006490 -0.008030 
#    y 0.006490 1.883940 0.012400 
#    z -0.008030 0.012400 1.874790 
# 
# From -- ./inp_files/404673.got.cif
#   From: 2010.06.25/outbox.cif.g09.slc.cpg/sg2_203_cif.got.tgz:404673.got - 2010.06.27 13:26:56.
