data_PCOD8023318
_publ_section_title
;
Structure prediction by ZEFSAII (Michael W. Deem and Ramdas Pophale) SiO2 
 PCOD8023318
Probable space group: P -1
;
_chemical_formula_sum "Si O2"
_cell_formula_units_Z 14
_cell_length_a 12.177791
_cell_length_b 11.969527
_cell_length_c 6.606033
_cell_angle_alpha 64.918069
_cell_angle_beta 81.557015
_cell_angle_gamma 49.978353
_cell_volume 656.789609
_symmetry_space_group_name_H-M "P -1"
_symmetry_group_IT_number 2
_symmetry_cell_setting 'triclinic'
loop_
_space_group_symop_operation_xyz
x,y,z
-x,-y,-z
loop_
_atom_site_type_symbol
_atom_site_label
_atom_site_fract_x
_atom_site_fract_y
_atom_site_fract_z
Si Si1 0.074394 0.901795 0.854658
Si Si2 0.530936 0.344730 0.521146
Si Si3 0.655598 0.659103 0.126937
Si Si4 0.340626 0.131207 0.358098
Si Si5 0.814657 0.013351 0.575985
Si Si6 0.161121 0.421814 0.481625
Si Si7 0.714423 0.463424 0.885455
O O1 0.122912 0.989098 0.654873
O O2 0.222980 0.719507 0.999734
O O3 0.954830 0.904397 0.768126
O O4 0.000000 0.000000 0.000000
O O5 0.500000 0.500000 0.500000
O O6 0.485885 0.271744 0.752094
O O7 0.700647 0.199979 0.539926
O O8 0.437432 0.404854 0.293215
O O9 0.785736 0.585748 0.302868
O O10 0.639525 0.793447 0.896294
O O11 0.689824 0.517457 0.083822
O O12 0.248070 0.251162 0.476268
O O13 0.500000 0.000000 0.500000
O O14 0.266648 0.058388 0.360319
O O15 0.162882 0.540295 0.247933
O O16 0.000000 0.500000 0.500000
#
# Coordination Sequence:
#
# PCOD8023318 Si02
#       7
#     2   2   2   2   2   2   2
#     4  11  26  43  63  95 131 173 214 272 330 384
#     4  11  23  43  68  96 127 174 219 268 321 393
#     4  10  23  42  66  94 132 166 212 270 324 383
#     4  11  25  43  65  99 136 171 221 271 329 400
#     4  11  26  42  65  97 133 168 220 269 327 392
#     4  10  24  39  65  95 125 171 220 262 325 394
#     4  10  23  41  65  94 127 166 222 264 321 391
#
# _framework density 21.315808000000001
#
# number of rings (size 3 to 8) (size 9 to 14) (size 15 to 20)
#    0.000    1.429    0.000    4.286    6.000   11.429 
#    0.000    0.000    0.000    0.000    0.000    0.000 
#    0.000    0.000    0.000    0.000    0.000    0.000 
#
# Total GULP energy -173599.556794 kJ/mol
# GULP energy per Si atom -12399.968342 kJ/mol
# Density = 2.126729 g / cm^3
# Si number density = 21.315808 Si / 1000 Ang^3
#
#
#
# Elastic Constant Matrix: (Units=GPa)
#
#
# Indices 1 2 3 4 5 6 
#
# 1 93.7720 19.3018 28.7453 7.4944 -10.6389 -4.5235
# 2 19.3018 103.2949 47.6458 6.5932 -0.2109 -0.1539
# 3 28.7453 47.6458 123.1768 18.9609 0.4347 -5.3132
# 4 7.4944 6.5932 18.9609 32.0370 6.0587 -0.6258
# 5 -10.6389 -0.2109 0.4347 6.0587 20.8354 1.1987
# 6 -4.5235 -0.1539 -5.3132 -0.6258 1.1987 43.3881
#
#
#
# Elastic Compliance Matrix: (Units=1/GPa)
#
#
# Indices 1 2 3 4 5 6 
#
# 1 0.012629 -0.001229 -0.002021 -0.002863 0.007264 0.000823
# 2 -0.001229 0.011918 -0.004432 0.000548 -0.000539 -0.000606
# 3 -0.002021 -0.004432 0.011154 -0.005224 0.000148 0.001060
# 4 -0.002863 0.000548 -0.005224 0.037159 -0.012149 -0.000065
# 5 0.007264 -0.000539 0.000148 -0.012149 0.055282 -0.000929
# 6 0.000823 -0.000606 0.001060 -0.000065 -0.000929 0.023286
#
#
# Mechanical properties :
#
#
# Convention : Reuss Voigt Hill
#
# Bulk Modulus (GPa) = 49.17144 56.84773 53.00958
# Shear Modulus (GPa) = 28.80685 34.22217 31.51451
#
# Velocity S-wave (km/s) = 3.68017 4.01119 3.84924
# Velocity P-wave (km/s) = 6.41688 6.94119 6.68418
#
# Compressibility (1/GPa) = 0.02033701
#
# Stress axis : x y z
#
# Youngs Moduli (GPa) = 79.18085 83.90790 89.65673
#
# Poissons Ratio (x) = 0.10310 0.18124
# Poissons Ratio (y) = 0.09729 0.39733
# Poissons Ratio (z) = 0.16006 0.37185
#
# Static dielectric constant tensor:
#      x y z
#    x 3.915970 -0.004320 0.006340 
#    y -0.004320 3.745380 -0.084760 
#    z 0.006340 -0.084760 3.886670 
# 
# 
# High freq. dielectric constant tensor:
#      x y z
#    x 1.845830 -0.001750 -0.003590 
#    y -0.001750 1.835880 0.009170 
#    z -0.003590 0.009170 1.852380 
# 
# From -- ./inp_files/47531.got.cif
#   From: 2010.06.25/outbox.cif.g09.slc.cpg/sg2_24_cif.got.tgz:47531.got - 2010.06.27 13:26:56.
