data_PCOD8023887
_publ_section_title
;
Structure prediction by ZEFSAII (Michael W. Deem and Ramdas Pophale) SiO2 
 PCOD8023887
Probable space group: P -1
;
_chemical_formula_sum "Si O2"
_cell_formula_units_Z 14
_cell_length_a 18.866173
_cell_length_b 9.943740
_cell_length_c 21.887682
_cell_angle_alpha 143.506668
_cell_angle_beta 162.672947
_cell_angle_gamma 36.273624
_cell_volume 709.677787
_symmetry_space_group_name_H-M "P -1"
_symmetry_group_IT_number 2
_symmetry_cell_setting 'triclinic'
loop_
_space_group_symop_operation_xyz
x,y,z
-x,-y,-z
loop_
_atom_site_type_symbol
_atom_site_label
_atom_site_fract_x
_atom_site_fract_y
_atom_site_fract_z
Si Si1 0.899737 0.696908 0.656614
Si Si2 0.894554 0.228564 0.832749
Si Si3 0.168804 0.009256 0.584694
Si Si4 0.414994 0.403756 0.957546
Si Si5 0.784033 0.510728 0.735215
Si Si6 0.652137 0.510042 0.494644
Si Si7 0.857928 0.401900 0.399780
O O1 0.740480 0.662077 0.570928
O O2 0.806274 0.581066 0.478533
O O3 0.179760 0.578142 0.854073
O O4 0.871786 0.967328 0.722680
O O5 0.935232 0.287989 0.816223
O O6 0.637121 0.395848 0.701008
O O7 0.122688 0.271987 0.077550
O O8 0.375282 0.147905 0.820688
O O9 0.004864 0.146605 0.445816
O O10 0.308876 0.757230 0.588399
O O11 0.000000 0.000000 0.500000
O O12 0.500000 0.500000 0.000000
O O13 0.600770 0.376908 0.155326
O O14 0.500000 0.500000 0.500000
O O15 0.826482 0.520128 0.700934
O O16 0.000000 0.500000 0.500000
#
# Coordination Sequence:
#
# PCOD8023887 Si02
#       7
#     2   2   2   2   2   2   2
#     4  11  24  42  64  96 132 164 219 268 316 393
#     4  10  23  42  67  94 125 173 213 258 325 387
#     4  11  23  44  64  97 135 163 218 277 318 389
#     4  11  23  40  66  95 128 172 220 261 326 381
#     4   9  22  42  62  92 127 164 217 259 318 379
#     4  11  23  42  64  95 133 165 210 270 324 382
#     4  11  23  43  65  96 128 173 216 266 328 377
#
# _framework density 19.727262
#
# number of rings (size 3 to 8) (size 9 to 14) (size 15 to 20)
#    0.000    1.429    5.714    0.429    2.000    9.143 
#    0.000    0.000    0.000    0.000    0.000    0.000 
#    0.000    0.000    0.000    0.000    0.000    0.000 
#
# Total GULP energy -173502.480508 kJ/mol
# GULP energy per Si atom -12393.034322 kJ/mol
# Density = 1.968236 g / cm^3
# Si number density = 19.727262 Si / 1000 Ang^3
#
#
#
# Elastic Constant Matrix: (Units=GPa)
#
#
# Indices 1 2 3 4 5 6 
#
# 1 80.0462 -1.9249 24.8711 4.5438 -18.7200 19.2169
# 2 -1.9249 110.3223 31.6675 16.4279 -19.7376 1.8637
# 3 24.8711 31.6675 143.7498 -4.3129 -28.7306 3.8922
# 4 4.5438 16.4279 -4.3129 32.2902 4.5795 6.4012
# 5 -18.7200 -19.7376 -28.7306 4.5795 31.0639 1.6301
# 6 19.2169 1.8637 3.8922 6.4012 1.6301 35.0484
#
#
#
# Elastic Compliance Matrix: (Units=1/GPa)
#
#
# Indices 1 2 3 4 5 6 
#
# 1 0.019058 0.004144 -0.001232 -0.004934 0.014246 -0.010295
# 2 0.004144 0.012758 -0.001654 -0.008431 0.010406 -0.001711
# 3 -0.001232 -0.001654 0.008840 0.001469 0.006206 -0.000775
# 4 -0.004934 -0.008431 0.001469 0.038609 -0.012481 -0.003481
# 5 0.014246 0.010406 0.006206 -0.012481 0.055459 -0.009353
# 6 -0.010295 -0.001711 -0.000775 -0.003481 -0.009353 0.035424
#
#
# Mechanical properties :
#
#
# Convention : Reuss Voigt Hill
#
# Bulk Modulus (GPa) = 23.16439 49.26062 36.21251
# Shear Modulus (GPa) = 27.46896 38.31413 32.89154
#
# Velocity S-wave (km/s) = 3.73558 4.41181 4.08771
# Velocity P-wave (km/s) = 5.51126 7.13983 6.37774
#
# Compressibility (1/GPa) = 0.04316971
#
# Stress axis : x y z
#
# Youngs Moduli (GPa) = 52.47023 78.38498 113.12735
#
# Poissons Ratio (x) = -0.32480 0.13941
# Poissons Ratio (y) = -0.21742 0.18714
# Poissons Ratio (z) = 0.06466 0.12967
#
# Static dielectric constant tensor:
#      x y z
#    x 3.931780 0.433070 -0.042660 
#    y 0.433070 3.775670 -0.353840 
#    z -0.042660 -0.353840 3.427510 
# 
# 
# High freq. dielectric constant tensor:
#      x y z
#    x 1.776690 0.017130 -0.002700 
#    y 0.017130 1.768740 0.005360 
#    z -0.002700 0.005360 1.780680 
# 
# From -- ./inp_files/188050.got.cif
#   From: 2010.06.25/outbox.cif.g09.slc.cpg/sg2_95_cif.got.tgz:188050.got - 2010.06.27 13:26:56.
