data_PCOD8023669
_publ_section_title
;
Structure prediction by ZEFSAII (Michael W. Deem and Ramdas Pophale) SiO2 
 PCOD8023669
Probable space group: P -1
;
_chemical_formula_sum "Si O2"
_cell_formula_units_Z 16
_cell_length_a 15.269918
_cell_length_b 9.362367
_cell_length_c 9.361985
_cell_angle_alpha 77.008493
_cell_angle_beta 140.810052
_cell_angle_gamma 111.390928
_cell_volume 783.655429
_symmetry_space_group_name_H-M "P -1"
_symmetry_group_IT_number 2
_symmetry_cell_setting 'triclinic'
loop_
_space_group_symop_operation_xyz
x,y,z
-x,-y,-z
loop_
_atom_site_type_symbol
_atom_site_label
_atom_site_fract_x
_atom_site_fract_y
_atom_site_fract_z
Si Si1 0.358731 0.545073 0.353833
Si Si2 0.873183 0.634070 0.117542
Si Si3 0.793594 0.234140 0.530897
Si Si4 0.628958 0.612070 0.320132
Si Si5 0.350416 0.866770 0.323984
Si Si6 0.180478 0.080157 0.368340
Si Si7 0.686861 0.452926 0.160297
Si Si8 0.850032 0.954610 0.988210
O O1 0.500000 0.500000 0.500000
O O2 0.338168 0.513273 0.504852
O O3 0.376434 0.724241 0.302009
O O4 0.218323 0.435389 0.122482
O O5 0.825351 0.519747 0.217109
O O6 0.039267 0.654902 0.279595
O O7 0.844119 0.794116 0.092131
O O8 0.726654 0.206320 0.610107
O O9 0.697861 0.304012 0.291273
O O10 0.793318 0.072190 0.498744
O O11 0.717767 0.781255 0.444665
O O12 0.680024 0.585425 0.232635
O O13 0.457626 0.595958 0.108914
O O14 0.500000 0.000000 0.500000
O O15 0.248125 0.948223 0.087638
O O16 0.217192 0.091435 0.244539
O O17 0.012259 0.072911 0.169067
#
# Coordination Sequence:
#
# PCOD8023669 Si02
#       8
#     2   2   2   2   2   2   2   2
#     4  12  23  40  65  97 123 161 219 264 315 369
#     4  11  22  40  69  91 130 168 209 263 310 377
#     4  10  23  42  62  93 130 168 207 255 325 374
#     4  11  23  39  65  90 128 171 214 255 312 372
#     4  11  24  37  62  95 127 158 206 272 315 369
#     4   9  19  38  65  91 122 166 203 261 311 375
#     4  11  24  41  60  93 132 174 209 254 312 376
#     4   9  19  38  62  94 126 156 206 260 325 355
#
# _framework density 20.417138000000001
#
# number of rings (size 3 to 8) (size 9 to 14) (size 15 to 20)
#    0.000    1.500    3.750    1.875    1.750    2.000 
#    0.000    3.750    0.000    0.000    0.000    0.000 
#    0.000    0.000    0.000    0.000    0.000    0.000 
#
# Total GULP energy -198365.729564 kJ/mol
# GULP energy per Si atom -12397.858098 kJ/mol
# Density = 2.037067 g / cm^3
# Si number density = 20.417138 Si / 1000 Ang^3
#
#
#
# Elastic Constant Matrix: (Units=GPa)
#
#
# Indices 1 2 3 4 5 6 
#
# 1 76.7634 19.8637 22.4375 7.0919 13.2364 7.5317
# 2 19.8637 101.4615 36.2299 7.8485 11.5776 -13.2899
# 3 22.4375 36.2299 80.3440 13.4638 2.9431 -3.6973
# 4 7.0919 7.8485 13.4638 44.1365 0.3455 2.8772
# 5 13.2364 11.5776 2.9431 0.3455 27.1312 -6.3561
# 6 7.5317 -13.2899 -3.6973 2.8772 -6.3561 35.6146
#
#
#
# Elastic Compliance Matrix: (Units=1/GPa)
#
#
# Indices 1 2 3 4 5 6 
#
# 1 0.016660 -0.001697 -0.003724 -0.000784 -0.008390 -0.005977
# 2 -0.001697 0.012907 -0.004910 -0.000772 -0.003162 0.004164
# 3 -0.003724 -0.004910 0.016276 -0.003604 0.002517 0.001385
# 4 -0.000784 -0.000772 -0.003604 0.024175 0.000231 -0.002408
# 5 -0.008390 -0.003162 0.002517 0.000231 0.044063 0.008701
# 6 -0.005977 0.004164 0.001385 -0.002408 0.008701 0.032787
#
#
# Mechanical properties :
#
#
# Convention : Reuss Voigt Hill
#
# Bulk Modulus (GPa) = 39.71017 46.18123 42.94570
# Shear Modulus (GPa) = 28.42151 33.37898 30.90024
#
# Velocity S-wave (km/s) = 3.73506 4.04772 3.89452
# Velocity P-wave (km/s) = 6.17191 6.67183 6.42673
#
# Compressibility (1/GPa) = 0.02518246
#
# Stress axis : x y z
#
# Youngs Moduli (GPa) = 60.02327 77.47626 61.44089
#
# Poissons Ratio (x) = 0.13146 0.22880
# Poissons Ratio (y) = 0.10185 0.30166
# Poissons Ratio (z) = 0.22352 0.38039
#
# Static dielectric constant tensor:
#      x y z
#    x 3.617810 -0.046930 0.178090 
#    y -0.046930 3.922260 -0.209200 
#    z 0.178090 -0.209200 3.668950 
# 
# 
# High freq. dielectric constant tensor:
#      x y z
#    x 1.783920 0.002110 0.020790 
#    y 0.002110 1.809180 -0.006700 
#    z 0.020790 -0.006700 1.792040 
# 
# From -- ./inp_files/298441.got.cif
#   From: 2010.06.25/outbox.cif.g09.slc.cpg/sg2_150_cif.got.tgz:298441.got - 2010.06.27 13:26:56.
