data_PCOD8023770
_publ_section_title
;
Structure prediction by ZEFSAII (Michael W. Deem and Ramdas Pophale) SiO2 
 PCOD8023770
Probable space group: P -1
;
_chemical_formula_sum "Si O2"
_cell_formula_units_Z 16
_cell_length_a 12.494008
_cell_length_b 20.129445
_cell_length_c 9.379186
_cell_angle_alpha 30.819272
_cell_angle_beta 47.504553
_cell_angle_gamma 40.162826
_cell_volume 778.121073
_symmetry_space_group_name_H-M "P -1"
_symmetry_group_IT_number 2
_symmetry_cell_setting 'triclinic'
loop_
_space_group_symop_operation_xyz
x,y,z
-x,-y,-z
loop_
_atom_site_type_symbol
_atom_site_label
_atom_site_fract_x
_atom_site_fract_y
_atom_site_fract_z
Si Si1 0.327681 0.548525 0.487846
Si Si2 0.164114 0.589184 0.263410
Si Si3 0.666708 0.942407 0.535571
Si Si4 0.803573 0.649872 0.546920
Si Si5 0.845609 0.129871 0.318009
Si Si6 0.455641 0.928518 0.301099
Si Si7 0.818926 0.614904 0.914414
Si Si8 0.848460 0.117394 0.007281
O O1 0.500000 0.500000 0.500000
O O2 0.305756 0.540692 0.349768
O O3 0.210905 0.722767 0.307586
O O4 0.291979 0.425022 0.812905
O O5 0.208642 0.444394 0.398147
O O6 0.974600 0.659224 0.365939
O O7 0.174547 0.708247 0.927139
O O8 0.794605 0.777328 0.672704
O O9 0.500000 0.000000 0.500000
O O10 0.638628 0.946446 0.723551
O O11 0.710511 0.067488 0.216126
O O12 0.636124 0.805843 0.415559
O O13 0.795988 0.584534 0.827003
O O14 0.672636 0.132733 0.508173
O O15 0.895326 0.112493 0.139210
O O16 0.000000 0.000000 0.500000
O O17 0.500000 0.000000 0.000000
O O18 0.000000 0.500000 0.000000
O O19 0.000000 0.000000 0.000000
#
# Coordination Sequence:
#
# PCOD8023770 Si02
#       8
#     2   2   2   2   2   2   2   2
#     4  11  24  43  65  98 137 169 219 277 336 401
#     4  10  24  44  67  96 134 179 218 285 337 399
#     4  11  23  41  67  95 133 168 222 280 324 390
#     4  11  24  44  67  95 136 175 229 276 337 408
#     4  10  23  43  65  93 134 170 222 275 332 405
#     4  11  25  42  67  98 130 178 227 275 337 402
#     4  12  24  41  68 100 130 178 227 272 337 401
#     4  10  23  42  65  94 129 174 216 271 333 393
#
# _framework density 20.562352000000001
#
# number of rings (size 3 to 8) (size 9 to 14) (size 15 to 20)
#    0.000    1.250    2.500    2.250    7.000    4.500 
#    2.250    0.000    0.000    0.000    0.000    0.000 
#    0.000    0.000    0.000    0.000    0.000    0.000 
#
# Total GULP energy -198210.086221 kJ/mol
# GULP energy per Si atom -12388.130389 kJ/mol
# Density = 2.051555 g / cm^3
# Si number density = 20.562352 Si / 1000 Ang^3
#
#
#
# Elastic Constant Matrix: (Units=GPa)
#
#
# Indices 1 2 3 4 5 6 
#
# 1 117.2565 30.1873 35.5554 -10.2990 9.0137 -9.5558
# 2 30.1873 88.4356 13.4233 -7.7134 7.7114 3.4748
# 3 35.5554 13.4233 109.9166 0.0028 5.6060 2.1176
# 4 -10.2990 -7.7134 0.0028 36.5859 -3.2442 1.8009
# 5 9.0137 7.7114 5.6060 -3.2442 37.8031 -10.6177
# 6 -9.5558 3.4748 2.1176 1.8009 -10.6177 30.0166
#
#
#
# Elastic Compliance Matrix: (Units=1/GPa)
#
#
# Indices 1 2 3 4 5 6 
#
# 1 0.010824 -0.003155 -0.003179 0.002175 -0.000202 0.003833
# 2 -0.003155 0.012967 -0.000358 0.001782 -0.002680 -0.003535
# 3 -0.003179 -0.000358 0.010281 -0.000989 -0.001375 -0.002123
# 4 0.002175 0.001782 -0.000989 0.028487 0.001538 -0.000609
# 5 -0.000202 -0.002680 -0.001375 0.001538 0.030482 0.011033
# 6 0.003833 -0.003535 -0.002123 -0.000609 0.011033 0.039033
#
#
# Mechanical properties :
#
#
# Convention : Reuss Voigt Hill
#
# Bulk Modulus (GPa) = 48.34194 52.66006 50.50100
# Shear Modulus (GPa) = 32.81781 36.64396 34.73089
#
# Velocity S-wave (km/s) = 3.99935 4.22606 4.11427
# Velocity P-wave (km/s) = 6.69980 7.03408 6.86898
#
# Compressibility (1/GPa) = 0.02068597
#
# Stress axis : x y z
#
# Youngs Moduli (GPa) = 92.38951 77.11841 97.26627
#
# Poissons Ratio (x) = 0.24333 0.30926
# Poissons Ratio (y) = 0.29152 0.03484
# Poissons Ratio (z) = 0.29375 0.02762
#
# Static dielectric constant tensor:
#      x y z
#    x 3.794730 0.140370 -0.152810 
#    y 0.140370 3.581420 -0.218150 
#    z -0.152810 -0.218150 5.122760 
# 
# 
# High freq. dielectric constant tensor:
#      x y z
#    x 1.819690 -0.004250 -0.003540 
#    y -0.004250 1.798320 -0.003670 
#    z -0.003540 -0.003670 1.816720 
# 
# From -- ./inp_files/279684.got.cif
#   From: 2010.06.25/outbox.cif.g09.slc.cpg/sg2_140_cif.got.tgz:279684.got - 2010.06.27 13:26:56.
