data_PCOD8023617
_publ_section_title
;
Structure prediction by ZEFSAII (Michael W. Deem and Ramdas Pophale) SiO2 
 PCOD8023617
Probable space group: P -1
;
_chemical_formula_sum "Si O2"
_cell_formula_units_Z 14
_cell_length_a 8.648488
_cell_length_b 9.397609
_cell_length_c 19.116919
_cell_angle_alpha 128.014378
_cell_angle_beta 29.410319
_cell_angle_gamma 116.449434
_cell_volume 584.219059
_symmetry_space_group_name_H-M "P -1"
_symmetry_group_IT_number 2
_symmetry_cell_setting 'triclinic'
loop_
_space_group_symop_operation_xyz
x,y,z
-x,-y,-z
loop_
_atom_site_type_symbol
_atom_site_label
_atom_site_fract_x
_atom_site_fract_y
_atom_site_fract_z
Si Si1 0.469300 0.427833 0.566681
Si Si2 0.728618 0.676960 0.640863
Si Si3 0.875262 0.288577 0.815640
Si Si4 0.184575 0.871091 0.447314
Si Si5 0.561270 0.648848 0.118361
Si Si6 0.925333 0.124320 0.997494
Si Si7 0.224715 0.982181 0.691563
O O1 0.500000 0.500000 0.500000
O O2 0.522303 0.602522 0.641401
O O3 0.121422 0.394365 0.713772
O O4 0.733376 0.231473 0.414016
O O5 0.457404 0.780718 0.834432
O O6 0.000000 0.500000 0.500000
O O7 0.910899 0.832408 0.593534
O O8 0.660122 0.234171 0.821063
O O9 0.034150 0.108776 0.743579
O O10 0.642986 0.430601 0.003022
O O11 0.381255 0.681959 0.274599
O O12 0.420567 0.972832 0.427911
O O13 0.000000 0.000000 0.500000
O O14 0.891892 0.712258 0.016129
O O15 0.044791 0.007442 0.844888
O O16 0.000000 0.000000 0.000000
#
# Coordination Sequence:
#
# PCOD8023617 Si02
#       7
#     2   2   2   2   2   2   2
#     4  12  24  45  70 104 138 179 223 292 352 403
#     4  12  26  43  70 101 141 174 227 286 348 404
#     4  11  23  43  69 102 132 183 233 285 339 410
#     4  11  23  44  69  99 132 189 226 273 342 425
#     4  10  23  41  72  92 138 180 232 276 347 415
#     4  11  24  46  68 102 138 188 224 287 348 417
#     4  11  26  43  76  99 139 178 242 283 333 418
#
# _framework density 23.963612000000001
#
# number of rings (size 3 to 8) (size 9 to 14) (size 15 to 20)
#    0.000    0.857    1.429    6.429    2.000    3.429 
#    0.000    1.429    0.000    0.000    0.000    0.000 
#    0.000    0.000    0.000    0.000    0.000    0.000 
#
# Total GULP energy -173555.797720 kJ/mol
# GULP energy per Si atom -12396.842694 kJ/mol
# Density = 2.390907 g / cm^3
# Si number density = 23.963612 Si / 1000 Ang^3
#
#
#
# Elastic Constant Matrix: (Units=GPa)
#
#
# Indices 1 2 3 4 5 6 
#
# 1 39.6605 3.9195 17.8915 0.4295 -11.6583 -11.3105
# 2 3.9195 81.6206 28.7642 -2.6617 -6.0790 -11.5812
# 3 17.8915 28.7642 112.0701 -22.6786 -15.2662 8.4373
# 4 0.4295 -2.6617 -22.6786 39.3516 -1.9049 -0.7290
# 5 -11.6583 -6.0790 -15.2662 -1.9049 44.0675 12.9403
# 6 -11.3105 -11.5812 8.4373 -0.7290 12.9403 37.2860
#
#
#
# Elastic Compliance Matrix: (Units=1/GPa)
#
#
# Indices 1 2 3 4 5 6 
#
# 1 0.032196 0.002585 -0.006999 -0.003858 0.003047 0.011020
# 2 0.002585 0.014839 -0.005329 -0.002027 -0.001257 0.006996
# 3 -0.006999 -0.005329 0.014438 0.008133 0.005332 -0.008737
# 4 -0.003858 -0.002027 0.008133 0.030121 0.004137 -0.004487
# 5 0.003047 -0.001257 0.005332 0.004137 0.028421 -0.010456
# 6 0.011020 0.006996 -0.008737 -0.004487 -0.010456 0.037854
#
#
# Mechanical properties :
#
#
# Convention : Reuss Voigt Hill
#
# Bulk Modulus (GPa) = 23.81712 37.16684 30.49198
# Shear Modulus (GPa) = 26.12995 36.32609 31.22802
#
# Velocity S-wave (km/s) = 3.30570 3.89766 3.61382
# Velocity P-wave (km/s) = 4.95285 5.98323 5.49226
#
# Compressibility (1/GPa) = 0.04198661
#
# Stress axis : x y z
#
# Youngs Moduli (GPa) = 31.05965 67.39118 69.26095
#
# Poissons Ratio (x) = -0.17422 0.48476
# Poissons Ratio (y) = -0.08030 0.36912
# Poissons Ratio (z) = 0.21739 0.35916
#
# Static dielectric constant tensor:
#      x y z
#    x 4.595170 -0.036050 0.009700 
#    y -0.036050 4.221530 0.089080 
#    z 0.009700 0.089080 4.937310 
# 
# 
# High freq. dielectric constant tensor:
#      x y z
#    x 1.948390 0.005420 0.003620 
#    y 0.005420 1.943130 0.010250 
#    z 0.003620 0.010250 1.979490 
# 
# From -- ./inp_files/159913.got.cif
#   From: 2010.06.25/outbox.cif.g09.slc.cpg/sg2_80_cif.got.tgz:159913.got - 2010.06.27 13:26:56.
