data_PCOD8023182
_publ_section_title
;
Structure prediction by ZEFSAII (Michael W. Deem and Ramdas Pophale) SiO2 
 PCOD8023182
Probable space group: P -1
;
_chemical_formula_sum "Si O2"
_cell_formula_units_Z 16
_cell_length_a 5.195112
_cell_length_b 30.405442
_cell_length_c 23.977555
_cell_angle_alpha 9.842450
_cell_angle_beta 92.201639
_cell_angle_gamma 92.472783
_cell_volume 646.642535
_symmetry_space_group_name_H-M "P -1"
_symmetry_group_IT_number 2
_symmetry_cell_setting 'triclinic'
loop_
_space_group_symop_operation_xyz
x,y,z
-x,-y,-z
loop_
_atom_site_type_symbol
_atom_site_label
_atom_site_fract_x
_atom_site_fract_y
_atom_site_fract_z
Si Si1 0.477893 0.372668 0.451919
Si Si2 0.886439 0.035856 0.638139
Si Si3 0.181320 0.444175 0.199959
Si Si4 0.233193 0.789674 0.866415
Si Si5 0.551694 0.258302 0.264644
Si Si6 0.204133 0.253017 0.894143
Si Si7 0.321390 0.996686 0.830867
Si Si8 0.991323 0.293223 0.616878
O O1 0.370151 0.111786 0.748048
O O2 0.276869 0.400573 0.467143
O O3 0.775536 0.333217 0.517776
O O4 0.470919 0.615174 0.106491
O O5 0.966753 0.310268 0.325147
O O6 0.741096 0.087394 0.515413
O O7 0.111080 0.857869 0.839927
O O8 0.738889 0.857567 0.904989
O O9 0.360553 0.216686 0.508394
O O10 0.071062 0.610677 0.043484
O O11 0.349538 0.649697 0.909248
O O12 0.309711 0.062208 0.496820
O O13 0.500000 0.500000 0.000000
O O14 0.110090 0.544989 0.532767
O O15 0.976775 0.093560 0.060665
O O16 0.474498 0.229124 0.894136
O O17 0.000000 0.000000 0.000000
#
# Coordination Sequence:
#
# PCOD8023182 Si02
#       8
#     2   2   2   2   2   2   2   2
#     4  11  24  46  69  98 137 171 225 270 331 411
#     4  11  23  41  64  87 127 175 224 275 336 395
#     4  10  23  41  60  93 130 165 231 279 331 385
#     4  11  24  42  64  92 123 180 219 275 334 395
#     4  12  23  39  61  88 130 173 222 282 338 384
#     4  11  22  42  69  95 131 172 228 268 333 401
#     4  10  23  43  69  96 128 183 222 276 326 394
#     4  12  25  43  71 104 136 172 214 272 334 405
#
# _framework density 24.743189000000001
#
# number of rings (size 3 to 8) (size 9 to 14) (size 15 to 20)
#    0.000    1.000    2.500    4.125    3.500    0.500 
#    6.750    3.750    0.000    0.000    0.000    0.000 
#    0.000    0.000    0.000    0.000    0.000    0.000 
#
# Total GULP energy -198257.913774 kJ/mol
# GULP energy per Si atom -12391.119611 kJ/mol
# Density = 2.468687 g / cm^3
# Si number density = 24.743189 Si / 1000 Ang^3
#
#
#
# Elastic Constant Matrix: (Units=GPa)
#
#
# Indices 1 2 3 4 5 6 
#
# 1 60.8012 -0.8120 -4.0846 -0.2371 11.6146 2.8997
# 2 -0.8120 62.9070 8.0924 -35.2335 4.5980 8.5624
# 3 -4.0846 8.0924 111.9561 -17.6758 4.9359 -2.2746
# 4 -0.2371 -35.2335 -17.6758 40.2679 -4.7698 -0.8809
# 5 11.6146 4.5980 4.9359 -4.7698 25.1257 0.0795
# 6 2.8997 8.5624 -2.2746 -0.8809 0.0795 28.4601
#
#
#
# Elastic Compliance Matrix: (Units=1/GPa)
#
#
# Indices 1 2 3 4 5 6 
#
# 1 0.018321 0.001463 0.001024 0.000749 -0.008789 -0.002177
# 2 0.001463 0.034011 0.002271 0.030378 -0.001550 -0.009255
# 3 0.001024 0.002271 0.009849 0.006124 -0.001662 0.000194
# 4 0.000749 0.030378 0.006124 0.054335 0.003229 -0.007053
# 5 -0.008789 -0.001550 -0.001662 0.003229 0.045082 0.001203
# 6 -0.002177 -0.009255 0.000194 -0.007053 0.001203 0.037937
#
#
# Mechanical properties :
#
#
# Convention : Reuss Voigt Hill
#
# Bulk Modulus (GPa) = 13.94744 26.89511 20.42128
# Shear Modulus (GPa) = 23.37354 34.26865 28.82109
#
# Velocity S-wave (km/s) = 3.07684 3.72556 3.41663
# Velocity P-wave (km/s) = 4.27454 5.42215 4.88218
#
# Compressibility (1/GPa) = 0.07169774
#
# Stress axis : x y z
#
# Youngs Moduli (GPa) = 54.58202 29.40261 101.52940
#
# Poissons Ratio (x) = -0.04301 -0.10398
# Poissons Ratio (y) = -0.07984 -0.23062
# Poissons Ratio (z) = -0.05590 -0.06679
#
# Static dielectric constant tensor:
#      x y z
#    x 3.845500 -0.555250 -0.104210 
#    y -0.555250 3.272610 -0.740710 
#    z -0.104210 -0.740710 4.494590 
# 
# 
# High freq. dielectric constant tensor:
#      x y z
#    x 1.959330 0.005670 0.006810 
#    y 0.005670 1.980300 -0.022950 
#    z 0.006810 -0.022950 1.998530 
# 
# From -- ./inp_files/56410.got.cif
#   From: 2010.06.25/outbox.cif.g09.slc.cpg/sg2_29_cif.got.tgz:56410.got - 2010.06.27 13:26:56.
