data_PCOD8023249
_publ_section_title
;
Structure prediction by ZEFSAII (Michael W. Deem and Ramdas Pophale) SiO2 
 PCOD8023249
Probable space group: P -1
;
_chemical_formula_sum "Si O2"
_cell_formula_units_Z 12
_cell_length_a 5.485511
_cell_length_b 4.898879
_cell_length_c 20.394649
_cell_angle_alpha 119.083234
_cell_angle_beta 111.726329
_cell_angle_gamma 87.221969
_cell_volume 439.062874
_symmetry_space_group_name_H-M "P -1"
_symmetry_group_IT_number 2
_symmetry_cell_setting 'triclinic'
loop_
_space_group_symop_operation_xyz
x,y,z
-x,-y,-z
loop_
_atom_site_type_symbol
_atom_site_label
_atom_site_fract_x
_atom_site_fract_y
_atom_site_fract_z
Si Si1 0.266112 0.611649 0.903841
Si Si2 0.718987 0.836964 0.319220
Si Si3 0.392303 0.878076 0.078838
Si Si4 0.920540 0.638689 0.657455
Si Si5 0.774945 0.089074 0.795478
Si Si6 0.189273 0.766042 0.512731
O O1 0.518916 0.444417 0.925290
O O2 0.018471 0.353258 0.828179
O O3 0.348909 0.857133 0.880931
O O4 0.209303 0.804497 0.986908
O O5 0.820091 0.516693 0.314897
O O6 0.488547 0.766249 0.233745
O O7 0.975590 0.052097 0.338742
O O8 0.603377 0.030211 0.391806
O O9 0.221046 0.987161 0.134954
O O10 0.707727 0.395866 0.562232
O O11 0.777226 0.751041 0.720532
O O12 0.000000 0.500000 0.500000
O O13 0.000000 0.000000 0.500000
#
# Coordination Sequence:
#
# PCOD8023249 Si02
#       6
#     2   2   2   2   2   2
#     4  10  24  46  69  96 133 177 224 273 333 410
#     4  10  23  41  63  97 136 176 224 276 330 395
#     4  10  24  46  69  96 133 177 224 273 333 410
#     4  10  23  41  63  97 136 176 224 276 330 395
#     4  12  25  41  72 104 136 176 224 283 347 394
#     4   8  16  37  62  85 129 180 219 267 324 389
#
# _framework density 27.330942
#
# number of rings (size 3 to 8) (size 9 to 14) (size 15 to 20)
#    0.000    2.000    0.000    1.500    0.000   11.333 
#    0.000    5.000    0.000   15.000    0.000    3.500 
#    0.000    0.000    0.000    0.000    0.000    0.000 
#
# Total GULP energy -148728.402539 kJ/mol
# GULP energy per Si atom -12394.033545 kJ/mol
# Density = 2.726874 g / cm^3
# Si number density = 27.330942 Si / 1000 Ang^3
#
#
#
# Elastic Constant Matrix: (Units=GPa)
#
#
# Indices 1 2 3 4 5 6 
#
# 1 38.3443 3.4543 27.1511 5.3391 -23.1210 6.4454
# 2 3.4543 113.4012 23.8683 1.9518 -17.1172 4.3811
# 3 27.1511 23.8683 176.9020 0.9615 -39.0275 5.5638
# 4 5.3391 1.9518 0.9615 25.0135 0.5578 -1.6537
# 5 -23.1210 -17.1172 -39.0275 0.5578 55.4645 -0.2558
# 6 6.4454 4.3811 5.5638 -1.6537 -0.2558 15.9183
#
#
#
# Elastic Compliance Matrix: (Units=1/GPa)
#
#
# Indices 1 2 3 4 5 6 
#
# 1 0.042114 0.002626 -0.002539 -0.010639 0.016605 -0.017726
# 2 0.002626 0.009599 -0.000809 -0.001590 0.003487 -0.003531
# 3 -0.002539 -0.000809 0.006979 0.000183 0.003595 -0.001112
# 4 -0.010639 -0.001590 0.000183 0.043082 -0.005188 0.009074
# 5 0.016605 0.003487 0.003595 -0.005188 0.028568 -0.009020
# 6 -0.017726 -0.003531 -0.001112 0.009074 -0.009020 0.072156
#
#
# Mechanical properties :
#
#
# Convention : Reuss Voigt Hill
#
# Bulk Modulus (GPa) = 17.46817 48.62165 33.04491
# Shear Modulus (GPa) = 22.41895 37.55752 29.98823
#
# Velocity S-wave (km/s) = 2.86716 3.71101 3.31603
# Velocity P-wave (km/s) = 4.16725 6.01587 5.17478
#
# Compressibility (1/GPa) = 0.05724697
#
# Stress axis : x y z
#
# Youngs Moduli (GPa) = 23.74485 104.18032 143.28798
#
# Poissons Ratio (x) = -0.27358 0.36388
# Poissons Ratio (y) = -0.06235 0.11593
# Poissons Ratio (z) = 0.06030 0.08429
#
# Static dielectric constant tensor:
#      x y z
#    x 2.966550 -0.507680 -5.487140 
#    y -0.507680 4.759110 -1.635610 
#    z -5.487140 -1.635610 -13.926730 
# 
# 
# High freq. dielectric constant tensor:
#      x y z
#    x 2.051570 -0.009120 -0.020830 
#    y -0.009120 2.110240 -0.001580 
#    z -0.020830 -0.001580 2.132870 
# 
# From -- ./inp_files/101984.got.cif
#   From: 2010.06.25/outbox.cif.g09.slc.cpg/sg2_51_cif.got.tgz:101984.got - 2010.06.27 13:26:56.
