data_PCOD8023957
_publ_section_title
;
Structure prediction by ZEFSAII (Michael W. Deem and Ramdas Pophale) SiO2 
 PCOD8023957
Probable space group: P -1
;
_chemical_formula_sum "Si O2"
_cell_formula_units_Z 16
_cell_length_a 10.960829
_cell_length_b 12.486331
_cell_length_c 5.420897
_cell_angle_alpha 77.462675
_cell_angle_beta 119.641492
_cell_angle_gamma 99.553600
_cell_volume 627.939105
_symmetry_space_group_name_H-M "P -1"
_symmetry_group_IT_number 2
_symmetry_cell_setting 'triclinic'
loop_
_space_group_symop_operation_xyz
x,y,z
-x,-y,-z
loop_
_atom_site_type_symbol
_atom_site_label
_atom_site_fract_x
_atom_site_fract_y
_atom_site_fract_z
Si Si1 0.004628 0.792235 0.443964
Si Si2 0.348985 0.365745 0.291190
Si Si3 0.754330 0.069061 0.614385
Si Si4 0.848979 0.365748 0.041033
Si Si5 0.438513 0.591031 0.116017
Si Si6 0.504622 0.792238 0.773048
Si Si7 0.938510 0.591034 0.169966
Si Si8 0.254325 0.069065 0.825210
O O1 0.100917 0.854038 0.298517
O O2 0.111374 0.757116 0.783258
O O3 0.930740 0.675817 0.343217
O O4 0.884453 0.865076 0.390567
O O5 0.403309 0.459998 0.088540
O O6 0.413100 0.397192 0.603610
O O7 0.388638 0.242885 0.317647
O O8 0.182554 0.370027 0.157011
O O9 0.615544 0.134912 0.486739
O O10 0.732943 0.005259 0.365565
O O11 0.767069 0.994737 0.904953
O O12 0.903299 0.460003 0.258068
O O13 0.682549 0.370036 0.838052
O O14 0.913104 0.397196 0.825409
O O15 0.430727 0.675822 0.842432
O O16 0.600922 0.854037 0.049277
#
# Coordination Sequence:
#
# PCOD8023957 Si02
#       8
#     2   2   2   2   2   2   2   2
#     4  12  25  44  74  98 144 192 239 298 372 430
#     4  10  23  42  68 106 145 185 235 290 359 443
#     4  12  30  50  73 106 141 190 252 314 360 424
#     4  10  23  42  68 106 145 185 235 290 359 443
#     4  10  23  42  68 106 145 185 235 290 359 443
#     4  12  25  44  74  98 144 192 239 298 372 430
#     4  10  23  42  68 106 145 185 235 290 359 443
#     4  12  30  50  73 106 141 190 252 314 360 424
#
# _framework density 25.480174999999999
#
# number of rings (size 3 to 8) (size 9 to 14) (size 15 to 20)
#    0.000    1.000    2.500    2.250   10.500    0.000 
#    0.000    0.000    0.000    0.000    0.000    0.000 
#    0.000    0.000    0.000    0.000    0.000    0.000 
#
# Total GULP energy -198314.400579 kJ/mol
# GULP energy per Si atom -12394.650036 kJ/mol
# Density = 2.542218 g / cm^3
# Si number density = 25.480175 Si / 1000 Ang^3
#
#
#
# Elastic Constant Matrix: (Units=GPa)
#
#
# Indices 1 2 3 4 5 6 
#
# 1 80.3665 33.5444 2.7974 -14.7746 22.6977 -14.1799
# 2 33.5444 97.2646 40.3341 -15.0896 2.0909 -30.0989
# 3 2.7974 40.3341 61.3866 -13.8175 3.1580 -8.4602
# 4 -14.7746 -15.0896 -13.8175 41.9158 -5.0126 4.4501
# 5 22.6977 2.0909 3.1580 -5.0126 48.1205 -7.1416
# 6 -14.1799 -30.0989 -8.4602 4.4501 -7.1416 39.7579
#
#
#
# Elastic Compliance Matrix: (Units=1/GPa)
#
#
# Indices 1 2 3 4 5 6 
#
# 1 0.018838 -0.008112 0.005933 0.004685 -0.008465 -0.000205
# 2 -0.008112 0.021948 -0.012621 0.000267 0.005509 0.011997
# 3 0.005933 -0.012621 0.025350 0.005807 -0.003810 -0.003379
# 4 0.004685 0.000267 0.005807 0.027544 0.000278 0.000075
# 5 -0.008465 0.005509 -0.003810 0.000278 0.025540 0.004897
# 6 -0.000205 0.011997 -0.003379 0.000075 0.004897 0.034314
#
#
# Mechanical properties :
#
#
# Convention : Reuss Voigt Hill
#
# Bulk Modulus (GPa) = 27.36977 43.59661 35.48319
# Shear Modulus (GPa) = 25.59986 36.78163 31.19074
#
# Velocity S-wave (km/s) = 3.17313 3.80352 3.50254
# Velocity P-wave (km/s) = 4.91833 6.03623 5.50573
#
# Compressibility (1/GPa) = 0.03653666
#
# Stress axis : x y z
#
# Youngs Moduli (GPa) = 53.08352 45.56215 39.44747
#
# Poissons Ratio (x) = 0.36959 -0.23405
# Poissons Ratio (y) = 0.43060 0.49788
# Poissons Ratio (z) = -0.31496 0.57506
#
# Static dielectric constant tensor:
#      x y z
#    x 4.572650 -0.028230 0.358390 
#    y -0.028230 4.982340 -0.163860 
#    z 0.358390 -0.163860 4.197790 
# 
# 
# High freq. dielectric constant tensor:
#      x y z
#    x 2.023500 -0.009190 0.022340 
#    y -0.009190 2.031580 -0.011750 
#    z 0.022340 -0.011750 2.002190 
# 
# From -- ./inp_files/70180.got.cif
#   From: 2010.06.25/outbox.cif.g09.slc.cpg/sg2_36_cif.got.tgz:70180.got - 2010.06.27 13:26:56.
