data_PCOD8023435
_publ_section_title
;
Structure prediction by ZEFSAII (Michael W. Deem and Ramdas Pophale) SiO2 
 PCOD8023435
Probable space group: P -1
;
_chemical_formula_sum "Si O2"
_cell_formula_units_Z 16
_cell_length_a 8.718465
_cell_length_b 12.587926
_cell_length_c 9.064440
_cell_angle_alpha 48.733164
_cell_angle_beta 74.469236
_cell_angle_gamma 77.073400
_cell_volume 718.908961
_symmetry_space_group_name_H-M "P -1"
_symmetry_group_IT_number 2
_symmetry_cell_setting 'triclinic'
loop_
_space_group_symop_operation_xyz
x,y,z
-x,-y,-z
loop_
_atom_site_type_symbol
_atom_site_label
_atom_site_fract_x
_atom_site_fract_y
_atom_site_fract_z
Si Si1 0.936252 0.089297 0.129981
Si Si2 0.164882 0.542797 0.481131
Si Si3 0.580697 0.580209 0.687774
Si Si4 0.799229 0.714373 0.092825
Si Si5 0.600792 0.064768 0.287322
Si Si6 0.607991 0.660567 0.923527
Si Si7 0.191647 0.864105 0.203292
Si Si8 0.538345 0.845910 0.254311
O O1 0.784621 0.069773 0.293433
O O2 0.848660 0.089576 0.994564
O O3 0.068380 0.961444 0.245239
O O4 0.020615 0.236476 0.991664
O O5 0.294226 0.523683 0.335599
O O6 0.211130 0.443753 0.698724
O O7 0.155516 0.702912 0.392438
O O8 0.000000 0.500000 0.500000
O O9 0.436556 0.490325 0.861874
O O10 0.512174 0.705342 0.484662
O O11 0.662102 0.645805 0.752114
O O12 0.752257 0.715426 0.932097
O O13 0.681833 0.819451 0.124238
O O14 0.500000 0.000000 0.500000
O O15 0.586544 0.971842 0.229979
O O16 0.541969 0.226690 0.122833
O O17 0.374847 0.891323 0.169103
#
# Coordination Sequence:
#
# PCOD8023435 Si02
#       8
#     2   2   2   2   2   2   2   2
#     4  11  24  40  63  99 131 162 215 269 321 372
#     4  11  22  39  65  97 132 166 205 263 328 368
#     4  10  23  41  67  94 130 170 214 262 315 387
#     4  11  23  41  69 100 125 167 217 268 316 384
#     4  12  25  43  66  89 131 177 209 261 325 382
#     4  11  23  43  68  92 128 171 218 260 317 378
#     4  11  22  39  67  99 129 164 211 274 311 377
#     4  11  22  42  68  98 127 167 219 262 319 381
#
# _framework density 22.255946999999999
#
# number of rings (size 3 to 8) (size 9 to 14) (size 15 to 20)
#    0.000    1.000    2.500    5.250    1.750    3.500 
#    0.000    4.375    0.000    0.000    0.000    0.000 
#    0.000    0.000    0.000    0.000    0.000    0.000 
#
# Total GULP energy -198422.124243 kJ/mol
# GULP energy per Si atom -12401.382765 kJ/mol
# Density = 2.220529 g / cm^3
# Si number density = 22.255947 Si / 1000 Ang^3
#
#
#
# Elastic Constant Matrix: (Units=GPa)
#
#
# Indices 1 2 3 4 5 6 
#
# 1 144.7590 19.4542 42.0139 6.9958 -9.9370 6.9681
# 2 19.4542 74.2754 36.2037 -13.7090 2.7017 11.6215
# 3 42.0139 36.2037 86.5435 -1.2315 -2.4432 -6.4784
# 4 6.9958 -13.7090 -1.2315 33.8757 3.7108 8.1041
# 5 -9.9370 2.7017 -2.4432 3.7108 37.0116 -2.3695
# 6 6.9681 11.6215 -6.4784 8.1041 -2.3695 33.0163
#
#
#
# Elastic Compliance Matrix: (Units=1/GPa)
#
#
# Indices 1 2 3 4 5 6 
#
# 1 0.008456 -0.000357 -0.004062 -0.001823 0.002092 -0.001859
# 2 -0.000357 0.023462 -0.010622 0.012997 -0.004696 -0.013795
# 3 -0.004062 -0.010622 0.018681 -0.005333 0.002075 0.009720
# 4 -0.001823 0.012997 -0.005333 0.039379 -0.006723 -0.015385
# 5 0.002092 -0.004696 0.002075 -0.006723 0.029077 0.005356
# 6 -0.001859 -0.013795 0.009720 -0.015385 0.005356 0.041604
#
#
# Mechanical properties :
#
#
# Convention : Reuss Voigt Hill
#
# Bulk Modulus (GPa) = 48.73856 55.65794 52.19825
# Shear Modulus (GPa) = 25.30629 34.64111 29.97370
#
# Velocity S-wave (km/s) = 3.37569 3.94951 3.67382
# Velocity P-wave (km/s) = 6.09429 6.77205 6.44209
#
# Compressibility (1/GPa) = 0.02051763
#
# Stress axis : x y z
#
# Youngs Moduli (GPa) = 118.25880 42.62144 53.53133
#
# Poissons Ratio (x) = 0.01520 0.21744
# Poissons Ratio (y) = 0.04218 0.56862
# Poissons Ratio (z) = 0.48036 0.45273
#
# Static dielectric constant tensor:
#      x y z
#    x 4.125150 -0.085620 0.054360 
#    y -0.085620 4.087740 -0.188630 
#    z 0.054360 -0.188630 4.092130 
# 
# 
# High freq. dielectric constant tensor:
#      x y z
#    x 1.877000 0.006190 0.000920 
#    y 0.006190 1.873620 -0.021690 
#    z 0.000920 -0.021690 1.881610 
# 
# From -- ./inp_files/184078.got.cif
#   From: 2010.06.25/outbox.cif.g09.slc.cpg/sg2_93_cif.got.tgz:184078.got - 2010.06.27 13:26:56.
