data_PCOD8023242
_publ_section_title
;
Structure prediction by ZEFSAII (Michael W. Deem and Ramdas Pophale) SiO2 
 PCOD8023242
Probable space group: P -1
;
_chemical_formula_sum "Si O2"
_cell_formula_units_Z 14
_cell_length_a 5.214307
_cell_length_b 10.226601
_cell_length_c 19.937833
_cell_angle_alpha 37.326558
_cell_angle_beta 93.807428
_cell_angle_gamma 94.953866
_cell_volume 642.252681
_symmetry_space_group_name_H-M "P -1"
_symmetry_group_IT_number 2
_symmetry_cell_setting 'triclinic'
loop_
_space_group_symop_operation_xyz
x,y,z
-x,-y,-z
loop_
_atom_site_type_symbol
_atom_site_label
_atom_site_fract_x
_atom_site_fract_y
_atom_site_fract_z
Si Si1 0.853124 0.810304 0.020778
Si Si2 0.989181 0.068451 0.675036
Si Si3 0.647973 0.338936 0.879264
Si Si4 0.961927 0.195198 0.770660
Si Si5 0.517688 0.554698 0.303804
Si Si6 0.020056 0.438263 0.102903
Si Si7 0.514495 0.709673 0.462457
O O1 0.585847 0.841605 0.040753
O O2 0.104472 0.806987 0.077347
O O3 0.808167 0.567043 0.087544
O O4 0.928627 0.962500 0.898285
O O5 0.703627 0.125874 0.625416
O O6 0.053176 0.169616 0.706805
O O7 0.204005 0.171135 0.586598
O O8 0.015889 0.813889 0.781920
O O9 0.593205 0.498493 0.751183
O O10 0.709143 0.472204 0.894403
O O11 0.195716 0.341286 0.747001
O O12 0.681534 0.290762 0.727677
O O13 0.528610 0.348213 0.436158
O O14 0.000000 0.500000 0.000000
O O15 0.500000 0.500000 0.500000
#
# Coordination Sequence:
#
# PCOD8023242 Si02
#       7
#     2   2   2   2   2   2   2
#     4  10  23  41  63  95 129 162 208 249 318 374
#     4  12  23  41  67  98 123 163 213 259 316 365
#     4  10  24  43  61  91 133 170 201 259 310 369
#     4  12  22  38  67  98 122 171 202 261 319 374
#     4  12  25  41  64  90 134 162 216 257 313 369
#     4  10  24  44  67  94 129 163 208 256 310 380
#     4  12  24  42  64  94 127 165 211 263 312 362
#
# _framework density 21.798272999999998
#
# number of rings (size 3 to 8) (size 9 to 14) (size 15 to 20)
#    0.857    0.000    4.286    3.000    2.000    5.143 
#    0.000    1.429    0.000    0.000    0.000    0.000 
#    0.000    0.000    0.000    0.000    0.000    0.000 
#
# Total GULP energy -173490.822062 kJ/mol
# GULP energy per Si atom -12392.201576 kJ/mol
# Density = 2.174866 g / cm^3
# Si number density = 21.798273 Si / 1000 Ang^3
#
#
#
# Elastic Constant Matrix: (Units=GPa)
#
#
# Indices 1 2 3 4 5 6 
#
# 1 134.6228 30.1560 39.6960 -3.9666 -13.9185 7.0718
# 2 30.1560 46.1886 34.9893 19.6278 -0.6779 12.2706
# 3 39.6960 34.9893 141.7018 14.6307 -3.2803 6.2593
# 4 -3.9666 19.6278 14.6307 42.6704 -1.0870 8.1290
# 5 -13.9185 -0.6779 -3.2803 -1.0870 37.2994 0.4059
# 6 7.0718 12.2706 6.2593 8.1290 0.4059 22.3950
#
#
#
# Elastic Compliance Matrix: (Units=1/GPa)
#
#
# Indices 1 2 3 4 5 6 
#
# 1 0.010065 -0.007448 -0.001390 0.005047 0.003652 -0.000607
# 2 -0.007448 0.040753 -0.005924 -0.015039 -0.002858 -0.012811
# 3 -0.001390 -0.005924 0.008924 -0.000739 0.000121 0.001456
# 4 0.005047 -0.015039 -0.000739 0.032060 0.002532 -0.004830
# 5 0.003652 -0.002858 0.000121 0.002532 0.028217 -0.001051
# 6 -0.000607 -0.012811 0.001456 -0.004830 -0.001051 0.053229
#
#
# Mechanical properties :
#
#
# Convention : Reuss Voigt Hill
#
# Bulk Modulus (GPa) = 33.09315 59.13288 46.11302
# Shear Modulus (GPa) = 23.49145 34.98440 29.23792
#
# Velocity S-wave (km/s) = 3.28636 4.01049 3.66634
# Velocity P-wave (km/s) = 5.44194 6.97363 6.25485
#
# Compressibility (1/GPa) = 0.03021773
#
# Stress axis : x y z
#
# Youngs Moduli (GPa) = 99.35891 24.53825 112.05777
#
# Poissons Ratio (x) = 0.18275 0.15578
# Poissons Ratio (y) = 0.73999 0.66381
# Poissons Ratio (z) = 0.13813 0.14536
#
# Static dielectric constant tensor:
#      x y z
#    x 4.094630 -0.004370 0.135210 
#    y -0.004370 3.850270 0.162670 
#    z 0.135210 0.162670 4.070550 
# 
# 
# High freq. dielectric constant tensor:
#      x y z
#    x 1.873850 0.002700 0.004720 
#    y 0.002700 1.836630 0.017540 
#    z 0.004720 0.017540 1.863590 
# 
# From -- ./inp_files/82560.got.cif
#   From: 2010.06.25/outbox.cif.g09.slc.cpg/sg2_42_cif.got.tgz:82560.got - 2010.06.27 13:26:56.
