data_PCOD8023972
_publ_section_title
;
Structure prediction by ZEFSAII (Michael W. Deem and Ramdas Pophale) SiO2 
 PCOD8023972
Probable space group: P -1
;
_chemical_formula_sum "Si O2"
_cell_formula_units_Z 16
_cell_length_a 21.503416
_cell_length_b 9.739461
_cell_length_c 5.331077
_cell_angle_alpha 77.655298
_cell_angle_beta 49.127088
_cell_angle_gamma 57.251755
_cell_volume 692.596453
_symmetry_space_group_name_H-M "P -1"
_symmetry_group_IT_number 2
_symmetry_cell_setting 'triclinic'
loop_
_space_group_symop_operation_xyz
x,y,z
-x,-y,-z
loop_
_atom_site_type_symbol
_atom_site_label
_atom_site_fract_x
_atom_site_fract_y
_atom_site_fract_z
Si Si1 0.085617 0.815115 0.281016
Si Si2 0.582742 0.808536 0.342617
Si Si3 0.761902 0.367603 0.688612
Si Si4 0.961126 0.692883 0.488732
Si Si5 0.581518 0.500962 0.448476
Si Si6 0.300521 0.298228 0.438786
Si Si7 0.266521 0.808195 0.558840
Si Si8 0.837482 0.818961 0.256698
O O1 0.128761 0.708570 0.464861
O O2 0.049901 0.723270 0.227914
O O3 0.177476 0.813373 0.929679
O O4 0.000000 0.000000 0.500000
O O5 0.540415 0.691017 0.578122
O O6 0.658271 0.787850 0.367723
O O7 0.500000 0.000000 0.500000
O O8 0.623842 0.778223 0.962727
O O9 0.741116 0.505697 0.480670
O O10 0.748088 0.221715 0.680107
O O11 0.678322 0.467039 0.073377
O O12 0.901327 0.762427 0.362685
O O13 0.000000 0.500000 0.500000
O O14 0.900435 0.797361 0.853330
O O15 0.500000 0.500000 0.500000
O O16 0.623043 0.347874 0.599106
O O17 0.207401 0.291878 0.614695
O O18 0.253256 0.986805 0.556881
#
# Coordination Sequence:
#
# PCOD8023972 Si02
#       8
#     2   2   2   2   2   2   2   2
#     4  11  23  42  67  95 138 177 225 281 332 404
#     4  11  24  45  71 102 132 180 228 274 347 405
#     4  10  23  42  68  95 132 182 221 272 346 403
#     4  12  27  45  67 103 134 180 234 281 334 398
#     4  10  24  44  68 102 136 173 224 283 337 407
#     4  11  24  46  67  96 137 180 223 279 336 407
#     4  11  24  42  67  98 135 179 224 275 348 403
#     4  12  27  43  68 101 138 178 231 280 339 394
#
# _framework density 23.101476000000002
#
# number of rings (size 3 to 8) (size 9 to 14) (size 15 to 20)
#    0.000    1.000    2.500    3.000    7.000    2.500 
#    0.000    0.000    0.000    0.000    0.000    0.000 
#    0.000    0.000    0.000    0.000    0.000    0.000 
#
# Total GULP energy -198260.205667 kJ/mol
# GULP energy per Si atom -12391.262854 kJ/mol
# Density = 2.304890 g / cm^3
# Si number density = 23.101476 Si / 1000 Ang^3
#
#
#
# Elastic Constant Matrix: (Units=GPa)
#
#
# Indices 1 2 3 4 5 6 
#
# 1 169.7327 45.0989 14.1453 4.5713 1.5209 -12.4512
# 2 45.0989 131.5504 10.5370 18.6792 -0.7564 -8.0088
# 3 14.1453 10.5370 35.6694 4.3730 11.1614 -5.4264
# 4 4.5713 18.6792 4.3730 28.6454 1.3512 -1.0163
# 5 1.5209 -0.7564 11.1614 1.3512 39.9509 -1.4439
# 6 -12.4512 -8.0088 -5.4264 -1.0163 -1.4439 45.1496
#
#
#
# Elastic Compliance Matrix: (Units=1/GPa)
#
#
# Indices 1 2 3 4 5 6 
#
# 1 0.006702 -0.002155 -0.002003 0.000672 0.000286 0.001250
# 2 -0.002155 0.009286 -0.001358 -0.005516 0.000853 0.000793
# 3 -0.002003 -0.001358 0.032849 -0.003290 -0.008914 0.002796
# 4 0.000672 -0.005516 -0.003290 0.038915 -0.000539 -0.000330
# 5 0.000286 0.000853 -0.008914 -0.000539 0.027546 0.000027
# 6 0.001250 0.000793 0.002796 -0.000330 0.000027 0.022963
#
#
# Mechanical properties :
#
#
# Convention : Reuss Voigt Hill
#
# Bulk Modulus (GPa) = 26.45241 52.94608 39.69925
# Shear Modulus (GPa) = 30.88426 40.56061 35.72244
#
# Velocity S-wave (km/s) = 3.66032 4.19472 3.93660
# Velocity P-wave (km/s) = 5.41658 6.81393 6.15504
#
# Compressibility (1/GPa) = 0.03780373
#
# Stress axis : x y z
#
# Youngs Moduli (GPa) = 149.20630 107.69372 30.44240
#
# Poissons Ratio (x) = 0.23208 0.06098
# Poissons Ratio (y) = 0.32153 0.04135
# Poissons Ratio (z) = 0.29888 0.14629
#
# Static dielectric constant tensor:
#      x y z
#    x 3.384960 -0.398660 -0.296110 
#    y -0.398660 4.611880 -0.041430 
#    z -0.296110 -0.041430 3.969860 
# 
# 
# High freq. dielectric constant tensor:
#      x y z
#    x 1.925480 0.000320 0.007190 
#    y 0.000320 1.932080 0.008960 
#    z 0.007190 0.008960 1.895640 
# 
# From -- ./inp_files/53945.got.cif
#   From: 2010.06.25/outbox.cif.g09.slc.cpg/sg2_27_cif.got.tgz:53945.got - 2010.06.27 13:26:56.
