data_PCOD8023819
_publ_section_title
;
Structure prediction by ZEFSAII (Michael W. Deem and Ramdas Pophale) SiO2 
 PCOD8023819
Probable space group: P -1
;
_chemical_formula_sum "Si O2"
_cell_formula_units_Z 16
_cell_length_a 6.197473
_cell_length_b 8.065222
_cell_length_c 19.972217
_cell_angle_alpha 53.992189
_cell_angle_beta 69.035440
_cell_angle_gamma 59.864137
_cell_volume 695.598530
_symmetry_space_group_name_H-M "P -1"
_symmetry_group_IT_number 2
_symmetry_cell_setting 'triclinic'
loop_
_space_group_symop_operation_xyz
x,y,z
-x,-y,-z
loop_
_atom_site_type_symbol
_atom_site_label
_atom_site_fract_x
_atom_site_fract_y
_atom_site_fract_z
Si Si1 0.773928 0.000132 0.603755
Si Si2 0.051541 0.311566 0.707647
Si Si3 0.094157 0.221142 0.987657
Si Si4 0.772024 0.962797 0.119268
Si Si5 0.469598 0.323370 0.333207
Si Si6 0.981898 0.095264 0.264966
Si Si7 0.724228 0.340770 0.428619
Si Si8 0.751607 0.697098 0.910428
O O1 0.677544 0.257649 0.527454
O O2 0.583507 0.898763 0.618959
O O3 0.792956 0.987038 0.685612
O O4 0.053345 0.866237 0.579511
O O5 0.180435 0.221181 0.785591
O O6 0.203806 0.445218 0.624419
O O7 0.763798 0.467164 0.719163
O O8 0.076438 0.115066 0.701112
O O9 0.849207 0.437957 0.942072
O O10 0.271312 0.139738 0.922153
O O11 0.247575 0.282471 0.013944
O O12 0.011135 0.027547 0.069589
O O13 0.529130 0.179251 0.114536
O O14 0.727864 0.289208 0.274443
O O15 0.489673 0.377628 0.396654
O O16 0.068767 0.193774 0.167946
#
# Coordination Sequence:
#
# PCOD8023819 Si02
#       8
#     2   2   2   2   2   2   2   2
#     4   9  20  40  65  94 127 170 218 263 317 377
#     4  11  25  40  64  98 131 170 212 264 318 381
#     4  10  24  44  64  98 120 168 212 260 326 372
#     4  11  24  43  67  93 130 164 212 265 314 382
#     4  10  23  42  66  92 128 174 212 266 318 374
#     4  11  25  40  64  98 131 170 212 264 318 381
#     4   9  20  40  65  94 127 170 218 263 317 377
#     4  11  24  43  67  93 130 164 212 265 314 382
#
# _framework density 23.001776
#
# number of rings (size 3 to 8) (size 9 to 14) (size 15 to 20)
#    0.000    1.750    1.250    1.125    8.750    1.500 
#    9.000    1.250    0.000    0.000    0.000    0.000 
#    0.000    0.000    0.000    0.000    0.000    0.000 
#
# Total GULP energy -198427.370190 kJ/mol
# GULP energy per Si atom -12401.710637 kJ/mol
# Density = 2.294942 g / cm^3
# Si number density = 23.001776 Si / 1000 Ang^3
#
#
#
# Elastic Constant Matrix: (Units=GPa)
#
#
# Indices 1 2 3 4 5 6 
#
# 1 78.4629 10.0935 24.1538 0.3755 8.9720 2.6409
# 2 10.0935 63.2493 29.5860 -8.8556 3.2053 1.6069
# 3 24.1538 29.5860 103.5252 -10.8311 17.3188 -0.3291
# 4 0.3755 -8.8556 -10.8311 33.3440 3.8770 0.8861
# 5 8.9720 3.2053 17.3188 3.8770 24.8417 -1.5211
# 6 2.6409 1.6069 -0.3291 0.8861 -1.5211 42.1205
#
#
#
# Elastic Compliance Matrix: (Units=1/GPa)
#
#
# Indices 1 2 3 4 5 6 
#
# 1 0.014053 -0.000978 -0.002579 -0.000873 -0.003073 -0.000957
# 2 -0.000978 0.018703 -0.004907 0.003311 0.000799 -0.000731
# 3 -0.002579 -0.004907 0.013514 0.004101 -0.008493 0.000062
# 4 -0.000873 0.003311 0.004101 0.033195 -0.008215 -0.001035
# 5 -0.003073 0.000799 -0.008493 -0.008215 0.048589 0.002023
# 6 -0.000957 -0.000731 0.000062 -0.001035 0.002023 0.023925
#
#
# Mechanical properties :
#
#
# Convention : Reuss Voigt Hill
#
# Bulk Modulus (GPa) = 34.08171 41.43378 37.75775
# Shear Modulus (GPa) = 27.98208 32.15485 30.06847
#
# Velocity S-wave (km/s) = 3.49165 3.74295 3.61948
# Velocity P-wave (km/s) = 5.57715 6.06069 5.82394
#
# Compressibility (1/GPa) = 0.02934125
#
# Stress axis : x y z
#
# Youngs Moduli (GPa) = 71.16164 53.46639 73.99966
#
# Poissons Ratio (x) = 0.05230 0.19087
# Poissons Ratio (y) = 0.06961 0.36308
# Poissons Ratio (z) = 0.18355 0.26233
#
# Static dielectric constant tensor:
#      x y z
#    x 3.944430 -0.026220 0.232110 
#    y -0.026220 4.080800 -0.063000 
#    z 0.232110 -0.063000 4.226440 
# 
# 
# High freq. dielectric constant tensor:
#      x y z
#    x 1.900550 0.001050 0.009300 
#    y 0.001050 1.906160 -0.006670 
#    z 0.009300 -0.006670 1.909360 
# 
# From -- ./inp_files/53231.got.cif
#   From: 2010.06.25/outbox.cif.g09.slc.cpg/sg2_27_cif.got.tgz:53231.got - 2010.06.27 13:26:56.
