data_PCOD8023555
_publ_section_title
;
Structure prediction by ZEFSAII (Michael W. Deem and Ramdas Pophale) SiO2 
 PCOD8023555
Probable space group: P -1
;
_chemical_formula_sum "Si O2"
_cell_formula_units_Z 16
_cell_length_a 8.463593
_cell_length_b 9.868337
_cell_length_c 16.668828
_cell_angle_alpha 145.507099
_cell_angle_beta 104.197369
_cell_angle_gamma 66.497597
_cell_volume 713.620655
_symmetry_space_group_name_H-M "P -1"
_symmetry_group_IT_number 2
_symmetry_cell_setting 'triclinic'
loop_
_space_group_symop_operation_xyz
x,y,z
-x,-y,-z
loop_
_atom_site_type_symbol
_atom_site_label
_atom_site_fract_x
_atom_site_fract_y
_atom_site_fract_z
Si Si1 0.640535 0.307231 0.865967
Si Si2 0.296658 0.569752 0.507955
Si Si3 0.182361 0.149145 0.230461
Si Si4 0.836947 0.938293 0.985866
Si Si5 0.635429 0.930615 0.554910
Si Si6 0.096028 0.519362 0.102223
Si Si7 0.214490 0.649491 0.703735
Si Si8 0.005250 0.966237 0.576667
O O1 0.716219 0.471081 0.896018
O O2 0.789868 0.119175 0.851965
O O3 0.558157 0.135071 0.717419
O O4 0.500000 0.500000 0.000000
O O5 0.500000 0.500000 0.500000
O O6 0.275180 0.294180 0.368917
O O7 0.209769 0.751619 0.662196
O O8 0.186956 0.730555 0.498536
O O9 0.979692 0.324705 0.283172
O O10 0.262364 0.106027 0.127889
O O11 0.718170 0.188482 0.144423
O O12 0.887701 0.702968 0.939670
O O13 0.000000 0.000000 0.000000
O O14 0.651509 0.639857 0.431864
O O15 0.500000 0.000000 0.500000
O O16 0.831498 0.918121 0.557467
O O17 0.981064 0.783603 0.258326
O O18 0.000000 0.500000 0.000000
O O19 0.000000 0.000000 0.500000
#
# Coordination Sequence:
#
# PCOD8023555 Si02
#       8
#     2   2   2   2   2   2   2   2
#     4  11  26  45  69 103 143 186 229 293 356 420
#     4  12  25  42  68 104 139 184 236 287 350 418
#     4  11  22  45  72 100 138 187 237 282 356 422
#     4  10  23  41  70 104 133 184 234 289 352 419
#     4  11  25  44  73 103 134 184 233 288 352 419
#     4  11  23  44  69 102 139 182 238 280 355 420
#     4  11  22  45  71  96 136 181 237 281 345 424
#     4  11  25  43  70 102 141 179 227 297 352 411
#
# _framework density 22.420874000000001
#
# number of rings (size 3 to 8) (size 9 to 14) (size 15 to 20)
#    0.000    1.000    2.500    4.875    5.250    3.000 
#    0.000    1.250    0.000    0.000    0.000    0.000 
#    0.000    0.000    0.000    0.000    0.000    0.000 
#
# Total GULP energy -198249.945711 kJ/mol
# GULP energy per Si atom -12390.621607 kJ/mol
# Density = 2.236984 g / cm^3
# Si number density = 22.420874 Si / 1000 Ang^3
#
#
#
# Elastic Constant Matrix: (Units=GPa)
#
#
# Indices 1 2 3 4 5 6 
#
# 1 74.5438 37.7194 40.4023 4.5247 -6.8061 -7.0567
# 2 37.7194 141.2605 52.1142 -6.1276 -5.1236 7.6181
# 3 40.4023 52.1142 177.7269 -17.1332 -15.5302 -1.2060
# 4 4.5247 -6.1276 -17.1332 48.5710 2.8744 1.3304
# 5 -6.8061 -5.1236 -15.5302 2.8744 21.7216 -2.1652
# 6 -7.0567 7.6181 -1.2060 1.3304 -2.1652 40.1789
#
#
#
# Elastic Compliance Matrix: (Units=1/GPa)
#
#
# Indices 1 2 3 4 5 6 
#
# 1 0.017919 -0.003956 -0.002922 -0.003517 0.003468 0.004113
# 2 -0.003956 0.008914 -0.001699 0.001006 -0.000735 -0.002509
# 3 -0.002922 -0.001699 0.007341 0.002429 0.003625 0.000144
# 4 -0.003517 0.001006 0.002429 0.022074 -0.002207 -0.001585
# 5 0.003468 -0.000735 0.003625 -0.002207 0.050197 0.003635
# 6 0.004113 -0.002509 0.000144 -0.001585 0.003635 0.026339
#
#
# Mechanical properties :
#
#
# Convention : Reuss Voigt Hill
#
# Bulk Modulus (GPa) = 58.74681 72.66700 65.70690
# Shear Modulus (GPa) = 32.13126 39.64730 35.88928
#
# Velocity S-wave (km/s) = 3.78973 4.20970 4.00523
# Velocity P-wave (km/s) = 6.73856 7.49063 7.12453
#
# Compressibility (1/GPa) = 0.01702220
#
# Stress axis : x y z
#
# Youngs Moduli (GPa) = 55.80514 112.17789 136.22291
#
# Poissons Ratio (x) = 0.44372 0.39802
# Poissons Ratio (y) = 0.22074 0.23144
# Poissons Ratio (z) = 0.16305 0.19059
#
# Static dielectric constant tensor:
#      x y z
#    x 3.556330 0.240930 0.106840 
#    y 0.240930 4.223860 -0.294240 
#    z 0.106840 -0.294240 5.033110 
# 
# 
# High freq. dielectric constant tensor:
#      x y z
#    x 1.846200 0.007860 0.001100 
#    y 0.007860 1.895100 -0.011170 
#    z 0.001100 -0.011170 1.914640 
# 
# From -- ./inp_files/495877.got.cif
#   From: 2010.06.25/outbox.cif.g09.slc.cpg/sg2_248_cif.got.tgz:495877.got - 2010.06.27 13:26:56.
