data_PCOD8023483
_publ_section_title
;
Structure prediction by ZEFSAII (Michael W. Deem and Ramdas Pophale) SiO2 
 PCOD8023483
Probable space group: P -1
;
_chemical_formula_sum "Si O2"
_cell_formula_units_Z 14
_cell_length_a 13.173724
_cell_length_b 13.173837
_cell_length_c 11.700895
_cell_angle_alpha 103.610279
_cell_angle_beta 114.123472
_cell_angle_gamma 22.630902
_cell_volume 652.323529
_symmetry_space_group_name_H-M "P -1"
_symmetry_group_IT_number 2
_symmetry_cell_setting 'triclinic'
loop_
_space_group_symop_operation_xyz
x,y,z
-x,-y,-z
loop_
_atom_site_type_symbol
_atom_site_label
_atom_site_fract_x
_atom_site_fract_y
_atom_site_fract_z
Si Si1 0.694889 0.364349 0.165255
Si Si2 0.401389 0.790593 0.305371
Si Si3 0.314743 0.831134 0.741786
Si Si4 0.672301 0.686080 0.993164
Si Si5 0.366219 0.092172 0.136984
Si Si6 0.360634 0.184936 0.587844
Si Si7 0.364945 0.504733 0.430116
O O1 0.530707 0.604997 0.214628
O O2 0.733833 0.240676 0.246600
O O3 0.500000 0.500000 0.000000
O O4 0.034315 0.101343 0.214599
O O5 0.495597 0.826549 0.334579
O O6 0.545636 0.637392 0.454091
O O7 0.512030 0.718760 0.896550
O O8 0.497022 0.671191 0.664417
O O9 0.000048 0.168168 0.664449
O O10 0.623296 0.812783 0.905546
O O11 0.028320 0.352085 0.086463
O O12 0.524863 0.855421 0.086471
O O13 0.555160 0.955801 0.299656
O O14 0.000000 0.500000 0.500000
O O15 0.500000 0.000000 0.500000
O O16 0.500000 0.500000 0.500000
#
# Coordination Sequence:
#
# PCOD8023483 Si02
#       7
#     2   2   2   2   2   2   2
#     4  12  26  44  68 101 137 173 221 263 334 405
#     4  12  27  45  69  97 134 180 215 280 326 385
#     4  12  24  40  70  96 128 171 215 265 327 387
#     4  10  23  41  68  94 122 169 212 279 317 383
#     4  10  23  44  64  92 129 163 223 266 330 376
#     4  12  28  46  69  96 133 178 225 270 331 394
#     4  12  23  43  64  96 131 165 216 262 316 388
#
# _framework density 21.461743999999999
#
# number of rings (size 3 to 8) (size 9 to 14) (size 15 to 20)
#    0.000    0.571    2.857    4.286    8.000    0.000 
#    0.000    0.000    0.000    0.000    0.000    0.000 
#    0.000    0.000    0.000    0.000    0.000    0.000 
#
# Total GULP energy -173660.619570 kJ/mol
# GULP energy per Si atom -12404.329969 kJ/mol
# Density = 2.141290 g / cm^3
# Si number density = 21.461744 Si / 1000 Ang^3
#
#
#
# Elastic Constant Matrix: (Units=GPa)
#
#
# Indices 1 2 3 4 5 6 
#
# 1 71.7634 33.5043 32.6346 1.8081 16.3231 -21.9761
# 2 33.5043 221.4852 82.9979 2.3464 10.1081 -4.6714
# 3 32.6346 82.9979 149.4506 -1.2633 -4.2310 -9.1528
# 4 1.8081 2.3464 -1.2633 52.1166 -1.8251 2.6147
# 5 16.3231 10.1081 -4.2310 -1.8251 43.1010 0.1309
# 6 -21.9761 -4.6714 -9.1528 2.6147 0.1309 76.7828
#
#
#
# Elastic Compliance Matrix: (Units=1/GPa)
#
#
# Indices 1 2 3 4 5 6 
#
# 1 0.019358 -0.001158 -0.003493 -0.001222 -0.007470 0.005108
# 2 -0.001158 0.005899 -0.003082 -0.000328 -0.001260 -0.000326
# 3 -0.003493 -0.003082 0.009248 0.000594 0.002979 -0.000110
# 4 -0.001222 -0.000328 0.000594 0.019357 0.001421 -0.000960
# 5 -0.007470 -0.001260 0.002979 0.001421 0.026684 -0.001953
# 6 0.005108 -0.000326 -0.000110 -0.000960 -0.001953 0.014489
#
#
# Mechanical properties :
#
#
# Convention : Reuss Voigt Hill
#
# Bulk Modulus (GPa) = 52.52163 82.33030 67.42597
# Shear Modulus (GPa) = 42.79118 53.97090 48.38104
#
# Velocity S-wave (km/s) = 4.47008 5.02017 4.75309
# Velocity P-wave (km/s) = 7.15315 8.48808 7.84904
#
# Compressibility (1/GPa) = 0.01903977
#
# Stress axis : x y z
#
# Youngs Moduli (GPa) = 51.65903 169.51950 108.13182
#
# Poissons Ratio (x) = 0.19625 0.37771
# Poissons Ratio (y) = 0.05981 0.33323
# Poissons Ratio (z) = 0.18045 0.52241
#
# Static dielectric constant tensor:
#      x y z
#    x 3.652240 -0.094210 0.178880 
#    y -0.094210 4.186530 0.026480 
#    z 0.178880 0.026480 3.801400 
# 
# 
# High freq. dielectric constant tensor:
#      x y z
#    x 1.844670 -0.003650 -0.002430 
#    y -0.003650 1.864600 -0.000480 
#    z -0.002430 -0.000480 1.860520 
# 
# From -- ./inp_files/454867.got.cif
#   From: 2010.06.25/outbox.cif.g09.slc.cpg/sg2_228_cif.got.tgz:454867.got - 2010.06.27 13:26:56.
