data_PCOD8023492
_publ_section_title
;
Structure prediction by ZEFSAII (Michael W. Deem and Ramdas Pophale) SiO2 
 PCOD8023492
Probable space group: P -1
;
_chemical_formula_sum "Si O2"
_cell_formula_units_Z 16
_cell_length_a 6.933274
_cell_length_b 11.229820
_cell_length_c 14.811027
_cell_angle_alpha 60.861035
_cell_angle_beta 53.048483
_cell_angle_gamma 89.380359
_cell_volume 736.361436
_symmetry_space_group_name_H-M "P -1"
_symmetry_group_IT_number 2
_symmetry_cell_setting 'triclinic'
loop_
_space_group_symop_operation_xyz
x,y,z
-x,-y,-z
loop_
_atom_site_type_symbol
_atom_site_label
_atom_site_fract_x
_atom_site_fract_y
_atom_site_fract_z
Si Si1 0.214526 0.768983 0.209832
Si Si2 0.861511 0.874450 0.780626
Si Si3 0.940468 0.225410 0.064693
Si Si4 0.495742 0.568556 0.214170
Si Si5 0.609365 0.044799 0.075430
Si Si6 0.627380 0.878145 0.508673
Si Si7 0.477694 0.299433 0.213471
Si Si8 0.365264 0.385889 0.498101
O O1 0.292041 0.634060 0.209337
O O2 0.939390 0.707342 0.360775
O O3 0.458129 0.867715 0.170752
O O4 0.197751 0.870781 0.093061
O O5 0.612623 0.889196 0.890041
O O6 0.762285 0.760502 0.767592
O O7 0.005980 0.812820 0.835520
O O8 0.062444 0.034828 0.629544
O O9 0.774340 0.074105 0.110873
O O10 0.758120 0.318253 0.085254
O O11 0.204712 0.312248 0.901716
O O12 0.504529 0.461155 0.172218
O O13 0.387344 0.488239 0.368223
O O14 0.591641 0.813265 0.642283
O O15 0.517411 0.738826 0.517549
O O16 0.500000 0.000000 0.500000
O O17 0.500000 0.500000 0.500000
#
# Coordination Sequence:
#
# PCOD8023492 Si02
#       8
#     2   2   2   2   2   2   2   2
#     4  11  22  44  64  92 131 172 216 264 331 384
#     4  11  21  42  66  95 126 169 216 269 326 380
#     4  11  22  42  66  97 129 169 217 266 329 381
#     4  11  24  42  62  94 133 174 215 258 330 397
#     4  10  23  41  68  96 128 166 216 277 314 383
#     4  11  22  42  67  96 131 171 223 267 328 387
#     4  10  24  41  64  94 132 170 211 275 320 389
#     4  11  25  43  65  97 136 172 218 270 324 397
#
# _framework density 21.728459999999998
#
# number of rings (size 3 to 8) (size 9 to 14) (size 15 to 20)
#    0.000    1.250    3.750    1.875    0.000    3.000 
#    2.250    0.000    0.000    0.000    0.000    0.000 
#    0.000    0.000    0.000    0.000    0.000    0.000 
#
# Total GULP energy -198326.088031 kJ/mol
# GULP energy per Si atom -12395.380502 kJ/mol
# Density = 2.167900 g / cm^3
# Si number density = 21.728460 Si / 1000 Ang^3
#
#
#
# Elastic Constant Matrix: (Units=GPa)
#
#
# Indices 1 2 3 4 5 6 
#
# 1 102.7007 48.4454 26.8546 1.1757 1.3681 16.1092
# 2 48.4454 116.5270 8.1763 5.4213 -2.8479 2.7637
# 3 26.8546 8.1763 117.5922 6.6238 -17.3207 -3.6391
# 4 1.1757 5.4213 6.6238 24.7627 2.8290 6.1174
# 5 1.3681 -2.8479 -17.3207 2.8290 20.4175 0.2522
# 6 16.1092 2.7637 -3.6391 6.1174 0.2522 32.0394
#
#
#
# Elastic Compliance Matrix: (Units=1/GPa)
#
#
# Indices 1 2 3 4 5 6 
#
# 1 0.015162 -0.006156 -0.004469 0.004615 -0.006201 -0.008432
# 2 -0.006156 0.011231 0.001472 -0.003719 0.003707 0.002975
# 3 -0.004469 0.001472 0.011483 -0.005518 0.010956 0.004391
# 4 0.004615 -0.003719 -0.005518 0.046631 -0.011829 -0.011437
# 5 -0.006201 0.003707 0.010956 -0.011829 0.060771 0.005823
# 6 -0.008432 0.002975 0.004391 -0.011437 0.005823 0.037831
#
#
# Mechanical properties :
#
#
# Convention : Reuss Voigt Hill
#
# Bulk Modulus (GPa) = 51.09716 55.97471 53.53593
# Shear Modulus (GPa) = 24.04571 32.33351 28.18961
#
# Velocity S-wave (km/s) = 3.33024 3.86174 3.60579
# Velocity P-wave (km/s) = 6.19311 6.76025 6.48288
#
# Compressibility (1/GPa) = 0.01957056
#
# Stress axis : x y z
#
# Youngs Moduli (GPa) = 65.95487 89.04077 87.08808
#
# Poissons Ratio (x) = 0.54815 0.38917
# Poissons Ratio (y) = 0.40603 -0.12824
# Poissons Ratio (z) = 0.29473 -0.13111
#
# Static dielectric constant tensor:
#      x y z
#    x 3.654260 0.144460 -0.172350 
#    y 0.144460 4.277870 0.029510 
#    z -0.172350 0.029510 4.082670 
# 
# 
# High freq. dielectric constant tensor:
#      x y z
#    x 1.833140 0.005690 -0.008540 
#    y 0.005690 1.868900 0.006370 
#    z -0.008540 0.006370 1.868360 
# 
# From -- ./inp_files/441731.got.cif
#   From: 2010.06.25/outbox.cif.g09.slc.cpg/sg2_221_cif.got.tgz:441731.got - 2010.06.27 13:26:56.
