data_PCOD8023480
_publ_section_title
;
Structure prediction by ZEFSAII (Michael W. Deem and Ramdas Pophale) SiO2 
 PCOD8023480
Probable space group: P -1
;
_chemical_formula_sum "Si O2"
_cell_formula_units_Z 14
_cell_length_a 9.614381
_cell_length_b 12.158661
_cell_length_c 5.251811
_cell_angle_alpha 86.416906
_cell_angle_beta 92.381622
_cell_angle_gamma 76.157464
_cell_volume 593.918330
_symmetry_space_group_name_H-M "P -1"
_symmetry_group_IT_number 2
_symmetry_cell_setting 'triclinic'
loop_
_space_group_symop_operation_xyz
x,y,z
-x,-y,-z
loop_
_atom_site_type_symbol
_atom_site_label
_atom_site_fract_x
_atom_site_fract_y
_atom_site_fract_z
Si Si1 0.171832 0.474563 0.537083
Si Si2 0.680563 0.969285 0.232149
Si Si3 0.116985 0.815659 0.955726
Si Si4 0.148361 0.012836 0.252332
Si Si5 0.432752 0.781063 0.828218
Si Si6 0.877514 0.430481 0.980559
Si Si7 0.595577 0.741620 0.342229
O O1 0.213893 0.544116 0.769251
O O2 0.246781 0.341689 0.599001
O O3 0.000000 0.500000 0.500000
O O4 0.225432 0.521938 0.273941
O O5 0.778858 0.990041 0.470312
O O6 0.607639 0.870258 0.318114
O O7 0.558940 0.086503 0.169786
O O8 0.770282 0.940900 0.981562
O O9 0.136232 0.884952 0.203441
O O10 0.268735 0.773213 0.832021
O O11 0.057804 0.704693 0.031427
O O12 0.007446 0.900318 0.748528
O O13 0.497718 0.725981 0.576127
O O14 0.522733 0.713110 0.080514
O O15 0.000000 0.500000 0.000000
#
# Coordination Sequence:
#
# PCOD8023480 Si02
#       7
#     2   2   2   2   2   2   2
#     4  10  24  42  64  99 123 168 228 281 331 363
#     4  11  23  40  69 101 136 173 230 270 328 389
#     4  10  24  44  66  98 143 171 221 276 331 409
#     4  10  24  39  68 104 131 178 218 275 348 373
#     4  11  24  42  63  99 137 189 206 265 342 405
#     4  10  23  41  68  93 128 166 226 280 330 369
#     4  12  24  42  69  95 141 174 228 268 323 406
#
# _framework density 23.572263
#
# number of rings (size 3 to 8) (size 9 to 14) (size 15 to 20)
#    0.000    1.429    0.000    4.286    8.000    9.714 
#    0.000    4.286    0.000    0.000    0.000    0.000 
#    0.000    0.000    0.000    0.000    0.000    0.000 
#
# Total GULP energy -173546.738578 kJ/mol
# GULP energy per Si atom -12396.195613 kJ/mol
# Density = 2.351861 g / cm^3
# Si number density = 23.572263 Si / 1000 Ang^3
#
#
#
# Elastic Constant Matrix: (Units=GPa)
#
#
# Indices 1 2 3 4 5 6 
#
# 1 91.7360 36.7930 37.3930 -6.2549 -3.1010 -21.9449
# 2 36.7930 112.8996 38.1941 -14.0215 2.2429 1.8110
# 3 37.3930 38.1941 181.8132 -4.9570 2.5218 -17.9612
# 4 -6.2549 -14.0215 -4.9570 21.9680 -7.4086 6.0260
# 5 -3.1010 2.2429 2.5218 -7.4086 24.9988 -6.3678
# 6 -21.9449 1.8110 -17.9612 6.0260 -6.3678 40.0941
#
#
#
# Elastic Compliance Matrix: (Units=1/GPa)
#
#
# Indices 1 2 3 4 5 6 
#
# 1 0.015745 -0.004870 -0.001392 0.000253 0.004886 0.008952
# 2 -0.004870 0.012043 -0.001840 0.007068 -0.000732 -0.005212
# 3 -0.001392 -0.001840 0.006377 -0.000863 -0.000332 0.002255
# 4 0.000253 0.007068 -0.000863 0.056676 0.014555 -0.006774
# 5 0.004886 -0.000732 -0.000332 0.014555 0.047017 0.007838
# 6 0.008952 -0.005212 0.002255 -0.006774 0.007838 0.033350
#
#
# Mechanical properties :
#
#
# Convention : Reuss Voigt Hill
#
# Bulk Modulus (GPa) = 55.67519 67.91213 61.79366
# Shear Modulus (GPa) = 25.85328 35.68343 30.76835
#
# Velocity S-wave (km/s) = 3.31534 3.89496 3.61678
# Velocity P-wave (km/s) = 6.19076 7.00717 6.61158
#
# Compressibility (1/GPa) = 0.01796132
#
# Stress axis : x y z
#
# Youngs Moduli (GPa) = 63.51143 83.03615 156.81668
#
# Poissons Ratio (x) = 0.40436 0.21825
# Poissons Ratio (y) = 0.30928 0.28861
# Poissons Ratio (z) = 0.08839 0.15282
#
# Static dielectric constant tensor:
#      x y z
#    x 3.980790 -0.124000 0.329310 
#    y -0.124000 4.153830 -0.172390 
#    z 0.329310 -0.172390 -1.034550 
# 
# 
# High freq. dielectric constant tensor:
#      x y z
#    x 1.909790 -0.011230 0.002360 
#    y -0.011230 1.920120 -0.004390 
#    z 0.002360 -0.004390 1.960360 
# 
# From -- ./inp_files/27687.got.cif
#   From: 2010.06.25/outbox.cif.g09.slc.cpg/sg2_14_cif.got.tgz:27687.got - 2010.06.27 13:26:56.
