data_PCOD8023410
_publ_section_title
;
Structure prediction by ZEFSAII (Michael W. Deem and Ramdas Pophale) SiO2 
 PCOD8023410
Probable space group: P -1
;
_chemical_formula_sum "Si O2"
_cell_formula_units_Z 14
_cell_length_a 21.503737
_cell_length_b 11.915676
_cell_length_c 9.547349
_cell_angle_alpha 54.013513
_cell_angle_beta 37.491355
_cell_angle_gamma 27.226272
_cell_volume 617.076996
_symmetry_space_group_name_H-M "P -1"
_symmetry_group_IT_number 2
_symmetry_cell_setting 'triclinic'
loop_
_space_group_symop_operation_xyz
x,y,z
-x,-y,-z
loop_
_atom_site_type_symbol
_atom_site_label
_atom_site_fract_x
_atom_site_fract_y
_atom_site_fract_z
Si Si1 0.301761 0.772102 0.488126
Si Si2 0.418730 0.172144 0.831328
Si Si3 0.153868 0.232019 0.337158
Si Si4 0.868265 0.464807 0.171645
Si Si5 0.965352 0.048183 0.361994
Si Si6 0.714298 0.394609 0.103947
Si Si7 0.144191 0.380019 0.637428
O O1 0.538287 0.506606 0.271014
O O2 0.208978 0.780764 0.768437
O O3 0.211261 0.031635 0.471780
O O4 0.248590 0.768786 0.433164
O O5 0.325896 0.314096 0.741699
O O6 0.352255 0.371934 0.908874
O O7 0.658922 0.885471 0.609751
O O8 0.346821 0.103385 0.058457
O O9 0.000000 0.500000 0.500000
O O10 0.030554 0.332599 0.343657
O O11 0.788595 0.607205 0.360166
O O12 0.974724 0.194557 0.191034
O O13 0.046763 0.349493 0.879521
O O14 0.123744 0.778867 0.181178
O O15 0.000000 0.000000 0.500000
#
# Coordination Sequence:
#
# PCOD8023410 Si02
#       7
#     2   2   2   2   2   2   2
#     4  11  25  44  68 104 138 177 231 283 341 408
#     4  11  23  43  72  99 133 180 231 283 338 408
#     4  11  24  39  66 101 137 173 225 287 338 399
#     4  10  23  41  66  98 134 184 226 279 341 413
#     4  12  26  44  70  99 143 183 225 281 348 414
#     4  11  26  44  72 102 137 183 230 282 340 411
#     4  10  23  43  67  97 137 179 231 282 343 400
#
# _framework density 22.687608000000001
#
# number of rings (size 3 to 8) (size 9 to 14) (size 15 to 20)
#    0.000    1.143    1.429    3.429    8.000    5.143 
#    0.000    0.000    0.000    0.000    0.000    0.000 
#    0.000    0.000    0.000    0.000    0.000    0.000 
#
# Total GULP energy -173600.832882 kJ/mol
# GULP energy per Si atom -12400.059492 kJ/mol
# Density = 2.263597 g / cm^3
# Si number density = 22.687608 Si / 1000 Ang^3
#
#
#
# Elastic Constant Matrix: (Units=GPa)
#
#
# Indices 1 2 3 4 5 6 
#
# 1 132.9770 28.2918 34.5724 -2.3026 0.4826 -7.7793
# 2 28.2918 106.1865 35.7448 -1.7158 1.1204 4.2562
# 3 34.5724 35.7448 84.8426 8.5151 1.3420 -3.1791
# 4 -2.3026 -1.7158 8.5151 22.8500 -2.7831 9.6156
# 5 0.4826 1.1204 1.3420 -2.7831 34.0207 4.1105
# 6 -7.7793 4.2562 -3.1791 9.6156 4.1105 24.9286
#
#
#
# Elastic Compliance Matrix: (Units=1/GPa)
#
#
# Indices 1 2 3 4 5 6 
#
# 1 0.008741 -0.001401 -0.002976 0.000914 -0.000159 0.002261
# 2 -0.001401 0.011780 -0.005090 0.004902 0.000854 -0.005129
# 3 -0.002976 -0.005090 0.016359 -0.009554 -0.001946 0.006033
# 4 0.000914 0.004902 -0.009554 0.059818 0.008262 -0.026206
# 5 -0.000159 0.000854 -0.001946 0.008262 0.031181 -0.008772
# 6 0.002261 -0.005129 0.006033 -0.026206 -0.008772 0.054020
#
#
# Mechanical properties :
#
#
# Convention : Reuss Voigt Hill
#
# Bulk Modulus (GPa) = 55.72231 57.91381 56.81806
# Shear Modulus (GPa) = 24.17629 31.38631 27.78130
#
# Velocity S-wave (km/s) = 3.26792 3.72346 3.50310
# Velocity P-wave (km/s) = 6.23322 6.63834 6.43897
#
# Compressibility (1/GPa) = 0.01794613
#
# Stress axis : x y z
#
# Youngs Moduli (GPa) = 114.40903 84.89079 61.12798
#
# Poissons Ratio (x) = 0.11896 0.18190
# Poissons Ratio (y) = 0.16032 0.31112
# Poissons Ratio (z) = 0.34045 0.43207
#
# Static dielectric constant tensor:
#      x y z
#    x 5.289630 -0.911610 -0.031140 
#    y -0.911610 4.776040 -0.346840 
#    z -0.031140 -0.346840 4.045580 
# 
# 
# High freq. dielectric constant tensor:
#      x y z
#    x 1.917610 -0.010750 -0.014750 
#    y -0.010750 1.900960 -0.012050 
#    z -0.014750 -0.012050 1.879910 
# 
# From -- ./inp_files/346024.got.cif
#   From: 2010.06.25/outbox.cif.g09.slc.cpg/sg2_174_cif.got.tgz:346024.got - 2010.06.27 13:26:56.
