data_PCOD8023733
_publ_section_title
;
Structure prediction by ZEFSAII (Michael W. Deem and Ramdas Pophale) SiO2 
 PCOD8023733
Probable space group: P -1
;
_chemical_formula_sum "Si O2"
_cell_formula_units_Z 12
_cell_length_a 9.007567
_cell_length_b 6.956689
_cell_length_c 13.858253
_cell_angle_alpha 117.410367
_cell_angle_beta 100.406055
_cell_angle_gamma 124.004299
_cell_volume 513.509577
_symmetry_space_group_name_H-M "P -1"
_symmetry_group_IT_number 2
_symmetry_cell_setting 'triclinic'
loop_
_space_group_symop_operation_xyz
x,y,z
-x,-y,-z
loop_
_atom_site_type_symbol
_atom_site_label
_atom_site_fract_x
_atom_site_fract_y
_atom_site_fract_z
Si Si1 0.112090 0.183765 0.656509
Si Si2 0.518045 0.876745 0.609737
Si Si3 0.145595 0.430012 0.181936
Si Si4 0.753974 0.737224 0.676167
Si Si5 0.713731 0.170717 0.125980
Si Si6 0.572032 0.830247 0.223128
O O1 0.189929 0.513940 0.739029
O O2 0.324469 0.260037 0.726672
O O3 0.000000 0.000000 0.500000
O O4 0.932385 0.958089 0.665489
O O5 0.604464 0.794250 0.681133
O O6 0.402848 0.632658 0.452247
O O7 0.727601 0.233261 0.673465
O O8 0.352511 0.866993 0.644111
O O9 0.132343 0.202914 0.195481
O O10 0.296839 0.527423 0.127911
O O11 0.893620 0.247131 0.092447
O O12 0.649257 0.925004 0.143308
O O13 0.500000 0.000000 0.000000
#
# Coordination Sequence:
#
# PCOD8023733 Si02
#       6
#     2   2   2   2   2   2
#     4  12  26  41  71 106 137 174 226 280 335 398
#     4   9  22  36  63  99 138 172 219 272 339 398
#     4  10  23  42  64  97 134 179 220 280 331 401
#     4  11  20  38  65  98 140 179 215 272 344 400
#     4  12  27  49  69  96 138 183 225 277 337 402
#     4  10  25  43  67 101 134 174 230 275 334 395
#
# _framework density 23.368601999999999
#
# number of rings (size 3 to 8) (size 9 to 14) (size 15 to 20)
#    1.000    0.333    3.333    1.500    9.333    2.667 
#    0.000    0.833    0.000    0.000    0.000    0.000 
#    0.000    0.000    0.000    0.000    0.000    0.000 
#
# Total GULP energy -148665.712944 kJ/mol
# GULP energy per Si atom -12388.809412 kJ/mol
# Density = 2.331541 g / cm^3
# Si number density = 23.368602 Si / 1000 Ang^3
#
#
#
# Elastic Constant Matrix: (Units=GPa)
#
#
# Indices 1 2 3 4 5 6 
#
# 1 117.5136 18.5166 10.9660 -2.4513 29.9793 9.1954
# 2 18.5166 105.9207 17.8562 -7.8622 13.1705 9.1455
# 3 10.9660 17.8562 45.4245 1.1110 17.6043 3.7857
# 4 -2.4513 -7.8622 1.1110 17.5785 -4.8597 8.0986
# 5 29.9793 13.1705 17.6043 -4.8597 32.0216 0.4907
# 6 9.1954 9.1455 3.7857 8.0986 0.4907 43.9057
#
#
#
# Elastic Compliance Matrix: (Units=1/GPa)
#
#
# Indices 1 2 3 4 5 6 
#
# 1 0.011620 -0.000855 0.002387 -0.001265 -0.012000 -0.002094
# 2 -0.000855 0.011025 -0.003775 0.006215 -0.000670 -0.002931
# 3 0.002387 -0.003775 0.030387 -0.008134 -0.018612 -0.000625
# 4 -0.001265 0.006215 -0.008134 0.070031 0.013933 -0.013402
# 5 -0.012000 -0.000670 -0.018612 0.013933 0.055069 0.001072
# 6 -0.002094 -0.002931 -0.000625 -0.013402 0.001072 0.026339
#
#
# Mechanical properties :
#
#
# Convention : Reuss Voigt Hill
#
# Bulk Modulus (GPa) = 20.59961 40.39294 30.49628
# Shear Modulus (GPa) = 22.20843 33.46917 27.83880
#
# Velocity S-wave (km/s) = 3.08612 3.78858 3.45525
# Velocity P-wave (km/s) = 4.64038 6.03825 5.38487
#
# Compressibility (1/GPa) = 0.04854462
#
# Stress axis : x y z
#
# Youngs Moduli (GPa) = 86.05591 90.70562 32.90933
#
# Poissons Ratio (x) = 0.07754 -0.07854
# Poissons Ratio (y) = 0.07356 0.12424
# Poissons Ratio (z) = -0.20539 0.34244
#
# Static dielectric constant tensor:
#      x y z
#    x 4.496940 -0.162830 0.088560 
#    y -0.162830 4.335670 0.246440 
#    z 0.088560 0.246440 3.675670 
# 
# 
# High freq. dielectric constant tensor:
#      x y z
#    x 1.939250 -0.009700 0.009430 
#    y -0.009700 1.939150 0.012350 
#    z 0.009430 0.012350 1.875420 
# 
# From -- ./inp_files/246134.got.cif
#   From: 2010.06.25/outbox.cif.g09.slc.cpg/sg2_124_cif.got.tgz:246134.got - 2010.06.27 13:26:56.
