data_PCOD8023680
_publ_section_title
;
Structure prediction by ZEFSAII (Michael W. Deem and Ramdas Pophale) SiO2 
 PCOD8023680
Probable space group: P -1
;
_chemical_formula_sum "Si O2"
_cell_formula_units_Z 16
_cell_length_a 12.682808
_cell_length_b 10.114850
_cell_length_c 15.754104
_cell_angle_alpha 43.580383
_cell_angle_beta 47.558119
_cell_angle_gamma 81.244797
_cell_volume 770.836561
_symmetry_space_group_name_H-M "P -1"
_symmetry_group_IT_number 2
_symmetry_cell_setting 'triclinic'
loop_
_space_group_symop_operation_xyz
x,y,z
-x,-y,-z
loop_
_atom_site_type_symbol
_atom_site_label
_atom_site_fract_x
_atom_site_fract_y
_atom_site_fract_z
Si Si1 0.497712 0.520308 0.709721
Si Si2 0.336246 0.796566 0.979935
Si Si3 0.907708 0.361304 0.457036
Si Si4 0.830908 0.729297 0.320201
Si Si5 0.210910 0.108563 0.335612
Si Si6 0.444019 0.600536 0.874645
Si Si7 0.261535 0.176005 0.848243
Si Si8 0.600008 0.934266 0.921413
O O1 0.719784 0.703399 0.476816
O O2 0.459348 0.653942 0.738843
O O3 0.376660 0.417809 0.736570
O O4 0.422464 0.277171 0.917308
O O5 0.360282 0.718539 0.910277
O O6 0.500657 0.846488 0.923371
O O7 0.348756 0.038824 0.857761
O O8 0.135125 0.558726 0.241354
O O9 0.819676 0.491331 0.429170
O O10 0.817079 0.145861 0.534040
O O11 0.823608 0.194161 0.668184
O O12 0.725708 0.721424 0.299021
O O13 0.047500 0.989579 0.086981
O O14 0.340952 0.265073 0.274362
O O15 0.311997 0.297133 0.110197
O O16 0.000000 0.000000 0.500000
O O17 0.500000 0.000000 0.000000
#
# Coordination Sequence:
#
# PCOD8023680 Si02
#       8
#     2   2   2   2   2   2   2   2
#     4  12  23  37  61  91 121 156 190 255 301 354
#     4  11  22  39  61  89 122 165 194 239 296 365
#     4  11  21  36  65  87 116 162 201 237 300 349
#     4  10  23  42  63  88 112 158 209 252 290 352
#     4  11  21  37  57  85 124 168 188 231 293 368
#     4  11  23  37  57  90 127 153 198 236 297 366
#     4  10  23  43  65  82 118 157 209 249 296 342
#     4  12  21  35  55  92 128 146 191 245 296 357
#
# _framework density 20.756671000000001
#
# number of rings (size 3 to 8) (size 9 to 14) (size 15 to 20)
#    0.000    1.000    6.250    1.125    0.000    2.500 
#    0.000    0.625    0.000    2.250    0.000    0.000 
#    0.000    0.000    0.000    0.000    0.000    0.000 
#
# Total GULP energy -198221.824434 kJ/mol
# GULP energy per Si atom -12388.864027 kJ/mol
# Density = 2.070943 g / cm^3
# Si number density = 20.756671 Si / 1000 Ang^3
#
#
#
# Elastic Constant Matrix: (Units=GPa)
#
#
# Indices 1 2 3 4 5 6 
#
# 1 52.3365 6.2758 22.6866 12.6596 -12.2940 -0.0335
# 2 6.2758 99.2942 27.4830 30.8289 -5.8661 10.7311
# 3 22.6866 27.4830 101.6705 27.2553 -13.0224 1.6002
# 4 12.6596 30.8289 27.2553 33.3064 -4.8200 -3.1260
# 5 -12.2940 -5.8661 -13.0224 -4.8200 28.9818 -0.8035
# 6 -0.0335 10.7311 1.6002 -3.1260 -0.8035 17.2662
#
#
#
# Elastic Compliance Matrix: (Units=1/GPa)
#
#
# Indices 1 2 3 4 5 6 
#
# 1 0.023855 0.002543 -0.002741 -0.008252 0.007964 -0.002403
# 2 0.002543 0.016994 -0.000025 -0.017795 0.001167 -0.013722
# 3 -0.002741 -0.000025 0.013543 -0.009824 0.003204 -0.002874
# 4 -0.008252 -0.017795 -0.009824 0.059663 -0.000964 0.022711
# 5 0.007964 0.001167 0.003204 -0.000964 0.039416 0.000653
# 6 -0.002403 -0.013722 -0.002874 0.022711 0.000653 0.070849
#
#
# Mechanical properties :
#
#
# Convention : Reuss Voigt Hill
#
# Bulk Modulus (GPa) = 18.53677 40.68799 29.61238
# Shear Modulus (GPa) = 20.59742 29.03461 24.81602
#
# Velocity S-wave (km/s) = 3.15354 3.74412 3.46145
# Velocity P-wave (km/s) = 4.71271 6.19162 5.50208
#
# Compressibility (1/GPa) = 0.05394682
#
# Stress axis : x y z
#
# Youngs Moduli (GPa) = 41.91957 58.84301 73.83795
#
# Poissons Ratio (x) = -0.14963 0.20236
# Poissons Ratio (y) = -0.10660 0.00187
# Poissons Ratio (z) = 0.11488 0.00149
#
# Static dielectric constant tensor:
#      x y z
#    x 3.552240 0.082000 -0.091850 
#    y 0.082000 4.431160 0.377260 
#    z -0.091850 0.377260 4.210900 
# 
# 
# High freq. dielectric constant tensor:
#      x y z
#    x 1.782320 -0.006380 -0.022560 
#    y -0.006380 1.820130 0.008940 
#    z -0.022560 0.008940 1.829950 
# 
# From -- ./inp_files/519532.got.cif
#   From: 2010.06.25/outbox.cif.g09.slc.cpg/sg2_260_cif.got.tgz:519532.got - 2010.06.27 13:26:56.
