data_PCOD8023655
_publ_section_title
;
Structure prediction by ZEFSAII (Michael W. Deem and Ramdas Pophale) SiO2 
 PCOD8023655
Probable space group: P -1
;
_chemical_formula_sum "Si O2"
_cell_formula_units_Z 16
_cell_length_a 25.860199
_cell_length_b 9.219709
_cell_length_c 8.032580
_cell_angle_alpha 50.214241
_cell_angle_beta 61.848665
_cell_angle_gamma 30.609418
_cell_volume 733.945468
_symmetry_space_group_name_H-M "P -1"
_symmetry_group_IT_number 2
_symmetry_cell_setting 'triclinic'
loop_
_space_group_symop_operation_xyz
x,y,z
-x,-y,-z
loop_
_atom_site_type_symbol
_atom_site_label
_atom_site_fract_x
_atom_site_fract_y
_atom_site_fract_z
Si Si1 0.745603 0.324698 0.829256
Si Si2 0.274763 0.205361 0.097266
Si Si3 0.064829 0.357479 0.343199
Si Si4 0.842875 0.454979 0.653388
Si Si5 0.097421 0.410461 0.792629
Si Si6 0.617839 0.706296 0.086131
Si Si7 0.296806 0.715074 0.414842
Si Si8 0.062790 0.744807 0.902955
O O1 0.811483 0.342122 0.694886
O O2 0.675270 0.477708 0.656435
O O3 0.686105 0.477069 0.985554
O O4 0.824935 0.939435 0.980624
O O5 0.247615 0.258660 0.292236
O O6 0.312076 0.897447 0.209978
O O7 0.363067 0.129828 0.999364
O O8 0.173315 0.559142 0.891733
O O9 0.000000 0.500000 0.500000
O O10 0.004471 0.428194 0.229014
O O11 0.180181 0.969241 0.461833
O O12 0.071987 0.561105 0.163546
O O13 0.840500 0.644426 0.403322
O O14 0.957103 0.142292 0.798380
O O15 0.054608 0.684425 0.776180
O O16 0.634821 0.523031 0.353568
O O17 0.500000 0.000000 0.000000
#
# Coordination Sequence:
#
# PCOD8023655 Si02
#       8
#     2   2   2   2   2   2   2   2
#     4  11  23  44  67  94 134 169 213 266 315 392
#     4  10  23  42  61  92 128 161 218 264 313 394
#     4  11  21  34  58  91 133 180 211 248 307 376
#     4  11  23  34  59  94 131 178 207 255 310 365
#     4  12  21  37  59  90 138 171 216 250 307 377
#     4  11  27  47  70  96 122 161 218 281 340 385
#     4  11  24  43  68  93 129 174 213 264 327 375
#     4  11  21  36  56  92 131 171 216 253 300 380
#
# _framework density 21.799983000000001
#
# number of rings (size 3 to 8) (size 9 to 14) (size 15 to 20)
#    0.000    1.000    3.750    4.875    5.250    1.000 
#    0.000    0.625    0.000    0.000    0.000    0.000 
#    0.000    0.000    0.000    0.000    0.000    0.000 
#
# Total GULP energy -198303.687765 kJ/mol
# GULP energy per Si atom -12393.980485 kJ/mol
# Density = 2.175037 g / cm^3
# Si number density = 21.799983 Si / 1000 Ang^3
#
#
#
# Elastic Constant Matrix: (Units=GPa)
#
#
# Indices 1 2 3 4 5 6 
#
# 1 131.3704 32.1449 38.5790 -12.1528 -1.4897 -14.2286
# 2 32.1449 39.9204 14.7637 -4.4337 4.4626 -9.9717
# 3 38.5790 14.7637 61.5720 -7.9863 14.7718 1.0236
# 4 -12.1528 -4.4337 -7.9863 17.5000 -0.1652 4.0630
# 5 -1.4897 4.4626 14.7718 -0.1652 36.9617 -1.4830
# 6 -14.2286 -9.9717 1.0236 4.0630 -1.4830 31.8698
#
#
#
# Elastic Compliance Matrix: (Units=1/GPa)
#
#
# Indices 1 2 3 4 5 6 
#
# 1 0.011730 -0.006365 -0.006458 0.002864 0.003966 0.003272
# 2 -0.006365 0.033749 -0.003506 0.000738 -0.002621 0.007615
# 3 -0.006458 -0.003506 0.024521 0.007149 -0.009851 -0.006138
# 4 0.002864 0.000738 0.007149 0.064188 -0.002826 -0.007035
# 5 0.003966 -0.002621 -0.009851 -0.002826 0.031580 0.003097
# 6 0.003272 0.007615 -0.006138 -0.007035 0.003097 0.036459
#
#
# Mechanical properties :
#
#
# Convention : Reuss Voigt Hill
#
# Bulk Modulus (GPa) = 26.77995 44.87089 35.82542
# Shear Modulus (GPa) = 20.21560 27.09130 23.65345
#
# Velocity S-wave (km/s) = 3.04850 3.52905 3.29754
# Velocity P-wave (km/s) = 4.97013 6.10191 5.56487
#
# Compressibility (1/GPa) = 0.03734137
#
# Stress axis : x y z
#
# Youngs Moduli (GPa) = 85.24826 29.63068 40.78121
#
# Poissons Ratio (x) = 0.18860 0.26337
# Poissons Ratio (y) = 0.54261 0.14299
# Poissons Ratio (z) = 0.55055 0.10389
#
# Static dielectric constant tensor:
#      x y z
#    x 4.584220 0.048060 -0.066300 
#    y 0.048060 3.621360 0.216380 
#    z -0.066300 0.216380 3.999830 
# 
# 
# High freq. dielectric constant tensor:
#      x y z
#    x 1.877580 0.021980 0.001660 
#    y 0.021980 1.819810 0.016830 
#    z 0.001660 0.016830 1.856920 
# 
# From -- ./inp_files/313840.got.cif
#   From: 2010.06.25/outbox.cif.g09.slc.cpg/sg2_157_cif.got.tgz:313840.got - 2010.06.27 13:26:56.
