data_PCOD8023022
_publ_section_title
;
Structure prediction by ZEFSAII (Michael W. Deem and Ramdas Pophale) SiO2 
 PCOD8023022
Probable space group: P -1
;
_chemical_formula_sum "Si O2"
_cell_formula_units_Z 14
_cell_length_a 9.420599
_cell_length_b 11.570350
_cell_length_c 11.527515
_cell_angle_alpha 55.924485
_cell_angle_beta 53.232352
_cell_angle_gamma 90.388652
_cell_volume 714.322743
_symmetry_space_group_name_H-M "P -1"
_symmetry_group_IT_number 2
_symmetry_cell_setting 'triclinic'
loop_
_space_group_symop_operation_xyz
x,y,z
-x,-y,-z
loop_
_atom_site_type_symbol
_atom_site_label
_atom_site_fract_x
_atom_site_fract_y
_atom_site_fract_z
Si Si1 0.551071 0.431995 0.622749
Si Si2 0.860258 0.308222 0.190775
Si Si3 0.152731 0.204435 0.055401
Si Si4 0.569632 0.161511 0.625677
Si Si5 0.282058 0.950933 0.194665
Si Si6 0.010118 0.353143 0.634537
Si Si7 0.162443 0.840967 0.941775
O O1 0.500000 0.500000 0.500000
O O2 0.577984 0.282430 0.653450
O O3 0.748798 0.579538 0.504509
O O4 0.367324 0.372688 0.837701
O O5 0.682611 0.260370 0.399005
O O6 0.754660 0.227097 0.163780
O O7 0.010943 0.239354 0.192082
O O8 0.000000 0.500000 0.000000
O O9 0.033309 0.149072 0.019008
O O10 0.214033 0.082646 0.148071
O O11 0.692075 0.079072 0.665929
O O12 0.334328 0.023038 0.792410
O O13 0.088198 0.792940 0.324661
O O14 0.500000 0.000000 0.000000
O O15 0.000000 0.500000 0.500000
O O16 0.897552 0.286503 0.851443
#
# Coordination Sequence:
#
# PCOD8023022 Si02
#       7
#     2   2   2   2   2   2   2
#     4  12  22  36  63  95 122 162 210 264 304 362
#     4  10  23  44  65  90 127 163 211 261 312 368
#     4  10  23  41  60  94 124 167 210 255 309 371
#     4  12  23  41  67  89 128 169 208 253 322 371
#     4  12  23  40  63  94 130 165 200 267 314 370
#     4  12  22  37  61  97 127 159 206 259 319 359
#     4  10  23  40  65  92 123 166 214 253 310 376
#
# _framework density 19.598984000000002
#
# number of rings (size 3 to 8) (size 9 to 14) (size 15 to 20)
#    0.857    0.000    5.714    2.143    2.000    1.714 
#    0.000    0.000    0.000    1.714    0.000    0.000 
#    0.000    0.000    0.000    0.000    0.000    0.000 
#
# Total GULP energy -173475.722422 kJ/mol
# GULP energy per Si atom -12391.123030 kJ/mol
# Density = 1.955438 g / cm^3
# Si number density = 19.598984 Si / 1000 Ang^3
#
#
#
# Elastic Constant Matrix: (Units=GPa)
#
#
# Indices 1 2 3 4 5 6 
#
# 1 106.7525 11.5563 28.0040 -18.6697 -4.0568 -4.0246
# 2 11.5563 48.7454 9.7935 -14.7859 -14.0006 -1.6836
# 3 28.0040 9.7935 108.6766 -16.0188 -9.6894 9.7328
# 4 -18.6697 -14.7859 -16.0188 35.2201 5.1607 -1.2250
# 5 -4.0568 -14.0006 -9.6894 5.1607 42.2716 -11.7599
# 6 -4.0246 -1.6836 9.7328 -1.2250 -11.7599 39.4978
#
#
#
# Elastic Compliance Matrix: (Units=1/GPa)
#
#
# Indices 1 2 3 4 5 6 
#
# 1 0.010890 -0.000613 -0.002224 0.004525 0.000298 0.001860
# 2 -0.000613 0.026153 -0.000419 0.009361 0.008468 0.003967
# 3 -0.002224 -0.000419 0.010598 0.003233 0.000998 -0.002459
# 4 0.004525 0.009361 0.003233 0.036206 0.000203 0.001247
# 5 0.000298 0.008468 0.000998 0.000203 0.029151 0.008831
# 6 0.001860 0.003967 -0.002459 0.001247 0.008831 0.028950
#
#
# Mechanical properties :
#
#
# Convention : Reuss Voigt Hill
#
# Bulk Modulus (GPa) = 24.31374 40.32027 32.31700
# Shear Modulus (GPa) = 30.83190 37.71929 34.27559
#
# Velocity S-wave (km/s) = 3.97058 4.39173 4.18646
# Velocity P-wave (km/s) = 5.78388 6.80689 6.31613
#
# Compressibility (1/GPa) = 0.04112900
#
# Stress axis : x y z
#
# Youngs Moduli (GPa) = 91.82706 38.23664 94.35468
#
# Poissons Ratio (x) = 0.02342 0.20985
# Poissons Ratio (y) = 0.05625 0.03958
# Poissons Ratio (z) = 0.20423 0.01604
#
# Static dielectric constant tensor:
#      x y z
#    x 3.818900 -0.053520 0.062000 
#    y -0.053520 3.545910 -0.179510 
#    z 0.062000 -0.179510 3.654940 
# 
# 
# High freq. dielectric constant tensor:
#      x y z
#    x 1.771010 -0.000340 0.001120 
#    y -0.000340 1.742890 -0.024840 
#    z 0.001120 -0.024840 1.771080 
# 
# From -- ./inp_files/392327.got.cif
#   From: 2010.06.25/outbox.cif.g09.slc.cpg/sg2_197_cif.got.tgz:392327.got - 2010.06.27 13:26:56.
