data_PCOD8023287
_publ_section_title
;
Structure prediction by ZEFSAII (Michael W. Deem and Ramdas Pophale) SiO2 
 PCOD8023287
Probable space group: P -1
;
_chemical_formula_sum "Si O2"
_cell_formula_units_Z 14
_cell_length_a 9.062065
_cell_length_b 15.616651
_cell_length_c 14.135666
_cell_angle_alpha 41.468513
_cell_angle_beta 43.863975
_cell_angle_gamma 30.939155
_cell_volume 662.828483
_symmetry_space_group_name_H-M "P -1"
_symmetry_group_IT_number 2
_symmetry_cell_setting 'triclinic'
loop_
_space_group_symop_operation_xyz
x,y,z
-x,-y,-z
loop_
_atom_site_type_symbol
_atom_site_label
_atom_site_fract_x
_atom_site_fract_y
_atom_site_fract_z
Si Si1 0.792547 0.738265 0.376195
Si Si2 0.631046 0.077996 0.415981
Si Si3 0.633562 0.304537 0.074500
Si Si4 0.083301 0.711138 0.587796
Si Si5 0.263203 0.488131 0.508994
Si Si6 0.810416 0.973227 0.059376
Si Si7 0.255683 0.318115 0.085438
O O1 0.557952 0.789785 0.519174
O O2 0.770164 0.652795 0.366641
O O3 0.721510 0.910011 0.233446
O O4 0.115789 0.606259 0.383877
O O5 0.632894 0.196126 0.245454
O O6 0.500000 0.000000 0.500000
O O7 0.956341 0.901113 0.449596
O O8 0.439741 0.338848 0.047992
O O9 0.500000 0.500000 0.000000
O O10 0.985081 0.173810 0.995645
O O11 0.094131 0.603009 0.586705
O O12 0.404105 0.602503 0.570848
O O13 0.879803 0.740212 0.740677
O O14 0.485108 0.167094 0.023507
O O15 0.000000 0.000000 0.000000
O O16 0.000000 0.500000 0.000000
#
# Coordination Sequence:
#
# PCOD8023287 Si02
#       7
#     2   2   2   2   2   2   2
#     4  11  22  42  69  97 131 169 232 276 326 408
#     4  12  21  43  71  94 132 179 224 270 331 410
#     4  11  26  43  68 100 136 175 222 278 340 398
#     4  11  23  43  65  97 132 174 227 277 341 391
#     4  10  25  37  68  98 128 167 222 292 329 386
#     4  10  23  41  64  96 129 179 219 265 334 404
#     4  11  24  43  66  94 135 178 222 274 337 402
#
# _framework density 21.121603
#
# number of rings (size 3 to 8) (size 9 to 14) (size 15 to 20)
#    0.000    1.143    4.286    0.857   10.000    1.714 
#    2.571    0.714    0.000    0.000    0.000    0.000 
#    0.000    0.000    0.000    0.000    0.000    0.000 
#
# Total GULP energy -173494.426263 kJ/mol
# GULP energy per Si atom -12392.459019 kJ/mol
# Density = 2.107353 g / cm^3
# Si number density = 21.121603 Si / 1000 Ang^3
#
#
#
# Elastic Constant Matrix: (Units=GPa)
#
#
# Indices 1 2 3 4 5 6 
#
# 1 88.8267 55.3363 34.2321 -3.8715 -1.3104 -0.2483
# 2 55.3363 198.6655 75.6321 0.3978 4.2524 -6.2366
# 3 34.2321 75.6321 124.4370 -5.2229 7.5421 1.6141
# 4 -3.8715 0.3978 -5.2229 35.6460 -0.0191 -3.6627
# 5 -1.3104 4.2524 7.5421 -0.0191 20.0324 -0.3852
# 6 -0.2483 -6.2366 1.6141 -3.6627 -0.3852 20.3783
#
#
#
# Elastic Compliance Matrix: (Units=1/GPa)
#
#
# Indices 1 2 3 4 5 6 
#
# 1 0.014137 -0.003239 -0.002006 0.001238 0.002361 -0.000393
# 2 -0.003239 0.007410 -0.003652 -0.000725 -0.000365 0.002380
# 3 -0.002006 -0.003652 0.011101 0.001256 -0.003570 -0.001863
# 4 0.001238 -0.000725 0.001256 0.028882 -0.000116 0.004883
# 5 0.002361 -0.000365 -0.003570 -0.000116 0.051517 0.001153
# 6 -0.000393 0.002380 -0.001863 0.004883 0.001153 0.050843
#
#
# Mechanical properties :
#
#
# Convention : Reuss Voigt Hill
#
# Bulk Modulus (GPa) = 67.32615 82.48115 74.90365
# Shear Modulus (GPa) = 26.79021 31.65990 29.22505
#
# Velocity S-wave (km/s) = 3.56530 3.87581 3.72379
# Velocity P-wave (km/s) = 6.99236 7.69185 7.35043
#
# Compressibility (1/GPa) = 0.01485307
#
# Stress axis : x y z
#
# Youngs Moduli (GPa) = 70.73792 134.95045 90.08199
#
# Poissons Ratio (x) = 0.43714 0.18072
# Poissons Ratio (y) = 0.22914 0.32897
# Poissons Ratio (z) = 0.14191 0.49283
#
# Static dielectric constant tensor:
#      x y z
#    x 3.722480 -0.036880 0.025420 
#    y -0.036880 4.475980 0.023010 
#    z 0.025420 0.023010 3.760740 
# 
# 
# High freq. dielectric constant tensor:
#      x y z
#    x 1.804670 -0.004970 -0.002970 
#    y -0.004970 1.861270 -0.001130 
#    z -0.002970 -0.001130 1.821060 
# 
# From -- ./inp_files/157254.got.cif
#   From: 2010.06.25/outbox.cif.g09.slc.cpg/sg2_79_cif.got.tgz:157254.got - 2010.06.27 13:26:56.
