data_PCOD8023993
_publ_section_title
;
Structure prediction by ZEFSAII (Michael W. Deem and Ramdas Pophale) SiO2 
 PCOD8023993
Probable space group: P -1
;
_chemical_formula_sum "Si O2"
_cell_formula_units_Z 12
_cell_length_a 6.629954
_cell_length_b 14.905215
_cell_length_c 8.913095
_cell_angle_alpha 114.812936
_cell_angle_beta 106.209377
_cell_angle_gamma 120.609943
_cell_volume 533.876047
_symmetry_space_group_name_H-M "P -1"
_symmetry_group_IT_number 2
_symmetry_cell_setting 'triclinic'
loop_
_space_group_symop_operation_xyz
x,y,z
-x,-y,-z
loop_
_atom_site_type_symbol
_atom_site_label
_atom_site_fract_x
_atom_site_fract_y
_atom_site_fract_z
Si Si1 0.284380 0.628815 0.846756
Si Si2 0.742845 0.304807 0.444296
Si Si3 0.263506 0.175232 0.494473
Si Si4 0.326237 0.810900 0.215113
Si Si5 0.348894 0.951063 0.773055
Si Si6 0.274259 0.335414 0.858577
O O1 0.307954 0.689408 0.735549
O O2 0.037758 0.458168 0.678247
O O3 0.198889 0.681139 0.990851
O O4 0.609554 0.692313 0.997793
O O5 0.454990 0.248565 0.433842
O O6 0.783613 0.201314 0.400728
O O7 0.375732 0.120547 0.579949
O O8 0.298458 0.286428 0.673694
O O9 0.911119 0.051599 0.285908
O O10 0.067293 0.747767 0.236894
O O11 0.407230 0.935281 0.222548
O O12 0.500000 0.000000 0.000000
O O13 0.500000 0.500000 0.000000
#
# Coordination Sequence:
#
# PCOD8023993 Si02
#       6
#     2   2   2   2   2   2
#     4  10  23  42  68  99 132 173 221 270 331 385
#     4  11  24  43  67  99 135 172 219 277 326 390
#     4  11  25  42  68  96 134 173 220 271 329 386
#     4  11  24  45  68  99 134 173 219 272 325 394
#     4  12  26  44  66  99 133 176 222 269 331 389
#     4  11  23  43  70 100 132 175 220 269 328 396
#
# _framework density 22.477126999999999
#
# number of rings (size 3 to 8) (size 9 to 14) (size 15 to 20)
#    0.000    1.000    1.667    4.500    2.333    8.667 
#    0.000    4.167    0.000    0.000    0.000    0.000 
#    0.000    0.000    0.000    0.000    0.000    0.000 
#
# Total GULP energy -148823.858580 kJ/mol
# GULP energy per Si atom -12401.988215 kJ/mol
# Density = 2.242597 g / cm^3
# Si number density = 22.477127 Si / 1000 Ang^3
#
#
#
# Elastic Constant Matrix: (Units=GPa)
#
#
# Indices 1 2 3 4 5 6 
#
# 1 122.9559 45.7595 31.3689 -4.7362 7.2765 7.6875
# 2 45.7595 126.2656 27.8547 7.7105 -2.0511 1.6634
# 3 31.3689 27.8547 74.5004 -5.2957 9.5658 -6.6964
# 4 -4.7362 7.7105 -5.2957 31.0981 -3.3902 -8.5331
# 5 7.2765 -2.0511 9.5658 -3.3902 39.5072 0.4331
# 6 7.6875 1.6634 -6.6964 -8.5331 0.4331 38.3119
#
#
#
# Elastic Compliance Matrix: (Units=1/GPa)
#
#
# Indices 1 2 3 4 5 6 
#
# 1 0.010349 -0.003105 -0.003171 0.001061 -0.001184 -0.002246
# 2 -0.003105 0.009960 -0.002969 -0.003598 0.001512 -0.001147
# 3 -0.003171 -0.002969 0.017013 0.004066 -0.003392 0.004683
# 4 0.001061 -0.003598 0.004066 0.036488 0.001669 0.008762
# 5 -0.001184 0.001512 -0.003392 0.001669 0.026577 -0.000350
# 6 -0.002246 -0.001147 0.004683 0.008762 -0.000350 0.029376
#
#
# Mechanical properties :
#
#
# Convention : Reuss Voigt Hill
#
# Bulk Modulus (GPa) = 53.10375 59.29868 56.20121
# Shear Modulus (GPa) = 32.35589 36.36603 34.36096
#
# Velocity S-wave (km/s) = 3.79819 4.02669 3.91411
# Velocity P-wave (km/s) = 6.55073 6.93239 6.74426
#
# Compressibility (1/GPa) = 0.01883106
#
# Stress axis : x y z
#
# Youngs Moduli (GPa) = 96.62689 100.40541 58.77705
#
# Poissons Ratio (x) = 0.31180 0.18638
# Poissons Ratio (y) = 0.30007 0.17452
# Poissons Ratio (z) = 0.30640 0.29812
#
# Static dielectric constant tensor:
#      x y z
#    x 4.316260 -0.252810 0.116350 
#    y -0.252810 4.212240 -0.137390 
#    z 0.116350 -0.137390 4.278810 
# 
# 
# High freq. dielectric constant tensor:
#      x y z
#    x 1.887180 -0.008600 -0.000390 
#    y -0.008600 1.891840 -0.011650 
#    z -0.000390 -0.011650 1.903490 
# 
# From -- ./inp_files/17865.got.cif
#   From: 2010.06.25/outbox.cif.g09.slc.cpg/sg2_9_cif.got.tgz:17865.got - 2010.06.27 13:26:56.
