data_PCOD8023708
_publ_section_title
;
Structure prediction by ZEFSAII (Michael W. Deem and Ramdas Pophale) SiO2 
 PCOD8023708
Probable space group: P -1
;
_chemical_formula_sum "Si O2"
_cell_formula_units_Z 16
_cell_length_a 10.089828
_cell_length_b 8.312200
_cell_length_c 16.650004
_cell_angle_alpha 146.369036
_cell_angle_beta 91.077830
_cell_angle_gamma 93.441067
_cell_volume 765.998664
_symmetry_space_group_name_H-M "P -1"
_symmetry_group_IT_number 2
_symmetry_cell_setting 'triclinic'
loop_
_space_group_symop_operation_xyz
x,y,z
-x,-y,-z
loop_
_atom_site_type_symbol
_atom_site_label
_atom_site_fract_x
_atom_site_fract_y
_atom_site_fract_z
Si Si1 0.309629 0.745120 0.881526
Si Si2 0.491958 0.810714 0.166118
Si Si3 0.565536 0.766774 0.798963
Si Si4 0.909576 0.954168 0.057556
Si Si5 0.250588 0.159567 0.725225
Si Si6 0.349736 0.837202 0.445494
Si Si7 0.007381 0.828705 0.168606
Si Si8 0.236502 0.708748 0.223389
O O1 0.421361 0.643443 0.782723
O O2 0.271590 0.504688 0.849526
O O3 0.187819 0.797277 0.843897
O O4 0.352984 0.051237 0.054219
O O5 0.637371 0.933939 0.252792
O O6 0.387344 0.755472 0.213447
O O7 0.446590 0.039147 0.198339
O O8 0.500000 0.500000 0.000000
O O9 0.639175 0.492647 0.662319
O O10 0.999269 0.019107 0.166369
O O11 0.826449 0.630205 0.923941
O O12 0.000000 0.000000 0.000000
O O13 0.108508 0.100936 0.743012
O O14 0.261886 0.981767 0.569804
O O15 0.252682 0.827034 0.363034
O O16 0.500000 0.000000 0.500000
O O17 0.145940 0.904448 0.250964
O O18 0.000000 0.500000 0.000000
#
# Coordination Sequence:
#
# PCOD8023708 Si02
#       8
#     2   2   2   2   2   2   2   2
#     4  11  20  37  63  99 124 170 227 275 327 389
#     4  12  22  37  67 102 133 172 229 289 331 384
#     4  11  23  36  66  96 134 172 224 274 335 390
#     4  11  23  39  68  99 132 166 227 284 337 395
#     4  12  24  42  69  96 138 180 221 278 339 401
#     4  12  24  46  63 100 142 182 222 271 339 411
#     4  10  23  42  64 100 131 171 223 279 339 390
#     4  11  23  42  66  94 138 180 216 279 340 398
#
# _framework density 20.887764000000001
#
# number of rings (size 3 to 8) (size 9 to 14) (size 15 to 20)
#    0.000    0.750    5.000    4.500    1.750    1.000 
#    0.000    0.000    0.000    2.250    0.000    0.000 
#    0.000    0.000    0.000    0.000    0.000    0.000 
#
# Total GULP energy -198376.848194 kJ/mol
# GULP energy per Si atom -12398.553012 kJ/mol
# Density = 2.084022 g / cm^3
# Si number density = 20.887764 Si / 1000 Ang^3
#
#
#
# Elastic Constant Matrix: (Units=GPa)
#
#
# Indices 1 2 3 4 5 6 
#
# 1 97.3869 37.2622 31.7701 -11.0297 -17.9666 -22.4040
# 2 37.2622 127.2274 29.7508 -10.9271 -7.4715 -23.1100
# 3 31.7701 29.7508 84.0772 -18.4443 -17.8490 -8.8587
# 4 -11.0297 -10.9271 -18.4443 34.7059 2.1471 2.2401
# 5 -17.9666 -7.4715 -17.8490 2.1471 30.2234 -10.1089
# 6 -22.4040 -23.1100 -8.8587 2.2401 -10.1089 47.7621
#
#
#
# Elastic Compliance Matrix: (Units=1/GPa)
#
#
# Indices 1 2 3 4 5 6 
#
# 1 0.015593 -0.001884 -0.001645 0.002316 0.010407 0.008191
# 2 -0.001884 0.009683 -0.001769 0.001184 0.001386 0.003711
# 3 -0.001645 -0.001769 0.016989 0.007181 0.009153 0.003124
# 4 0.002316 0.001184 0.007181 0.033320 0.004327 0.002344
# 5 0.010407 0.001386 0.009153 0.004327 0.050657 0.017769
# 6 0.008191 0.003711 0.003124 0.002344 0.017769 0.030805
#
#
# Mechanical properties :
#
#
# Convention : Reuss Voigt Hill
#
# Bulk Modulus (GPa) = 31.57795 56.25086 43.91440
# Shear Modulus (GPa) = 28.05862 36.53218 32.29540
#
# Velocity S-wave (km/s) = 3.66909 4.18661 3.93636
# Velocity P-wave (km/s) = 5.75329 7.09639 6.45984
#
# Compressibility (1/GPa) = 0.03166767
#
# Stress axis : x y z
#
# Youngs Moduli (GPa) = 64.13320 103.27785 58.86198
#
# Poissons Ratio (x) = 0.19459 0.09681
# Poissons Ratio (y) = 0.12084 0.10414
# Poissons Ratio (z) = 0.10548 0.18273
#
# Static dielectric constant tensor:
#      x y z
#    x 3.964190 -0.204870 -0.028880 
#    y -0.204870 3.881420 -0.136770 
#    z -0.028880 -0.136770 3.594490 
# 
# 
# High freq. dielectric constant tensor:
#      x y z
#    x 1.823650 -0.014480 -0.013540 
#    y -0.014480 1.834710 -0.011440 
#    z -0.013540 -0.011440 1.790040 
# 
# From -- ./inp_files/206958.got.cif
#   From: 2010.06.25/outbox.cif.g09.slc.cpg/sg2_104_cif.got.tgz:206958.got - 2010.06.27 13:26:56.
