data_PCOD8023056
_publ_section_title
;
Structure prediction by ZEFSAII (Michael W. Deem and Ramdas Pophale) SiO2 
 PCOD8023056
Probable space group: P -1
;
_chemical_formula_sum "Si O2"
_cell_formula_units_Z 12
_cell_length_a 6.419020
_cell_length_b 10.039625
_cell_length_c 18.094984
_cell_angle_alpha 50.232231
_cell_angle_beta 106.285639
_cell_angle_gamma 134.503087
_cell_volume 608.534749
_symmetry_space_group_name_H-M "P -1"
_symmetry_group_IT_number 2
_symmetry_cell_setting 'triclinic'
loop_
_space_group_symop_operation_xyz
x,y,z
-x,-y,-z
loop_
_atom_site_type_symbol
_atom_site_label
_atom_site_fract_x
_atom_site_fract_y
_atom_site_fract_z
Si Si1 0.246979 0.506260 0.556784
Si Si2 0.482871 0.810711 0.607869
Si Si3 0.713064 0.266039 0.958503
Si Si4 0.351234 0.596050 0.958285
Si Si5 0.148630 0.100131 0.616080
Si Si6 0.791924 0.260819 0.234848
O O1 0.273297 0.560244 0.627834
O O2 0.145738 0.249663 0.625204
O O3 0.583423 0.718903 0.480396
O O4 0.000000 0.500000 0.500000
O O5 0.327759 0.757860 0.689790
O O6 0.500000 0.000000 0.500000
O O7 0.820038 0.918776 0.608115
O O8 0.986411 0.345959 0.009468
O O9 0.861042 0.466838 0.836392
O O10 0.519577 0.267122 0.998115
O O11 0.500000 0.000000 0.000000
O O12 0.430601 0.774507 0.835861
O O13 0.500000 0.500000 0.000000
O O14 0.202022 0.939811 0.711844
#
# Coordination Sequence:
#
# PCOD8023056 Si02
#       6
#     2   2   2   2   2   2
#     4  11  23  42  63  91 130 175 215 260 311 370
#     4  12  23  41  62  94 134 169 215 261 309 383
#     4   9  21  44  63  91 123 160 214 267 321 377
#     4   9  21  43  66  88 128 159 209 274 322 369
#     4  11  23  41  63  88 132 171 216 258 313 370
#     4  10  23  40  66  93 127 171 213 257 328 377
#
# _framework density 19.719497
#
# number of rings (size 3 to 8) (size 9 to 14) (size 15 to 20)
#    1.000    0.667    3.333    0.500    2.333    0.667 
#    9.000    0.000    0.000    0.000    0.000    0.000 
#    0.000    0.000    0.000    0.000    0.000    0.000 
#
# Total GULP energy -148664.481172 kJ/mol
# GULP energy per Si atom -12388.706764 kJ/mol
# Density = 1.967461 g / cm^3
# Si number density = 19.719497 Si / 1000 Ang^3
#
#
#
# Elastic Constant Matrix: (Units=GPa)
#
#
# Indices 1 2 3 4 5 6 
#
# 1 142.0538 68.6574 53.7542 9.7847 16.6952 -25.4336
# 2 68.6574 154.1124 51.7912 -0.1293 -3.5201 -27.8507
# 3 53.7542 51.7912 121.5251 9.9337 0.2809 -18.8318
# 4 9.7847 -0.1293 9.9337 30.2839 -10.5997 1.0342
# 5 16.6952 -3.5201 0.2809 -10.5997 33.8719 2.2790
# 6 -25.4336 -27.8507 -18.8318 1.0342 2.2790 36.2816
#
#
#
# Elastic Compliance Matrix: (Units=1/GPa)
#
#
# Indices 1 2 3 4 5 6 
#
# 1 0.012224 -0.003933 -0.002406 -0.006415 -0.008760 0.005034
# 2 -0.003933 0.009625 -0.002139 0.003216 0.003748 0.003194
# 3 -0.002406 -0.002139 0.010814 -0.002931 -0.000204 0.002380
# 4 -0.006415 0.003216 -0.002931 0.042267 0.017139 -0.005831
# 5 -0.008760 0.003748 -0.000204 0.017139 0.040024 -0.006372
# 6 0.005034 0.003194 0.002380 -0.005831 -0.006372 0.035345
#
#
# Mechanical properties :
#
#
# Convention : Reuss Voigt Hill
#
# Bulk Modulus (GPa) = 63.66727 85.12188 74.39457
# Shear Modulus (GPa) = 28.98721 36.32003 32.65362
#
# Velocity S-wave (km/s) = 3.83819 4.29631 4.07370
# Velocity P-wave (km/s) = 7.21102 8.23840 7.74177
#
# Compressibility (1/GPa) = 0.01570666
#
# Stress axis : x y z
#
# Youngs Moduli (GPa) = 81.80954 103.89351 92.47613
#
# Poissons Ratio (x) = 0.40859 0.22250
# Poissons Ratio (y) = 0.32173 0.19781
# Poissons Ratio (z) = 0.19684 0.22223
#
# Static dielectric constant tensor:
#      x y z
#    x 3.895880 -0.276870 -0.342850 
#    y -0.276870 3.858250 0.320410 
#    z -0.342850 0.320410 4.037640 
# 
# 
# High freq. dielectric constant tensor:
#      x y z
#    x 1.781670 -0.016080 -0.006080 
#    y -0.016080 1.766120 0.003550 
#    z -0.006080 0.003550 1.750870 
# 
# From -- ./inp_files/546999.got.cif
#   From: 2010.06.25/outbox.cif.g09.slc.cpg/sg2_274_cif.got.tgz:546999.got - 2010.06.27 13:26:56.
