data_PCOD8023361
_publ_section_title
;
Structure prediction by ZEFSAII (Michael W. Deem and Ramdas Pophale) SiO2 
 PCOD8023361
Probable space group: P -1
;
_chemical_formula_sum "Si O2"
_cell_formula_units_Z 14
_cell_length_a 11.898619
_cell_length_b 7.713882
_cell_length_c 7.951526
_cell_angle_alpha 58.691688
_cell_angle_beta 114.136747
_cell_angle_gamma 98.915473
_cell_volume 567.486176
_symmetry_space_group_name_H-M "P -1"
_symmetry_group_IT_number 2
_symmetry_cell_setting 'triclinic'
loop_
_space_group_symop_operation_xyz
x,y,z
-x,-y,-z
loop_
_atom_site_type_symbol
_atom_site_label
_atom_site_fract_x
_atom_site_fract_y
_atom_site_fract_z
Si Si1 0.414357 0.957176 0.814908
Si Si2 0.267094 0.352897 0.429189
Si Si3 0.229773 0.756632 0.029943
Si Si4 0.965551 0.856942 0.700762
Si Si5 0.235734 0.976164 0.279317
Si Si6 0.399038 0.330193 0.141646
Si Si7 0.356524 0.579423 0.678044
O O1 0.496518 0.811150 0.819958
O O2 0.368193 0.161329 0.581441
O O3 0.294185 0.856080 0.863005
O O4 0.500000 0.000000 0.000000
O O5 0.291924 0.524308 0.213528
O O6 0.126651 0.297365 0.355679
O O7 0.276229 0.460314 0.559607
O O8 0.241934 0.897739 0.131566
O O9 0.087066 0.736251 0.910128
O O10 0.902555 0.984313 0.754659
O O11 0.000000 0.000000 0.500000
O O12 0.306671 0.816220 0.528408
O O13 0.299692 0.191311 0.235116
O O14 0.495248 0.442541 0.266118
O O15 0.329128 0.488087 0.891318
#
# Coordination Sequence:
#
# PCOD8023361 Si02
#       7
#     2   2   2   2   2   2   2
#     4  12  22  42  72 103 143 176 219 283 339 406
#     4  11  24  45  68 103 136 182 232 280 338 402
#     4  11  25  46  72 103 136 182 231 278 341 403
#     4  12  26  49  73  95 139 181 234 287 342 399
#     4  11  24  46  69  99 136 180 228 277 342 404
#     4  11  23  42  67 102 144 178 221 271 347 405
#     4  10  23  41  66 104 138 179 221 279 337 409
#
# _framework density 24.670203999999998
#
# number of rings (size 3 to 8) (size 9 to 14) (size 15 to 20)
#    0.000    0.857    4.286    2.143    0.000    4.000 
#    2.571    1.429    0.000    0.000    0.000    0.000 
#    0.000    0.000    0.000    0.000    0.000    0.000 
#
# Total GULP energy -173597.419650 kJ/mol
# GULP energy per Si atom -12399.815689 kJ/mol
# Density = 2.461405 g / cm^3
# Si number density = 24.670204 Si / 1000 Ang^3
#
#
#
# Elastic Constant Matrix: (Units=GPa)
#
#
# Indices 1 2 3 4 5 6 
#
# 1 118.3528 14.5346 44.3504 -14.5781 -2.9421 17.4293
# 2 14.5346 113.2045 39.9768 -5.5787 3.0462 16.7675
# 3 44.3504 39.9768 159.3637 -17.6220 12.8245 12.9438
# 4 -14.5781 -5.5787 -17.6220 45.3686 6.7049 9.1754
# 5 -2.9421 3.0462 12.8245 6.7049 44.8468 0.7730
# 6 17.4293 16.7675 12.9438 9.1754 0.7730 38.3784
#
#
#
# Elastic Compliance Matrix: (Units=1/GPa)
#
#
# Indices 1 2 3 4 5 6 
#
# 1 0.010429 0.000342 -0.002286 0.003371 0.000896 -0.004939
# 2 0.000342 0.010253 -0.002149 0.001424 -0.000199 -0.004247
# 3 -0.002286 -0.002149 0.008093 0.002824 -0.002717 -0.001373
# 4 0.003371 0.001424 0.002824 0.026984 -0.004554 -0.009465
# 5 0.000896 -0.000199 -0.002717 -0.004554 0.023807 0.001206
# 6 -0.004939 -0.004247 -0.001373 -0.009465 0.001206 0.032856
#
#
# Mechanical properties :
#
#
# Convention : Reuss Voigt Hill
#
# Bulk Modulus (GPa) = 48.57110 65.40495 56.98803
# Shear Modulus (GPa) = 39.22463 45.18939 42.20701
#
# Velocity S-wave (km/s) = 3.99176 4.28453 4.14073
# Velocity P-wave (km/s) = 6.40128 7.14461 6.78314
#
# Compressibility (1/GPa) = 0.02058838
#
# Stress axis : x y z
#
# Youngs Moduli (GPa) = 95.88754 97.53229 123.57064
#
# Poissons Ratio (x) = -0.03335 0.28251
# Poissons Ratio (y) = -0.03278 0.26551
# Poissons Ratio (z) = 0.21922 0.20957
#
# Static dielectric constant tensor:
#      x y z
#    x 6.089280 2.974170 2.052490 
#    y 2.974170 10.149610 3.459160 
#    z 2.052490 3.459160 7.127970 
# 
# 
# High freq. dielectric constant tensor:
#      x y z
#    x 1.976060 -0.006440 -0.001310 
#    y -0.006440 2.006570 0.004280 
#    z -0.001310 0.004280 2.007140 
# 
# From -- ./inp_files/179615.got.cif
#   From: 2010.06.25/outbox.cif.g09.slc.cpg/sg2_90_cif.got.tgz:179615.got - 2010.06.27 13:26:56.
