data_PCOD8023454
_publ_section_title
;
Structure prediction by ZEFSAII (Michael W. Deem and Ramdas Pophale) SiO2 
 PCOD8023454
Probable space group: P -1
;
_chemical_formula_sum "Si O2"
_cell_formula_units_Z 16
_cell_length_a 13.429616
_cell_length_b 9.026976
_cell_length_c 18.085047
_cell_angle_alpha 75.946723
_cell_angle_beta 136.061417
_cell_angle_gamma 139.497310
_cell_volume 727.984061
_symmetry_space_group_name_H-M "P -1"
_symmetry_group_IT_number 2
_symmetry_cell_setting 'triclinic'
loop_
_space_group_symop_operation_xyz
x,y,z
-x,-y,-z
loop_
_atom_site_type_symbol
_atom_site_label
_atom_site_fract_x
_atom_site_fract_y
_atom_site_fract_z
Si Si1 0.366193 0.624367 0.314190
Si Si2 0.129401 0.677230 0.469193
Si Si3 0.960420 0.876687 0.689389
Si Si4 0.986413 0.436970 0.916539
Si Si5 0.588801 0.873207 0.677948
Si Si6 0.302353 0.304779 0.585573
Si Si7 0.511119 0.184060 0.958466
Si Si8 0.917257 0.684596 0.233460
O O1 0.080077 0.463169 0.171169
O O2 0.489179 0.651895 0.303210
O O3 0.279355 0.409515 0.348705
O O4 0.638976 0.972643 0.445226
O O5 0.291239 0.683099 0.518081
O O6 0.000000 0.500000 0.500000
O O7 0.896668 0.532457 0.304387
O O8 0.776602 0.733052 0.535904
O O9 0.098382 0.162308 0.757958
O O10 0.211651 0.983192 0.797002
O O11 0.280100 0.626569 0.024731
O O12 0.722247 0.077863 0.797831
O O13 0.000000 0.500000 0.000000
O O14 0.495778 0.619036 0.685448
O O15 0.798212 0.072082 0.695119
O O16 0.000000 0.000000 0.500000
O O17 0.637474 0.403750 0.065972
O O18 0.500000 0.000000 0.000000
#
# Coordination Sequence:
#
# PCOD8023454 Si02
#       8
#     2   2   2   2   2   2   2   2
#     4  11  22  44  69  96 132 178 220 269 345 397
#     4  11  23  40  65 101 135 173 224 280 334 394
#     4  12  24  45  69  96 141 177 223 278 337 416
#     4  10  24  46  69  95 136 179 222 280 338 401
#     4  10  23  41  67  97 133 171 233 267 337 401
#     4  12  25  41  67 102 136 172 224 285 342 397
#     4  11  25  43  67 102 128 179 232 272 333 406
#     4  11  23  44  68  96 135 180 225 274 339 405
#
# _framework density 21.978501999999999
#
# number of rings (size 3 to 8) (size 9 to 14) (size 15 to 20)
#    0.000    1.000    3.750    2.625    3.500    2.000 
#    0.000    0.625    0.000    0.000    0.000    0.000 
#    0.000    0.000    0.000    0.000    0.000    0.000 
#
# Total GULP energy -198295.004636 kJ/mol
# GULP energy per Si atom -12393.437790 kJ/mol
# Density = 2.192848 g / cm^3
# Si number density = 21.978502 Si / 1000 Ang^3
#
#
#
# Elastic Constant Matrix: (Units=GPa)
#
#
# Indices 1 2 3 4 5 6 
#
# 1 113.4124 21.0854 34.3051 -0.8711 6.5890 -11.4261
# 2 21.0854 68.7518 13.5478 9.0873 -6.3313 5.0103
# 3 34.3051 13.5478 67.5328 -0.3302 5.6460 2.1790
# 4 -0.8711 9.0873 -0.3302 23.7833 0.7327 -1.0295
# 5 6.5890 -6.3313 5.6460 0.7327 49.4498 0.6958
# 6 -11.4261 5.0103 2.1790 -1.0295 0.6958 41.7723
#
#
#
# Elastic Compliance Matrix: (Units=1/GPa)
#
#
# Indices 1 2 3 4 5 6 
#
# 1 0.011452 -0.003133 -0.005186 0.001754 -0.001415 0.003845
# 2 -0.003133 0.017340 -0.002076 -0.006994 0.003021 -0.003051
# 3 -0.005186 -0.002076 0.018064 0.000814 -0.001620 -0.002065
# 4 0.001754 -0.006994 0.000814 0.044958 -0.001922 0.002416
# 5 -0.001415 0.003021 -0.001620 -0.001922 0.021026 -0.001062
# 6 0.003845 -0.003051 -0.002065 0.002416 -0.001062 0.025542
#
#
# Mechanical properties :
#
#
# Convention : Reuss Voigt Hill
#
# Bulk Modulus (GPa) = 38.36182 43.06372 40.71277
# Shear Modulus (GPa) = 29.78682 35.05164 32.41923
#
# Velocity S-wave (km/s) = 3.68539 3.99785 3.84480
# Velocity P-wave (km/s) = 5.96671 6.39894 6.18660
#
# Compressibility (1/GPa) = 0.02606759
#
# Stress axis : x y z
#
# Youngs Moduli (GPa) = 87.32473 57.67081 55.35757
#
# Poissons Ratio (x) = 0.18066 0.28708
# Poissons Ratio (y) = 0.27355 0.11490
# Poissons Ratio (z) = 0.45285 0.11970
#
# Static dielectric constant tensor:
#      x y z
#    x 4.388510 -0.261150 0.240760 
#    y -0.261150 3.880880 0.095450 
#    z 0.240760 0.095450 3.992450 
# 
# 
# High freq. dielectric constant tensor:
#      x y z
#    x 1.882350 -0.013410 0.014770 
#    y -0.013410 1.861830 0.008440 
#    z 0.014770 0.008440 1.855820 
# 
# From -- ./inp_files/259961.got.cif
#   From: 2010.06.25/outbox.cif.g09.slc.cpg/sg2_130_cif.got.tgz:259961.got - 2010.06.27 13:26:56.
