data_PCOD8023874
_publ_section_title
;
Structure prediction by ZEFSAII (Michael W. Deem and Ramdas Pophale) SiO2 
 PCOD8023874
Probable space group: P -1
;
_chemical_formula_sum "Si O2"
_cell_formula_units_Z 16
_cell_length_a 5.147794
_cell_length_b 10.749627
_cell_length_c 20.457275
_cell_angle_alpha 134.150847
_cell_angle_beta 120.429361
_cell_angle_gamma 72.135685
_cell_volume 698.424978
_symmetry_space_group_name_H-M "P -1"
_symmetry_group_IT_number 2
_symmetry_cell_setting 'triclinic'
loop_
_space_group_symop_operation_xyz
x,y,z
-x,-y,-z
loop_
_atom_site_type_symbol
_atom_site_label
_atom_site_fract_x
_atom_site_fract_y
_atom_site_fract_z
Si Si1 0.901390 0.359903 0.381735
Si Si2 0.244651 0.071880 0.608065
Si Si3 0.114552 0.339133 0.873125
Si Si4 0.816614 0.658248 0.724670
Si Si5 0.142197 0.002129 0.948104
Si Si6 0.199437 0.446627 0.777133
Si Si7 0.719329 0.646448 0.964119
Si Si8 0.901258 0.989824 0.665440
O O1 0.540414 0.331483 0.320892
O O2 0.000000 0.500000 0.500000
O O3 0.044965 0.418708 0.352000
O O4 0.047486 0.184227 0.353902
O O5 0.282925 0.282633 0.684260
O O6 0.554061 0.989078 0.597474
O O7 0.000000 0.000000 0.500000
O O8 0.133880 0.010927 0.643072
O O9 0.231752 0.388743 0.834880
O O10 0.875229 0.468904 0.912212
O O11 0.365267 0.336630 0.962613
O O12 0.950752 0.146457 0.780221
O O13 0.884737 0.518169 0.739122
O O14 0.982250 0.847385 0.828215
O O15 0.076483 0.183303 0.970612
O O16 0.500000 0.000000 0.000000
O O17 0.000000 0.000000 0.000000
O O18 0.432496 0.619185 0.868250
#
# Coordination Sequence:
#
# PCOD8023874 Si02
#       8
#     2   2   2   2   2   2   2   2
#     4  12  29  49  75 103 139 193 248 299 366 424
#     4  11  25  42  73 103 134 182 225 302 360 413
#     4  10  23  42  67 103 138 188 224 295 353 422
#     4  12  27  47  74 104 146 191 238 305 356 428
#     4  12  25  44  70 106 148 191 240 291 356 432
#     4  11  24  42  71 103 145 177 248 281 365 419
#     4  11  22  42  69 100 145 184 236 284 354 428
#     4  11  24  47  68  98 144 172 241 285 353 430
#
# _framework density 22.908687
#
# number of rings (size 3 to 8) (size 9 to 14) (size 15 to 20)
#    0.000    0.750    2.500    4.125    5.250    0.000 
#    2.250    0.000    0.000    0.000    0.000    0.000 
#    0.000    0.000    0.000    0.000    0.000    0.000 
#
# Total GULP energy -198337.592615 kJ/mol
# GULP energy per Si atom -12396.099538 kJ/mol
# Density = 2.285655 g / cm^3
# Si number density = 22.908687 Si / 1000 Ang^3
#
#
#
# Elastic Constant Matrix: (Units=GPa)
#
#
# Indices 1 2 3 4 5 6 
#
# 1 99.3052 29.4955 38.8901 3.7382 3.0583 -11.7845
# 2 29.4955 137.7241 63.7242 11.5251 6.6635 -3.4995
# 3 38.8901 63.7242 142.9141 -7.4287 4.6329 -6.9407
# 4 3.7382 11.5251 -7.4287 23.2391 -3.6731 4.0928
# 5 3.0583 6.6635 4.6329 -3.6731 41.0301 -12.6885
# 6 -11.7845 -3.4995 -6.9407 4.0928 -12.6885 39.1697
#
#
#
# Elastic Compliance Matrix: (Units=1/GPa)
#
#
# Indices 1 2 3 4 5 6 
#
# 1 0.011965 -0.000939 -0.002834 -0.002910 0.000385 0.003442
# 2 -0.000939 0.010226 -0.004597 -0.006649 -0.001677 -0.000032
# 3 -0.002834 -0.004597 0.010120 0.006025 0.000360 0.000017
# 4 -0.002910 -0.006649 0.006025 0.050092 0.003732 -0.004427
# 5 0.000385 -0.001677 0.000360 0.003732 0.027559 0.008567
# 6 0.003442 -0.000032 0.000017 -0.004427 0.008567 0.029804
#
#
# Mechanical properties :
#
#
# Convention : Reuss Voigt Hill
#
# Bulk Modulus (GPa) = 64.21868 71.57367 67.89617
# Shear Modulus (GPa) = 30.92244 37.21002 34.06623
#
# Velocity S-wave (km/s) = 3.67797 4.03460 3.86040
# Velocity P-wave (km/s) = 6.79190 7.28113 7.04077
#
# Compressibility (1/GPa) = 0.01557179
#
# Stress axis : x y z
#
# Youngs Moduli (GPa) = 83.57828 97.79346 98.81039
#
# Poissons Ratio (x) = 0.09181 0.28001
# Poissons Ratio (y) = 0.07846 0.45422
# Poissons Ratio (z) = 0.23685 0.44954
#
# Static dielectric constant tensor:
#      x y z
#    x 4.154490 -0.003360 -0.132310 
#    y -0.003360 4.403160 -0.077270 
#    z -0.132310 -0.077270 4.974360 
# 
# 
# High freq. dielectric constant tensor:
#      x y z
#    x 1.893270 0.000610 -0.000340 
#    y 0.000610 1.916030 0.001680 
#    z -0.000340 0.001680 1.926900 
# 
# From -- ./inp_files/583333.got.cif
#   From: 2010.06.25/outbox.cif.g09.slc.cpg/sg2_292_cif.got.tgz:583333.got - 2010.06.27 13:26:56.
