data_PCOD8023347
_publ_section_title
;
Structure prediction by ZEFSAII (Michael W. Deem and Ramdas Pophale) SiO2 
 PCOD8023347
Probable space group: P -1
;
_chemical_formula_sum "Si O2"
_cell_formula_units_Z 14
_cell_length_a 14.484734
_cell_length_b 14.687120
_cell_length_c 9.077849
_cell_angle_alpha 49.781742
_cell_angle_beta 66.086259
_cell_angle_gamma 29.652026
_cell_volume 664.638195
_symmetry_space_group_name_H-M "P -1"
_symmetry_group_IT_number 2
_symmetry_cell_setting 'triclinic'
loop_
_space_group_symop_operation_xyz
x,y,z
-x,-y,-z
loop_
_atom_site_type_symbol
_atom_site_label
_atom_site_fract_x
_atom_site_fract_y
_atom_site_fract_z
Si Si1 0.236618 0.523838 0.636998
Si Si2 0.206281 0.221012 0.614378
Si Si3 0.484441 0.379161 0.174332
Si Si4 0.573153 0.226327 0.970070
Si Si5 0.480688 0.091948 0.765677
Si Si6 0.791243 0.251416 0.799588
Si Si7 0.193645 0.129330 0.404494
O O1 0.422129 0.341165 0.820747
O O2 0.314936 0.365580 0.614182
O O3 0.174009 0.717890 0.410760
O O4 0.042126 0.660677 0.697209
O O5 0.400269 0.097836 0.673598
O O6 0.210038 0.202541 0.455372
O O7 0.000000 0.500000 0.500000
O O8 0.232210 0.063753 0.839542
O O9 0.309042 0.548504 0.233283
O O10 0.694529 0.110967 0.384333
O O11 0.500000 0.500000 0.000000
O O12 0.441482 0.355227 0.072988
O O13 0.653199 0.277016 0.833156
O O14 0.702860 0.915128 0.758549
O O15 0.500000 0.000000 0.000000
O O16 0.000000 0.000000 0.000000
#
# Coordination Sequence:
#
# PCOD8023347 Si02
#       7
#     2   2   2   2   2   2   2
#     4  12  23  44  65 100 136 171 219 277 340 387
#     4  11  22  43  69  99 132 177 228 266 327 397
#     4   9  19  40  64  92 127 167 220 266 319 397
#     4  10  23  41  65  98 135 173 218 276 330 391
#     4  12  25  45  66  97 137 175 223 280 329 392
#     4  11  22  42  70  97 131 175 222 272 329 399
#     4  11  24  43  68  95 134 178 221 273 332 395
#
# _framework density 21.064091999999999
#
# number of rings (size 3 to 8) (size 9 to 14) (size 15 to 20)
#    0.000    1.143    4.286    3.429    0.000    0.571 
#    2.571    3.571    0.000    0.000    0.000    0.000 
#    0.000    0.000    0.000    0.000    0.000    0.000 
#
# Total GULP energy -173521.698279 kJ/mol
# GULP energy per Si atom -12394.407020 kJ/mol
# Density = 2.101615 g / cm^3
# Si number density = 21.064092 Si / 1000 Ang^3
#
#
#
# Elastic Constant Matrix: (Units=GPa)
#
#
# Indices 1 2 3 4 5 6 
#
# 1 94.4005 46.1049 36.2025 0.6740 -2.0037 -6.6071
# 2 46.1049 133.2702 49.1345 -7.1967 -10.8033 -12.3317
# 3 36.2025 49.1345 118.3826 1.3871 -7.9868 -2.8649
# 4 0.6740 -7.1967 1.3871 34.3045 -3.1026 -9.0891
# 5 -2.0037 -10.8033 -7.9868 -3.1026 31.1733 -2.0552
# 6 -6.6071 -12.3317 -2.8649 -9.0891 -2.0552 37.6980
#
#
#
# Elastic Compliance Matrix: (Units=1/GPa)
#
#
# Indices 1 2 3 4 5 6 
#
# 1 0.013464 -0.003781 -0.002600 -0.000885 -0.001156 0.000649
# 2 -0.003781 0.010743 -0.003033 0.003731 0.003318 0.003702
# 3 -0.002600 -0.003033 0.010583 -0.001116 0.001327 -0.000840
# 4 -0.000885 0.003731 -0.001116 0.032861 0.004825 0.009167
# 5 -0.001156 0.003318 0.001327 0.004825 0.034239 0.004014
# 6 0.000649 0.003702 -0.000840 0.009167 0.004014 0.030216
#
#
# Mechanical properties :
#
#
# Convention : Reuss Voigt Hill
#
# Bulk Modulus (GPa) = 62.64636 67.65968 65.15302
# Shear Modulus (GPa) = 31.99899 34.94258 33.47079
#
# Velocity S-wave (km/s) = 3.90182 4.07734 3.99055
# Velocity P-wave (km/s) = 7.07844 7.37271 7.22708
#
# Compressibility (1/GPa) = 0.01596262
#
# Stress axis : x y z
#
# Youngs Moduli (GPa) = 74.27195 93.08699 94.48789
#
# Poissons Ratio (x) = 0.35194 0.24569
# Poissons Ratio (y) = 0.28080 0.28656
# Poissons Ratio (z) = 0.19312 0.28231
#
# Static dielectric constant tensor:
#      x y z
#    x 4.015940 0.244860 -0.305910 
#    y 0.244860 4.224130 0.039810 
#    z -0.305910 0.039810 3.903550 
# 
# 
# High freq. dielectric constant tensor:
#      x y z
#    x 1.819800 0.013370 -0.013720 
#    y 0.013370 1.823630 -0.005920 
#    z -0.013720 -0.005920 1.834030 
# 
# From -- ./inp_files/187993.got.cif
#   From: 2010.06.25/outbox.cif.g09.slc.cpg/sg2_94_cif.got.tgz:187993.got - 2010.06.27 13:26:56.
