data_PCOD8023670
_publ_section_title
;
Structure prediction by ZEFSAII (Michael W. Deem and Ramdas Pophale) SiO2 
 PCOD8023670
Probable space group: P -1
;
_chemical_formula_sum "Si O2"
_cell_formula_units_Z 16
_cell_length_a 11.428562
_cell_length_b 11.866606
_cell_length_c 11.275057
_cell_angle_alpha 123.773834
_cell_angle_beta 57.693734
_cell_angle_gamma 78.394074
_cell_volume 757.345834
_symmetry_space_group_name_H-M "P -1"
_symmetry_group_IT_number 2
_symmetry_cell_setting 'triclinic'
loop_
_space_group_symop_operation_xyz
x,y,z
-x,-y,-z
loop_
_atom_site_type_symbol
_atom_site_label
_atom_site_fract_x
_atom_site_fract_y
_atom_site_fract_z
Si Si1 0.137303 0.775076 0.292896
Si Si2 0.872590 0.712019 0.324097
Si Si3 0.459781 0.096437 0.850105
Si Si4 0.843940 0.021174 0.166429
Si Si5 0.816816 0.282082 0.490770
Si Si6 0.538770 0.301006 0.060829
Si Si7 0.136213 0.283423 0.943136
Si Si8 0.260768 0.010325 0.027215
O O1 0.201408 0.700258 0.347889
O O2 0.027925 0.724362 0.264436
O O3 0.326702 0.673153 0.050036
O O4 0.000000 0.000000 0.500000
O O5 0.816286 0.732664 0.229809
O O6 0.674513 0.880590 0.600197
O O7 0.967331 0.507222 0.203724
O O8 0.338030 0.171242 0.838241
O O9 0.479101 0.241393 0.952802
O O10 0.351157 0.098421 0.021697
O O11 0.937740 0.818269 0.050198
O O12 0.762286 0.169391 0.405231
O O13 0.685814 0.092139 0.191370
O O14 0.000000 0.000000 0.000000
O O15 0.652712 0.499690 0.658694
O O16 0.027371 0.186643 0.275330
O O17 0.655156 0.137939 0.001310
#
# Coordination Sequence:
#
# PCOD8023670 Si02
#       8
#     2   2   2   2   2   2   2   2
#     4  12  22  42  68  94 132 170 211 272 324 378
#     4  11  23  42  66  95 133 171 215 269 320 383
#     4  11  23  41  64  95 131 167 217 263 321 390
#     4   9  21  41  66  90 130 169 213 264 315 381
#     4  11  23  42  64  95 129 169 213 267 322 380
#     4  12  25  40  67  97 128 171 216 263 326 387
#     4  10  23  42  64  95 128 174 217 264 327 378
#     4  10  23  42  62  94 127 174 215 262 325 378
#
# _framework density 21.126411999999998
#
# number of rings (size 3 to 8) (size 9 to 14) (size 15 to 20)
#    0.000    1.250    2.500    2.625    1.750    4.000 
#    9.000    0.000    0.000    0.000    0.000    0.000 
#    0.000    0.000    0.000    0.000    0.000    0.000 
#
# Total GULP energy -198386.923397 kJ/mol
# GULP energy per Si atom -12399.182712 kJ/mol
# Density = 2.107833 g / cm^3
# Si number density = 21.126412 Si / 1000 Ang^3
#
#
#
# Elastic Constant Matrix: (Units=GPa)
#
#
# Indices 1 2 3 4 5 6 
#
# 1 108.9870 43.4003 58.8494 2.2124 0.5309 6.2138
# 2 43.4003 83.9776 47.8409 -5.7767 -4.1989 15.4735
# 3 58.8494 47.8409 136.3320 23.6742 -6.4541 12.9234
# 4 2.2124 -5.7767 23.6742 30.8264 4.8707 10.0464
# 5 0.5309 -4.1989 -6.4541 4.8707 33.6297 -2.4528
# 6 6.2138 15.4735 12.9234 10.0464 -2.4528 34.3257
#
#
#
# Elastic Compliance Matrix: (Units=1/GPa)
#
#
# Indices 1 2 3 4 5 6 
#
# 1 0.013388 -0.004253 -0.004784 0.002036 -0.001914 0.000562
# 2 -0.004253 0.020533 -0.006701 0.012669 -0.001202 -0.009757
# 3 -0.004784 -0.006701 0.013969 -0.013181 0.004031 0.002774
# 4 0.002036 0.012669 -0.013181 0.051866 -0.009731 -0.016993
# 5 -0.001914 -0.001202 0.004031 -0.009731 0.032128 0.004515
# 6 0.000562 -0.009757 0.002774 -0.016993 0.004515 0.037681
#
#
# Mechanical properties :
#
#
# Convention : Reuss Voigt Hill
#
# Bulk Modulus (GPa) = 60.92927 69.94200 65.43564
# Shear Modulus (GPa) = 24.21156 31.70344 27.95750
#
# Velocity S-wave (km/s) = 3.38898 3.87803 3.64173
# Velocity P-wave (km/s) = 6.64955 7.29592 6.98022
#
# Compressibility (1/GPa) = 0.01641247
#
# Stress axis : x y z
#
# Youngs Moduli (GPa) = 74.69236 48.70252 71.58890
#
# Poissons Ratio (x) = 0.20713 0.34250
# Poissons Ratio (y) = 0.31766 0.47975
# Poissons Ratio (z) = 0.35734 0.32638
#
# Static dielectric constant tensor:
#      x y z
#    x 4.473590 0.101650 0.282610 
#    y 0.101650 3.957360 0.113150 
#    z 0.282610 0.113150 3.859930 
# 
# 
# High freq. dielectric constant tensor:
#      x y z
#    x 1.843420 -0.000760 0.007710 
#    y -0.000760 1.835310 0.003990 
#    z 0.007710 0.003990 1.816470 
# 
# From -- ./inp_files/428884.got.cif
#   From: 2010.06.25/outbox.cif.g09.slc.cpg/sg2_215_cif.got.tgz:428884.got - 2010.06.27 13:26:56.
