data_PCOD8023726
_publ_section_title
;
Structure prediction by ZEFSAII (Michael W. Deem and Ramdas Pophale) SiO2 
 PCOD8023726
Probable space group: P -1
;
_chemical_formula_sum "Si O2"
_cell_formula_units_Z 16
_cell_length_a 11.729524
_cell_length_b 14.935568
_cell_length_c 5.068722
_cell_angle_alpha 116.533075
_cell_angle_beta 106.697153
_cell_angle_gamma 67.570649
_cell_volume 726.980564
_symmetry_space_group_name_H-M "P -1"
_symmetry_group_IT_number 2
_symmetry_cell_setting 'triclinic'
loop_
_space_group_symop_operation_xyz
x,y,z
-x,-y,-z
loop_
_atom_site_type_symbol
_atom_site_label
_atom_site_fract_x
_atom_site_fract_y
_atom_site_fract_z
Si Si1 0.114882 0.458453 0.318254
Si Si2 0.640346 0.980930 0.486967
Si Si3 0.542065 0.365373 0.096390
Si Si4 0.030902 0.789269 0.930090
Si Si5 0.228350 0.055594 0.980102
Si Si6 0.264986 0.853717 0.017466
Si Si7 0.023496 0.661934 0.239388
Si Si8 0.614305 0.569654 0.410867
O O1 0.245991 0.420756 0.508163
O O2 0.000000 0.500000 0.500000
O O3 0.120599 0.552157 0.247971
O O4 0.097958 0.362550 0.002263
O O5 0.677712 0.926571 0.158588
O O6 0.500000 0.000000 0.500000
O O7 0.725542 0.905451 0.665405
O O8 0.673032 0.091469 0.644948
O O9 0.642273 0.260341 0.126199
O O10 0.616269 0.449924 0.206415
O O11 0.436581 0.398106 0.289679
O O12 0.471949 0.353658 0.762761
O O13 0.131757 0.847059 0.008642
O O14 0.992364 0.735893 0.574095
O O15 0.911424 0.876221 0.082632
O O16 0.084856 0.709722 0.103716
O O17 0.240293 0.930894 0.846765
#
# Coordination Sequence:
#
# PCOD8023726 Si02
#       8
#     2   2   2   2   2   2   2   2
#     4  11  24  47  67 100 136 176 221 275 348 395
#     4  10  23  45  66  94 132 184 216 269 334 397
#     4  10  23  42  64  96 127 176 220 266 330 389
#     4  12  24  44  67 106 131 175 227 287 334 394
#     4  10  24  43  69  98 136 170 226 280 331 393
#     4  10  26  41  73  96 137 177 226 276 342 391
#     4  11  26  40  67  99 138 175 219 267 351 398
#     4  10  24  42  65  92 133 168 220 276 320 397
#
# _framework density 22.008842999999999
#
# number of rings (size 3 to 8) (size 9 to 14) (size 15 to 20)
#    0.750    0.750    1.250    2.250    7.000    2.500 
#    6.750    0.000    0.000    0.000    0.000    0.000 
#    0.000    0.000    0.000    0.000    0.000    0.000 
#
# Total GULP energy -198288.275059 kJ/mol
# GULP energy per Si atom -12393.017191 kJ/mol
# Density = 2.195875 g / cm^3
# Si number density = 22.008843 Si / 1000 Ang^3
#
#
#
# Elastic Constant Matrix: (Units=GPa)
#
#
# Indices 1 2 3 4 5 6 
#
# 1 141.7010 33.1006 47.1409 -9.7878 -2.5181 -9.6176
# 2 33.1006 64.1628 33.1092 -8.3716 -3.5725 0.7732
# 3 47.1409 33.1092 96.6790 -11.6529 -12.0552 10.8001
# 4 -9.7878 -8.3716 -11.6529 29.8574 7.1641 -6.3944
# 5 -2.5181 -3.5725 -12.0552 7.1641 36.4509 -6.7540
# 6 -9.6176 0.7732 10.8001 -6.3944 -6.7540 27.5262
#
#
#
# Elastic Compliance Matrix: (Units=1/GPa)
#
#
# Indices 1 2 3 4 5 6 
#
# 1 0.009556 -0.002595 -0.004179 0.002025 -0.000368 0.005432
# 2 -0.002595 0.020089 -0.005439 0.003020 -0.000366 0.001275
# 3 -0.004179 -0.005439 0.015449 0.001068 0.002890 -0.006412
# 4 0.002025 0.003020 0.001068 0.038366 -0.005303 0.007815
# 5 -0.000368 -0.000366 0.002890 -0.005303 0.030288 0.004947
# 6 0.005432 0.001275 -0.006412 0.007815 0.004947 0.043736
#
#
# Mechanical properties :
#
#
# Convention : Reuss Voigt Hill
#
# Bulk Modulus (GPa) = 48.38298 58.80491 53.59395
# Shear Modulus (GPa) = 26.48334 31.37973 28.93153
#
# Velocity S-wave (km/s) = 3.47263 3.78004 3.62959
# Velocity P-wave (km/s) = 6.17333 6.76967 6.47837
#
# Compressibility (1/GPa) = 0.02066842
#
# Stress axis : x y z
#
# Youngs Moduli (GPa) = 104.65082 49.77946 64.72837
#
# Poissons Ratio (x) = 0.12916 0.27052
# Poissons Ratio (y) = 0.27153 0.35203
# Poissons Ratio (z) = 0.43736 0.27073
#
# Static dielectric constant tensor:
#      x y z
#    x 3.751010 0.163450 0.057600 
#    y 0.163450 3.920200 -0.148420 
#    z 0.057600 -0.148420 4.032230 
# 
# 
# High freq. dielectric constant tensor:
#      x y z
#    x 1.859920 0.006640 -0.002490 
#    y 0.006640 1.859040 -0.014610 
#    z -0.002490 -0.014610 1.865710 
# 
# From -- ./inp_files/80050.got.cif
#   From: 2010.06.25/outbox.cif.g09.slc.cpg/sg2_41_cif.got.tgz:80050.got - 2010.06.27 13:26:56.
