data_PCOD8023705
_publ_section_title
;
Structure prediction by ZEFSAII (Michael W. Deem and Ramdas Pophale) SiO2 
 PCOD8023705
Probable space group: P -1
;
_chemical_formula_sum "Si O2"
_cell_formula_units_Z 16
_cell_length_a 12.067248
_cell_length_b 14.188268
_cell_length_c 8.738585
_cell_angle_alpha 100.078060
_cell_angle_beta 88.694283
_cell_angle_gamma 30.599614
_cell_volume 703.533917
_symmetry_space_group_name_H-M "P -1"
_symmetry_group_IT_number 2
_symmetry_cell_setting 'triclinic'
loop_
_space_group_symop_operation_xyz
x,y,z
-x,-y,-z
loop_
_atom_site_type_symbol
_atom_site_label
_atom_site_fract_x
_atom_site_fract_y
_atom_site_fract_z
Si Si1 0.092188 0.560281 0.884928
Si Si2 0.536089 0.291248 0.614970
Si Si3 0.645482 0.391880 0.813191
Si Si4 0.291708 0.490134 0.379993
Si Si5 0.085928 0.972214 0.826522
Si Si6 0.263040 0.003607 0.998972
Si Si7 0.777291 0.629634 0.853473
Si Si8 0.045873 0.107493 0.344289
O O1 0.935690 0.601773 0.811167
O O2 0.323099 0.398755 0.733300
O O3 0.948447 0.766654 0.972567
O O4 0.152439 0.478629 0.026988
O O5 0.536566 0.399837 0.700918
O O6 0.507501 0.309881 0.437483
O O7 0.784384 0.054004 0.570467
O O8 0.625446 0.510388 0.767966
O O9 0.904359 0.170299 0.788893
O O10 0.500000 0.500000 0.000000
O O11 0.189082 0.467549 0.318160
O O12 0.092463 0.694659 0.542002
O O13 0.137659 0.837986 0.683248
O O14 0.285648 0.897447 0.846064
O O15 0.000000 0.000000 0.000000
O O16 0.218367 0.998592 0.168733
O O17 0.511061 0.867438 0.944908
#
# Coordination Sequence:
#
# PCOD8023705 Si02
#       8
#     2   2   2   2   2   2   2   2
#     4  11  23  46  71  95 130 172 228 277 321 384
#     4  11  23  43  66  94 137 176 212 271 330 385
#     4  11  24  40  64  97 133 171 215 264 326 395
#     4  12  26  42  65  99 136 172 220 267 332 391
#     4   9  21  36  65  95 130 170 215 258 321 393
#     4  11  20  42  70  95 130 174 222 268 329 381
#     4  11  26  42  70 101 126 173 230 274 320 392
#     4  10  23  42  63  98 138 175 209 268 328 393
#
# _framework density 22.742329000000002
#
# number of rings (size 3 to 8) (size 9 to 14) (size 15 to 20)
#    0.000    1.250    2.500    3.000    5.250    5.500 
#    0.000    0.625    0.000    0.000    0.000    0.000 
#    0.000    0.000    0.000    0.000    0.000    0.000 
#
# Total GULP energy -198382.066312 kJ/mol
# GULP energy per Si atom -12398.879144 kJ/mol
# Density = 2.269057 g / cm^3
# Si number density = 22.742329 Si / 1000 Ang^3
#
#
#
# Elastic Constant Matrix: (Units=GPa)
#
#
# Indices 1 2 3 4 5 6 
#
# 1 105.9927 16.7527 23.3826 -9.3430 22.5096 -15.9331
# 2 16.7527 78.0012 18.9959 -16.0478 4.1147 -2.8254
# 3 23.3826 18.9959 101.0353 -8.8338 22.3276 -1.9758
# 4 -9.3430 -16.0478 -8.8338 34.3888 3.0023 0.7039
# 5 22.5096 4.1147 22.3276 3.0023 33.8170 -3.3805
# 6 -15.9331 -2.8254 -1.9758 0.7039 -3.3805 35.6062
#
#
#
# Elastic Compliance Matrix: (Units=1/GPa)
#
#
# Indices 1 2 3 4 5 6 
#
# 1 0.012328 -0.001294 -0.000592 0.003152 -0.007477 0.004609
# 2 -0.001294 0.014839 -0.001909 0.006092 -0.000189 0.000354
# 3 -0.000592 -0.001909 0.012362 0.002819 -0.007839 -0.000530
# 4 0.003152 0.006092 0.002819 0.034159 -0.007669 0.000647
# 5 -0.007477 -0.000189 -0.007839 -0.007669 0.040447 0.000196
# 6 0.004609 0.000354 -0.000530 0.000647 0.000196 0.030152
#
#
# Mechanical properties :
#
#
# Convention : Reuss Voigt Hill
#
# Bulk Modulus (GPa) = 31.30869 44.81015 38.05942
# Shear Modulus (GPa) = 30.76476 35.82225 33.29351
#
# Velocity S-wave (km/s) = 3.68197 3.97310 3.83030
# Velocity P-wave (km/s) = 5.64557 6.38699 6.02769
#
# Compressibility (1/GPa) = 0.03194002
#
# Stress axis : x y z
#
# Youngs Moduli (GPa) = 81.11465 67.38836 80.89392
#
# Poissons Ratio (x) = 0.08719 0.04787
# Poissons Ratio (y) = 0.10494 0.15444
# Poissons Ratio (z) = 0.04801 0.12865
#
# Static dielectric constant tensor:
#      x y z
#    x 4.317260 0.070770 0.169260 
#    y 0.070770 4.480870 -0.206600 
#    z 0.169260 -0.206600 4.046890 
# 
# 
# High freq. dielectric constant tensor:
#      x y z
#    x 1.888940 -0.003890 0.007060 
#    y -0.003890 1.914040 -0.008140 
#    z 0.007060 -0.008140 1.906970 
# 
# From -- ./inp_files/273389.got.cif
#   From: 2010.06.25/outbox.cif.g09.slc.cpg/sg2_137_cif.got.tgz:273389.got - 2010.06.27 13:26:56.
