data_PCOD8023165
_publ_section_title
;
Structure prediction by ZEFSAII (Michael W. Deem and Ramdas Pophale) SiO2 
 PCOD8023165
Probable space group: P -1
;
_chemical_formula_sum "Si O2"
_cell_formula_units_Z 14
_cell_length_a 8.850074
_cell_length_b 9.934385
_cell_length_c 10.190171
_cell_angle_alpha 135.340890
_cell_angle_beta 90.922613
_cell_angle_gamma 96.098745
_cell_volume 620.757114
_symmetry_space_group_name_H-M "P -1"
_symmetry_group_IT_number 2
_symmetry_cell_setting 'triclinic'
loop_
_space_group_symop_operation_xyz
x,y,z
-x,-y,-z
loop_
_atom_site_type_symbol
_atom_site_label
_atom_site_fract_x
_atom_site_fract_y
_atom_site_fract_z
Si Si1 0.945245 0.834940 0.776364
Si Si2 0.899941 0.395317 0.810857
Si Si3 0.419882 0.587668 0.678286
Si Si4 0.741030 0.128143 0.273241
Si Si5 0.274490 0.305190 0.116071
Si Si6 0.165189 0.258485 0.557286
Si Si7 0.680571 0.044516 0.511809
O O1 0.808096 0.685726 0.736829
O O2 0.877970 0.888935 0.670474
O O3 0.094866 0.742238 0.674371
O O4 0.000000 0.000000 0.000000
O O5 0.799127 0.552395 0.875995
O O6 0.773799 0.208780 0.723268
O O7 0.011875 0.323944 0.655726
O O8 0.000000 0.500000 0.000000
O O9 0.500000 0.500000 0.500000
O O10 0.381703 0.791820 0.764558
O O11 0.543357 0.630855 0.826277
O O12 0.275004 0.450604 0.642369
O O13 0.705330 0.140660 0.434842
O O14 0.754588 0.906989 0.092984
O O15 0.248369 0.150861 0.596988
O O16 0.500000 0.000000 0.500000
#
# Coordination Sequence:
#
# PCOD8023165 Si02
#       7
#     2   2   2   2   2   2   2
#     4  10  23  40  71  99 135 171 233 278 349 401
#     4  12  27  45  73 102 139 186 238 282 343 415
#     4  12  24  42  69 104 140 178 230 283 351 412
#     4  11  24  45  69  99 137 184 228 285 347 408
#     4  11  24  44  69 103 139 175 232 290 343 413
#     4  12  25  45  72 101 139 182 230 287 346 410
#     4  12  27  46  71  99 143 184 232 284 348 410
#
# _framework density 22.553104000000001
#
# number of rings (size 3 to 8) (size 9 to 14) (size 15 to 20)
#    0.000    0.571    2.857    5.143    4.000    2.286 
#    0.000    2.857    0.000    0.000    0.000    0.000 
#    0.000    0.000    0.000    0.000    0.000    0.000 
#
# Total GULP energy -173454.462511 kJ/mol
# GULP energy per Si atom -12389.604465 kJ/mol
# Density = 2.250177 g / cm^3
# Si number density = 22.553104 Si / 1000 Ang^3
#
#
#
# Elastic Constant Matrix: (Units=GPa)
#
#
# Indices 1 2 3 4 5 6 
#
# 1 146.8151 55.8449 37.1537 0.2246 12.6674 2.9821
# 2 55.8449 115.9578 31.5062 4.1303 5.1179 -18.5950
# 3 37.1537 31.5062 90.2112 -6.7170 14.8601 7.9334
# 4 0.2246 4.1303 -6.7170 32.0361 -6.6085 2.4388
# 5 12.6674 5.1179 14.8601 -6.6085 36.2911 1.4231
# 6 2.9821 -18.5950 7.9334 2.4388 1.4231 57.2432
#
#
#
# Elastic Compliance Matrix: (Units=1/GPa)
#
#
# Indices 1 2 3 4 5 6 
#
# 1 0.008981 -0.003948 -0.001918 -0.000213 -0.001776 -0.001431
# 2 -0.003948 0.012264 -0.003323 -0.002537 0.000361 0.004749
# 3 -0.001918 -0.003323 0.014170 0.002806 -0.004037 -0.002963
# 4 -0.000213 -0.002537 0.002806 0.033474 0.005487 -0.002765
# 5 -0.001776 0.000361 -0.004037 0.005487 0.030785 -0.000230
# 6 -0.001431 0.004749 -0.002963 -0.002765 -0.000230 0.019621
#
#
# Mechanical properties :
#
#
# Convention : Reuss Voigt Hill
#
# Bulk Modulus (GPa) = 58.69386 66.88818 62.79102
# Shear Modulus (GPa) = 34.87940 40.34604 37.61272
#
# Velocity S-wave (km/s) = 3.93688 4.23417 4.08823
# Velocity P-wave (km/s) = 6.83715 7.32303 7.08425
#
# Compressibility (1/GPa) = 0.01703756
#
# Stress axis : x y z
#
# Youngs Moduli (GPa) = 111.34949 81.53937 70.57146
#
# Poissons Ratio (x) = 0.32189 0.13533
# Poissons Ratio (y) = 0.43957 0.23454
# Poissons Ratio (z) = 0.21352 0.27099
#
# Static dielectric constant tensor:
#      x y z
#    x -0.362700 0.527560 -1.696700 
#    y 0.527560 4.229600 0.013240 
#    z -1.696700 0.013240 3.462010 
# 
# 
# High freq. dielectric constant tensor:
#      x y z
#    x 1.915390 0.002550 0.011880 
#    y 0.002550 1.884430 -0.002140 
#    z 0.011880 -0.002140 1.885050 
# 
# From -- ./inp_files/160186.got.cif
#   From: 2010.06.25/outbox.cif.g09.slc.cpg/sg2_81_cif.got.tgz:160186.got - 2010.06.27 13:26:56.
