data_PCOD8023004
_publ_section_title
;
Structure prediction by ZEFSAII (Michael W. Deem and Ramdas Pophale) SiO2 
 PCOD8023004
Probable space group: P -1
;
_chemical_formula_sum "Si O2"
_cell_formula_units_Z 16
_cell_length_a 15.940925
_cell_length_b 9.060038
_cell_length_c 18.889669
_cell_angle_alpha 146.930954
_cell_angle_beta 152.469300
_cell_angle_gamma 36.264183
_cell_volume 666.134276
_symmetry_space_group_name_H-M "P -1"
_symmetry_group_IT_number 2
_symmetry_cell_setting 'triclinic'
loop_
_space_group_symop_operation_xyz
x,y,z
-x,-y,-z
loop_
_atom_site_type_symbol
_atom_site_label
_atom_site_fract_x
_atom_site_fract_y
_atom_site_fract_z
Si Si1 0.299830 0.606923 0.856293
Si Si2 0.549128 0.606135 0.733028
Si Si3 0.809704 0.853646 0.105182
Si Si4 0.342600 0.178221 0.363476
Si Si5 0.180724 0.871162 0.628105
Si Si6 0.677489 0.893555 0.428187
Si Si7 0.091510 0.291579 0.344429
Si Si8 0.769291 0.437164 0.695273
O O1 0.284974 0.882475 0.909493
O O2 0.259973 0.361514 0.679883
O O3 0.132940 0.661302 0.811720
O O4 0.500000 0.500000 0.000000
O O5 0.494079 0.309358 0.571982
O O6 0.358178 0.849059 0.700080
O O7 0.658648 0.640503 0.756017
O O8 0.686445 0.628399 0.910304
O O9 0.801189 0.940259 0.215425
O O10 0.019905 0.704122 0.179541
O O11 0.188014 0.119240 0.278138
O O12 0.228761 0.391977 0.306196
O O13 0.473007 0.899825 0.312615
O O14 0.163924 0.570040 0.520152
O O15 0.000000 0.000000 0.500000
O O16 0.840528 0.881073 0.603072
O O17 0.661509 0.194111 0.499212
#
# Coordination Sequence:
#
# PCOD8023004 Si02
#       8
#     2   2   2   2   2   2   2   2
#     4  12  28  41  67  97 134 180 215 275 341 396
#     4  10  23  40  64  99 132 169 218 275 331 380
#     4  12  23  43  65  99 139 171 221 275 337 398
#     4  10  24  42  72  99 125 177 229 277 321 389
#     4  11  24  42  70  99 133 177 224 276 328 396
#     4  11  21  45  69  95 134 173 231 264 328 405
#     4  11  22  45  64  97 130 173 226 270 327 396
#     4  11  23  43  70  98 129 181 227 274 322 396
#
# _framework density 24.019182000000001
#
# number of rings (size 3 to 8) (size 9 to 14) (size 15 to 20)
#    0.000    1.000    2.500    5.250    5.250    0.000 
#    2.250    0.625    0.000    0.000    0.000    0.000 
#    0.000    0.000    0.000    0.000    0.000    0.000 
#
# Total GULP energy -198361.834863 kJ/mol
# GULP energy per Si atom -12397.614679 kJ/mol
# Density = 2.396451 g / cm^3
# Si number density = 24.019182 Si / 1000 Ang^3
#
#
#
# Elastic Constant Matrix: (Units=GPa)
#
#
# Indices 1 2 3 4 5 6 
#
# 1 126.4845 38.4920 37.3957 -23.1142 8.8762 -30.9572
# 2 38.4920 80.1823 29.8492 -31.5548 2.0405 -16.8621
# 3 37.3957 29.8492 89.2887 -27.0691 1.5274 -10.6729
# 4 -23.1142 -31.5548 -27.0691 40.7334 -6.6233 7.0015
# 5 8.8762 2.0405 1.5274 -6.6233 26.4877 -14.9604
# 6 -30.9572 -16.8621 -10.6729 7.0015 -14.9604 42.1863
#
#
#
# Elastic Compliance Matrix: (Units=1/GPa)
#
#
# Indices 1 2 3 4 5 6 
#
# 1 0.011306 -0.002350 -0.002608 0.001841 0.000767 0.006664
# 2 -0.002350 0.020580 -0.001070 0.013851 0.006187 0.006126
# 3 -0.002608 -0.001070 0.015170 0.008021 0.002727 0.001132
# 4 0.001841 0.013851 0.008021 0.042549 0.011930 0.006086
# 5 0.000767 0.006187 0.002727 0.011930 0.051058 0.019852
# 6 0.006664 0.006126 0.001132 0.006086 0.019852 0.037360
#
#
# Mechanical properties :
#
#
# Convention : Reuss Voigt Hill
#
# Bulk Modulus (GPa) = 28.57184 56.38105 42.47644
# Shear Modulus (GPa) = 24.78375 34.56272 29.67324
#
# Velocity S-wave (km/s) = 3.21570 3.79748 3.51864
# Velocity P-wave (km/s) = 5.07039 6.53851 5.85068
#
# Compressibility (1/GPa) = 0.03499950
#
# Stress axis : x y z
#
# Youngs Moduli (GPa) = 88.44885 48.59122 65.91977
#
# Poissons Ratio (x) = 0.11420 0.17191
# Poissons Ratio (y) = 0.20788 0.07053
# Poissons Ratio (z) = 0.23066 0.05199
#
# Static dielectric constant tensor:
#      x y z
#    x 4.513050 -0.386950 0.008020 
#    y -0.386950 3.837230 -0.502350 
#    z 0.008020 -0.502350 3.876960 
# 
# 
# High freq. dielectric constant tensor:
#      x y z
#    x 1.959710 -0.023610 0.000460 
#    y -0.023610 1.955880 -0.019660 
#    z 0.000460 -0.019660 1.933160 
# 
# From -- ./inp_files/572951.got.cif
#   From: 2010.06.25/outbox.cif.g09.slc.cpg/sg2_287_cif.got.tgz:572951.got - 2010.06.27 13:26:56.
