data_PCOD8023045
_publ_section_title
;
Structure prediction by ZEFSAII (Michael W. Deem and Ramdas Pophale) SiO2 
 PCOD8023045
Probable space group: P -1
;
_chemical_formula_sum "Si O2"
_cell_formula_units_Z 16
_cell_length_a 11.335922
_cell_length_b 9.001127
_cell_length_c 16.070942
_cell_angle_alpha 99.815232
_cell_angle_beta 139.427649
_cell_angle_gamma 52.334089
_cell_volume 693.447196
_symmetry_space_group_name_H-M "P -1"
_symmetry_group_IT_number 2
_symmetry_cell_setting 'triclinic'
loop_
_space_group_symop_operation_xyz
x,y,z
-x,-y,-z
loop_
_atom_site_type_symbol
_atom_site_label
_atom_site_fract_x
_atom_site_fract_y
_atom_site_fract_z
Si Si1 0.745522 0.987141 0.393729
Si Si2 0.048662 0.610443 0.653487
Si Si3 0.333358 0.794100 0.092894
Si Si4 0.185030 0.393450 0.195846
Si Si5 0.023278 0.064697 0.243637
Si Si6 0.664848 0.628339 0.538699
Si Si7 0.937413 0.156557 0.603522
Si Si8 0.075126 0.701437 0.036551
O O1 0.811575 0.934998 0.325867
O O2 0.944008 0.749599 0.525635
O O3 0.427585 0.152646 0.254277
O O4 0.775514 0.138171 0.459048
O O5 0.356271 0.358460 0.779337
O O6 0.847747 0.598054 0.565115
O O7 0.049975 0.724691 0.741831
O O8 0.325262 0.657018 0.139844
O O9 0.154830 0.856416 0.924277
O O10 0.201717 0.024909 0.084893
O O11 0.246315 0.369979 0.322974
O O12 0.127126 0.594980 0.145034
O O13 0.938795 0.427827 0.050343
O O14 0.345850 0.860518 0.374734
O O15 0.941968 0.992922 0.262851
O O16 0.717450 0.418644 0.537759
#
# Coordination Sequence:
#
# PCOD8023045 Si02
#       8
#     2   2   2   2   2   2   2   2
#     4  10  24  42  68  94 138 170 222 277 328 391
#     4  11  25  42  64 102 137 177 215 275 338 390
#     4  11  25  44  66  98 138 177 223 266 336 404
#     4  11  23  46  70  95 135 171 229 274 333 386
#     4  11  23  42  68  95 136 177 221 270 336 395
#     4  12  24  41  72 102 131 173 227 278 326 391
#     4  10  23  40  66 102 124 174 222 277 327 386
#     4  10  26  43  70  94 132 184 221 271 332 398
#
# _framework density 23.073135000000001
#
# number of rings (size 3 to 8) (size 9 to 14) (size 15 to 20)
#    0.000    1.250    2.500    2.625   10.500    1.500 
#    2.250    1.250    0.000    0.000    0.000    0.000 
#    0.000    0.000    0.000    0.000    0.000    0.000 
#
# Total GULP energy -198428.070857 kJ/mol
# GULP energy per Si atom -12401.754429 kJ/mol
# Density = 2.302062 g / cm^3
# Si number density = 23.073135 Si / 1000 Ang^3
#
#
#
# Elastic Constant Matrix: (Units=GPa)
#
#
# Indices 1 2 3 4 5 6 
#
# 1 123.9176 27.7225 36.3992 -7.7500 9.7579 3.4993
# 2 27.7225 53.7458 7.9735 -16.8023 -5.1290 3.9713
# 3 36.3992 7.9735 70.1229 -16.5011 4.2379 5.4422
# 4 -7.7500 -16.8023 -16.5011 24.8634 -5.7758 5.2615
# 5 9.7579 -5.1290 4.2379 -5.7758 24.0383 -10.9035
# 6 3.4993 3.9713 5.4422 5.2615 -10.9035 30.3261
#
#
#
# Elastic Compliance Matrix: (Units=1/GPa)
#
#
# Indices 1 2 3 4 5 6 
#
# 1 0.012031 -0.008434 -0.006691 -0.008074 -0.007638 -0.000428
# 2 -0.008434 0.032285 0.006745 0.027793 0.013847 -0.004308
# 3 -0.006691 0.006745 0.021784 0.018753 0.001818 -0.006620
# 4 -0.008074 0.027793 0.018753 0.075878 0.018409 -0.012619
# 5 -0.007638 0.013847 0.001818 0.018409 0.059431 0.016916
# 6 -0.000428 -0.004308 -0.006620 -0.012619 0.016916 0.043048
#
#
# Mechanical properties :
#
#
# Convention : Reuss Voigt Hill
#
# Bulk Modulus (GPa) = 20.26834 43.55296 31.91065
# Shear Modulus (GPa) = 18.00747 27.55831 22.78289
#
# Velocity S-wave (km/s) = 2.79669 3.45974 3.14573
# Velocity P-wave (km/s) = 4.38544 5.90566 5.20139
#
# Compressibility (1/GPa) = 0.04933802
#
# Stress axis : x y z
#
# Youngs Moduli (GPa) = 83.12035 30.97456 45.90591
#
# Poissons Ratio (x) = 0.26125 0.30715
# Poissons Ratio (y) = 0.70106 -0.30962
# Poissons Ratio (z) = 0.55615 -0.20892
#
# Static dielectric constant tensor:
#      x y z
#    x 4.475590 0.045800 0.063780 
#    y 0.045800 4.209610 -0.078630 
#    z 0.063780 -0.078630 3.913360 
# 
# 
# High freq. dielectric constant tensor:
#      x y z
#    x 1.923820 0.005460 -0.002970 
#    y 0.005460 1.920780 -0.002190 
#    z -0.002970 -0.002190 1.894720 
# 
# From -- ./inp_files/494241.got.cif
#   From: 2010.06.25/outbox.cif.g09.slc.cpg/sg2_248_cif.got.tgz:494241.got - 2010.06.27 13:26:56.
