data_PCOD8023292
_publ_section_title
;
Structure prediction by ZEFSAII (Michael W. Deem and Ramdas Pophale) SiO2 
 PCOD8023292
Probable space group: P -1
;
_chemical_formula_sum "Si O2"
_cell_formula_units_Z 10
_cell_length_a 12.782756
_cell_length_b 8.096369
_cell_length_c 5.461925
_cell_angle_alpha 59.796342
_cell_angle_beta 84.730440
_cell_angle_gamma 104.054547
_cell_volume 458.210522
_symmetry_space_group_name_H-M "P -1"
_symmetry_group_IT_number 2
_symmetry_cell_setting 'triclinic'
loop_
_space_group_symop_operation_xyz
x,y,z
-x,-y,-z
loop_
_atom_site_type_symbol
_atom_site_label
_atom_site_fract_x
_atom_site_fract_y
_atom_site_fract_z
Si Si1 0.941066 0.236682 0.454753
Si Si2 0.403503 0.412524 0.277297
Si Si3 0.071055 0.326046 0.856928
Si Si4 0.467188 0.195753 0.824468
Si Si5 0.755425 0.819587 0.860991
O O1 0.904761 0.434548 0.329001
O O2 0.005541 0.221625 0.703991
O O3 0.830764 0.044170 0.602597
O O4 0.010530 0.233166 0.196012
O O5 0.422969 0.218359 0.546907
O O6 0.421429 0.604616 0.310783
O O7 0.277510 0.333584 0.252381
O O8 0.500000 0.500000 0.000000
O O9 0.186651 0.278351 0.872635
O O10 0.364358 0.175007 0.040714
O O11 0.500000 0.000000 0.000000
#
# Coordination Sequence:
#
# PCOD8023292 Si02
#       5
#     2   2   2   2   2
#     4  10  23  41  64  96 132 168 212 266 319 386
#     4   9  22  41  60  90 124 162 211 268 317 383
#     4  10  23  42  62  97 134 165 214 267 316 387
#     4  10  23  42  63  92 128 164 213 270 322 386
#     4  11  23  37  68  90 122 171 210 259 328 379
#
# _framework density 21.824031000000002
#
# number of rings (size 3 to 8) (size 9 to 14) (size 15 to 20)
#    0.000    2.000    0.000    1.200    5.600    9.600 
#    3.600    0.000    0.000    0.000    0.000    0.000 
#    0.000    0.000    0.000    0.000    0.000    0.000 
#
# Total GULP energy -123914.040942 kJ/mol
# GULP energy per Si atom -12391.404094 kJ/mol
# Density = 2.177436 g / cm^3
# Si number density = 21.824031 Si / 1000 Ang^3
#
#
#
# Elastic Constant Matrix: (Units=GPa)
#
#
# Indices 1 2 3 4 5 6 
#
# 1 106.8711 66.2624 44.9826 -13.4489 21.7639 19.7750
# 2 66.2624 122.0063 60.1238 -1.3846 8.0497 39.3648
# 3 44.9826 60.1238 138.8147 1.1048 21.9795 20.9924
# 4 -13.4489 -1.3846 1.1048 37.8245 -1.8613 0.0798
# 5 21.7639 8.0497 21.9795 -1.8613 29.3479 -2.7602
# 6 19.7750 39.3648 20.9924 0.0798 -2.7602 45.1557
#
#
#
# Elastic Compliance Matrix: (Units=1/GPa)
#
#
# Indices 1 2 3 4 5 6 
#
# 1 0.017648 -0.008373 -0.000380 0.005477 -0.010243 -0.000889
# 2 -0.008373 0.017535 -0.003943 -0.002036 0.003322 -0.009580
# 3 -0.000380 -0.003943 0.010325 -0.000901 -0.006577 -0.001597
# 4 0.005477 -0.002036 -0.000901 0.028285 -0.001065 -0.000320
# 5 -0.010243 0.003322 -0.006577 -0.001065 0.046320 0.007480
# 6 -0.000889 -0.009580 -0.001597 -0.000320 0.007480 0.032086
#
#
# Mechanical properties :
#
#
# Convention : Reuss Voigt Hill
#
# Bulk Modulus (GPa) = 49.70907 78.93663 64.32285
# Shear Modulus (GPa) = 27.13028 35.55384 31.34206
#
# Velocity S-wave (km/s) = 3.52964 4.04061 3.79374
# Velocity P-wave (km/s) = 6.27995 7.61688 6.98049
#
# Compressibility (1/GPa) = 0.02011705
#
# Stress axis : x y z
#
# Youngs Moduli (GPa) = 56.66431 57.02772 96.85629
#
# Poissons Ratio (x) = 0.47749 0.03677
# Poissons Ratio (y) = 0.47444 0.38188
# Poissons Ratio (z) = 0.02151 0.22485
#
# Static dielectric constant tensor:
#      x y z
#    x 3.777930 0.460090 0.128560 
#    y 0.460090 4.934880 0.292750 
#    z 0.128560 0.292750 4.172650 
# 
# 
# High freq. dielectric constant tensor:
#      x y z
#    x 1.840080 0.017580 0.005780 
#    y 0.017580 1.867550 0.000890 
#    z 0.005780 0.000890 1.875950 
# 
# From -- ./inp_files/18063.got.cif
#   From: 2010.06.25/outbox.cif.g09.slc.cpg/sg2_10_cif.got.tgz:18063.got - 2010.06.27 13:26:56.
