data_PCOD8023774
_publ_section_title
;
Structure prediction by ZEFSAII (Michael W. Deem and Ramdas Pophale) SiO2 
 PCOD8023774
Probable space group: P -1
;
_chemical_formula_sum "Si O2"
_cell_formula_units_Z 16
_cell_length_a 14.184242
_cell_length_b 15.185492
_cell_length_c 12.119946
_cell_angle_alpha 111.430125
_cell_angle_beta 149.511453
_cell_angle_gamma 46.002596
_cell_volume 732.938676
_symmetry_space_group_name_H-M "P -1"
_symmetry_group_IT_number 2
_symmetry_cell_setting 'triclinic'
loop_
_space_group_symop_operation_xyz
x,y,z
-x,-y,-z
loop_
_atom_site_type_symbol
_atom_site_label
_atom_site_fract_x
_atom_site_fract_y
_atom_site_fract_z
Si Si1 0.930106 0.189740 0.002605
Si Si2 0.139011 0.294656 0.332344
Si Si3 0.132738 0.441495 0.983408
Si Si4 0.246654 0.771644 0.581548
Si Si5 0.669205 0.124799 0.097975
Si Si6 0.258683 0.545918 0.532335
Si Si7 0.999596 0.611043 0.528865
Si Si8 0.819517 0.069822 0.987652
O O1 0.578893 0.371207 0.730219
O O2 0.001646 0.078526 0.113185
O O3 0.170431 0.176677 0.260468
O O4 0.010320 0.102897 0.929089
O O5 0.938175 0.367778 0.278118
O O6 0.469752 0.206401 0.649289
O O7 0.967683 0.426816 0.128586
O O8 0.022660 0.391867 0.786318
O O9 0.512914 0.291182 0.300686
O O10 0.000000 0.500000 0.000000
O O11 0.376457 0.765320 0.821468
O O12 0.240924 0.661947 0.535359
O O13 0.892350 0.952020 0.291910
O O14 0.333538 0.216216 0.775143
O O15 0.822448 0.101189 0.130328
O O16 0.248891 0.536525 0.651552
O O17 0.000000 0.500000 0.500000
#
# Coordination Sequence:
#
# PCOD8023774 Si02
#       8
#     2   2   2   2   2   2   2   2
#     4  11  23  38  67  98 131 166 221 267 334 395
#     4  11  22  43  64  99 131 171 220 273 331 386
#     4  12  26  44  66  97 139 175 217 275 328 398
#     4  11  25  45  67  96 137 171 232 264 327 404
#     4  10  23  45  66  95 135 178 215 277 325 385
#     4  12  24  42  70 101 130 177 222 273 331 392
#     4  11  21  42  72  97 139 165 220 282 328 387
#     4  10  23  42  65  94 137 169 218 276 325 391
#
# _framework density 21.829929
#
# number of rings (size 3 to 8) (size 9 to 14) (size 15 to 20)
#    0.000    1.000    5.000    1.125    3.500    2.500 
#    0.000    0.000    0.000    0.000    0.000    0.000 
#    0.000    0.000    0.000    0.000    0.000    0.000 
#
# Total GULP energy -198363.829482 kJ/mol
# GULP energy per Si atom -12397.739343 kJ/mol
# Density = 2.178024 g / cm^3
# Si number density = 21.829929 Si / 1000 Ang^3
#
#
#
# Elastic Constant Matrix: (Units=GPa)
#
#
# Indices 1 2 3 4 5 6 
#
# 1 93.5699 35.1684 28.2014 16.2238 1.0758 -14.1120
# 2 35.1684 126.4857 23.4640 6.1673 1.7130 6.5021
# 3 28.2014 23.4640 49.2725 -5.2112 -7.5026 3.8044
# 4 16.2238 6.1673 -5.2112 35.6624 -1.0021 7.0845
# 5 1.0758 1.7130 -7.5026 -1.0021 23.2983 2.4840
# 6 -14.1120 6.5021 3.8044 7.0845 2.4840 38.4044
#
#
#
# Elastic Compliance Matrix: (Units=1/GPa)
#
#
# Indices 1 2 3 4 5 6 
#
# 1 0.020022 -0.002964 -0.013417 -0.013145 -0.006878 0.012058
# 2 -0.002964 0.009400 -0.002821 -0.000273 -0.001232 -0.002271
# 3 -0.013417 -0.002821 0.033740 0.014142 0.013503 -0.011277
# 4 -0.013145 -0.000273 0.014142 0.039139 0.008351 -0.013945
# 5 -0.006878 -0.001232 0.013503 0.008351 0.048929 -0.008362
# 6 0.012058 -0.002271 -0.011277 -0.013945 -0.008362 0.035084
#
#
# Mechanical properties :
#
#
# Convention : Reuss Voigt Hill
#
# Bulk Modulus (GPa) = 40.38999 49.22175 44.80587
# Shear Modulus (GPa) = 21.46192 31.63930 26.55061
#
# Velocity S-wave (km/s) = 3.13891 3.81117 3.49126
# Velocity P-wave (km/s) = 5.62844 6.47792 6.06806
#
# Compressibility (1/GPa) = 0.02475861
#
# Stress axis : x y z
#
# Youngs Moduli (GPa) = 49.94610 106.38063 29.63816
#
# Poissons Ratio (x) = 0.31528 0.39764
# Poissons Ratio (y) = 0.14803 0.08362
# Poissons Ratio (z) = 0.67011 0.30014
#
# Static dielectric constant tensor:
#      x y z
#    x 4.012870 -0.319600 0.064430 
#    y -0.319600 4.188300 -0.003960 
#    z 0.064430 -0.003960 3.962760 
# 
# 
# High freq. dielectric constant tensor:
#      x y z
#    x 1.854090 -0.015560 0.004870 
#    y -0.015560 1.871380 -0.004560 
#    z 0.004870 -0.004560 1.849120 
# 
# From -- ./inp_files/272957.got.cif
#   From: 2010.06.25/outbox.cif.g09.slc.cpg/sg2_137_cif.got.tgz:272957.got - 2010.06.27 13:26:56.
