data_PCOD8023674
_publ_section_title
;
Structure prediction by ZEFSAII (Michael W. Deem and Ramdas Pophale) SiO2 
 PCOD8023674
Probable space group: P -1
;
_chemical_formula_sum "Si O2"
_cell_formula_units_Z 12
_cell_length_a 5.383986
_cell_length_b 15.403982
_cell_length_c 13.348646
_cell_angle_alpha 150.408726
_cell_angle_beta 113.579707
_cell_angle_gamma 78.739696
_cell_volume 471.701608
_symmetry_space_group_name_H-M "P -1"
_symmetry_group_IT_number 2
_symmetry_cell_setting 'triclinic'
loop_
_space_group_symop_operation_xyz
x,y,z
-x,-y,-z
loop_
_atom_site_type_symbol
_atom_site_label
_atom_site_fract_x
_atom_site_fract_y
_atom_site_fract_z
Si Si1 0.553605 0.673952 0.544340
Si Si2 0.103372 0.934943 0.062032
Si Si3 0.439778 0.709249 0.774287
Si Si4 0.236484 0.086034 0.439185
Si Si5 0.952594 0.365559 0.711488
Si Si6 0.845049 0.249504 0.794540
O O1 0.347140 0.667534 0.600838
O O2 0.634365 0.486321 0.373672
O O3 0.379680 0.679630 0.420183
O O4 0.840851 0.865369 0.790200
O O5 0.298149 0.000287 0.258772
O O6 0.247738 0.811337 0.898932
O O7 0.780050 0.831217 0.945934
O O8 0.512712 0.182732 0.646931
O O9 0.083081 0.237012 0.537030
O O10 0.046899 0.910808 0.301311
O O11 0.013901 0.318695 0.788454
O O12 0.104970 0.587948 0.950135
#
# Coordination Sequence:
#
# PCOD8023674 Si02
#       6
#     2   2   2   2   2   2
#     4  11  25  47  73 103 142 185 236 290 353 418
#     4  12  25  47  74 106 141 187 235 289 355 421
#     4  11  28  47  72 108 142 186 236 293 350 420
#     4  11  23  41  68  97 136 177 229 285 348 414
#     4  11  22  43  66  97 133 182 229 284 347 413
#     4  10  23  42  63 100 131 179 231 287 343 413
#
# _framework density 25.439813000000001
#
# number of rings (size 3 to 8) (size 9 to 14) (size 15 to 20)
#    0.000    1.000    1.667    4.000    0.000    8.000 
#   12.000    0.000    0.000    0.000    0.000    0.000 
#    0.000    0.000    0.000    0.000    0.000    0.000 
#
# Total GULP energy -148704.086046 kJ/mol
# GULP energy per Si atom -12392.007171 kJ/mol
# Density = 2.538191 g / cm^3
# Si number density = 25.439813 Si / 1000 Ang^3
#
#
#
# Elastic Constant Matrix: (Units=GPa)
#
#
# Indices 1 2 3 4 5 6 
#
# 1 88.6392 12.7167 46.9105 10.6034 -7.9510 -12.0309
# 2 12.7167 53.9021 36.3901 9.9629 0.0885 -11.5825
# 3 46.9105 36.3901 153.2327 24.5829 -9.2841 -14.2870
# 4 10.6034 9.9629 24.5829 39.2726 15.4031 -1.8272
# 5 -7.9510 0.0885 -9.2841 15.4031 32.4020 6.4918
# 6 -12.0309 -11.5825 -14.2870 -1.8272 6.4918 24.6983
#
#
#
# Elastic Compliance Matrix: (Units=1/GPa)
#
#
# Indices 1 2 3 4 5 6 
#
# 1 0.014200 0.000349 -0.003422 -0.002763 0.002993 0.004110
# 2 0.000349 0.024019 -0.004802 -0.001854 -0.002303 0.009124
# 3 -0.003422 -0.004802 0.009986 -0.006010 0.004865 0.000134
# 4 -0.002763 -0.001854 -0.006010 0.039010 -0.021510 0.002848
# 5 0.002993 -0.002303 0.004865 -0.021510 0.045286 -0.010303
# 6 0.004110 0.009124 0.000134 0.002848 -0.010303 0.049766
#
#
# Mechanical properties :
#
#
# Convention : Reuss Voigt Hill
#
# Bulk Modulus (GPa) = 30.81342 54.20094 42.50718
# Shear Modulus (GPa) = 23.94240 32.59169 28.26704
#
# Velocity S-wave (km/s) = 3.07113 3.58317 3.33698
# Velocity P-wave (km/s) = 4.97135 6.20247 5.62072
#
# Compressibility (1/GPa) = 0.03245339
#
# Stress axis : x y z
#
# Youngs Moduli (GPa) = 70.42501 41.63385 100.14444
#
# Poissons Ratio (x) = -0.01454 0.34272
# Poissons Ratio (y) = -0.02460 0.48093
# Poissons Ratio (z) = 0.24101 0.19994
#
# Static dielectric constant tensor:
#      x y z
#    x 3.915310 0.157500 0.106910 
#    y 0.157500 5.117500 0.135390 
#    z 0.106910 0.135390 5.115260 
# 
# 
# High freq. dielectric constant tensor:
#      x y z
#    x 1.976900 0.003230 0.007930 
#    y 0.003230 2.036650 0.002500 
#    z 0.007930 0.002500 2.048620 
# 
# From -- ./inp_files/229997.got.cif
#   From: 2010.06.25/outbox.cif.g09.slc.cpg/sg2_115_cif.got.tgz:229997.got - 2010.06.27 13:26:56.
