data_PCOD8023003
_publ_section_title
;
Structure prediction by ZEFSAII (Michael W. Deem and Ramdas Pophale) SiO2 
 PCOD8023003
Probable space group: P -1
;
_chemical_formula_sum "Si O2"
_cell_formula_units_Z 16
_cell_length_a 11.075604
_cell_length_b 11.898173
_cell_length_c 7.032489
_cell_angle_alpha 64.256939
_cell_angle_beta 115.517756
_cell_angle_gamma 110.272929
_cell_volume 738.707723
_symmetry_space_group_name_H-M "P -1"
_symmetry_group_IT_number 2
_symmetry_cell_setting 'triclinic'
loop_
_space_group_symop_operation_xyz
x,y,z
-x,-y,-z
loop_
_atom_site_type_symbol
_atom_site_label
_atom_site_fract_x
_atom_site_fract_y
_atom_site_fract_z
Si Si1 0.890013 0.367740 0.538801
Si Si2 0.664742 0.375680 0.694330
Si Si3 0.363146 0.362556 0.380246
Si Si4 0.391419 0.216302 0.170557
Si Si5 0.334049 0.728404 0.838064
Si Si6 0.681885 0.997009 0.446818
Si Si7 0.966584 0.099149 0.749867
Si Si8 0.244962 0.156178 0.727137
O O1 0.789722 0.384463 0.630319
O O2 0.803405 0.346921 0.298950
O O3 0.953630 0.241174 0.714665
O O4 0.000000 0.500000 0.500000
O O5 0.522598 0.350661 0.503995
O O6 0.668135 0.498192 0.739836
O O7 0.677549 0.272271 0.940589
O O8 0.309831 0.301144 0.186230
O O9 0.283537 0.294890 0.557498
O O10 0.528315 0.311895 0.117603
O O11 0.416308 0.101322 0.410084
O O12 0.297951 0.157591 0.976532
O O13 0.375472 0.875972 0.700654
O O14 0.831844 0.027285 0.612076
O O15 0.688325 0.940625 0.281268
O O16 0.082093 0.118406 0.652138
O O17 0.000000 0.000000 0.000000
#
# Coordination Sequence:
#
# PCOD8023003 Si02
#       8
#     2   2   2   2   2   2   2   2
#     4  11  26  47  67  94 138 176 220 276 328 401
#     4  11  23  42  66  93 130 171 221 263 335 392
#     4  10  23  40  64  98 128 168 215 278 321 399
#     4  11  21  41  64  98 132 168 215 272 334 386
#     4  11  24  41  65  98 131 173 214 272 334 389
#     4  10  24  40  64  95 135 172 218 272 323 398
#     4  11  23  43  67  97 132 179 223 271 325 391
#     4  11  22  41  66  94 130 171 217 267 335 379
#
# _framework density 21.659445000000002
#
# number of rings (size 3 to 8) (size 9 to 14) (size 15 to 20)
#    0.000    1.250    3.750    1.500    1.750    3.500 
#    0.000    0.000    0.000    0.000    0.000    0.000 
#    0.000    0.000    0.000    0.000    0.000    0.000 
#
# Total GULP energy -198310.445655 kJ/mol
# GULP energy per Si atom -12394.402853 kJ/mol
# Density = 2.161015 g / cm^3
# Si number density = 21.659445 Si / 1000 Ang^3
#
#
#
# Elastic Constant Matrix: (Units=GPa)
#
#
# Indices 1 2 3 4 5 6 
#
# 1 103.6174 14.6135 34.7181 -6.6395 -25.3692 11.0954
# 2 14.6135 94.4744 27.0419 7.3269 -4.1737 2.8530
# 3 34.7181 27.0419 94.7491 11.3473 -19.7457 -16.5384
# 4 -6.6395 7.3269 11.3473 29.8728 -3.4785 -9.3010
# 5 -25.3692 -4.1737 -19.7457 -3.4785 34.3735 -5.5190
# 6 11.0954 2.8530 -16.5384 -9.3010 -5.5190 20.4490
#
#
#
# Elastic Compliance Matrix: (Units=1/GPa)
#
#
# Indices 1 2 3 4 5 6 
#
# 1 0.014388 -0.000194 -0.006051 0.003241 0.005905 -0.009605
# 2 -0.000194 0.012564 -0.005263 -0.004266 -0.003483 -0.008785
# 3 -0.006051 -0.005263 0.020558 0.000808 0.010620 0.023877
# 4 0.003241 -0.004266 0.000808 0.042889 0.010169 0.021742
# 5 0.005905 -0.003483 0.010620 0.010169 0.043738 0.022301
# 6 -0.009605 -0.008785 0.023877 0.021742 0.022301 0.090559
#
#
# Mechanical properties :
#
#
# Convention : Reuss Voigt Hill
#
# Bulk Modulus (GPa) = 40.82700 49.50976 45.16838
# Shear Modulus (GPa) = 19.54093 31.37021 25.45557
#
# Velocity S-wave (km/s) = 3.00691 3.80983 3.43193
# Velocity P-wave (km/s) = 5.56289 6.50085 6.05007
#
# Compressibility (1/GPa) = 0.02449359
#
# Stress axis : x y z
#
# Youngs Moduli (GPa) = 69.50474 79.59508 48.64400
#
# Poissons Ratio (x) = 0.01544 0.29433
# Poissons Ratio (y) = 0.01348 0.25601
# Poissons Ratio (z) = 0.42055 0.41890
#
# Static dielectric constant tensor:
#      x y z
#    x 3.906760 0.043900 -0.030590 
#    y 0.043900 4.069490 -0.028600 
#    z -0.030590 -0.028600 3.825820 
# 
# 
# High freq. dielectric constant tensor:
#      x y z
#    x 1.853630 0.005010 -0.016290 
#    y 0.005010 1.858530 0.000140 
#    z -0.016290 0.000140 1.849270 
# 
# From -- ./inp_files/69390.got.cif
#   From: 2010.06.25/outbox.cif.g09.slc.cpg/sg2_35_cif.got.tgz:69390.got - 2010.06.27 13:26:56.
