data_PCOD8023448
_publ_section_title
;
Structure prediction by ZEFSAII (Michael W. Deem and Ramdas Pophale) SiO2 
 PCOD8023448
Probable space group: P -1
;
_chemical_formula_sum "Si O2"
_cell_formula_units_Z 16
_cell_length_a 13.982010
_cell_length_b 13.557414
_cell_length_c 14.794143
_cell_angle_alpha 49.060481
_cell_angle_beta 160.102767
_cell_angle_gamma 133.232315
_cell_volume 694.668476
_symmetry_space_group_name_H-M "P -1"
_symmetry_group_IT_number 2
_symmetry_cell_setting 'triclinic'
loop_
_space_group_symop_operation_xyz
x,y,z
-x,-y,-z
loop_
_atom_site_type_symbol
_atom_site_label
_atom_site_fract_x
_atom_site_fract_y
_atom_site_fract_z
Si Si1 0.954370 0.784091 0.802762
Si Si2 0.292353 0.285801 0.991547
Si Si3 0.714118 0.280991 0.703608
Si Si4 0.799662 0.975735 0.250441
Si Si5 0.284179 0.580523 0.864873
Si Si6 0.658248 0.157892 0.531123
Si Si7 0.280918 0.327593 0.656457
Si Si8 0.226265 0.436027 0.356021
O O1 0.613166 0.751646 0.534323
O O2 0.014454 0.664935 0.861970
O O3 0.060723 0.927730 0.764703
O O4 0.115933 0.797308 0.033875
O O5 0.489142 0.311450 0.061526
O O6 0.453883 0.226855 0.249731
O O7 0.229200 0.427071 0.877006
O O8 0.976942 0.179402 0.754838
O O9 0.730259 0.234841 0.643989
O O10 0.878487 0.442066 0.763009
O O11 0.767644 0.828600 0.269791
O O12 0.000000 0.000000 0.500000
O O13 0.500000 0.000000 0.000000
O O14 0.979567 0.618134 0.567164
O O15 0.415504 0.592643 0.075329
O O16 0.500000 0.000000 0.500000
O O17 0.312948 0.346481 0.565972
O O18 0.500000 0.500000 0.500000
#
# Coordination Sequence:
#
# PCOD8023448 Si02
#       8
#     2   2   2   2   2   2   2   2
#     4  11  24  42  66  94 137 177 230 273 337 399
#     4  11  24  47  72 102 142 178 231 295 361 410
#     4  11  24  42  66 100 131 179 226 280 333 406
#     4  12  25  44  65  92 137 184 226 278 337 401
#     4  11  25  44  73 105 135 180 235 301 348 408
#     4  12  26  45  72 102 145 184 230 284 357 432
#     4  12  25  42  69 103 138 183 239 280 347 416
#     4  10  23  41  67  96 136 177 228 277 337 398
#
# _framework density 23.032568999999999
#
# number of rings (size 3 to 8) (size 9 to 14) (size 15 to 20)
#    0.000    0.750    1.250    6.000    1.750    8.000 
#    0.000    0.000    0.000    0.000    0.000    0.000 
#    0.000    0.000    0.000    0.000    0.000    0.000 
#
# Total GULP energy -198439.120672 kJ/mol
# GULP energy per Si atom -12402.445042 kJ/mol
# Density = 2.298015 g / cm^3
# Si number density = 23.032569 Si / 1000 Ang^3
#
#
#
# Elastic Constant Matrix: (Units=GPa)
#
#
# Indices 1 2 3 4 5 6 
#
# 1 65.5857 30.9135 16.8910 -9.8701 -12.7619 4.4111
# 2 30.9135 124.5615 28.5790 -10.5267 5.5486 24.6205
# 3 16.8910 28.5790 145.2451 -9.9629 -6.5880 6.9174
# 4 -9.8701 -10.5267 -9.9629 38.2053 -0.6614 -0.1894
# 5 -12.7619 5.5486 -6.5880 -0.6614 29.2514 -2.5480
# 6 4.4111 24.6205 6.9174 -0.1894 -2.5480 38.6660
#
#
#
# Elastic Compliance Matrix: (Units=1/GPa)
#
#
# Indices 1 2 3 4 5 6 
#
# 1 0.020354 -0.005400 -0.000683 0.003775 0.010003 0.001916
# 2 -0.005400 0.011373 -0.001450 0.001234 -0.005397 -0.006716
# 3 -0.000683 -0.001450 0.007431 0.001389 0.001664 -0.000212
# 4 0.003775 0.001234 0.001389 0.027885 0.002254 -0.001180
# 5 0.010003 -0.005397 0.001664 0.002254 0.040407 0.004671
# 6 0.001916 -0.006716 -0.000212 -0.001180 0.004671 0.030260
#
#
# Mechanical properties :
#
#
# Convention : Reuss Voigt Hill
#
# Bulk Modulus (GPa) = 41.50904 54.23994 47.87449
# Shear Modulus (GPa) = 31.09321 38.49177 34.79249
#
# Velocity S-wave (km/s) = 3.67818 4.09245 3.89083
# Velocity P-wave (km/s) = 6.00830 6.77726 6.40433
#
# Compressibility (1/GPa) = 0.02409114
#
# Stress axis : x y z
#
# Youngs Moduli (GPa) = 49.13024 87.92607 134.57985
#
# Poissons Ratio (x) = 0.47480 0.09194
# Poissons Ratio (y) = 0.26530 0.19516
# Poissons Ratio (z) = 0.03356 0.12751
#
# Static dielectric constant tensor:
#      x y z
#    x 4.412700 -0.004680 -0.067920 
#    y -0.004680 4.571110 0.004410 
#    z -0.067920 0.004410 4.202960 
# 
# 
# High freq. dielectric constant tensor:
#      x y z
#    x 1.917140 0.012070 -0.005800 
#    y 0.012070 1.922360 0.001220 
#    z -0.005800 0.001220 1.918130 
# 
# From -- ./inp_files/534260.got.cif
#   From: 2010.06.25/outbox.cif.g09.slc.cpg/sg2_268_cif.got.tgz:534260.got - 2010.06.27 13:26:56.
