data_PCOD8023035
_publ_section_title
;
Structure prediction by ZEFSAII (Michael W. Deem and Ramdas Pophale) SiO2 
 PCOD8023035
Probable space group: P -1
;
_chemical_formula_sum "Si O2"
_cell_formula_units_Z 14
_cell_length_a 6.795463
_cell_length_b 11.488074
_cell_length_c 11.891418
_cell_angle_alpha 61.108741
_cell_angle_beta 55.699511
_cell_angle_gamma 80.097077
_cell_volume 664.949181
_symmetry_space_group_name_H-M "P -1"
_symmetry_group_IT_number 2
_symmetry_cell_setting 'triclinic'
loop_
_space_group_symop_operation_xyz
x,y,z
-x,-y,-z
loop_
_atom_site_type_symbol
_atom_site_label
_atom_site_fract_x
_atom_site_fract_y
_atom_site_fract_z
Si Si1 0.704309 0.859524 0.915598
Si Si2 0.373464 0.633198 0.991395
Si Si3 0.025303 0.565252 0.724635
Si Si4 0.966398 0.649625 0.472492
Si Si5 0.417847 0.859578 0.228502
Si Si6 0.508717 0.272299 0.506939
Si Si7 0.169251 0.744844 0.783142
O O1 0.989406 0.848524 0.828907
O O2 0.672348 0.996528 0.799248
O O3 0.538040 0.739689 0.963166
O O4 0.629788 0.863063 0.067997
O O5 0.114336 0.586699 0.159038
O O6 0.500000 0.500000 0.000000
O O7 0.316623 0.695562 0.861763
O O8 0.914176 0.653361 0.622183
O O9 0.313503 0.585039 0.594231
O O10 0.994314 0.624047 0.832850
O O11 0.749097 0.693724 0.454318
O O12 0.000000 0.500000 0.500000
O O13 0.198796 0.749437 0.313721
O O14 0.522049 0.825249 0.331166
O O15 0.630094 0.195257 0.402105
#
# Coordination Sequence:
#
# PCOD8023035 Si02
#       7
#     2   2   2   2   2   2   2
#     4  11  25  43  67  90 132 171 211 266 314 378
#     4  12  21  37  64  98 131 162 210 257 321 376
#     4   9  21  36  60  98 125 159 208 264 310 372
#     4  11  22  41  67  94 127 170 212 260 321 377
#     4  10  25  46  62  95 128 170 216 257 320 384
#     4   9  22  42  65  92 131 160 212 267 312 378
#     4  10  23  40  65  97 126 167 208 267 321 368
#
# _framework density 21.054238999999999
#
# number of rings (size 3 to 8) (size 9 to 14) (size 15 to 20)
#    0.857    0.857    1.429    2.143    0.000    7.429 
#    0.000    4.286    0.000    0.000    0.000    0.000 
#    0.000    0.000    0.000    0.000    0.000    0.000 
#
# Total GULP energy -173452.568676 kJ/mol
# GULP energy per Si atom -12389.469191 kJ/mol
# Density = 2.100632 g / cm^3
# Si number density = 21.054239 Si / 1000 Ang^3
#
#
#
# Elastic Constant Matrix: (Units=GPa)
#
#
# Indices 1 2 3 4 5 6 
#
# 1 114.9787 31.8882 39.6146 12.8064 27.7097 -37.8369
# 2 31.8882 90.8089 20.8829 2.2815 4.2727 -22.3886
# 3 39.6146 20.8829 94.7140 7.5612 19.6140 -19.7467
# 4 12.8064 2.2815 7.5612 23.1815 2.3436 -7.5538
# 5 27.7097 4.2727 19.6140 2.3436 36.2311 0.5458
# 6 -37.8369 -22.3886 -19.7467 -7.5538 0.5458 27.4599
#
#
#
# Elastic Compliance Matrix: (Units=1/GPa)
#
#
# Indices 1 2 3 4 5 6 
#
# 1 0.024861 0.000864 0.001164 -0.000389 -0.020264 0.036093
# 2 0.000864 0.014111 -0.000432 0.002830 -0.002473 0.013213
# 3 0.001164 -0.000432 0.014472 -0.000631 -0.008808 0.011660
# 4 -0.000389 0.002830 -0.000631 0.048373 -0.003045 0.014685
# 5 -0.020264 -0.002473 -0.008808 -0.003045 0.048930 -0.038083
# 6 0.036093 0.013213 0.011660 0.014685 -0.038083 0.110103
#
#
# Mechanical properties :
#
#
# Convention : Reuss Voigt Hill
#
# Bulk Modulus (GPa) = 17.65661 53.91923 35.78792
# Shear Modulus (GPa) = 18.08085 31.24889 24.66487
#
# Velocity S-wave (km/s) = 2.93366 3.85672 3.42642
# Velocity P-wave (km/s) = 4.45866 6.74520 5.71740
#
# Compressibility (1/GPa) = 0.05663602
#
# Stress axis : x y z
#
# Youngs Moduli (GPa) = 40.22352 70.86781 69.09899
#
# Poissons Ratio (x) = -0.06124 -0.08041
# Poissons Ratio (y) = -0.03476 0.02983
# Poissons Ratio (z) = -0.04681 0.03059
#
# Static dielectric constant tensor:
#      x y z
#    x 3.920090 0.109060 0.049970 
#    y 0.109060 3.665360 0.015260 
#    z 0.049970 0.015260 4.010800 
# 
# 
# High freq. dielectric constant tensor:
#      x y z
#    x 1.839110 0.003440 0.004470 
#    y 0.003440 1.791440 0.008170 
#    z 0.004470 0.008170 1.836980 
# 
# From -- ./inp_files/363793.got.cif
#   From: 2010.06.25/outbox.cif.g09.slc.cpg/sg2_182_cif.got.tgz:363793.got - 2010.06.27 13:26:56.
