data_PCOD8023834
_publ_section_title
;
Structure prediction by ZEFSAII (Michael W. Deem and Ramdas Pophale) SiO2 
 PCOD8023834
Probable space group: P -1
;
_chemical_formula_sum "Si O2"
_cell_formula_units_Z 14
_cell_length_a 13.570842
_cell_length_b 8.908633
_cell_length_c 9.562760
_cell_angle_alpha 50.158296
_cell_angle_beta 126.417011
_cell_angle_gamma 130.744933
_cell_volume 641.194723
_symmetry_space_group_name_H-M "P -1"
_symmetry_group_IT_number 2
_symmetry_cell_setting 'triclinic'
loop_
_space_group_symop_operation_xyz
x,y,z
-x,-y,-z
loop_
_atom_site_type_symbol
_atom_site_label
_atom_site_fract_x
_atom_site_fract_y
_atom_site_fract_z
Si Si1 0.931632 0.912992 0.793700
Si Si2 0.783488 0.868333 0.967758
Si Si3 0.056418 0.396846 0.223794
Si Si4 0.835757 0.197555 0.387603
Si Si5 0.684518 0.228174 0.650526
Si Si6 0.539322 0.011160 0.187145
Si Si7 0.329485 0.600486 0.758943
O O1 0.886037 0.753716 0.716726
O O2 0.904509 0.119563 0.613763
O O3 0.841339 0.797351 0.922065
O O4 0.091404 0.987028 0.911929
O O5 0.684209 0.643638 0.097000
O O6 0.702244 0.007184 0.775765
O O7 0.173290 0.573831 0.308841
O O8 0.930073 0.255467 0.298365
O O9 0.000000 0.500000 0.000000
O O10 0.686240 0.007284 0.329860
O O11 0.814869 0.399662 0.315559
O O12 0.630675 0.294975 0.424821
O O13 0.575732 0.190311 0.705226
O O14 0.552848 0.238623 0.131796
O O15 0.500000 0.000000 0.000000
#
# Coordination Sequence:
#
# PCOD8023834 Si02
#       7
#     2   2   2   2   2   2   2
#     4  11  23  40  64 103 137 172 222 278 335 399
#     4  11  23  39  70 101 134 176 223 272 338 395
#     4  12  23  39  68  99 137 175 223 274 336 393
#     4  10  23  42  66  95 137 171 223 277 329 397
#     4  12  24  45  71 100 137 178 223 277 332 399
#     4  10  24  45  70  93 138 179 221 278 338 393
#     4  10  24  42  69  97 136 175 225 273 336 392
#
# _framework density 21.834243000000001
#
# number of rings (size 3 to 8) (size 9 to 14) (size 15 to 20)
#    0.857    0.286    2.857    3.429    4.000    1.714 
#    0.000    0.714    0.000    0.000    0.000    0.000 
#    0.000    0.000    0.000    0.000    0.000    0.000 
#
# Total GULP energy -173560.084568 kJ/mol
# GULP energy per Si atom -12397.148898 kJ/mol
# Density = 2.178455 g / cm^3
# Si number density = 21.834243 Si / 1000 Ang^3
#
#
#
# Elastic Constant Matrix: (Units=GPa)
#
#
# Indices 1 2 3 4 5 6 
#
# 1 97.1040 31.3963 31.1203 0.7954 -26.2069 9.1290
# 2 31.3963 79.4399 34.4628 3.2154 -14.8547 -4.9880
# 3 31.1203 34.4628 122.5818 -3.5107 -32.7095 1.8898
# 4 0.7954 3.2154 -3.5107 37.3294 -6.0122 0.3861
# 5 -26.2069 -14.8547 -32.7095 -6.0122 30.4658 0.9673
# 6 9.1290 -4.9880 1.8898 0.3861 0.9673 34.4613
#
#
#
# Elastic Compliance Matrix: (Units=1/GPa)
#
#
# Indices 1 2 3 4 5 6 
#
# 1 0.015316 -0.004498 0.000853 0.002207 0.012496 -0.005131
# 2 -0.004498 0.016174 -0.003592 -0.001722 -0.000299 0.003757
# 3 0.000853 -0.003592 0.012642 0.003647 0.013334 -0.001854
# 4 0.002207 -0.001722 0.003647 0.028981 0.010746 -0.001660
# 5 0.012496 -0.000299 0.013334 0.010746 0.060051 -0.005891
# 6 -0.005131 0.003757 -0.001854 -0.001660 -0.005891 0.031207
#
#
# Mechanical properties :
#
#
# Convention : Reuss Voigt Hill
#
# Bulk Modulus (GPa) = 33.71831 54.78714 44.25273
# Shear Modulus (GPa) = 26.49277 33.92774 30.21025
#
# Velocity S-wave (km/s) = 3.48711 3.94620 3.72374
# Velocity P-wave (km/s) = 5.62935 6.77570 6.22895
#
# Compressibility (1/GPa) = 0.02965748
#
# Stress axis : x y z
#
# Youngs Moduli (GPa) = 65.29151 61.82775 79.09962
#
# Poissons Ratio (x) = 0.27810 -0.06747
# Poissons Ratio (y) = 0.29368 0.28415
# Poissons Ratio (z) = -0.05569 0.22210
#
# Static dielectric constant tensor:
#      x y z
#    x -6.307360 13.228540 3.191840 
#    y 13.228540 -13.333550 -4.163090 
#    z 3.191840 -4.163090 2.796830 
# 
# 
# High freq. dielectric constant tensor:
#      x y z
#    x 1.857230 0.005700 -0.011860 
#    y 0.005700 1.844480 0.005040 
#    z -0.011860 0.005040 1.862340 
# 
# From -- ./inp_files/294271.got.cif
#   From: 2010.06.25/outbox.cif.g09.slc.cpg/sg2_148_cif.got.tgz:294271.got - 2010.06.27 13:26:56.
