data_PCOD8023767
_publ_section_title
;
Structure prediction by ZEFSAII (Michael W. Deem and Ramdas Pophale) SiO2 
 PCOD8023767
Probable space group: P -1
;
_chemical_formula_sum "Si O2"
_cell_formula_units_Z 16
_cell_length_a 7.792957
_cell_length_b 10.073636
_cell_length_c 16.813691
_cell_angle_alpha 123.886272
_cell_angle_beta 54.808334
_cell_angle_gamma 88.583880
_cell_volume 770.225739
_symmetry_space_group_name_H-M "P -1"
_symmetry_group_IT_number 2
_symmetry_cell_setting 'triclinic'
loop_
_space_group_symop_operation_xyz
x,y,z
-x,-y,-z
loop_
_atom_site_type_symbol
_atom_site_label
_atom_site_fract_x
_atom_site_fract_y
_atom_site_fract_z
Si Si1 0.931438 0.471463 0.596278
Si Si2 0.665557 0.741626 0.145274
Si Si3 0.866474 0.006473 0.783091
Si Si4 0.134050 0.047199 0.413234
Si Si5 0.175216 0.659239 0.009009
Si Si6 0.638826 0.303454 0.193917
Si Si7 0.955769 0.282078 0.241325
Si Si8 0.362153 0.061103 0.936343
O O1 0.641591 0.555313 0.705308
O O2 0.035336 0.553999 0.660745
O O3 0.000000 0.500000 0.500000
O O4 0.069022 0.256484 0.509745
O O5 0.708824 0.779408 0.056306
O O6 0.900718 0.708945 0.120825
O O7 0.423843 0.914809 0.304027
O O8 0.641285 0.558317 0.094395
O O9 0.765078 0.217735 0.907515
O O10 0.652481 0.958619 0.837390
O O11 0.948469 0.984523 0.662243
O O12 0.079914 0.851541 0.730675
O O13 0.000000 0.000000 0.500000
O O14 0.197831 0.705436 0.927120
O O15 0.728790 0.367376 0.268748
O O16 0.694965 0.096743 0.129081
O O17 0.214268 0.158422 0.087283
#
# Coordination Sequence:
#
# PCOD8023767 Si02
#       8
#     2   2   2   2   2   2   2   2
#     4  12  25  45  63  93 136 180 227 264 308 399
#     4  10  23  42  65  93 139 164 208 288 327 386
#     4  11  22  39  68  97 133 172 214 276 336 389
#     4  11  25  47  64  89 133 184 225 264 318 391
#     4  11  22  41  67 103 131 159 220 280 346 390
#     4  12  23  40  71 100 133 172 215 281 333 394
#     4  12  22  39  68 101 131 171 215 271 339 384
#     4  11  20  39  65 103 134 159 215 279 343 388
#
# _framework density 20.773129000000001
#
# number of rings (size 3 to 8) (size 9 to 14) (size 15 to 20)
#    0.000    0.750    5.000    3.750    0.000    3.500 
#    2.250    0.625    0.000    0.000    0.000    0.000 
#    0.000    0.000    0.000    0.000    0.000    0.000 
#
# Total GULP energy -198423.266298 kJ/mol
# GULP energy per Si atom -12401.454144 kJ/mol
# Density = 2.072585 g / cm^3
# Si number density = 20.773129 Si / 1000 Ang^3
#
#
#
# Elastic Constant Matrix: (Units=GPa)
#
#
# Indices 1 2 3 4 5 6 
#
# 1 110.6330 50.7409 58.8704 6.9466 23.7478 3.7946
# 2 50.7409 153.0393 60.3152 10.3337 12.5017 3.0065
# 3 58.8704 60.3152 116.6184 5.4333 13.8734 7.2069
# 4 6.9466 10.3337 5.4333 43.5033 2.3016 3.4421
# 5 23.7478 12.5017 13.8734 2.3016 36.9185 0.5403
# 6 3.7946 3.0065 7.2069 3.4421 0.5403 25.9082
#
#
#
# Elastic Compliance Matrix: (Units=1/GPa)
#
#
# Indices 1 2 3 4 5 6 
#
# 1 0.014240 -0.002044 -0.005324 -0.000773 -0.006417 -0.000131
# 2 -0.002044 0.008644 -0.003371 -0.001324 -0.000269 0.000415
# 3 -0.005324 -0.003371 0.013195 0.000222 -0.000370 -0.002521
# 4 -0.000773 -0.001324 0.000222 0.023659 -0.000569 -0.002926
# 5 -0.006417 -0.000269 -0.000370 -0.000569 0.031473 0.000493
# 6 -0.000131 0.000415 -0.002521 -0.002926 0.000493 0.039649
#
#
# Mechanical properties :
#
#
# Convention : Reuss Voigt Hill
#
# Bulk Modulus (GPa) = 68.48474 80.01597 74.25035
# Shear Modulus (GPa) = 31.80611 35.29028 33.54820
#
# Velocity S-wave (km/s) = 3.91720 4.12617 4.02304
# Velocity P-wave (km/s) = 7.31428 7.82962 7.57634
#
# Compressibility (1/GPa) = 0.01460179
#
# Stress axis : x y z
#
# Youngs Moduli (GPa) = 70.22624 115.69186 75.78545
#
# Poissons Ratio (x) = 0.23649 0.40346
# Poissons Ratio (y) = 0.14355 0.25544
# Poissons Ratio (z) = 0.37386 0.38995
#
# Static dielectric constant tensor:
#      x y z
#    x 3.840280 0.035730 -0.072470 
#    y 0.035730 3.849140 -0.004890 
#    z -0.072470 -0.004890 3.764560 
# 
# 
# High freq. dielectric constant tensor:
#      x y z
#    x 1.808980 -0.002200 0.000390 
#    y -0.002200 1.825900 0.003080 
#    z 0.000390 0.003080 1.806770 
# 
# From -- ./inp_files/342789.got.cif
#   From: 2010.06.25/outbox.cif.g09.slc.cpg/sg2_172_cif.got.tgz:342789.got - 2010.06.27 13:26:56.
