data_PCOD8023337
_publ_section_title
;
Structure prediction by ZEFSAII (Michael W. Deem and Ramdas Pophale) SiO2 
 PCOD8023337
Probable space group: P -1
;
_chemical_formula_sum "Si O2"
_cell_formula_units_Z 14
_cell_length_a 11.604579
_cell_length_b 7.544609
_cell_length_c 8.767585
_cell_angle_alpha 95.378676
_cell_angle_beta 122.916287
_cell_angle_gamma 69.528537
_cell_volume 599.150276
_symmetry_space_group_name_H-M "P -1"
_symmetry_group_IT_number 2
_symmetry_cell_setting 'triclinic'
loop_
_space_group_symop_operation_xyz
x,y,z
-x,-y,-z
loop_
_atom_site_type_symbol
_atom_site_label
_atom_site_fract_x
_atom_site_fract_y
_atom_site_fract_z
Si Si1 0.196328 0.222814 0.769995
Si Si2 0.746977 0.115709 0.435641
Si Si3 0.462768 0.271183 0.094689
Si Si4 0.746064 0.530624 0.421883
Si Si5 0.838714 0.115922 0.829344
Si Si6 0.066238 0.576220 0.190659
Si Si7 0.415031 0.687649 0.127487
O O1 0.190176 0.406066 0.678660
O O2 0.065006 0.272610 0.798091
O O3 0.179312 0.054655 0.643181
O O4 0.349985 0.162861 0.970201
O O5 0.569039 0.170711 0.304312
O O6 0.787027 0.300904 0.432725
O O7 0.802026 0.032739 0.637272
O O8 0.375438 0.495396 0.082245
O O9 0.576161 0.248730 0.033977
O O10 0.828222 0.583112 0.631007
O O11 0.571992 0.643784 0.320213
O O12 0.828505 0.327869 0.801293
O O13 0.712082 0.139794 0.865871
O O14 0.000000 0.000000 0.000000
O O15 0.000000 0.500000 0.000000
#
# Coordination Sequence:
#
# PCOD8023337 Si02
#       7
#     2   2   2   2   2   2   2
#     4  11  22  41  66  99 133 164 211 270 319 390
#     4  10  23  41  65  97 125 171 220 255 325 381
#     4   9  19  39  68  98 121 168 216 266 318 377
#     4   9  22  43  66  93 124 173 216 263 321 375
#     4  11  26  43  61  96 132 172 213 268 325 378
#     4  11  25  41  63  96 129 174 214 262 328 381
#     4   9  19  41  68  90 129 169 213 266 320 382
#
# _framework density 23.366423999999999
#
# number of rings (size 3 to 8) (size 9 to 14) (size 15 to 20)
#    0.000    2.000    0.000    2.571    4.000    8.571 
#    7.714    2.857    0.000    0.000    0.000    0.000 
#    0.000    0.000    0.000    0.000    0.000    0.000 
#
# Total GULP energy -173522.244673 kJ/mol
# GULP energy per Si atom -12394.446048 kJ/mol
# Density = 2.331324 g / cm^3
# Si number density = 23.366424 Si / 1000 Ang^3
#
#
#
# Elastic Constant Matrix: (Units=GPa)
#
#
# Indices 1 2 3 4 5 6 
#
# 1 76.5848 27.8312 22.8584 0.9417 3.0521 -21.5834
# 2 27.8312 80.2991 35.5571 9.8233 -0.0913 -16.8727
# 3 22.8584 35.5571 191.1657 4.1934 23.1307 -15.2257
# 4 0.9417 9.8233 4.1934 35.6952 1.3713 1.6068
# 5 3.0521 -0.0913 23.1307 1.3713 22.2041 0.1313
# 6 -21.5834 -16.8727 -15.2257 1.6068 0.1313 37.8570
#
#
#
# Elastic Compliance Matrix: (Units=1/GPa)
#
#
# Indices 1 2 3 4 5 6 
#
# 1 0.016903 -0.004135 -0.000416 0.000474 -0.001981 0.007613
# 2 -0.004135 0.016434 -0.002569 -0.004434 0.003561 0.004110
# 3 -0.000416 -0.002569 0.006703 0.000138 -0.006952 0.001332
# 4 0.000474 -0.004434 0.000138 0.029414 -0.002026 -0.002892
# 5 -0.001981 0.003561 -0.006952 -0.002026 0.052706 -0.002435
# 6 0.007613 0.004110 0.001332 -0.002892 -0.002435 0.033254
#
#
# Mechanical properties :
#
#
# Convention : Reuss Voigt Hill
#
# Bulk Modulus (GPa) = 38.75897 57.83809 48.29853
# Shear Modulus (GPa) = 28.04987 36.60479 32.32733
#
# Velocity S-wave (km/s) = 3.46849 3.96227 3.72357
# Velocity P-wave (km/s) = 5.71524 6.76307 6.26112
#
# Compressibility (1/GPa) = 0.02580048
#
# Stress axis : x y z
#
# Youngs Moduli (GPa) = 59.16113 60.84971 149.18884
#
# Poissons Ratio (x) = 0.25159 0.06213
# Poissons Ratio (y) = 0.24461 0.38321
# Poissons Ratio (z) = 0.02464 0.15630
#
# Static dielectric constant tensor:
#      x y z
#    x 3.998350 0.141260 0.129930 
#    y 0.141260 3.930720 0.075920 
#    z 0.129930 0.075920 5.061990 
# 
# 
# High freq. dielectric constant tensor:
#      x y z
#    x 1.906620 0.004450 0.012630 
#    y 0.004450 1.902430 -0.001970 
#    z 0.012630 -0.001970 1.949190 
# 
# From -- ./inp_files/182280.got.cif
#   From: 2010.06.25/outbox.cif.g09.slc.cpg/sg2_92_cif.got.tgz:182280.got - 2010.06.27 13:26:56.
