data_PCOD8023000
_publ_section_title
;
Structure prediction by ZEFSAII (Michael W. Deem and Ramdas Pophale) SiO2 
 PCOD8023000
Probable space group: P -1
;
_chemical_formula_sum "Si O2"
_cell_formula_units_Z 14
_cell_length_a 11.884140
_cell_length_b 11.520420
_cell_length_c 14.698216
_cell_angle_alpha 160.130890
_cell_angle_beta 116.401709
_cell_angle_gamma 63.181193
_cell_volume 608.997057
_symmetry_space_group_name_H-M "P -1"
_symmetry_group_IT_number 2
_symmetry_cell_setting 'triclinic'
loop_
_space_group_symop_operation_xyz
x,y,z
-x,-y,-z
loop_
_atom_site_type_symbol
_atom_site_label
_atom_site_fract_x
_atom_site_fract_y
_atom_site_fract_z
Si Si1 0.120181 0.601737 0.063973
Si Si2 0.273481 0.031260 0.566477
Si Si3 0.186573 0.717369 0.736725
Si Si4 0.079236 0.011227 0.174442
Si Si5 0.487964 0.891564 0.671945
Si Si6 0.604137 0.153128 0.208639
Si Si7 0.688158 0.391795 0.118206
O O1 0.202323 0.743523 0.279244
O O2 0.079652 0.920493 0.215643
O O3 0.191004 0.282238 0.794624
O O4 0.000000 0.500000 0.000000
O O5 0.338973 0.234669 0.659981
O O6 0.393419 0.823822 0.506745
O O7 0.135382 0.363932 0.429925
O O8 0.252247 0.917229 0.827392
O O9 0.301322 0.626664 0.782797
O O10 0.062777 0.977295 0.909811
O O11 0.167452 0.719511 0.940833
O O12 0.577276 0.565377 0.498990
O O13 0.398069 0.011048 0.813168
O O14 0.579454 0.172853 0.881903
O O15 0.500000 0.000000 0.000000
#
# Coordination Sequence:
#
# PCOD8023000 Si02
#       7
#     2   2   2   2   2   2   2
#     4  11  25  47  66 102 139 179 227 286 334 418
#     4  11  26  44  73  99 136 182 231 276 351 400
#     4  11  21  40  68  91 131 175 228 275 339 400
#     4  10  23  40  64  96 129 176 227 279 340 394
#     4  11  25  42  64 100 135 178 226 280 345 404
#     4  11  24  42  65  95 136 175 224 284 336 412
#     4  11  21  44  64 100 134 175 226 291 326 419
#
# _framework density 22.988617999999999
#
# number of rings (size 3 to 8) (size 9 to 14) (size 15 to 20)
#    0.000    1.143    4.286    1.286    4.000    0.000 
#    0.000    2.857    0.000    0.000    0.000    0.000 
#    0.000    0.000    0.000    0.000    0.000    0.000 
#
# Total GULP energy -173477.068519 kJ/mol
# GULP energy per Si atom -12391.219180 kJ/mol
# Density = 2.293629 g / cm^3
# Si number density = 22.988618 Si / 1000 Ang^3
#
#
#
# Elastic Constant Matrix: (Units=GPa)
#
#
# Indices 1 2 3 4 5 6 
#
# 1 120.1049 20.4412 19.7898 -0.0878 25.4028 7.9720
# 2 20.4412 92.2714 1.6876 -16.7738 11.5193 -6.7928
# 3 19.7898 1.6876 73.6718 -18.8022 14.5697 -1.3714
# 4 -0.0878 -16.7738 -18.8022 33.9720 -3.2275 4.6331
# 5 25.4028 11.5193 14.5697 -3.2275 37.1609 -4.2467
# 6 7.9720 -6.7928 -1.3714 4.6331 -4.2467 30.5692
#
#
#
# Elastic Compliance Matrix: (Units=1/GPa)
#
#
# Indices 1 2 3 4 5 6 
#
# 1 0.010687 -0.002254 -0.002242 -0.002399 -0.006383 -0.003912
# 2 -0.002254 0.013144 0.002794 0.007481 -0.002737 0.002120
# 3 -0.002242 0.002794 0.017955 0.010845 -0.005477 -0.000393
# 4 -0.002399 0.007481 0.010845 0.039418 -0.001904 -0.003464
# 5 -0.006383 -0.002737 -0.005477 -0.001904 0.034782 0.005931
# 6 -0.003912 0.002120 -0.000393 -0.003464 0.005931 0.035535
#
#
# Mechanical properties :
#
#
# Convention : Reuss Voigt Hill
#
# Bulk Modulus (GPa) = 26.05250 41.09837 33.57544
# Shear Modulus (GPa) = 29.81214 36.61574 33.21394
#
# Velocity S-wave (km/s) = 3.60505 3.99529 3.80518
# Velocity P-wave (km/s) = 5.35592 6.26096 5.82604
#
# Compressibility (1/GPa) = 0.03838403
#
# Stress axis : x y z
#
# Youngs Moduli (GPa) = 93.57188 76.08310 55.69345
#
# Poissons Ratio (x) = 0.17146 0.12485
# Poissons Ratio (y) = 0.21088 -0.15563
# Poissons Ratio (z) = 0.20976 -0.21261
#
# Static dielectric constant tensor:
#      x y z
#    x 4.509520 0.260280 0.026000 
#    y 0.260280 4.702940 0.285120 
#    z 0.026000 0.285120 4.140810 
# 
# 
# High freq. dielectric constant tensor:
#      x y z
#    x 1.923130 0.007320 0.010970 
#    y 0.007320 1.913650 -0.001190 
#    z 0.010970 -0.001190 1.888510 
# 
# From -- ./inp_files/64846.got.cif
#   From: 2010.06.25/outbox.cif.g09.slc.cpg/sg2_33_cif.got.tgz:64846.got - 2010.06.27 13:26:56.
