data_PCOD8023244
_publ_section_title
;
Structure prediction by ZEFSAII (Michael W. Deem and Ramdas Pophale) SiO2 
 PCOD8023244
Probable space group: P -1
;
_chemical_formula_sum "Si O2"
_cell_formula_units_Z 12
_cell_length_a 14.072372
_cell_length_b 6.908060
_cell_length_c 8.922046
_cell_angle_alpha 77.087594
_cell_angle_beta 139.375993
_cell_angle_gamma 92.513016
_cell_volume 539.520590
_symmetry_space_group_name_H-M "P -1"
_symmetry_group_IT_number 2
_symmetry_cell_setting 'triclinic'
loop_
_space_group_symop_operation_xyz
x,y,z
-x,-y,-z
loop_
_atom_site_type_symbol
_atom_site_label
_atom_site_fract_x
_atom_site_fract_y
_atom_site_fract_z
Si Si1 0.101099 0.406128 0.773669
Si Si2 0.365326 0.931975 0.707768
Si Si3 0.736584 0.413636 0.825117
Si Si4 0.170843 0.653633 0.387038
Si Si5 0.512877 0.821452 0.429568
Si Si6 0.682291 0.741956 0.183305
O O1 0.245370 0.264291 0.895699
O O2 0.000000 0.500000 0.500000
O O3 0.002862 0.285817 0.781889
O O4 0.147456 0.582958 0.900773
O O5 0.247578 0.841337 0.486112
O O6 0.426945 0.108555 0.665043
O O7 0.287014 0.051685 0.738398
O O8 0.504752 0.754542 0.949784
O O9 0.823074 0.381979 0.776723
O O10 0.625312 0.628986 0.661607
O O11 0.648298 0.234154 0.780002
O O12 0.252302 0.454901 0.606861
O O13 0.500000 0.000000 0.500000
#
# Coordination Sequence:
#
# PCOD8023244 Si02
#       6
#     2   2   2   2   2   2
#     4  10  24  43  65  91 132 178 211 254 324 389
#     4  11  22  39  68  97 127 168 216 268 315 378
#     4  11  23  41  68  94 130 165 216 269 315 381
#     4  11  22  42  66  95 130 168 215 264 321 375
#     4  11  22  39  66 101 125 161 213 271 323 366
#     4  10  23  41  63  95 134 169 215 259 317 384
#
# _framework density 22.241970999999999
#
# number of rings (size 3 to 8) (size 9 to 14) (size 15 to 20)
#    0.000    1.333    3.333    2.000    2.333    6.000 
#    0.000    5.833    0.000    0.000    0.000    0.000 
#    0.000    0.000    0.000    0.000    0.000    0.000 
#
# Total GULP energy -148784.766029 kJ/mol
# GULP energy per Si atom -12398.730502 kJ/mol
# Density = 2.219135 g / cm^3
# Si number density = 22.241971 Si / 1000 Ang^3
#
#
#
# Elastic Constant Matrix: (Units=GPa)
#
#
# Indices 1 2 3 4 5 6 
#
# 1 167.9152 67.6896 46.4212 37.5105 -2.9494 -9.2801
# 2 67.6896 103.4593 42.0187 32.2211 -2.2035 -4.5649
# 3 46.4212 42.0187 107.6738 46.7413 -13.4584 4.1725
# 4 37.5105 32.2211 46.7413 42.0640 -2.3730 -8.8604
# 5 -2.9494 -2.2035 -13.4584 -2.3730 25.9074 9.6043
# 6 -9.2801 -4.5649 4.1725 -8.8604 9.6043 35.9048
#
#
#
# Elastic Compliance Matrix: (Units=1/GPa)
#
#
# Indices 1 2 3 4 5 6 
#
# 1 0.008708 -0.004290 -0.000577 -0.003655 -0.000367 0.000969
# 2 -0.004290 0.014925 -0.001185 -0.006429 -0.000199 -0.000607
# 3 -0.000577 -0.001185 0.024678 -0.028128 0.015346 -0.014214
# 4 -0.003655 -0.006429 -0.028128 0.067012 -0.017901 0.022832
# 5 -0.000367 -0.000199 0.015346 -0.017901 0.052414 -0.020341
# 6 0.000969 -0.000607 -0.014214 0.022832 -0.020341 0.040752
#
#
# Mechanical properties :
#
#
# Convention : Reuss Voigt Hill
#
# Bulk Modulus (GPa) = 27.61959 76.81191 52.21575
# Shear Modulus (GPa) = 21.49056 35.63648 28.56352
#
# Velocity S-wave (km/s) = 3.11177 4.00711 3.58749
# Velocity P-wave (km/s) = 5.03543 7.48458 6.37866
#
# Compressibility (1/GPa) = 0.03620619
#
# Stress axis : x y z
#
# Youngs Moduli (GPa) = 114.84181 67.00245 40.52210
#
# Poissons Ratio (x) = 0.28741 0.02339
# Poissons Ratio (y) = 0.49263 0.04803
# Poissons Ratio (z) = 0.06628 0.07942
#
# Static dielectric constant tensor:
#      x y z
#    x 4.807790 -0.175890 0.043970 
#    y -0.175890 3.906800 0.154360 
#    z 0.043970 0.154360 3.990550 
# 
# 
# High freq. dielectric constant tensor:
#      x y z
#    x 1.891310 -0.013280 -0.007390 
#    y -0.013280 1.863220 0.018300 
#    z -0.007390 0.018300 1.873480 
# 
# From -- ./inp_files/32485.got.cif
#   From: 2010.06.25/outbox.cif.g09.slc.cpg/sg2_17_cif.got.tgz:32485.got - 2010.06.27 13:26:56.
