data_PCOD8023796
_publ_section_title
;
Structure prediction by ZEFSAII (Michael W. Deem and Ramdas Pophale) SiO2 
 PCOD8023796
Probable space group: P -1
;
_chemical_formula_sum "Si O2"
_cell_formula_units_Z 16
_cell_length_a 9.250610
_cell_length_b 15.205392
_cell_length_c 11.137819
_cell_angle_alpha 73.916660
_cell_angle_beta 84.763484
_cell_angle_gamma 29.679967
_cell_volume 707.652000
_symmetry_space_group_name_H-M "P -1"
_symmetry_group_IT_number 2
_symmetry_cell_setting 'triclinic'
loop_
_space_group_symop_operation_xyz
x,y,z
-x,-y,-z
loop_
_atom_site_type_symbol
_atom_site_label
_atom_site_fract_x
_atom_site_fract_y
_atom_site_fract_z
Si Si1 0.900018 0.916511 0.024093
Si Si2 0.698517 0.626394 0.536390
Si Si3 0.677319 0.996565 0.512241
Si Si4 0.307506 0.822751 0.897207
Si Si5 0.716148 0.924321 0.795428
Si Si6 0.020660 0.589486 0.011445
Si Si7 0.921759 0.092221 0.596160
Si Si8 0.061366 0.289002 0.786732
O O1 0.756880 0.967749 0.888796
O O2 0.173794 0.833232 0.008045
O O3 0.054205 0.744993 0.145099
O O4 0.651347 0.101976 0.064562
O O5 0.561621 0.786329 0.563882
O O6 0.446500 0.720414 0.428881
O O7 0.000000 0.500000 0.500000
O O8 0.786980 0.493662 0.665575
O O9 0.500000 0.000000 0.500000
O O10 0.817343 0.916114 0.667029
O O11 0.957785 0.868249 0.447370
O O12 0.617056 0.600642 0.915648
O O13 0.085958 0.956526 0.749280
O O14 0.349314 0.112575 0.743437
O O15 0.902753 0.725988 0.868082
O O16 0.834441 0.711075 0.102624
O O17 0.000000 0.500000 0.000000
O O18 0.000000 0.000000 0.500000
#
# Coordination Sequence:
#
# PCOD8023796 Si02
#       8
#     2   2   2   2   2   2   2   2
#     4  10  23  42  65  98 131 182 214 287 350 394
#     4  11  23  44  70  97 132 187 227 275 346 420
#     4  11  25  43  69 100 140 183 229 288 343 407
#     4  11  23  42  70  97 137 172 233 281 342 417
#     4  11  23  42  66  96 137 175 222 283 343 407
#     4  11  23  38  65  97 126 175 224 277 337 400
#     4  10  23  43  68  99 139 182 223 285 344 405
#     4  11  23  40  66  92 139 171 226 280 343 408
#
# _framework density 22.609983
#
# number of rings (size 3 to 8) (size 9 to 14) (size 15 to 20)
#    0.000    1.250    1.250    6.000    5.250    3.000 
#    0.000    2.500    0.000    0.000    0.000    0.000 
#    0.000    0.000    0.000    0.000    0.000    0.000 
#
# Total GULP energy -198248.846991 kJ/mol
# GULP energy per Si atom -12390.552937 kJ/mol
# Density = 2.255852 g / cm^3
# Si number density = 22.609983 Si / 1000 Ang^3
#
#
#
# Elastic Constant Matrix: (Units=GPa)
#
#
# Indices 1 2 3 4 5 6 
#
# 1 120.8965 41.2684 31.0553 -11.7754 -12.7417 -0.2708
# 2 41.2684 95.3950 42.5968 -17.4542 -12.6827 0.2525
# 3 31.0553 42.5968 130.0772 -26.2389 -22.1859 6.3073
# 4 -11.7754 -17.4542 -26.2389 38.7667 2.7503 -3.6697
# 5 -12.7417 -12.6827 -22.1859 2.7503 35.8732 1.7572
# 6 -0.2708 0.2525 6.3073 -3.6697 1.7572 43.5035
#
#
#
# Elastic Compliance Matrix: (Units=1/GPa)
#
#
# Indices 1 2 3 4 5 6 
#
# 1 0.009952 -0.003595 -0.000754 0.000789 0.001728 0.000189
# 2 -0.003595 0.014130 -0.002847 0.003273 0.001682 0.000516
# 3 -0.000754 -0.002847 0.010799 0.005315 0.005061 -0.001310
# 4 0.000789 0.003273 0.005315 0.031112 0.002254 0.001749
# 5 0.001728 0.001682 0.005061 0.002254 0.032132 -0.001841
# 6 0.000189 0.000516 -0.001310 0.001749 -0.001841 0.023397
#
#
# Mechanical properties :
#
#
# Convention : Reuss Voigt Hill
#
# Bulk Modulus (GPa) = 48.80655 64.02331 56.41493
# Shear Modulus (GPa) = 35.02815 39.05856 37.04335
#
# Velocity S-wave (km/s) = 3.94030 4.16082 4.05206
# Velocity P-wave (km/s) = 6.50649 7.17364 6.84819
#
# Compressibility (1/GPa) = 0.02048905
#
# Stress axis : x y z
#
# Youngs Moduli (GPa) = 100.48504 70.77038 92.60130
#
# Poissons Ratio (x) = 0.25441 0.06982
# Poissons Ratio (y) = 0.36123 0.26364
# Poissons Ratio (z) = 0.07576 0.20149
#
# Static dielectric constant tensor:
#      x y z
#    x 4.564580 -0.236670 -0.193920 
#    y -0.236670 4.726230 -0.102730 
#    z -0.193920 -0.102730 4.148590 
# 
# 
# High freq. dielectric constant tensor:
#      x y z
#    x 1.897580 -0.001410 -0.014130 
#    y -0.001410 1.879910 -0.001310 
#    z -0.014130 -0.001310 1.895360 
# 
# From -- ./inp_files/398944.got.cif
#   From: 2010.06.25/outbox.cif.g09.slc.cpg/sg2_200_cif.got.tgz:398944.got - 2010.06.27 13:26:56.
