data_PCOD8023535
_publ_section_title
;
Structure prediction by ZEFSAII (Michael W. Deem and Ramdas Pophale) SiO2 
 PCOD8023535
Probable space group: P -1
;
_chemical_formula_sum "Si O2"
_cell_formula_units_Z 16
_cell_length_a 28.584996
_cell_length_b 5.161495
_cell_length_c 19.060595
_cell_angle_alpha 77.678577
_cell_angle_beta 162.697011
_cell_angle_gamma 110.192186
_cell_volume 713.830018
_symmetry_space_group_name_H-M "P -1"
_symmetry_group_IT_number 2
_symmetry_cell_setting 'triclinic'
loop_
_space_group_symop_operation_xyz
x,y,z
-x,-y,-z
loop_
_atom_site_type_symbol
_atom_site_label
_atom_site_fract_x
_atom_site_fract_y
_atom_site_fract_z
Si Si1 0.759530 0.327641 0.823440
Si Si2 0.137679 0.901187 0.570918
Si Si3 0.127246 0.428238 0.324584
Si Si4 0.424645 0.920612 0.283040
Si Si5 0.691108 0.499658 0.123452
Si Si6 0.283935 0.374189 0.010011
Si Si7 0.631902 0.695650 0.236709
Si Si8 0.958430 0.092048 0.862099
O O1 0.659454 0.277938 0.756185
O O2 0.850373 0.686041 0.914198
O O3 0.633522 0.140835 0.588277
O O4 0.921096 0.245960 0.067574
O O5 0.189298 0.665638 0.693451
O O6 0.924340 0.738844 0.266545
O O7 0.208968 0.192901 0.706151
O O8 0.222613 0.985140 0.608589
O O9 0.267722 0.492521 0.584369
O O10 0.160996 0.735106 0.314963
O O11 0.161998 0.212531 0.335135
O O12 0.404156 0.692364 0.204206
O O13 0.330292 0.119359 0.117750
O O14 0.672284 0.578026 0.012228
O O15 0.489371 0.274374 0.877032
O O16 0.500000 0.500000 0.000000
O O17 0.000000 0.000000 0.000000
#
# Coordination Sequence:
#
# PCOD8023535 Si02
#       8
#     2   2   2   2   2   2   2   2
#     4   9  25  42  68  93 138 169 232 272 353 391
#     4  11  23  42  71  93 139 177 228 273 348 403
#     4  10  23  41  69  96 135 176 227 269 343 405
#     4  11  25  41  67  97 131 176 223 294 325 413
#     4  11  24  44  64  98 138 178 220 288 337 408
#     4  12  25  42  69 100 132 175 237 271 351 394
#     4  10  24  44  68 103 136 178 226 284 339 406
#     4  10  23  42  67  97 131 178 223 273 339 408
#
# _framework density 22.414300000000001
#
# number of rings (size 3 to 8) (size 9 to 14) (size 15 to 20)
#    0.750    0.750    0.000    3.750    5.250    7.000 
#    0.000    0.000    0.000    0.000    0.000    0.000 
#    0.000    0.000    0.000    0.000    0.000    0.000 
#
# Total GULP energy -198318.347587 kJ/mol
# GULP energy per Si atom -12394.896724 kJ/mol
# Density = 2.236328 g / cm^3
# Si number density = 22.414300 Si / 1000 Ang^3
#
#
#
# Elastic Constant Matrix: (Units=GPa)
#
#
# Indices 1 2 3 4 5 6 
#
# 1 98.8354 35.0070 44.9885 2.4566 -4.8599 16.6530
# 2 35.0070 143.5466 32.4231 -9.6040 -19.3626 -1.1772
# 3 44.9885 32.4231 121.8169 -20.1669 -13.5056 4.0808
# 4 2.4566 -9.6040 -20.1669 29.1486 1.3300 -11.6771
# 5 -4.8599 -19.3626 -13.5056 1.3300 32.4111 -1.9560
# 6 16.6530 -1.1772 4.0808 -11.6771 -1.9560 36.6754
#
#
#
# Elastic Compliance Matrix: (Units=1/GPa)
#
#
# Indices 1 2 3 4 5 6 
#
# 1 0.016583 -0.003706 -0.007019 -0.011643 -0.002822 -0.010725
# 2 -0.003706 0.008815 0.000196 0.004601 0.004824 0.003666
# 3 -0.007019 0.000196 0.012980 0.011728 0.004337 0.005715
# 4 -0.011643 0.004601 0.011728 0.053243 0.004993 0.021348
# 5 -0.002822 0.004824 0.004337 0.004993 0.035182 0.004420
# 6 -0.010725 0.003666 0.005715 0.021348 0.004420 0.038651
#
#
# Mechanical properties :
#
#
# Convention : Reuss Voigt Hill
#
# Bulk Modulus (GPa) = 57.73644 65.44843 61.59243
# Shear Modulus (GPa) = 26.00321 36.43238 31.21780
#
# Velocity S-wave (km/s) = 3.40974 4.03601 3.73602
# Velocity P-wave (km/s) = 6.42779 7.14016 6.79332
#
# Compressibility (1/GPa) = 0.01732008
#
# Stress axis : x y z
#
# Youngs Moduli (GPa) = 60.30149 113.44889 77.04188
#
# Poissons Ratio (x) = 0.42049 0.54076
# Poissons Ratio (y) = 0.22350 -0.01514
# Poissons Ratio (z) = 0.42326 -0.02229
#
# Static dielectric constant tensor:
#      x y z
#    x 4.587900 -0.006140 0.197740 
#    y -0.006140 4.205250 0.188450 
#    z 0.197740 0.188450 4.215350 
# 
# 
# High freq. dielectric constant tensor:
#      x y z
#    x 1.878670 0.007420 -0.008280 
#    y 0.007420 1.884530 -0.006330 
#    z -0.008280 -0.006330 1.895700 
# 
# From -- ./inp_files/579484.got.cif
#   From: 2010.06.25/outbox.cif.g09.slc.cpg/sg2_290_cif.got.tgz:579484.got - 2010.06.27 13:26:56.
