data_PCOD8023405
_publ_section_title
;
Structure prediction by ZEFSAII (Michael W. Deem and Ramdas Pophale) SiO2 
 PCOD8023405
Probable space group: P -1
;
_chemical_formula_sum "Si O2"
_cell_formula_units_Z 16
_cell_length_a 9.531921
_cell_length_b 11.712128
_cell_length_c 8.916800
_cell_angle_alpha 85.971454
_cell_angle_beta 129.734028
_cell_angle_gamma 93.156936
_cell_volume 763.572752
_symmetry_space_group_name_H-M "P -1"
_symmetry_group_IT_number 2
_symmetry_cell_setting 'triclinic'
loop_
_space_group_symop_operation_xyz
x,y,z
-x,-y,-z
loop_
_atom_site_type_symbol
_atom_site_label
_atom_site_fract_x
_atom_site_fract_y
_atom_site_fract_z
Si Si1 0.588156 0.890276 0.494824
Si Si2 0.990098 0.126413 0.915388
Si Si3 0.348559 0.272049 0.191898
Si Si4 0.669890 0.219582 0.222162
Si Si5 0.600417 0.481445 0.859886
Si Si6 0.668553 0.229202 0.871875
Si Si7 0.126683 0.963390 0.455939
Si Si8 0.206095 0.540031 0.688834
O O1 0.558064 0.782768 0.593970
O O2 0.500612 0.851669 0.282086
O O3 0.500000 0.000000 0.500000
O O4 0.796037 0.925023 0.590739
O O5 0.829465 0.193835 0.876476
O O6 0.972626 0.118381 0.724394
O O7 0.162722 0.204486 0.055219
O O8 0.000000 0.000000 0.000000
O O9 0.463558 0.256157 0.117987
O O10 0.329692 0.407913 0.197014
O O11 0.708218 0.105124 0.350437
O O12 0.802188 0.323483 0.355957
O O13 0.700393 0.198765 0.069433
O O14 0.635939 0.363596 0.808682
O O15 0.378566 0.485527 0.723874
O O16 0.732855 0.483765 0.096066
O O17 0.000000 0.000000 0.500000
O O18 0.000000 0.500000 0.500000
#
# Coordination Sequence:
#
# PCOD8023405 Si02
#       8
#     2   2   2   2   2   2   2   2
#     4  12  23  45  65  92 134 177 214 282 346 399
#     4  12  24  43  66  95 136 177 219 285 340 400
#     4  11  23  43  68  94 137 176 220 276 343 403
#     4  10  23  41  66  98 129 172 223 274 335 407
#     4   9  22  42  64 104 135 177 230 280 340 407
#     4  11  24  44  67  95 139 170 223 284 338 403
#     4  12  26  41  64  98 127 167 236 269 337 414
#     4   9  19  40  68  97 140 178 224 281 335 401
#
# _framework density 20.954125999999999
#
# number of rings (size 3 to 8) (size 9 to 14) (size 15 to 20)
#    0.000    1.250    3.750    1.500    3.500    2.500 
#    2.250    0.000    0.000    0.000    0.000    0.000 
#    0.000    0.000    0.000    0.000    0.000    0.000 
#
# Total GULP energy -198239.928553 kJ/mol
# GULP energy per Si atom -12389.995535 kJ/mol
# Density = 2.090643 g / cm^3
# Si number density = 20.954126 Si / 1000 Ang^3
#
#
#
# Elastic Constant Matrix: (Units=GPa)
#
#
# Indices 1 2 3 4 5 6 
#
# 1 102.4366 44.4445 31.3842 5.2797 -5.1384 -6.5355
# 2 44.4445 155.0986 41.1995 -3.3475 -3.4869 0.5666
# 3 31.3842 41.1995 91.6890 8.5126 7.0152 -7.5957
# 4 5.2797 -3.3475 8.5126 35.5894 4.8975 -3.7203
# 5 -5.1384 -3.4869 7.0152 4.8975 37.6923 7.5370
# 6 -6.5355 0.5666 -7.5957 -3.7203 7.5370 39.6231
#
#
#
# Elastic Compliance Matrix: (Units=1/GPa)
#
#
# Indices 1 2 3 4 5 6 
#
# 1 0.012034 -0.002688 -0.002837 -0.001523 0.001924 0.000971
# 2 -0.002688 0.008085 -0.003035 0.001629 0.000969 -0.001172
# 3 -0.002837 -0.003035 0.013957 -0.002443 -0.003485 0.002685
# 4 -0.001523 0.001629 -0.002443 0.029917 -0.004057 0.002838
# 5 0.001924 0.000969 -0.003485 -0.004057 0.029323 -0.006323
# 6 0.000971 -0.001172 0.002685 0.002838 -0.006323 0.027399
#
#
# Mechanical properties :
#
#
# Convention : Reuss Voigt Hill
#
# Bulk Modulus (GPa) = 58.97536 64.80895 61.89216
# Shear Modulus (GPa) = 34.84614 38.06069 36.45342
#
# Velocity S-wave (km/s) = 4.08238 4.26653 4.17547
# Velocity P-wave (km/s) = 7.10121 7.43419 7.26960
#
# Compressibility (1/GPa) = 0.01695623
#
# Stress axis : x y z
#
# Youngs Moduli (GPa) = 83.09444 123.67973 71.64759
#
# Poissons Ratio (x) = 0.33247 0.20325
# Poissons Ratio (y) = 0.22337 0.21749
# Poissons Ratio (z) = 0.23572 0.37543
#
# Static dielectric constant tensor:
#      x y z
#    x 4.393100 0.530370 -0.297330 
#    y 0.530370 4.465050 -0.259290 
#    z -0.297330 -0.259290 3.983700 
# 
# 
# High freq. dielectric constant tensor:
#      x y z
#    x 1.816250 0.004090 -0.001860 
#    y 0.004090 1.833730 -0.001120 
#    z -0.001860 -0.001120 1.819810 
# 
# From -- ./inp_files/188025.got.cif
#   From: 2010.06.25/outbox.cif.g09.slc.cpg/sg2_95_cif.got.tgz:188025.got - 2010.06.27 13:26:56.
