data_PCOD8023692
_publ_section_title
;
Structure prediction by ZEFSAII (Michael W. Deem and Ramdas Pophale) SiO2 
 PCOD8023692
Probable space group: P -1
;
_chemical_formula_sum "Si O2"
_cell_formula_units_Z 14
_cell_length_a 14.055258
_cell_length_b 13.577941
_cell_length_c 13.309329
_cell_angle_alpha 48.162338
_cell_angle_beta 21.394610
_cell_angle_gamma 43.288423
_cell_volume 634.726963
_symmetry_space_group_name_H-M "P -1"
_symmetry_group_IT_number 2
_symmetry_cell_setting 'triclinic'
loop_
_space_group_symop_operation_xyz
x,y,z
-x,-y,-z
loop_
_atom_site_type_symbol
_atom_site_label
_atom_site_fract_x
_atom_site_fract_y
_atom_site_fract_z
Si Si1 0.685224 0.823147 0.551577
Si Si2 0.507476 0.615240 0.174925
Si Si3 0.604329 0.841211 0.043215
Si Si4 0.676000 0.340431 0.896389
Si Si5 0.156848 0.682419 0.886629
Si Si6 0.219149 0.712704 0.586645
Si Si7 0.544653 0.847998 0.441439
O O1 0.667704 0.825696 0.447576
O O2 0.000229 0.718494 0.345952
O O3 0.601245 0.985798 0.561612
O O4 0.463224 0.765942 0.855766
O O5 0.324164 0.655389 0.227153
O O6 0.756789 0.456478 0.031363
O O7 0.308215 0.611746 0.468458
O O8 0.639805 0.733716 0.986524
O O9 0.891754 0.812810 0.836529
O O10 0.386462 0.819540 0.352197
O O11 0.500000 0.000000 0.000000
O O12 0.500000 0.500000 0.000000
O O13 0.267078 0.626270 0.703134
O O14 0.302703 0.785952 0.713096
O O15 0.817606 0.764811 0.160594
#
# Coordination Sequence:
#
# PCOD8023692 Si02
#       7
#     2   2   2   2   2   2   2
#     4  11  25  46  66  98 136 170 224 273 333 388
#     4  10  27  40  69  95 139 171 219 279 324 393
#     4  10  23  42  63  92 134 174 214 266 329 388
#     4  12  25  43  71 101 133 175 219 270 334 393
#     4  12  24  43  68  99 128 175 230 262 336 388
#     4  10  24  42  65  94 130 175 213 276 321 387
#     4  11  25  44  70  96 132 175 219 282 321 392
#
# _framework density 22.056729000000001
#
# number of rings (size 3 to 8) (size 9 to 14) (size 15 to 20)
#    0.857    0.286    0.000    5.571    4.000    6.286 
#    0.000    0.000    0.000    0.000    0.000    0.000 
#    0.000    0.000    0.000    0.000    0.000    0.000 
#
# Total GULP energy -173565.441832 kJ/mol
# GULP energy per Si atom -12397.531559 kJ/mol
# Density = 2.200653 g / cm^3
# Si number density = 22.056729 Si / 1000 Ang^3
#
#
#
# Elastic Constant Matrix: (Units=GPa)
#
#
# Indices 1 2 3 4 5 6 
#
# 1 -121.2804 1.5716 44.5532 77.2261 88.2939 -29.8031
# 2 1.5716 119.0061 15.1611 8.9253 3.9186 -0.3507
# 3 44.5532 15.1611 98.1695 -11.0934 -28.3660 -1.1404
# 4 77.2261 8.9253 -11.0934 6.5472 -31.3636 -0.2009
# 5 88.2939 3.9186 -28.3660 -31.3636 5.6186 8.0255
# 6 -29.8031 -0.3507 -1.1404 -0.2009 8.0255 31.9493
#
#
#
# Elastic Compliance Matrix: (Units=1/GPa)
#
#
# Indices 1 2 3 4 5 6 
#
# 1 0.002906 -0.001134 0.001995 0.007848 0.007760 0.000870
# 2 -0.001134 0.008666 -0.001066 -0.001432 -0.000242 -0.000949
# 3 0.001995 -0.001066 0.009420 -0.002391 0.000766 0.001978
# 4 0.007848 -0.001432 -0.002391 0.025171 -0.006925 0.009118
# 5 0.007760 -0.000242 0.000766 -0.006925 0.017304 0.002873
# 6 0.000870 -0.000949 0.001978 0.009118 0.002873 0.031507
#
#
# Mechanical properties :
#
#
# Convention : Reuss Voigt Hill
#
# Bulk Modulus (GPa) = 48.58588 24.27410 36.42999
# Shear Modulus (GPa) = 48.90216 11.13031 30.01624
#
# Velocity S-wave (km/s) = 4.71373 2.24882 3.69299
# Velocity P-wave (km/s) = 7.19035 4.21570 5.89378
#
# Compressibility (1/GPa) = 0.02058211
#
# Stress axis : x y z
#
# Youngs Moduli (GPa) = 344.07529 115.38914 106.16057
#
# Poissons Ratio (x) = 0.13087 -0.21184
# Poissons Ratio (y) = 0.39024 0.11321
# Poissons Ratio (z) = -0.68660 0.12306
#
# Static dielectric constant tensor:
#      x y z
#    x 3.997210 -0.049070 0.066400 
#    y -0.049070 3.924540 -0.050310 
#    z 0.066400 -0.050310 3.860450 
# 
# 
# High freq. dielectric constant tensor:
#      x y z
#    x 1.874110 -0.007870 -0.006150 
#    y -0.007870 1.870900 0.001070 
#    z -0.006150 0.001070 1.870710 
# 
# From -- ./inp_files/533732.got.cif
#   From: 2010.06.25/outbox.cif.g09.slc.cpg/sg2_267_cif.got.tgz:533732.got - 2010.06.27 13:26:56.
