data_PCOD8023458
_publ_section_title
;
Structure prediction by ZEFSAII (Michael W. Deem and Ramdas Pophale) SiO2 
 PCOD8023458
Probable space group: P -1
;
_chemical_formula_sum "Si O2"
_cell_formula_units_Z 12
_cell_length_a 7.073247
_cell_length_b 8.737059
_cell_length_c 15.492035
_cell_angle_alpha 47.432238
_cell_angle_beta 74.801021
_cell_angle_gamma 51.724663
_cell_volume 532.775477
_symmetry_space_group_name_H-M "P -1"
_symmetry_group_IT_number 2
_symmetry_cell_setting 'triclinic'
loop_
_space_group_symop_operation_xyz
x,y,z
-x,-y,-z
loop_
_atom_site_type_symbol
_atom_site_label
_atom_site_fract_x
_atom_site_fract_y
_atom_site_fract_z
Si Si1 0.516614 0.961833 0.654196
Si Si2 0.626629 0.349062 0.131609
Si Si3 0.136604 0.774429 0.256914
Si Si4 0.111697 0.309294 0.435459
Si Si5 0.522412 0.752309 0.121055
Si Si6 0.578534 0.650816 0.339824
O O1 0.550441 0.700181 0.778902
O O2 0.729109 0.887073 0.588543
O O3 0.245161 0.170616 0.562499
O O4 0.533944 0.092111 0.686553
O O5 0.672511 0.521225 0.119761
O O6 0.500000 0.500000 0.000000
O O7 0.892327 0.065524 0.196570
O O8 0.066459 0.583942 0.320965
O O9 0.254861 0.812602 0.144420
O O10 0.351822 0.634517 0.361008
O O11 0.837187 0.382865 0.447813
O O12 0.663907 0.675041 0.225413
O O13 0.500000 0.000000 0.000000
#
# Coordination Sequence:
#
# PCOD8023458 Si02
#       6
#     2   2   2   2   2   2
#     4  11  23  43  70 101 130 179 223 268 334 396
#     4  12  25  44  70  98 134 178 223 273 335 395
#     4  10  25  43  66 101 130 176 221 268 337 390
#     4  11  23  45  69  97 140 172 220 276 330 393
#     4  10  24  44  61  98 134 171 226 269 324 394
#     4  10  23  41  67  98 131 175 217 276 324 387
#
# _framework density 22.523561999999998
#
# number of rings (size 3 to 8) (size 9 to 14) (size 15 to 20)
#    1.000    0.333    3.333    1.500    2.333    3.333 
#    0.000    2.500    0.000    0.000    0.000    0.000 
#    0.000    0.000    0.000    0.000    0.000    0.000 
#
# Total GULP energy -148714.802261 kJ/mol
# GULP energy per Si atom -12392.900188 kJ/mol
# Density = 2.247230 g / cm^3
# Si number density = 22.523562 Si / 1000 Ang^3
#
#
#
# Elastic Constant Matrix: (Units=GPa)
#
#
# Indices 1 2 3 4 5 6 
#
# 1 66.6061 25.1368 20.3961 -0.7606 25.8332 -5.8355
# 2 25.1368 137.5932 36.7928 -1.3099 20.2400 21.7731
# 3 20.3961 36.7928 88.0772 8.6159 -2.4443 5.5772
# 4 -0.7606 -1.3099 8.6159 32.0789 -1.8394 9.3062
# 5 25.8332 20.2400 -2.4443 -1.8394 34.2337 0.2404
# 6 -5.8355 21.7731 5.5772 9.3062 0.2404 35.3409
#
#
#
# Elastic Compliance Matrix: (Units=1/GPa)
#
#
# Indices 1 2 3 4 5 6 
#
# 1 0.025187 -0.001149 -0.006201 -0.000647 -0.018848 0.006144
# 2 -0.001149 0.010488 -0.004146 0.003176 -0.005411 -0.006797
# 3 -0.006201 -0.004146 0.015122 -0.003957 0.007997 0.000131
# 4 -0.000647 0.003176 -0.003957 0.035498 0.000311 -0.010789
# 5 -0.018848 -0.005411 0.007997 0.000311 0.047231 -0.001444
# 6 0.006144 -0.006797 0.000131 -0.010789 -0.001444 0.036328
#
#
# Mechanical properties :
#
#
# Convention : Reuss Voigt Hill
#
# Bulk Modulus (GPa) = 35.96416 50.76977 43.36697
# Shear Modulus (GPa) = 24.73835 34.32742 29.53289
#
# Velocity S-wave (km/s) = 3.31770 3.90817 3.62498
# Velocity P-wave (km/s) = 5.53879 6.55398 6.06766
#
# Compressibility (1/GPa) = 0.02780546
#
# Stress axis : x y z
#
# Youngs Moduli (GPa) = 39.70229 95.34713 66.12777
#
# Poissons Ratio (x) = 0.10956 0.41009
# Poissons Ratio (y) = 0.04562 0.27414
# Poissons Ratio (z) = 0.24621 0.39527
#
# Static dielectric constant tensor:
#      x y z
#    x 4.036560 -0.037850 0.074050 
#    y -0.037850 4.136340 0.147810 
#    z 0.074050 0.147810 4.017420 
# 
# 
# High freq. dielectric constant tensor:
#      x y z
#    x 1.876980 -0.000490 -0.000340 
#    y -0.000490 1.904860 0.009710 
#    z -0.000340 0.009710 1.881100 
# 
# From -- ./inp_files/448139.got.cif
#   From: 2010.06.25/outbox.cif.g09.slc.cpg/sg2_225_cif.got.tgz:448139.got - 2010.06.27 13:26:56.
