data_PCOD8023644
_publ_section_title
;
Structure prediction by ZEFSAII (Michael W. Deem and Ramdas Pophale) SiO2 
 PCOD8023644
Probable space group: P -1
;
_chemical_formula_sum "Si O2"
_cell_formula_units_Z 12
_cell_length_a 16.085952
_cell_length_b 14.460887
_cell_length_c 19.420287
_cell_angle_alpha 21.255286
_cell_angle_beta 158.461651
_cell_angle_gamma 147.601076
_cell_volume 592.538984
_symmetry_space_group_name_H-M "P -1"
_symmetry_group_IT_number 2
_symmetry_cell_setting 'triclinic'
loop_
_space_group_symop_operation_xyz
x,y,z
-x,-y,-z
loop_
_atom_site_type_symbol
_atom_site_label
_atom_site_fract_x
_atom_site_fract_y
_atom_site_fract_z
Si Si1 0.790858 0.208762 0.957673
Si Si2 0.332119 0.877020 0.372897
Si Si3 0.725106 0.787355 0.462600
Si Si4 0.042198 0.081728 0.584842
Si Si5 0.016554 0.376639 0.793806
Si Si6 0.175916 0.085196 0.244550
O O1 0.823169 0.502625 0.764475
O O2 0.548931 0.154153 0.781356
O O3 0.995557 0.015882 0.209700
O O4 0.817846 0.148661 0.101477
O O5 0.231748 0.662657 0.400110
O O6 0.605933 0.831458 0.605666
O O7 0.269563 0.853634 0.422949
O O8 0.216122 0.167924 0.055231
O O9 0.788585 0.829399 0.403144
O O10 0.822333 0.994407 0.441248
O O11 0.956021 0.325392 0.400561
O O12 0.034522 0.324748 0.925954
#
# Coordination Sequence:
#
# PCOD8023644 Si02
#       6
#     2   2   2   2   2   2
#     4  11  22  39  60  88 112 152 195 235 287 342
#     4   8  17  34  62  80 114 158 179 230 292 336
#     4  10  23  42  58  80 124 150 187 244 286 336
#     4  11  22  39  60  88 112 152 195 235 287 342
#     4   9  17  35  58  83 111 150 189 225 285 336
#     4   9  17  35  58  83 111 150 189 225 285 336
#
# _framework density 20.251832
#
# number of rings (size 3 to 8) (size 9 to 14) (size 15 to 20)
#    1.000    1.333    1.667    1.000    0.000    2.667 
#    3.000    1.667    0.000    0.000    0.000    0.000 
#    0.000    0.000    0.000    0.000    0.000    0.000 
#
# Total GULP energy -148685.885022 kJ/mol
# GULP energy per Si atom -12390.490419 kJ/mol
# Density = 2.020574 g / cm^3
# Si number density = 20.251832 Si / 1000 Ang^3
#
#
#
# Elastic Constant Matrix: (Units=GPa)
#
#
# Indices 1 2 3 4 5 6 
#
# 1 76.1588 45.3157 57.0563 0.3591 -6.6077 15.3499
# 2 45.3157 142.0537 59.9263 16.4214 5.9645 -0.7270
# 3 57.0563 59.9263 71.0656 15.0611 -9.2609 0.5820
# 4 0.3591 16.4214 15.0611 37.0391 2.4319 -1.8823
# 5 -6.6077 5.9645 -9.2609 2.4319 34.7971 2.8417
# 6 15.3499 -0.7270 0.5820 -1.8823 2.8417 22.4070
#
#
#
# Elastic Compliance Matrix: (Units=1/GPa)
#
#
# Indices 1 2 3 4 5 6 
#
# 1 0.058021 0.000683 -0.050780 0.017970 -0.000866 -0.036787
# 2 0.000683 0.011700 -0.010972 -0.000376 -0.004833 0.000778
# 3 -0.050780 -0.010972 0.069857 -0.022205 0.009974 0.029486
# 4 0.017970 -0.000376 -0.022205 0.035884 -0.004272 -0.008189
# 5 -0.000866 -0.004833 0.009974 -0.004272 0.032709 -0.004330
# 6 -0.036787 0.000778 0.029486 -0.008189 -0.004330 0.068950
#
#
# Mechanical properties :
#
#
# Convention : Reuss Voigt Hill
#
# Bulk Modulus (GPa) = 57.32983 68.20829 62.76906
# Shear Modulus (GPa) = 12.34346 27.31396 19.82871
#
# Velocity S-wave (km/s) = 2.47148 3.67647 3.13246
# Velocity P-wave (km/s) = 6.04270 7.19549 6.64414
#
# Compressibility (1/GPa) = 0.01744293
#
# Stress axis : x y z
#
# Youngs Moduli (GPa) = 17.23502 85.46737 14.31491
#
# Poissons Ratio (x) = -0.05842 0.72691
# Poissons Ratio (y) = -0.01178 0.15706
# Poissons Ratio (z) = 0.87519 0.93772
#
# Static dielectric constant tensor:
#      x y z
#    x 3.453610 -0.033470 -0.143140 
#    y -0.033470 3.494330 0.123720 
#    z -0.143140 0.123720 3.539060 
# 
# 
# High freq. dielectric constant tensor:
#      x y z
#    x 1.767510 -0.010090 -0.004990 
#    y -0.010090 1.784740 0.019150 
#    z -0.004990 0.019150 1.783310 
# 
# From -- ./inp_files/590334.got.cif
#   From: 2010.06.25/outbox.cif.g09.slc.cpg/sg2_296_cif.got.tgz:590334.got - 2010.06.27 13:26:56.
