data_PCOD8023855
_publ_section_title
;
Structure prediction by ZEFSAII (Michael W. Deem and Ramdas Pophale) SiO2 
 PCOD8023855
Probable space group: P -1
;
_chemical_formula_sum "Si O2"
_cell_formula_units_Z 16
_cell_length_a 22.782483
_cell_length_b 9.856977
_cell_length_c 9.483096
_cell_angle_alpha 57.888964
_cell_angle_beta 123.380333
_cell_angle_gamma 156.000218
_cell_volume 720.656808
_symmetry_space_group_name_H-M "P -1"
_symmetry_group_IT_number 2
_symmetry_cell_setting 'triclinic'
loop_
_space_group_symop_operation_xyz
x,y,z
-x,-y,-z
loop_
_atom_site_type_symbol
_atom_site_label
_atom_site_fract_x
_atom_site_fract_y
_atom_site_fract_z
Si Si1 0.733097 0.836687 0.168614
Si Si2 0.740409 0.648663 0.017743
Si Si3 0.475290 0.655621 0.303320
Si Si4 0.958674 0.742424 0.038683
Si Si5 0.802779 0.406435 0.286500
Si Si6 0.488536 0.357227 0.339750
Si Si7 0.207206 0.721896 0.154949
Si Si8 0.005615 0.202986 0.410889
O O1 0.603460 0.626765 0.219628
O O2 0.674396 0.611051 0.085482
O O3 0.842907 0.950489 0.345974
O O4 0.802063 0.131994 0.025687
O O5 0.619312 0.397631 0.871224
O O6 0.777490 0.545135 0.172279
O O7 0.891281 0.036278 0.947265
O O8 0.421620 0.382329 0.311104
O O9 0.444761 0.608914 0.457806
O O10 0.647945 0.008972 0.308283
O O11 0.893880 0.519625 0.211431
O O12 0.825925 0.482600 0.892170
O O13 0.000000 0.000000 0.000000
O O14 0.899537 0.554540 0.465508
O O15 0.358028 0.998649 0.287403
O O16 0.071506 0.429990 0.241126
O O17 0.000000 0.000000 0.500000
#
# Coordination Sequence:
#
# PCOD8023855 Si02
#       8
#     2   2   2   2   2   2   2   2
#     4  12  25  43  71 106 133 181 229 280 340 402
#     4  11  23  42  68  98 140 173 228 281 337 404
#     4  11  24  46  64  98 138 175 229 280 337 400
#     4  10  23  42  66  99 132 176 223 274 337 400
#     4  11  23  44  66  96 134 189 217 278 345 397
#     4  11  26  44  69  98 137 179 226 286 332 404
#     4  12  23  47  71  98 136 184 226 280 341 402
#     4  12  24  45  68  99 141 173 227 283 336 402
#
# _framework density 22.201971
#
# number of rings (size 3 to 8) (size 9 to 14) (size 15 to 20)
#    0.000    0.750    5.000    2.625    3.500    0.000 
#    0.000    2.500    0.000    0.000    0.000    0.000 
#    0.000    0.000    0.000    0.000    0.000    0.000 
#
# Total GULP energy -198303.421824 kJ/mol
# GULP energy per Si atom -12393.963864 kJ/mol
# Density = 2.215144 g / cm^3
# Si number density = 22.201971 Si / 1000 Ang^3
#
#
#
# Elastic Constant Matrix: (Units=GPa)
#
#
# Indices 1 2 3 4 5 6 
#
# 1 70.8542 23.8509 40.5564 8.1177 -24.8998 -0.6049
# 2 23.8509 110.8907 48.0341 24.9028 -18.9623 -6.9009
# 3 40.5564 48.0341 131.4666 22.8022 -18.3130 -2.3726
# 4 8.1177 24.9028 22.8022 51.3684 3.7568 -12.8264
# 5 -24.8998 -18.9623 -18.3130 3.7568 40.3922 0.6994
# 6 -0.6049 -6.9009 -2.3726 -12.8264 0.6994 29.5850
#
#
#
# Elastic Compliance Matrix: (Units=1/GPa)
#
#
# Indices 1 2 3 4 5 6 
#
# 1 0.020840 -0.000245 -0.004433 -0.002321 0.010960 -0.001252
# 2 -0.000245 0.012249 -0.002890 -0.004863 0.004735 0.000400
# 3 -0.004433 -0.002890 0.010679 -0.003027 0.001056 -0.001246
# 4 -0.002321 -0.004863 -0.003027 0.026680 -0.007747 0.010326
# 5 0.010960 0.004735 0.001056 -0.007747 0.034983 -0.002772
# 6 -0.001252 0.000400 -0.001246 0.010326 -0.002772 0.038311
#
#
# Mechanical properties :
#
#
# Convention : Reuss Voigt Hill
#
# Bulk Modulus (GPa) = 34.92382 59.78825 47.35603
# Shear Modulus (GPa) = 29.68735 37.65379 33.67057
#
# Velocity S-wave (km/s) = 3.66067 4.12268 3.89853
# Velocity P-wave (km/s) = 5.79927 7.04625 6.45295
#
# Compressibility (1/GPa) = 0.02863376
#
# Stress axis : x y z
#
# Youngs Moduli (GPa) = 47.98475 81.64023 93.63747
#
# Poissons Ratio (x) = 0.01998 0.41508
# Poissons Ratio (y) = 0.01174 0.27058
# Poissons Ratio (z) = 0.21271 0.23591
#
# Static dielectric constant tensor:
#      x y z
#    x 3.952820 0.092040 -0.419360 
#    y 0.092040 4.594150 0.102300 
#    z -0.419360 0.102300 4.355260 
# 
# 
# High freq. dielectric constant tensor:
#      x y z
#    x 1.852220 -0.002760 -0.025420 
#    y -0.002760 1.885300 0.008800 
#    z -0.025420 0.008800 1.886660 
# 
# From -- ./inp_files/343440.got.cif
#   From: 2010.06.25/outbox.cif.g09.slc.cpg/sg2_172_cif.got.tgz:343440.got - 2010.06.27 13:26:56.
