data_PCOD8023543
_publ_section_title
;
Structure prediction by ZEFSAII (Michael W. Deem and Ramdas Pophale) SiO2 
 PCOD8023543
Probable space group: P -1
;
_chemical_formula_sum "Si O2"
_cell_formula_units_Z 16
_cell_length_a 14.767625
_cell_length_b 10.253916
_cell_length_c 16.212366
_cell_angle_alpha 145.412391
_cell_angle_beta 146.803306
_cell_angle_gamma 38.258567
_cell_volume 725.450416
_symmetry_space_group_name_H-M "P -1"
_symmetry_group_IT_number 2
_symmetry_cell_setting 'triclinic'
loop_
_space_group_symop_operation_xyz
x,y,z
-x,-y,-z
loop_
_atom_site_type_symbol
_atom_site_label
_atom_site_fract_x
_atom_site_fract_y
_atom_site_fract_z
Si Si1 0.315591 0.958565 0.348498
Si Si2 0.463467 0.636739 0.157477
Si Si3 0.850905 0.532199 0.470651
Si Si4 0.652349 0.277737 0.463712
Si Si5 0.818469 0.316927 0.767902
Si Si6 0.855905 0.134197 0.392965
Si Si7 0.495298 0.858543 0.133151
Si Si8 0.204531 0.161209 0.953588
O O1 0.313263 0.765868 0.175917
O O2 0.292023 0.836496 0.353360
O O3 0.500000 0.000000 0.500000
O O4 0.167621 0.218241 0.364209
O O5 0.663704 0.550552 0.297438
O O6 0.439124 0.838445 0.173505
O O7 0.406378 0.410952 0.964686
O O8 0.915821 0.307233 0.465784
O O9 0.000000 0.500000 0.500000
O O10 0.500000 0.500000 0.500000
O O11 0.814639 0.272132 0.643069
O O12 0.695972 0.306485 0.415747
O O13 0.621068 0.020584 0.312525
O O14 0.021682 0.222195 0.894626
O O15 0.736087 0.597772 0.877896
O O16 0.794271 0.941209 0.191640
O O17 0.000000 0.000000 0.500000
O O18 0.331195 0.963123 0.004042
#
# Coordination Sequence:
#
# PCOD8023543 Si02
#       8
#     2   2   2   2   2   2   2   2
#     4  10  23  41  69  98 138 181 243 283 347 422
#     4  10  24  43  68  99 139 186 241 288 351 427
#     4  11  24  44  75  99 142 188 233 292 360 420
#     4  12  26  41  71 104 143 182 235 296 358 415
#     4  11  24  45  71 104 144 189 231 298 362 424
#     4  12  27  45  72 109 142 185 242 287 354 433
#     4  11  24  43  71  98 143 184 240 293 360 418
#     4  11  24  46  71 100 146 185 231 300 363 423
#
# _framework density 22.055263
#
# number of rings (size 3 to 8) (size 9 to 14) (size 15 to 20)
#    0.000    1.000    3.750    2.250    8.750    0.500 
#    0.000    0.625    0.000    0.000    0.000    0.000 
#    0.000    0.000    0.000    0.000    0.000    0.000 
#
# Total GULP energy -198324.079291 kJ/mol
# GULP energy per Si atom -12395.254956 kJ/mol
# Density = 2.200506 g / cm^3
# Si number density = 22.055263 Si / 1000 Ang^3
#
#
#
# Elastic Constant Matrix: (Units=GPa)
#
#
# Indices 1 2 3 4 5 6 
#
# 1 131.5897 45.0023 48.3565 21.5185 -19.2323 5.8346
# 2 45.0023 106.0159 42.8263 5.5665 -7.1035 16.7591
# 3 48.3565 42.8263 105.7602 12.8807 -13.7616 10.5990
# 4 21.5185 5.5665 12.8807 43.3978 4.2069 -3.7782
# 5 -19.2323 -7.1035 -13.7616 4.2069 38.0844 4.5028
# 6 5.8346 16.7591 10.5990 -3.7782 4.5028 40.2067
#
#
#
# Elastic Compliance Matrix: (Units=1/GPa)
#
#
# Indices 1 2 3 4 5 6 
#
# 1 0.011085 -0.002983 -0.002587 -0.004862 0.004723 -0.000669
# 2 -0.002983 0.012678 -0.003443 0.000534 0.000016 -0.003896
# 3 -0.002587 -0.003443 0.013010 -0.002653 0.003311 -0.002240
# 4 -0.004862 0.000534 -0.002653 0.027230 -0.006856 0.004509
# 5 0.004723 0.000016 0.003311 -0.006856 0.031274 -0.005711
# 6 -0.000669 -0.003896 -0.002240 0.004509 -0.005711 0.028246
#
#
# Mechanical properties :
#
#
# Convention : Reuss Voigt Hill
#
# Bulk Modulus (GPa) = 53.33478 68.41511 60.87494
# Shear Modulus (GPa) = 33.82980 38.14983 35.98981
#
# Velocity S-wave (km/s) = 3.92071 4.16352 4.04394
# Velocity P-wave (km/s) = 6.68811 7.36209 7.03318
#
# Compressibility (1/GPa) = 0.01874949
#
# Stress axis : x y z
#
# Youngs Moduli (GPa) = 90.21047 78.87457 76.86127
#
# Poissons Ratio (x) = 0.23529 0.19882
# Poissons Ratio (y) = 0.26910 0.26460
# Poissons Ratio (z) = 0.23335 0.27153
#
# Static dielectric constant tensor:
#      x y z
#    x 4.198600 -0.098890 -0.451510 
#    y -0.098890 4.145360 0.287270 
#    z -0.451510 0.287270 4.365110 
# 
# 
# High freq. dielectric constant tensor:
#      x y z
#    x 1.867170 -0.001360 -0.016060 
#    y -0.001360 1.872400 0.020510 
#    z -0.016060 0.020510 1.872780 
# 
# From -- ./inp_files/279127.got.cif
#   From: 2010.06.25/outbox.cif.g09.slc.cpg/sg2_140_cif.got.tgz:279127.got - 2010.06.27 13:26:56.
