data_PCOD8023229
_publ_section_title
;
Structure prediction by ZEFSAII (Michael W. Deem and Ramdas Pophale) SiO2 
 PCOD8023229
Probable space group: P -1
;
_chemical_formula_sum "Si O2"
_cell_formula_units_Z 14
_cell_length_a 5.482930
_cell_length_b 14.458711
_cell_length_c 11.678131
_cell_angle_alpha 134.670945
_cell_angle_beta 123.264080
_cell_angle_gamma 63.360988
_cell_volume 547.436068
_symmetry_space_group_name_H-M "P -1"
_symmetry_group_IT_number 2
_symmetry_cell_setting 'triclinic'
loop_
_space_group_symop_operation_xyz
x,y,z
-x,-y,-z
loop_
_atom_site_type_symbol
_atom_site_label
_atom_site_fract_x
_atom_site_fract_y
_atom_site_fract_z
Si Si1 0.522308 0.698198 0.723128
Si Si2 0.664577 0.174866 0.785969
Si Si3 0.515890 0.857580 0.655958
Si Si4 0.508112 0.658861 0.303815
Si Si5 0.896034 0.918303 0.505370
Si Si6 0.154391 0.552171 0.329526
Si Si7 0.746249 0.107782 0.986810
O O1 0.683574 0.781988 0.741166
O O2 0.279169 0.618783 0.531937
O O3 0.767346 0.604034 0.769703
O O4 0.362620 0.803530 0.859543
O O5 0.730101 0.289325 0.812322
O O6 0.310984 0.185269 0.688042
O O7 0.793099 0.199748 0.967800
O O8 0.765481 0.022942 0.655606
O O9 0.630679 0.789652 0.506927
O O10 0.173531 0.828717 0.553406
O O11 0.507908 0.014457 0.796214
O O12 0.326668 0.584596 0.285602
O O13 0.797982 0.573691 0.254364
O O14 0.000000 0.000000 0.500000
O O15 0.000000 0.000000 0.000000
#
# Coordination Sequence:
#
# PCOD8023229 Si02
#       7
#     2   2   2   2   2   2   2
#     4  10  23  41  63  92 131 176 216 272 324 393
#     4  11  22  36  62  96 131 171 218 270 327 390
#     4  11  21  39  67  98 131 169 217 268 337 395
#     4  11  22  41  69  96 122 168 228 284 315 373
#     4  11  19  37  61  95 130 170 214 265 322 391
#     4  10  24  44  69  93 123 173 239 273 315 375
#     4  12  24  39  59  98 143 172 207 262 346 413
#
# _framework density 25.573761000000001
#
# number of rings (size 3 to 8) (size 9 to 14) (size 15 to 20)
#    0.000    1.143    2.857    4.714    0.000    6.286 
#    0.000    1.429    0.000    0.000    0.000    0.000 
#    0.000    0.000    0.000    0.000    0.000    0.000 
#
# Total GULP energy -173449.931953 kJ/mol
# GULP energy per Si atom -12389.280854 kJ/mol
# Density = 2.551555 g / cm^3
# Si number density = 25.573761 Si / 1000 Ang^3
#
#
#
# Elastic Constant Matrix: (Units=GPa)
#
#
# Indices 1 2 3 4 5 6 
#
# 1 91.4359 40.7093 17.2085 -6.1873 -19.9551 -9.7344
# 2 40.7093 186.1852 39.7440 -18.3264 -26.1811 -3.0552
# 3 17.2085 39.7440 59.6201 -16.6921 -29.3814 2.5806
# 4 -6.1873 -18.3264 -16.6921 48.5718 2.7055 -7.6339
# 5 -19.9551 -26.1811 -29.3814 2.7055 30.6256 -3.7159
# 6 -9.7344 -3.0552 2.5806 -7.6339 -3.7159 44.9503
#
#
#
# Elastic Compliance Matrix: (Units=1/GPa)
#
#
# Indices 1 2 3 4 5 6 
#
# 1 0.014141 -0.001939 0.002832 0.002082 0.010574 0.003996
# 2 -0.001939 0.006778 -0.002632 0.001390 0.001955 0.000589
# 3 0.002832 -0.002632 0.038244 0.011004 0.035684 0.003058
# 4 0.002082 0.001390 0.011004 0.025331 0.011490 0.005165
# 5 0.010574 0.001955 0.035684 0.011490 0.075472 0.008565
# 6 0.003996 0.000589 0.003058 0.005165 0.008565 0.024562
#
#
# Mechanical properties :
#
#
# Convention : Reuss Voigt Hill
#
# Bulk Modulus (GPa) = 17.95804 59.17388 38.56596
# Shear Modulus (GPa) = 24.20518 40.80150 32.50334
#
# Velocity S-wave (km/s) = 3.07984 3.99863 3.56893
# Velocity P-wave (km/s) = 4.43672 6.67140 5.66533
#
# Compressibility (1/GPa) = 0.05568535
#
# Stress axis : x y z
#
# Youngs Moduli (GPa) = 70.71680 147.53357 26.14799
#
# Poissons Ratio (x) = 0.28607 -0.07405
# Poissons Ratio (y) = 0.13712 0.06882
# Poissons Ratio (z) = -0.20027 0.38828
#
# Static dielectric constant tensor:
#      x y z
#    x 5.501840 -0.911270 0.245390 
#    y -0.911270 6.162950 -0.160480 
#    z 0.245390 -0.160480 4.732850 
# 
# 
# High freq. dielectric constant tensor:
#      x y z
#    x 2.009390 0.008750 -0.011860 
#    y 0.008750 2.053280 -0.013320 
#    z -0.011860 -0.013320 1.993130 
# 
# From -- ./inp_files/67386.got.cif
#   From: 2010.06.25/outbox.cif.g09.slc.cpg/sg2_34_cif.got.tgz:67386.got - 2010.06.27 13:26:56.
