data_PCOD8023583
_publ_section_title
;
Structure prediction by ZEFSAII (Michael W. Deem and Ramdas Pophale) SiO2 
 PCOD8023583
Probable space group: P -1
;
_chemical_formula_sum "Si O2"
_cell_formula_units_Z 16
_cell_length_a 11.660899
_cell_length_b 19.623363
_cell_length_c 16.488168
_cell_angle_alpha 31.592473
_cell_angle_beta 141.600014
_cell_angle_gamma 159.904486
_cell_volume 676.338667
_symmetry_space_group_name_H-M "P -1"
_symmetry_group_IT_number 2
_symmetry_cell_setting 'triclinic'
loop_
_space_group_symop_operation_xyz
x,y,z
-x,-y,-z
loop_
_atom_site_type_symbol
_atom_site_label
_atom_site_fract_x
_atom_site_fract_y
_atom_site_fract_z
Si Si1 0.524796 0.459861 0.779980
Si Si2 0.763486 0.108428 0.470677
Si Si3 0.371678 0.199195 0.538540
Si Si4 0.702603 0.111675 0.248918
Si Si5 0.688799 0.669996 0.035997
Si Si6 0.606687 0.355310 0.242272
Si Si7 0.424291 0.160426 0.926696
Si Si8 0.740208 0.406010 0.690044
O O1 0.411214 0.543961 0.622034
O O2 0.337494 0.294394 0.923098
O O3 0.415333 0.306835 0.798956
O O4 0.923461 0.687791 0.779925
O O5 0.689161 0.127134 0.322241
O O6 0.130210 0.372981 0.435108
O O7 0.500000 0.000000 0.500000
O O8 0.713038 0.923105 0.627671
O O9 0.413608 0.217687 0.641448
O O10 0.507420 0.143300 0.632008
O O11 0.000000 0.000000 0.500000
O O12 0.560546 0.154861 0.082274
O O13 0.598458 0.463720 0.194788
O O14 0.431619 0.603920 0.908667
O O15 0.050922 0.898107 0.965555
O O16 0.960190 0.487972 0.300808
O O17 0.641151 0.268998 0.855386
#
# Coordination Sequence:
#
# PCOD8023583 Si02
#       8
#     2   2   2   2   2   2   2   2
#     4  11  24  43  66  98 143 183 226 286 349 415
#     4  10  23  41  71 101 136 179 231 291 336 407
#     4  10  25  44  70 104 140 180 229 293 346 416
#     4  11  23  45  71 101 139 186 238 281 345 415
#     4  11  25  41  65 100 148 180 230 288 352 409
#     4  10  24  45  68 101 139 189 232 288 342 416
#     4  12  26  41  73 105 139 186 233 292 345 418
#     4  11  24  46  74 102 136 186 240 280 350 416
#
# _framework density 23.656787999999999
#
# number of rings (size 3 to 8) (size 9 to 14) (size 15 to 20)
#    0.000    1.250    1.250    3.000    5.250   10.500 
#    0.000    4.375    0.000    0.000    0.000    0.000 
#    0.000    0.000    0.000    0.000    0.000    0.000 
#
# Total GULP energy -198306.707193 kJ/mol
# GULP energy per Si atom -12394.169200 kJ/mol
# Density = 2.360294 g / cm^3
# Si number density = 23.656788 Si / 1000 Ang^3
#
#
#
# Elastic Constant Matrix: (Units=GPa)
#
#
# Indices 1 2 3 4 5 6 
#
# 1 86.5251 39.7127 44.7359 8.0171 -24.0544 -21.6597
# 2 39.7127 94.4098 44.7251 -1.1691 1.2684 -23.7913
# 3 44.7359 44.7251 110.3398 2.6512 6.7572 -12.4938
# 4 8.0171 -1.1691 2.6512 25.0950 -9.2691 -5.3484
# 5 -24.0544 1.2684 6.7572 -9.2691 41.3757 -5.5466
# 6 -21.6597 -23.7913 -12.4938 -5.3484 -5.5466 39.8766
#
#
#
# Elastic Compliance Matrix: (Units=1/GPa)
#
#
# Indices 1 2 3 4 5 6 
#
# 1 0.025806 -0.004011 -0.008688 0.001828 0.018525 0.011724
# 2 -0.004011 0.015927 -0.004160 0.003670 -0.000454 0.006449
# 3 -0.008688 -0.004160 0.014380 -0.002996 -0.008517 -0.004282
# 4 0.001828 0.003670 -0.002996 0.046892 0.013337 0.010388
# 5 0.018525 -0.000454 -0.008517 0.013337 0.041296 0.014656
# 6 0.011724 0.006449 -0.004282 0.010388 0.014656 0.037383
#
#
# Mechanical properties :
#
#
# Convention : Reuss Voigt Hill
#
# Bulk Modulus (GPa) = 44.65161 61.06910 52.86035
# Shear Modulus (GPa) = 22.43502 32.07621 27.25561
#
# Velocity S-wave (km/s) = 3.08288 3.68625 3.39798
# Velocity P-wave (km/s) = 5.62031 6.63239 6.14721
#
# Compressibility (1/GPa) = 0.02239561
#
# Stress axis : x y z
#
# Youngs Moduli (GPa) = 38.75114 62.78781 69.54116
#
# Poissons Ratio (x) = 0.25185 0.60415
# Poissons Ratio (y) = 0.15544 0.28926
# Poissons Ratio (z) = 0.33666 0.26117
#
# Static dielectric constant tensor:
#      x y z
#    x 4.241090 -0.349960 0.398720 
#    y -0.349960 4.169580 -0.321760 
#    z 0.398720 -0.321760 4.841650 
# 
# 
# High freq. dielectric constant tensor:
#      x y z
#    x 1.937510 -0.020860 0.005060 
#    y -0.020860 1.920790 -0.008000 
#    z 0.005060 -0.008000 1.949200 
# 
# From -- ./inp_files/570737.got.cif
#   From: 2010.06.25/outbox.cif.g09.slc.cpg/sg2_286_cif.got.tgz:570737.got - 2010.06.27 13:26:56.
