data_PCOD8023245
_publ_section_title
;
Structure prediction by ZEFSAII (Michael W. Deem and Ramdas Pophale) SiO2 
 PCOD8023245
Probable space group: P -1
;
_chemical_formula_sum "Si O2"
_cell_formula_units_Z 16
_cell_length_a 11.413798
_cell_length_b 14.949375
_cell_length_c 9.524013
_cell_angle_alpha 48.953533
_cell_angle_beta 143.969129
_cell_angle_gamma 113.123669
_cell_volume 684.974782
_symmetry_space_group_name_H-M "P -1"
_symmetry_group_IT_number 2
_symmetry_cell_setting 'triclinic'
loop_
_space_group_symop_operation_xyz
x,y,z
-x,-y,-z
loop_
_atom_site_type_symbol
_atom_site_label
_atom_site_fract_x
_atom_site_fract_y
_atom_site_fract_z
Si Si1 0.619029 0.383924 0.033144
Si Si2 0.270344 0.626161 0.557321
Si Si3 0.440581 0.842813 0.193338
Si Si4 0.635199 0.716455 0.766356
Si Si5 0.986735 0.455770 0.803257
Si Si6 0.776667 0.880734 0.278934
Si Si7 0.175819 0.684887 0.984687
Si Si8 0.722171 0.721346 0.159572
O O1 0.413810 0.491898 0.777187
O O2 0.519261 0.269755 0.047624
O O3 0.789503 0.370040 0.338473
O O4 0.717727 0.395130 0.966615
O O5 0.395934 0.723253 0.557183
O O6 0.062122 0.647854 0.242521
O O7 0.596285 0.824212 0.499553
O O8 0.582078 0.847635 0.192826
O O9 0.342005 0.728583 0.194448
O O10 0.253652 0.972459 0.895484
O O11 0.748544 0.731310 0.006344
O O12 0.761928 0.585276 0.942930
O O13 0.882006 0.599061 0.516729
O O14 0.916164 0.416918 0.926035
O O15 0.778232 0.837442 0.163026
O O16 0.994738 0.809694 0.638178
#
# Coordination Sequence:
#
# PCOD8023245 Si02
#       8
#     2   2   2   2   2   2   2   2
#     4   9  20  37  61  90 126 167 198 248 310 373
#     4   9  20  38  57  87 133 165 195 245 308 375
#     4  11  24  46  63  87 127 169 217 256 310 363
#     4  11  22  41  66  90 128 167 206 256 312 376
#     4  11  23  37  63 100 128 161 202 250 325 380
#     4  11  25  43  65  89 125 169 213 264 304 366
#     4  12  23  40  66  95 125 163 211 258 311 376
#     4  10  23  41  63  96 127 163 207 255 316 373
#
# _framework density 23.358526000000001
#
# number of rings (size 3 to 8) (size 9 to 14) (size 15 to 20)
#    0.000    1.500    3.750    1.500    3.500    4.000 
#    0.000    0.000    0.000    2.250    0.000    0.000 
#    0.000    0.000    0.000    0.000    0.000    0.000 
#
# Total GULP energy -198213.673717 kJ/mol
# GULP energy per Si atom -12388.354607 kJ/mol
# Density = 2.330536 g / cm^3
# Si number density = 23.358526 Si / 1000 Ang^3
#
#
#
# Elastic Constant Matrix: (Units=GPa)
#
#
# Indices 1 2 3 4 5 6 
#
# 1 120.8666 27.1487 21.8383 2.1115 -17.8772 -27.5900
# 2 27.1487 69.4451 17.5919 -0.2376 -10.7922 -19.9991
# 3 21.8383 17.5919 93.4489 -4.2656 -16.0918 -27.9587
# 4 2.1115 -0.2376 -4.2656 17.8016 -2.9462 -4.7878
# 5 -17.8772 -10.7922 -16.0918 -2.9462 30.9544 8.7418
# 6 -27.5900 -19.9991 -27.9587 -4.7878 8.7418 27.8220
#
#
#
# Elastic Compliance Matrix: (Units=1/GPa)
#
#
# Indices 1 2 3 4 5 6 
#
# 1 0.011378 -0.000886 0.001868 0.002931 0.004207 0.011707
# 2 -0.000886 0.018989 0.001760 0.005213 0.003468 0.014347
# 3 0.001868 0.001760 0.017688 0.010639 0.006017 0.020833
# 4 0.002931 0.005213 0.010639 0.066850 0.007963 0.026347
# 5 0.004207 0.003468 0.006017 0.007963 0.039344 0.001719
# 6 0.011707 0.014347 0.020833 0.026347 0.001719 0.082794
#
#
# Mechanical properties :
#
#
# Convention : Reuss Voigt Hill
#
# Bulk Modulus (GPa) = 18.67796 46.32427 32.50112
# Shear Modulus (GPa) = 20.04760 29.79438 24.92099
#
# Velocity S-wave (km/s) = 2.93278 3.57532 3.26987
# Velocity P-wave (km/s) = 4.41382 6.07609 5.31040
#
# Compressibility (1/GPa) = 0.05353902
#
# Stress axis : x y z
#
# Youngs Moduli (GPa) = 87.88645 52.66204 56.53602
#
# Poissons Ratio (x) = 0.04668 -0.10564
# Poissons Ratio (y) = 0.07791 -0.09950
# Poissons Ratio (z) = -0.16421 -0.09268
#
# Static dielectric constant tensor:
#      x y z
#    x 4.278450 0.026290 0.018460 
#    y 0.026290 4.138800 0.530430 
#    z 0.018460 0.530430 4.302350 
# 
# 
# High freq. dielectric constant tensor:
#      x y z
#    x 1.937770 -0.003630 -0.001570 
#    y -0.003630 1.905470 0.037630 
#    z -0.001570 0.037630 1.908870 
# 
# From -- ./inp_files/271963.got.cif
#   From: 2010.06.25/outbox.cif.g09.slc.cpg/sg2_136_cif.got.tgz:271963.got - 2010.06.27 13:26:56.
