data_PCOD8023989
_publ_section_title
;
Structure prediction by ZEFSAII (Michael W. Deem and Ramdas Pophale) SiO2 
 PCOD8023989
Probable space group: P -1
;
_chemical_formula_sum "Si O2"
_cell_formula_units_Z 14
_cell_length_a 11.397699
_cell_length_b 12.389496
_cell_length_c 8.456460
_cell_angle_alpha 34.349268
_cell_angle_beta 93.166739
_cell_angle_gamma 86.227460
_cell_volume 659.470162
_symmetry_space_group_name_H-M "P -1"
_symmetry_group_IT_number 2
_symmetry_cell_setting 'triclinic'
loop_
_space_group_symop_operation_xyz
x,y,z
-x,-y,-z
loop_
_atom_site_type_symbol
_atom_site_label
_atom_site_fract_x
_atom_site_fract_y
_atom_site_fract_z
Si Si1 0.082261 0.293758 0.785393
Si Si2 0.268729 0.463767 0.778823
Si Si3 0.216117 0.125952 0.700770
Si Si4 0.755877 0.482503 0.934921
Si Si5 0.630270 0.245182 0.747618
Si Si6 0.530614 0.447252 0.806155
Si Si7 0.921587 0.124739 0.212093
O O1 0.202464 0.313940 0.865043
O O2 0.113998 0.194367 0.739274
O O3 0.000000 0.500000 0.500000
O O4 0.011123 0.159950 0.039593
O O5 0.261314 0.659242 0.434676
O O6 0.410222 0.363745 0.937768
O O7 0.205821 0.516639 0.880149
O O8 0.254125 0.308870 0.400024
O O9 0.171814 0.995466 0.720588
O O10 0.329934 0.989232 0.963656
O O11 0.620624 0.437856 0.972489
O O12 0.853196 0.326463 0.039024
O O13 0.609084 0.318485 0.835636
O O14 0.511035 0.327692 0.534342
O O15 0.000000 0.000000 0.500000
#
# Coordination Sequence:
#
# PCOD8023989 Si02
#       7
#     2   2   2   2   2   2   2
#     4  12  25  44  69  96 133 176 228 274 327 390
#     4  10  23  42  68  98 132 178 212 274 334 387
#     4  12  25  44  69 100 129 176 229 270 331 395
#     4  12  24  44  69  98 139 173 218 274 339 390
#     4   9  20  40  70  93 132 167 223 265 323 387
#     4   9  20  44  71  94 136 174 220 274 324 395
#     4  12  28  44  67  98 135 177 221 280 331 392
#
# _framework density 21.229164999999998
#
# number of rings (size 3 to 8) (size 9 to 14) (size 15 to 20)
#    0.857    0.286    2.857    3.429    4.000    1.714 
#    0.000    0.714    0.000    0.000    0.000    0.000 
#    0.000    0.000    0.000    0.000    0.000    0.000 
#
# Total GULP energy -173532.660056 kJ/mol
# GULP energy per Si atom -12395.190004 kJ/mol
# Density = 2.118085 g / cm^3
# Si number density = 21.229165 Si / 1000 Ang^3
#
#
#
# Elastic Constant Matrix: (Units=GPa)
#
#
# Indices 1 2 3 4 5 6 
#
# 1 79.8185 16.2930 25.7204 -4.7556 -1.2441 -0.2710
# 2 16.2930 93.9096 17.1425 2.5980 6.4550 -12.6864
# 3 25.7204 17.1425 70.1206 -15.3952 11.4164 -13.5754
# 4 -4.7556 2.5980 -15.3952 28.7912 -7.5849 1.8155
# 5 -1.2441 6.4550 11.4164 -7.5849 30.0318 -1.4648
# 6 -0.2710 -12.6864 -13.5754 1.8155 -1.4648 37.0427
#
#
#
# Elastic Compliance Matrix: (Units=1/GPa)
#
#
# Indices 1 2 3 4 5 6 
#
# 1 0.014938 -0.002120 -0.005900 0.000549 0.003325 -0.002674
# 2 -0.002120 0.012096 -0.001791 -0.003327 -0.002675 0.003528
# 3 -0.005900 -0.001791 0.020829 0.008524 -0.005315 0.006349
# 4 0.000549 -0.003327 0.008524 0.041790 0.008064 0.000259
# 5 0.003325 -0.002675 -0.005315 0.008064 0.037983 -0.001733
# 6 -0.002674 0.003528 0.006349 0.000259 -0.001733 0.030430
#
#
# Mechanical properties :
#
#
# Convention : Reuss Voigt Hill
#
# Bulk Modulus (GPa) = 35.40961 40.24007 37.82484
# Shear Modulus (GPa) = 26.72354 31.48597 29.10475
#
# Velocity S-wave (km/s) = 3.55182 3.85534 3.70669
# Velocity P-wave (km/s) = 5.79107 6.23013 6.01461
#
# Compressibility (1/GPa) = 0.02824093
#
# Stress axis : x y z
#
# Youngs Moduli (GPa) = 66.94512 82.67348 48.00982
#
# Poissons Ratio (x) = 0.17524 0.28324
# Poissons Ratio (y) = 0.14190 0.08601
# Poissons Ratio (z) = 0.39495 0.14811
#
# Static dielectric constant tensor:
#      x y z
#    x 3.807180 0.048210 0.074330 
#    y 0.048210 3.902380 -0.008950 
#    z 0.074330 -0.008950 3.743200 
# 
# 
# High freq. dielectric constant tensor:
#      x y z
#    x 1.835750 -0.005530 0.006480 
#    y -0.005530 1.835540 0.010300 
#    z 0.006480 0.010300 1.819370 
# 
# From -- ./inp_files/261230.got.cif
#   From: 2010.06.25/outbox.cif.g09.slc.cpg/sg2_131_cif.got.tgz:261230.got - 2010.06.27 13:26:56.
