data_PCOD8023500
_publ_section_title
;
Structure prediction by ZEFSAII (Michael W. Deem and Ramdas Pophale) SiO2 
 PCOD8023500
Probable space group: P -1
;
_chemical_formula_sum "Si O2"
_cell_formula_units_Z 16
_cell_length_a 14.801943
_cell_length_b 11.776224
_cell_length_c 14.570757
_cell_angle_alpha 68.565575
_cell_angle_beta 147.299938
_cell_angle_gamma 136.076582
_cell_volume 729.613455
_symmetry_space_group_name_H-M "P -1"
_symmetry_group_IT_number 2
_symmetry_cell_setting 'triclinic'
loop_
_space_group_symop_operation_xyz
x,y,z
-x,-y,-z
loop_
_atom_site_type_symbol
_atom_site_label
_atom_site_fract_x
_atom_site_fract_y
_atom_site_fract_z
Si Si1 0.310130 0.887219 0.218099
Si Si2 0.363608 0.481076 0.297620
Si Si3 0.702465 0.462269 0.105302
Si Si4 0.211329 0.355645 0.702165
Si Si5 0.361122 0.046849 0.864342
Si Si6 0.780200 0.587687 0.508883
Si Si7 0.264009 0.717013 0.412979
Si Si8 0.617976 0.891861 0.346691
O O1 0.328648 0.799022 0.341190
O O2 0.470602 0.923909 0.256365
O O3 0.479169 0.105260 0.343873
O O4 0.988519 0.731838 0.951392
O O5 0.500000 0.500000 0.500000
O O6 0.476563 0.469838 0.310993
O O7 0.477663 0.687937 0.331540
O O8 0.798331 0.536137 0.269932
O O9 0.977159 0.619014 0.226730
O O10 0.521220 0.474579 0.920835
O O11 0.511408 0.226349 0.011350
O O12 0.148888 0.384478 0.545436
O O13 0.967357 0.110389 0.596981
O O14 0.416614 0.135813 0.784540
O O15 0.031214 0.832947 0.683599
O O16 0.500000 0.000000 0.000000
O O17 0.799729 0.463940 0.602276
#
# Coordination Sequence:
#
# PCOD8023500 Si02
#       8
#     2   2   2   2   2   2   2   2
#     4  11  25  44  68  95 130 183 226 269 331 381
#     4  12  27  44  68  97 135 177 226 277 324 389
#     4  11  21  42  64 100 129 173 216 269 336 394
#     4  10  23  41  68  97 132 170 212 278 337 397
#     4  11  23  37  71  99 130 168 212 275 336 396
#     4  11  24  43  63 100 132 170 221 271 338 390
#     4  11  23  43  70  94 135 175 223 276 320 405
#     4  11  23  45  67  96 133 171 222 274 330 399
#
# _framework density 21.929418999999999
#
# number of rings (size 3 to 8) (size 9 to 14) (size 15 to 20)
#    0.000    1.000    2.500    4.125    1.750    4.000 
#    4.500    0.000    0.000    0.000    0.000    0.000 
#    0.000    0.000    0.000    0.000    0.000    0.000 
#
# Total GULP energy -198307.909363 kJ/mol
# GULP energy per Si atom -12394.244335 kJ/mol
# Density = 2.187951 g / cm^3
# Si number density = 21.929419 Si / 1000 Ang^3
#
#
#
# Elastic Constant Matrix: (Units=GPa)
#
#
# Indices 1 2 3 4 5 6 
#
# 1 79.0816 25.0528 23.8793 17.7299 9.7936 -15.2812
# 2 25.0528 100.6093 23.4930 10.5729 -15.3967 -5.8757
# 3 23.8793 23.4930 106.6303 18.8090 -0.7188 4.3732
# 4 17.7299 10.5729 18.8090 29.6646 -5.5924 4.4051
# 5 9.7936 -15.3967 -0.7188 -5.5924 39.1547 12.1235
# 6 -15.2812 -5.8757 4.3732 4.4051 12.1235 24.5905
#
#
#
# Elastic Compliance Matrix: (Units=1/GPa)
#
#
# Indices 1 2 3 4 5 6 
#
# 1 0.030172 -0.006048 -0.002807 -0.023599 -0.023803 0.033767
# 2 -0.006048 0.012535 -0.001580 0.002464 0.008321 -0.005027
# 3 -0.002807 -0.001580 0.011251 -0.004164 0.000871 -0.003806
# 4 -0.023599 0.002464 -0.004164 0.060222 0.026986 -0.037429
# 5 -0.023803 0.008321 0.000871 0.026986 0.052098 -0.043478
# 6 0.033767 -0.005027 -0.003806 -0.037429 -0.043478 0.089266
#
#
# Mechanical properties :
#
#
# Convention : Reuss Voigt Hill
#
# Bulk Modulus (GPa) = 30.22143 47.90794 39.06469
# Shear Modulus (GPa) = 17.39465 32.94170 25.16817
#
# Velocity S-wave (km/s) = 2.81945 3.87999 3.39143
# Velocity P-wave (km/s) = 4.94067 6.47814 5.76092
#
# Compressibility (1/GPa) = 0.03308910
#
# Stress axis : x y z
#
# Youngs Moduli (GPa) = 33.14292 79.77395 88.87881
#
# Poissons Ratio (x) = 0.48251 0.24947
# Poissons Ratio (y) = 0.20046 0.14040
# Poissons Ratio (z) = 0.09303 0.12602
#
# Static dielectric constant tensor:
#      x y z
#    x 4.089920 -0.169950 -0.148470 
#    y -0.169950 2.283490 -0.703900 
#    z -0.148470 -0.703900 3.455750 
# 
# 
# High freq. dielectric constant tensor:
#      x y z
#    x 1.877830 -0.002540 0.003190 
#    y -0.002540 1.857290 0.014840 
#    z 0.003190 0.014840 1.865410 
# 
# From -- ./inp_files/532499.got.cif
#   From: 2010.06.25/outbox.cif.g09.slc.cpg/sg2_267_cif.got.tgz:532499.got - 2010.06.27 13:26:56.
