data_PCOD8023809
_publ_section_title
;
Structure prediction by ZEFSAII (Michael W. Deem and Ramdas Pophale) SiO2 
 PCOD8023809
Probable space group: P -1
;
_chemical_formula_sum "Si O2"
_cell_formula_units_Z 16
_cell_length_a 6.532322
_cell_length_b 16.447694
_cell_length_c 10.913173
_cell_angle_alpha 128.632836
_cell_angle_beta 71.953024
_cell_angle_gamma 127.857973
_cell_volume 718.029712
_symmetry_space_group_name_H-M "P -1"
_symmetry_group_IT_number 2
_symmetry_cell_setting 'triclinic'
loop_
_space_group_symop_operation_xyz
x,y,z
-x,-y,-z
loop_
_atom_site_type_symbol
_atom_site_label
_atom_site_fract_x
_atom_site_fract_y
_atom_site_fract_z
Si Si1 0.919644 0.123217 0.750590
Si Si2 0.475614 0.071596 0.961212
Si Si3 0.367072 0.723034 0.520747
Si Si4 0.942423 0.525738 0.226391
Si Si5 0.041808 0.091206 0.441074
Si Si6 0.799025 0.590989 0.067524
Si Si7 0.474263 0.684087 0.725389
Si Si8 0.948110 0.164467 0.281449
O O1 0.656045 0.089375 0.830103
O O2 0.865567 0.074675 0.574193
O O3 0.131373 0.272707 0.855195
O O4 0.026687 0.045683 0.720916
O O5 0.175701 0.975897 0.882205
O O6 0.550759 0.206320 0.116527
O O7 0.500000 0.000000 0.000000
O O8 0.649097 0.820895 0.500993
O O9 0.389774 0.653047 0.568925
O O10 0.250832 0.796624 0.668099
O O11 0.186896 0.630133 0.358842
O O12 0.851234 0.585167 0.197344
O O13 0.698777 0.442519 0.283675
O O14 0.018876 0.438244 0.067768
O O15 0.985717 0.160601 0.414868
O O16 0.500000 0.500000 0.000000
O O17 0.774723 0.732332 0.733959
#
# Coordination Sequence:
#
# PCOD8023809 Si02
#       8
#     2   2   2   2   2   2   2   2
#     4  11  22  44  68  95 133 173 212 276 332 381
#     4  12  22  42  66  95 133 169 213 272 328 388
#     4  11  22  44  66  96 140 170 215 280 320 390
#     4  11  25  43  66  98 130 177 227 263 325 394
#     4  10  23  42  66 103 129 168 224 265 333 397
#     4  11  25  45  66  95 135 175 219 277 320 388
#     4  11  24  42  67  98 133 175 223 265 328 395
#     4  11  23  41  68  96 131 174 213 274 331 385
#
# _framework density 22.283200000000001
#
# number of rings (size 3 to 8) (size 9 to 14) (size 15 to 20)
#    0.000    1.000    3.750    3.000    0.000    5.000 
#    4.500    0.000    0.000    0.000    0.000    0.000 
#    0.000    0.000    0.000    0.000    0.000    0.000 
#
# Total GULP energy -198357.921251 kJ/mol
# GULP energy per Si atom -12397.370078 kJ/mol
# Density = 2.223248 g / cm^3
# Si number density = 22.283200 Si / 1000 Ang^3
#
#
#
# Elastic Constant Matrix: (Units=GPa)
#
#
# Indices 1 2 3 4 5 6 
#
# 1 72.9434 40.2787 25.0421 -5.3095 17.7837 15.0020
# 2 40.2787 142.7367 35.4067 -3.4200 15.8765 4.6182
# 3 25.0421 35.4067 94.9356 1.8132 15.2104 4.1864
# 4 -5.3095 -3.4200 1.8132 43.0347 4.8875 -3.0418
# 5 17.7837 15.8765 15.2104 4.8875 35.6407 5.0956
# 6 15.0020 4.6182 4.1864 -3.0418 5.0956 20.3688
#
#
#
# Elastic Compliance Matrix: (Units=1/GPa)
#
#
# Indices 1 2 3 4 5 6 
#
# 1 0.021040 -0.004186 -0.002513 0.002204 -0.006123 -0.012170
# 2 -0.004186 0.008794 -0.002063 0.000553 -0.001299 0.001921
# 3 -0.002513 -0.002063 0.012458 -0.000612 -0.003124 0.000448
# 4 0.002204 0.000553 -0.000612 0.024363 -0.004889 0.003238
# 5 -0.006123 -0.001299 -0.003124 -0.004889 0.034246 -0.003851
# 6 -0.012170 0.001921 0.000448 0.003238 -0.003851 0.058977
#
#
# Mechanical properties :
#
#
# Convention : Reuss Voigt Hill
#
# Bulk Modulus (GPa) = 40.37416 56.89673 48.63545
# Shear Modulus (GPa) = 26.93115 33.80138 30.36626
#
# Velocity S-wave (km/s) = 3.48024 3.89896 3.69554
# Velocity P-wave (km/s) = 5.85726 6.77186 6.33110
#
# Compressibility (1/GPa) = 0.02476832
#
# Stress axis : x y z
#
# Youngs Moduli (GPa) = 47.52909 113.70786 80.26868
#
# Poissons Ratio (x) = 0.47600 0.20171
# Poissons Ratio (y) = 0.19896 0.16558
# Poissons Ratio (z) = 0.11944 0.23457
#
# Static dielectric constant tensor:
#      x y z
#    x 4.049860 0.079750 0.016980 
#    y 0.079750 4.188850 0.034930 
#    z 0.016980 0.034930 4.200980 
# 
# 
# High freq. dielectric constant tensor:
#      x y z
#    x 1.867890 0.001830 -0.003990 
#    y 0.001830 1.889730 -0.003770 
#    z -0.003990 -0.003770 1.885790 
# 
# From -- ./inp_files/78630.got.cif
#   From: 2010.06.25/outbox.cif.g09.slc.cpg/sg2_40_cif.got.tgz:78630.got - 2010.06.27 13:26:56.
