data_PCOD8023468
_publ_section_title
;
Structure prediction by ZEFSAII (Michael W. Deem and Ramdas Pophale) SiO2 
 PCOD8023468
Probable space group: P -1
;
_chemical_formula_sum "Si O2"
_cell_formula_units_Z 12
_cell_length_a 20.280392
_cell_length_b 9.113211
_cell_length_c 8.035072
_cell_angle_alpha 131.009991
_cell_angle_beta 47.647750
_cell_angle_gamma 151.100070
_cell_volume 521.138744
_symmetry_space_group_name_H-M "P -1"
_symmetry_group_IT_number 2
_symmetry_cell_setting 'triclinic'
loop_
_space_group_symop_operation_xyz
x,y,z
-x,-y,-z
loop_
_atom_site_type_symbol
_atom_site_label
_atom_site_fract_x
_atom_site_fract_y
_atom_site_fract_z
Si Si1 0.154729 0.805896 0.820442
Si Si2 0.571150 0.807609 0.178012
Si Si3 0.963248 0.762253 0.263028
Si Si4 0.829388 0.223815 0.594721
Si Si5 0.398224 0.456253 0.522901
Si Si6 0.714798 0.342912 0.119772
O O1 0.043066 0.440176 0.759576
O O2 0.228368 0.895685 0.584255
O O3 0.267934 0.978112 0.900757
O O4 0.083568 0.901104 0.026967
O O5 0.484837 0.712548 0.420058
O O6 0.579896 0.995389 0.166502
O O7 0.500000 0.500000 0.000000
O O8 0.821170 0.570999 0.261441
O O9 0.000000 0.000000 0.500000
O O10 0.000000 0.500000 0.500000
O O11 0.733978 0.890430 0.591836
O O12 0.791621 0.359798 0.851301
O O13 0.500000 0.500000 0.500000
O O14 0.336038 0.539239 0.787812
#
# Coordination Sequence:
#
# PCOD8023468 Si02
#       6
#     2   2   2   2   2   2
#     4  10  23  43  66 101 142 181 234 292 347 421
#     4  11  23  47  72 100 139 189 238 295 350 425
#     4  10  23  41  68 101 138 183 234 287 351 421
#     4  12  25  46  70 103 148 184 235 295 352 426
#     4  12  27  48  69 102 145 191 239 296 355 419
#     4  11  26  44  75 105 137 191 241 286 361 423
#
# _framework density 23.026496000000002
#
# number of rings (size 3 to 8) (size 9 to 14) (size 15 to 20)
#    0.000    1.000    5.000    0.500    4.667    2.667 
#    0.000    0.000    0.000    0.000    0.000    0.000 
#    0.000    0.000    0.000    0.000    0.000    0.000 
#
# Total GULP energy -148669.326897 kJ/mol
# GULP energy per Si atom -12389.110575 kJ/mol
# Density = 2.297409 g / cm^3
# Si number density = 23.026496 Si / 1000 Ang^3
#
#
#
# Elastic Constant Matrix: (Units=GPa)
#
#
# Indices 1 2 3 4 5 6 
#
# 1 72.3102 30.0282 58.9309 8.5573 -15.8434 -2.1650
# 2 30.0282 119.5761 59.2043 7.3707 -15.5590 17.0762
# 3 58.9309 59.2043 209.0782 17.7472 -13.8709 -3.0830
# 4 8.5573 7.3707 17.7472 43.7235 -2.0216 8.4412
# 5 -15.8434 -15.5590 -13.8709 -2.0216 43.0900 0.7447
# 6 -2.1650 17.0762 -3.0830 8.4412 0.7447 22.3412
#
#
#
# Elastic Compliance Matrix: (Units=1/GPa)
#
#
# Indices 1 2 3 4 5 6 
#
# 1 0.019865 -0.002701 -0.004264 -0.002272 0.004778 0.004100
# 2 -0.002701 0.012234 -0.002832 0.001827 0.002785 -0.010786
# 3 -0.004264 -0.002832 0.006996 -0.002243 -0.000505 0.003581
# 4 -0.002272 0.001827 -0.002243 0.026232 0.000538 -0.011855
# 5 0.004778 0.002785 -0.000505 0.000538 0.025881 -0.002801
# 6 0.004100 -0.010786 0.003581 -0.011855 -0.002801 0.058469
#
#
# Mechanical properties :
#
#
# Convention : Reuss Voigt Hill
#
# Bulk Modulus (GPa) = 51.28150 77.47681 64.37916
# Shear Modulus (GPa) = 28.44629 38.68436 33.56533
#
# Velocity S-wave (km/s) = 3.51860 4.10322 3.82210
# Velocity P-wave (km/s) = 6.23108 7.49456 6.89183
#
# Compressibility (1/GPa) = 0.01950021
#
# Stress axis : x y z
#
# Youngs Moduli (GPa) = 50.34100 81.74273 142.93203
#
# Poissons Ratio (x) = 0.22079 0.60943
# Poissons Ratio (y) = 0.13597 0.40481
# Poissons Ratio (z) = 0.21464 0.23151
#
# Static dielectric constant tensor:
#      x y z
#    x 3.833800 0.108020 0.067490 
#    y 0.108020 3.920050 -0.156010 
#    z 0.067490 -0.156010 4.453350 
# 
# 
# High freq. dielectric constant tensor:
#      x y z
#    x 1.884490 0.003300 0.003560 
#    y 0.003300 1.923720 -0.004710 
#    z 0.003560 -0.004710 1.920820 
# 
# From -- ./inp_files/36809.got.cif
#   From: 2010.06.25/outbox.cif.g09.slc.cpg/sg2_19_cif.got.tgz:36809.got - 2010.06.27 13:26:56.
