data_PCOD8023228
_publ_section_title
;
Structure prediction by ZEFSAII (Michael W. Deem and Ramdas Pophale) SiO2 
 PCOD8023228
Probable space group: P -1
;
_chemical_formula_sum "Si O2"
_cell_formula_units_Z 12
_cell_length_a 6.627339
_cell_length_b 12.725087
_cell_length_c 13.790179
_cell_angle_alpha 45.644295
_cell_angle_beta 134.521382
_cell_angle_gamma 136.490690
_cell_volume 526.093301
_symmetry_space_group_name_H-M "P -1"
_symmetry_group_IT_number 2
_symmetry_cell_setting 'triclinic'
loop_
_space_group_symop_operation_xyz
x,y,z
-x,-y,-z
loop_
_atom_site_type_symbol
_atom_site_label
_atom_site_fract_x
_atom_site_fract_y
_atom_site_fract_z
Si Si1 0.941944 0.388747 0.330626
Si Si2 0.095757 0.180737 0.659701
Si Si3 0.787952 0.787441 0.800937
Si Si4 0.944598 0.686596 0.245920
Si Si5 0.225805 0.470321 0.166667
Si Si6 0.711482 0.172810 0.910437
O O1 0.576190 0.291755 0.235244
O O2 0.013796 0.533008 0.341372
O O3 0.053455 0.261173 0.495036
O O4 0.146470 0.474689 0.249437
O O5 0.928605 0.232399 0.657807
O O6 0.473367 0.253128 0.761955
O O7 0.929647 0.983983 0.715310
O O8 0.790680 0.708636 0.747677
O O9 0.990010 0.729423 0.979552
O O10 0.567898 0.622358 0.158657
O O11 0.128917 0.833559 0.134684
O O12 0.000000 0.500000 0.000000
O O13 0.500000 0.000000 0.000000
#
# Coordination Sequence:
#
# PCOD8023228 Si02
#       6
#     2   2   2   2   2   2
#     4  11  24  41  64  93 127 166 209 256 312 371
#     4  11  24  41  63  94 128 164 208 260 312 367
#     4  10  23  41  63  92 124 165 211 256 310 368
#     4  11  23  40  64  91 126 164 209 258 310 371
#     4  11  23  41  65  93 127 167 210 257 310 373
#     4  10  23  41  63  93 125 162 207 256 313 370
#
# _framework density 22.809640999999999
#
# number of rings (size 3 to 8) (size 9 to 14) (size 15 to 20)
#    0.000    1.333    0.000    5.000    0.000   14.000 
#    0.000    0.000    0.000    0.000    0.000    0.000 
#    0.000    0.000    0.000    0.000    0.000    0.000 
#
# Total GULP energy -148705.910402 kJ/mol
# GULP energy per Si atom -12392.159200 kJ/mol
# Density = 2.275773 g / cm^3
# Si number density = 22.809641 Si / 1000 Ang^3
#
#
#
# Elastic Constant Matrix: (Units=GPa)
#
#
# Indices 1 2 3 4 5 6 
#
# 1 149.9478 60.6922 58.2879 -4.5572 -11.4670 10.5089
# 2 60.6922 127.4437 37.6728 -7.1843 -4.8938 0.8116
# 3 58.2879 37.6728 111.9941 1.0624 -3.6842 20.2476
# 4 -4.5572 -7.1843 1.0624 17.8371 7.1195 -9.0884
# 5 -11.4670 -4.8938 -3.6842 7.1195 33.9866 4.9569
# 6 10.5089 0.8116 20.2476 -9.0884 4.9569 42.4596
#
#
#
# Elastic Compliance Matrix: (Units=1/GPa)
#
#
# Indices 1 2 3 4 5 6 
#
# 1 0.009749 -0.003471 -0.003648 -0.000202 0.002575 -0.000951
# 2 -0.003471 0.010450 -0.002398 0.005743 -0.001599 0.003219
# 3 -0.003648 -0.002398 0.013069 -0.007261 0.002400 -0.007118
# 4 -0.000202 0.005743 -0.007261 0.078002 -0.019634 0.022391
# 5 0.002575 -0.001599 0.002400 -0.019634 0.035915 -0.010147
# 6 -0.000951 0.003219 -0.007118 0.022391 -0.010147 0.033097
#
#
# Mechanical properties :
#
#
# Convention : Reuss Voigt Hill
#
# Bulk Modulus (GPa) = 70.24949 78.07682 74.16315
# Shear Modulus (GPa) = 24.50242 34.37217 29.43729
#
# Velocity S-wave (km/s) = 3.28107 3.88611 3.59634
# Velocity P-wave (km/s) = 6.72450 7.37834 7.05899
#
# Compressibility (1/GPa) = 0.01423498
#
# Stress axis : x y z
#
# Youngs Moduli (GPa) = 102.57060 95.69138 76.51797
#
# Poissons Ratio (x) = 0.33215 0.27913
# Poissons Ratio (y) = 0.35603 0.18347
# Poissons Ratio (z) = 0.37417 0.22945
#
# Static dielectric constant tensor:
#      x y z
#    x 4.494140 -0.036600 0.170780 
#    y -0.036600 4.217260 0.113600 
#    z 0.170780 0.113600 4.294080 
# 
# 
# High freq. dielectric constant tensor:
#      x y z
#    x 1.909700 0.002180 0.005880 
#    y 0.002180 1.912670 0.004380 
#    z 0.005880 0.004380 1.890320 
# 
# From -- ./inp_files/20963.got.cif
#   From: 2010.06.25/outbox.cif.g09.slc.cpg/sg2_11_cif.got.tgz:20963.got - 2010.06.27 13:26:56.
