data_PCOD8023765
_publ_section_title
;
Structure prediction by ZEFSAII (Michael W. Deem and Ramdas Pophale) SiO2 
 PCOD8023765
Probable space group: P -1
;
_chemical_formula_sum "Si O2"
_cell_formula_units_Z 16
_cell_length_a 10.954508
_cell_length_b 10.720700
_cell_length_c 9.686608
_cell_angle_alpha 44.389236
_cell_angle_beta 91.014589
_cell_angle_gamma 80.562330
_cell_volume 769.867126
_symmetry_space_group_name_H-M "P -1"
_symmetry_group_IT_number 2
_symmetry_cell_setting 'triclinic'
loop_
_space_group_symop_operation_xyz
x,y,z
-x,-y,-z
loop_
_atom_site_type_symbol
_atom_site_label
_atom_site_fract_x
_atom_site_fract_y
_atom_site_fract_z
Si Si1 0.364577 0.089535 0.364048
Si Si2 0.102150 0.053133 0.866806
Si Si3 0.789368 0.617977 0.666440
Si Si4 0.731700 0.240653 0.338194
Si Si5 0.040731 0.691571 0.557552
Si Si6 0.221829 0.368024 0.664665
Si Si7 0.296149 0.735629 0.990117
Si Si8 0.411158 0.353757 0.915586
O O1 0.278825 0.200910 0.395263
O O2 0.500000 0.000000 0.500000
O O3 0.304976 0.921904 0.445130
O O4 0.371024 0.220459 0.131515
O O5 0.151436 0.209897 0.822098
O O6 0.039203 0.124034 0.662937
O O7 0.218716 0.877868 0.986450
O O8 0.000000 0.000000 0.000000
O O9 0.742378 0.635890 0.492590
O O10 0.753584 0.446687 0.871204
O O11 0.941036 0.589522 0.702569
O O12 0.872171 0.255497 0.364603
O O13 0.630495 0.435320 0.202194
O O14 0.724858 0.177702 0.230553
O O15 0.127701 0.563159 0.546936
O O16 0.348573 0.331335 0.785480
O O17 0.440829 0.695606 0.068945
#
# Coordination Sequence:
#
# PCOD8023765 Si02
#       8
#     2   2   2   2   2   2   2   2
#     4  12  24  42  69  94 134 174 215 270 322 380
#     4  11  23  40  63  94 126 172 215 266 325 383
#     4  11  23  43  66  95 130 175 214 269 327 381
#     4  11  23  43  67  99 129 171 215 270 325 384
#     4  10  23  42  65  93 130 165 220 269 323 386
#     4  10  23  44  65  92 131 169 216 271 321 384
#     4  12  23  41  68  94 134 170 216 267 325 387
#     4  11  25  45  65 100 133 169 218 268 323 387
#
# _framework density 20.782807999999999
#
# number of rings (size 3 to 8) (size 9 to 14) (size 15 to 20)
#    0.000    1.000    2.500    5.625    1.750    3.500 
#    0.000    0.000    0.000    0.000    0.000    0.000 
#    0.000    0.000    0.000    0.000    0.000    0.000 
#
# Total GULP energy -198464.463320 kJ/mol
# GULP energy per Si atom -12404.028958 kJ/mol
# Density = 2.073551 g / cm^3
# Si number density = 20.782808 Si / 1000 Ang^3
#
#
#
# Elastic Constant Matrix: (Units=GPa)
#
#
# Indices 1 2 3 4 5 6 
#
# 1 157.7794 44.9858 48.6365 -1.0504 10.1506 -0.3907
# 2 44.9858 69.4741 31.1842 -11.9625 10.5800 -3.5919
# 3 48.6365 31.1842 86.3001 -23.2348 -7.8847 -2.0279
# 4 -1.0504 -11.9625 -23.2348 30.1122 7.6698 -2.0807
# 5 10.1506 10.5800 -7.8847 7.6698 38.1125 -1.1657
# 6 -0.3907 -3.5919 -2.0279 -2.0807 -1.1657 35.6766
#
#
#
# Elastic Compliance Matrix: (Units=1/GPa)
#
#
# Indices 1 2 3 4 5 6 
#
# 1 0.009220 -0.004406 -0.005124 -0.005120 -0.001292 -0.000975
# 2 -0.004406 0.021413 -0.003884 0.007277 -0.006975 0.002083
# 3 -0.005124 -0.003884 0.019654 0.012522 0.004036 0.001532
# 4 -0.005120 0.007277 0.012522 0.047781 -0.007561 0.003928
# 5 -0.001292 -0.006975 0.004036 -0.007561 0.030877 0.000081
# 6 -0.000975 0.002083 0.001532 0.003928 0.000081 0.028548
#
#
# Mechanical properties :
#
#
# Convention : Reuss Voigt Hill
#
# Bulk Modulus (GPa) = 42.62375 62.57407 52.59891
# Shear Modulus (GPa) = 26.02277 33.36337 29.69307
#
# Velocity S-wave (km/s) = 3.54238 4.01101 3.78396
# Velocity P-wave (km/s) = 6.10614 7.18505 6.66745
#
# Compressibility (1/GPa) = 0.02346110
#
# Stress axis : x y z
#
# Youngs Moduli (GPa) = 108.45797 46.70132 50.87898
#
# Poissons Ratio (x) = 0.20575 0.26069
# Poissons Ratio (y) = 0.47783 0.19760
# Poissons Ratio (z) = 0.55572 0.18137
#
# Static dielectric constant tensor:
#      x y z
#    x 3.957580 0.014810 -0.128280 
#    y 0.014810 3.781560 -0.159500 
#    z -0.128280 -0.159500 3.916490 
# 
# 
# High freq. dielectric constant tensor:
#      x y z
#    x 1.826070 0.001370 -0.004230 
#    y 0.001370 1.815290 -0.013950 
#    z -0.004230 -0.013950 1.816530 
# 
# From -- ./inp_files/242065.got.cif
#   From: 2010.06.25/outbox.cif.g09.slc.cpg/sg2_122_cif.got.tgz:242065.got - 2010.06.27 13:26:56.
