data_PCOD8023012
_publ_section_title
;
Structure prediction by ZEFSAII (Michael W. Deem and Ramdas Pophale) SiO2 
 PCOD8023012
Probable space group: P -1
;
_chemical_formula_sum "Si O2"
_cell_formula_units_Z 14
_cell_length_a 5.824848
_cell_length_b 14.838026
_cell_length_c 24.537580
_cell_angle_alpha 160.729968
_cell_angle_beta 108.021235
_cell_angle_gamma 78.914195
_cell_volume 631.040539
_symmetry_space_group_name_H-M "P -1"
_symmetry_group_IT_number 2
_symmetry_cell_setting 'triclinic'
loop_
_space_group_symop_operation_xyz
x,y,z
-x,-y,-z
loop_
_atom_site_type_symbol
_atom_site_label
_atom_site_fract_x
_atom_site_fract_y
_atom_site_fract_z
Si Si1 0.280731 0.154171 0.342548
Si Si2 0.310162 0.113341 0.589291
Si Si3 0.152245 0.277365 0.886667
Si Si4 0.379168 0.232574 0.270090
Si Si5 0.902010 0.132704 0.118719
Si Si6 0.427601 0.184780 0.758742
Si Si7 0.557630 0.257229 0.082649
O O1 0.346208 0.123762 0.267401
O O2 0.368372 0.489844 0.558088
O O3 0.413494 0.981366 0.291745
O O4 0.977547 0.999213 0.241790
O O5 0.369157 0.039927 0.612964
O O6 0.394961 0.451703 0.779972
O O7 0.500000 0.000000 0.500000
O O8 0.000000 0.000000 0.500000
O O9 0.172109 0.155365 0.757712
O O10 0.428741 0.468499 0.038583
O O11 0.000000 0.500000 0.000000
O O12 0.134671 0.322554 0.282243
O O13 0.390097 0.973383 0.085503
O O14 0.731913 0.314237 0.183388
O O15 0.734294 0.866295 0.990881
O O16 0.000000 0.000000 0.000000
#
# Coordination Sequence:
#
# PCOD8023012 Si02
#       7
#     2   2   2   2   2   2   2
#     4  10  23  40  65 103 138 176 235 294 361 425
#     4  12  32  48  75 112 144 192 248 302 360 435
#     4   9  21  41  69  96 136 184 232 287 365 423
#     4  10  23  40  68 100 135 181 234 296 357 432
#     4   9  21  42  67  94 130 184 231 296 348 427
#     4  10  24  43  68 100 141 187 233 299 361 430
#     4  10  24  44  70  95 136 187 238 291 370 424
#
# _framework density 22.185580999999999
#
# number of rings (size 3 to 8) (size 9 to 14) (size 15 to 20)
#    0.000    2.000    0.000    0.000   18.000    3.429 
#    0.000    2.857    0.000    0.000    0.000    0.000 
#    0.000    0.000    0.000    0.000    0.000    0.000 
#
# Total GULP energy -173434.914708 kJ/mol
# GULP energy per Si atom -12388.208193 kJ/mol
# Density = 2.213509 g / cm^3
# Si number density = 22.185581 Si / 1000 Ang^3
#
#
#
# Elastic Constant Matrix: (Units=GPa)
#
#
# Indices 1 2 3 4 5 6 
#
# 1 100.7788 35.0585 41.8286 0.3800 4.9354 27.9164
# 2 35.0585 135.7231 59.3356 -7.0190 8.1022 15.2003
# 3 41.8286 59.3356 112.0868 9.1730 6.5072 18.8206
# 4 0.3800 -7.0190 9.1730 39.1281 7.3615 5.7479
# 5 4.9354 8.1022 6.5072 7.3615 36.2428 4.1420
# 6 27.9164 15.2003 18.8206 5.7479 4.1420 37.2060
#
#
#
# Elastic Compliance Matrix: (Units=1/GPa)
#
#
# Indices 1 2 3 4 5 6 
#
# 1 0.014113 -0.001085 -0.003358 0.001816 -0.000454 -0.008677
# 2 -0.001085 0.010266 -0.005014 0.003547 -0.001832 -0.001188
# 3 -0.003358 -0.005014 0.013408 -0.003793 0.000129 -0.001643
# 4 0.001816 0.003547 -0.003793 0.028825 -0.005675 -0.004714
# 5 -0.000454 -0.001832 0.000129 -0.005675 0.029349 -0.001367
# 6 -0.008677 -0.001188 -0.001643 -0.004714 -0.001367 0.035585
#
#
# Mechanical properties :
#
#
# Convention : Reuss Voigt Hill
#
# Bulk Modulus (GPa) = 52.98436 69.00381 60.99409
# Shear Modulus (GPa) = 31.89795 36.67309 34.28552
#
# Velocity S-wave (km/s) = 3.79592 4.07014 3.93542
# Velocity P-wave (km/s) = 6.56858 7.29785 6.94279
#
# Compressibility (1/GPa) = 0.01887349
#
# Stress axis : x y z
#
# Youngs Moduli (GPa) = 70.85790 97.40821 74.58338
#
# Poissons Ratio (x) = 0.10567 0.25042
# Poissons Ratio (y) = 0.07687 0.37398
# Poissons Ratio (z) = 0.23791 0.48843
#
# Static dielectric constant tensor:
#      x y z
#    x 4.617030 0.124510 0.569160 
#    y 0.124510 4.335760 -0.015990 
#    z 0.569160 -0.015990 4.212330 
# 
# 
# High freq. dielectric constant tensor:
#      x y z
#    x 1.878490 0.015220 0.013880 
#    y 0.015220 1.881760 0.001040 
#    z 0.013880 0.001040 1.863960 
# 
# From -- ./inp_files/368151.got.cif
#   From: 2010.06.25/outbox.cif.g09.slc.cpg/sg2_185_cif.got.tgz:368151.got - 2010.06.27 13:26:56.
