data_PCOD8023090
_publ_section_title
;
Structure prediction by ZEFSAII (Michael W. Deem and Ramdas Pophale) SiO2 
 PCOD8023090
Probable space group: P -1
;
_chemical_formula_sum "Si O2"
_cell_formula_units_Z 12
_cell_length_a 9.104943
_cell_length_b 8.824498
_cell_length_c 15.222002
_cell_angle_alpha 30.620995
_cell_angle_beta 71.061714
_cell_angle_gamma 69.968461
_cell_volume 584.140658
_symmetry_space_group_name_H-M "P -1"
_symmetry_group_IT_number 2
_symmetry_cell_setting 'triclinic'
loop_
_space_group_symop_operation_xyz
x,y,z
-x,-y,-z
loop_
_atom_site_type_symbol
_atom_site_label
_atom_site_fract_x
_atom_site_fract_y
_atom_site_fract_z
Si Si1 0.581095 0.163108 0.143031
Si Si2 0.547183 0.345687 0.659569
Si Si3 0.110014 0.635694 0.343148
Si Si4 0.556203 0.073861 0.546220
Si Si5 0.937041 0.157000 0.022463
Si Si6 0.107822 0.259734 0.351042
O O1 0.757347 0.131067 0.091073
O O2 0.490725 0.995388 0.168220
O O3 0.572952 0.002639 0.319272
O O4 0.500000 0.500000 0.000000
O O5 0.500000 0.500000 0.500000
O O6 0.724742 0.354630 0.648505
O O7 0.437633 0.564840 0.637937
O O8 0.115729 0.430982 0.356656
O O9 0.000000 0.500000 0.500000
O O10 0.042614 0.985237 0.163916
O O11 0.500000 0.000000 0.500000
O O12 0.719814 0.890873 0.632981
O O13 0.952969 0.509317 0.830901
O O14 0.000000 0.000000 0.000000
O O15 0.000000 0.000000 0.500000
#
# Coordination Sequence:
#
# PCOD8023090 Si02
#       6
#     2   2   2   2   2   2
#     4  11  23  44  71  96 137 178 229 287 340 405
#     4  10  23  40  67  98 132 179 222 278 340 404
#     4  11  23  43  69 100 138 180 227 278 347 411
#     4  11  22  43  67 100 134 177 234 276 342 411
#     4  10  24  45  66  99 137 179 228 284 343 405
#     4  11  25  43  67  98 139 182 227 287 342 407
#
# _framework density 20.542997
#
# number of rings (size 3 to 8) (size 9 to 14) (size 15 to 20)
#    0.000    1.333    3.333    2.000    9.333    0.000 
#    3.000    5.833    0.000    0.000    0.000    0.000 
#    0.000    0.000    0.000    0.000    0.000    0.000 
#
# Total GULP energy -148664.287368 kJ/mol
# GULP energy per Si atom -12388.690614 kJ/mol
# Density = 2.049624 g / cm^3
# Si number density = 20.542997 Si / 1000 Ang^3
#
#
#
# Elastic Constant Matrix: (Units=GPa)
#
#
# Indices 1 2 3 4 5 6 
#
# 1 139.7115 59.3642 77.5060 -15.2904 11.8336 -4.0983
# 2 59.3642 132.8106 61.7962 -20.6487 -5.8021 -5.8314
# 3 77.5060 61.7962 153.2646 -21.6345 4.9813 -1.7073
# 4 -15.2904 -20.6487 -21.6345 46.5165 -5.0905 -4.6500
# 5 11.8336 -5.8021 4.9813 -5.0905 36.5857 -3.8228
# 6 -4.0983 -5.8314 -1.7073 -4.6500 -3.8228 44.9720
#
#
#
# Elastic Compliance Matrix: (Units=1/GPa)
#
#
# Indices 1 2 3 4 5 6 
#
# 1 0.011162 -0.003168 -0.004264 -0.000093 -0.003531 0.000135
# 2 -0.003168 0.010794 -0.002399 0.003204 0.003683 0.001664
# 3 -0.004264 -0.002399 0.009952 0.002144 -0.000069 -0.000106
# 4 -0.000093 0.003204 0.002144 0.024665 0.004032 0.003381
# 5 -0.003531 0.003683 -0.000069 0.004032 0.029955 0.003116
# 6 0.000135 0.001664 -0.000106 0.003381 0.003116 0.023075
#
#
# Mechanical properties :
#
#
# Convention : Reuss Voigt Hill
#
# Bulk Modulus (GPa) = 81.66219 91.45772 86.55996
# Shear Modulus (GPa) = 37.49596 40.75621 39.12608
#
# Velocity S-wave (km/s) = 4.27692 4.45898 4.36890
# Velocity P-wave (km/s) = 8.01421 8.43367 8.22661
#
# Compressibility (1/GPa) = 0.01224557
#
# Stress axis : x y z
#
# Youngs Moduli (GPa) = 89.58824 92.64548 100.48182
#
# Poissons Ratio (x) = 0.29350 0.42848
# Poissons Ratio (y) = 0.28382 0.24105
# Poissons Ratio (z) = 0.38203 0.22225
#
# Static dielectric constant tensor:
#      x y z
#    x 3.679200 0.065440 0.079270 
#    y 0.065440 4.532760 -0.584490 
#    z 0.079270 -0.584490 4.415430 
# 
# 
# High freq. dielectric constant tensor:
#      x y z
#    x 1.798100 -0.015030 0.009410 
#    y -0.015030 1.819280 -0.015270 
#    z 0.009410 -0.015270 1.811320 
# 
# From -- ./inp_files/144563.got.cif
#   From: 2010.06.25/outbox.cif.g09.slc.cpg/sg2_73_cif.got.tgz:144563.got - 2010.06.27 13:26:56.
