data_PCOD8023493
_publ_section_title
;
Structure prediction by ZEFSAII (Michael W. Deem and Ramdas Pophale) SiO2 
 PCOD8023493
Probable space group: P -1
;
_chemical_formula_sum "Si O2"
_cell_formula_units_Z 16
_cell_length_a 18.723615
_cell_length_b 12.443550
_cell_length_c 8.991024
_cell_angle_alpha 132.655733
_cell_angle_beta 132.815281
_cell_angle_gamma 28.525375
_cell_volume 714.200962
_symmetry_space_group_name_H-M "P -1"
_symmetry_group_IT_number 2
_symmetry_cell_setting 'triclinic'
loop_
_space_group_symop_operation_xyz
x,y,z
-x,-y,-z
loop_
_atom_site_type_symbol
_atom_site_label
_atom_site_fract_x
_atom_site_fract_y
_atom_site_fract_z
Si Si1 0.159156 0.737139 0.009758
Si Si2 0.018462 0.663355 0.571278
Si Si3 0.698530 0.951956 0.914580
Si Si4 0.201806 0.674684 0.356142
Si Si5 0.569621 0.563982 0.089768
Si Si6 0.924042 0.879348 0.326887
Si Si7 0.420428 0.237166 0.435535
Si Si8 0.771029 0.850663 0.601277
O O1 0.287592 0.660191 0.014649
O O2 0.136990 0.597137 0.793415
O O3 0.208865 0.686290 0.201730
O O4 0.000000 0.000000 0.000000
O O5 0.002394 0.771698 0.497629
O O6 0.846667 0.859215 0.585337
O O7 0.097015 0.418687 0.421404
O O8 0.671505 0.809326 0.735994
O O9 0.745455 0.961177 0.826192
O O10 0.544040 0.221884 0.986690
O O11 0.828586 0.843954 0.117334
O O12 0.358925 0.410062 0.376930
O O13 0.056490 0.745753 0.266335
O O14 0.188394 0.848973 0.578705
O O15 0.616181 0.632026 0.342383
O O16 0.500000 0.500000 0.000000
O O17 0.602339 0.991970 0.440307
#
# Coordination Sequence:
#
# PCOD8023493 Si02
#       8
#     2   2   2   2   2   2   2   2
#     4  12  25  42  69  97 131 173 222 276 335 394
#     4  11  23  43  67  98 134 170 226 275 330 398
#     4  11  23  42  68  97 134 178 225 270 337 397
#     4  11  25  42  68  96 136 172 224 279 335 393
#     4  11  25  43  71 100 135 178 223 276 331 398
#     4  11  24  42  65 100 132 177 222 277 332 396
#     4  11  24  44  68  96 137 176 224 273 337 400
#     4  10  23  41  68  96 131 176 218 274 331 398
#
# _framework density 22.402659
#
# number of rings (size 3 to 8) (size 9 to 14) (size 15 to 20)
#    0.000    1.000    1.250    6.000    7.000    5.000 
#    0.000    3.750    0.000    0.000    0.000    0.000 
#    0.000    0.000    0.000    0.000    0.000    0.000 
#
# Total GULP energy -198364.455889 kJ/mol
# GULP energy per Si atom -12397.778493 kJ/mol
# Density = 2.235167 g / cm^3
# Si number density = 22.402659 Si / 1000 Ang^3
#
#
#
# Elastic Constant Matrix: (Units=GPa)
#
#
# Indices 1 2 3 4 5 6 
#
# 1 133.5391 45.5203 40.4732 1.4980 -7.7276 -18.1589
# 2 45.5203 124.8967 25.1836 -2.4010 -12.4309 -3.9543
# 3 40.4732 25.1836 99.1487 -11.6536 9.0440 -9.9296
# 4 1.4980 -2.4010 -11.6536 29.7973 1.3607 -1.5826
# 5 -7.7276 -12.4309 9.0440 1.3607 32.7668 2.4291
# 6 -18.1589 -3.9543 -9.9296 -1.5826 2.4291 40.0345
#
#
#
# Elastic Compliance Matrix: (Units=1/GPa)
#
#
# Indices 1 2 3 4 5 6 
#
# 1 0.010059 -0.002672 -0.003545 -0.002037 0.002184 0.003206
# 2 -0.002672 0.009669 -0.001785 0.000002 0.003599 -0.000918
# 3 -0.003545 -0.001785 0.013368 0.005629 -0.005592 0.002093
# 4 -0.002037 0.000002 0.005629 0.036146 -0.003692 0.002125
# 5 0.002184 0.003599 -0.005592 -0.003692 0.034264 -0.002266
# 6 0.003206 -0.000918 0.002093 0.002125 -0.002266 0.027083
#
#
# Mechanical properties :
#
#
# Convention : Reuss Voigt Hill
#
# Bulk Modulus (GPa) = 58.50682 64.43765 61.47223
# Shear Modulus (GPa) = 32.83218 36.94688 34.88953
#
# Velocity S-wave (km/s) = 3.83240 4.06546 3.95065
# Velocity P-wave (km/s) = 6.76430 7.13184 6.95050
#
# Compressibility (1/GPa) = 0.01709202
#
# Stress axis : x y z
#
# Youngs Moduli (GPa) = 99.41589 103.41803 74.80675
#
# Poissons Ratio (x) = 0.27628 0.26519
# Poissons Ratio (y) = 0.26559 0.13357
# Poissons Ratio (z) = 0.35243 0.18465
#
# Static dielectric constant tensor:
#      x y z
#    x 4.042660 -0.138640 0.035730 
#    y -0.138640 4.288960 -0.003630 
#    z 0.035730 -0.003630 4.384510 
# 
# 
# High freq. dielectric constant tensor:
#      x y z
#    x 1.878860 -0.004330 0.003300 
#    y -0.004330 1.895840 0.006720 
#    z 0.003300 0.006720 1.874740 
# 
# From -- ./inp_files/333830.got.cif
#   From: 2010.06.25/outbox.cif.g09.slc.cpg/sg2_167_cif.got.tgz:333830.got - 2010.06.27 13:26:56.
