data_PCOD8023902
_publ_section_title
;
Structure prediction by ZEFSAII (Michael W. Deem and Ramdas Pophale) SiO2 
 PCOD8023902
Probable space group: P -1
;
_chemical_formula_sum "Si O2"
_cell_formula_units_Z 14
_cell_length_a 4.956655
_cell_length_b 27.722094
_cell_length_c 14.922487
_cell_angle_alpha 160.176674
_cell_angle_beta 82.148567
_cell_angle_gamma 106.840846
_cell_volume 604.353851
_symmetry_space_group_name_H-M "P -1"
_symmetry_group_IT_number 2
_symmetry_cell_setting 'triclinic'
loop_
_space_group_symop_operation_xyz
x,y,z
-x,-y,-z
loop_
_atom_site_type_symbol
_atom_site_label
_atom_site_fract_x
_atom_site_fract_y
_atom_site_fract_z
Si Si1 0.007048 0.105151 0.914039
Si Si2 0.286738 0.357196 0.193501
Si Si3 0.060445 0.803418 0.370519
Si Si4 0.151867 0.628065 0.902948
Si Si5 0.309510 0.173008 0.297222
Si Si6 0.488863 0.209421 0.557476
Si Si7 0.027219 0.707140 0.593737
O O1 0.055626 0.196892 0.978275
O O2 0.110352 0.234598 0.216043
O O3 0.188925 0.998275 0.718256
O O4 0.648968 0.977010 0.725825
O O5 0.500000 0.500000 0.500000
O O6 0.500383 0.314612 0.045446
O O7 0.078080 0.412281 0.241355
O O8 0.161354 0.720176 0.301095
O O9 0.686451 0.710102 0.237840
O O10 0.157573 0.772546 0.214424
O O11 0.026640 0.471447 0.697800
O O12 0.437125 0.218356 0.470938
O O13 0.601329 0.178788 0.239839
O O14 0.191812 0.298220 0.488398
O O15 0.000000 0.000000 0.000000
#
# Coordination Sequence:
#
# PCOD8023902 Si02
#       7
#     2   2   2   2   2   2   2
#     4  10  26  40  71  96 138 171 227 273 337 381
#     4  12  26  44  71 102 134 174 223 277 337 390
#     4  10  24  45  66  94 139 179 217 273 332 390
#     4  12  27  47  68  97 141 175 224 272 330 406
#     4  12  24  41  69 107 131 174 225 281 331 394
#     4  10  23  42  67  95 138 168 226 277 329 385
#     4  12  26  41  70 101 136 174 224 277 338 386
#
# _framework density 23.165234999999999
#
# number of rings (size 3 to 8) (size 9 to 14) (size 15 to 20)
#    0.857    0.000    2.857    3.429    6.000    1.143 
#    0.000    4.286    0.000    0.000    0.000    0.000 
#    0.000    0.000    0.000    0.000    0.000    0.000 
#
# Total GULP energy -173438.172978 kJ/mol
# GULP energy per Si atom -12388.440927 kJ/mol
# Density = 2.311251 g / cm^3
# Si number density = 23.165235 Si / 1000 Ang^3
#
#
#
# Elastic Constant Matrix: (Units=GPa)
#
#
# Indices 1 2 3 4 5 6 
#
# 1 118.4892 52.1393 29.2581 13.7205 -17.5328 -22.1829
# 2 52.1393 137.1824 38.2812 12.6200 -10.9728 -10.8806
# 3 29.2581 38.2812 58.0874 -2.2095 -20.2808 5.2209
# 4 13.7205 12.6200 -2.2095 28.6394 2.9548 -5.6534
# 5 -17.5328 -10.9728 -20.2808 2.9548 28.7182 -3.9011
# 6 -22.1829 -10.8806 5.2209 -5.6534 -3.9011 54.5937
#
#
#
# Elastic Compliance Matrix: (Units=1/GPa)
#
#
# Indices 1 2 3 4 5 6 
#
# 1 0.012709 -0.002623 -0.003359 -0.004804 0.005540 0.004861
# 2 -0.002623 0.010305 -0.006250 -0.003382 -0.001577 0.001123
# 3 -0.003359 -0.006250 0.028734 0.004284 0.014889 -0.003851
# 4 -0.004804 -0.003382 0.004284 0.039714 -0.005190 0.000706
# 5 0.005540 -0.001577 0.014889 -0.005190 0.049123 0.003485
# 6 0.004861 0.001123 -0.003851 0.000706 0.003485 0.021206
#
#
# Mechanical properties :
#
#
# Convention : Reuss Voigt Hill
#
# Bulk Modulus (GPa) = 36.65082 61.45737 49.05410
# Shear Modulus (GPa) = 25.59532 35.32895 30.46213
#
# Velocity S-wave (km/s) = 3.32761 3.90947 3.63022
# Velocity P-wave (km/s) = 5.53352 6.85319 6.22840
#
# Compressibility (1/GPa) = 0.02728452
#
# Stress axis : x y z
#
# Youngs Moduli (GPa) = 78.68500 97.04476 34.80216
#
# Poissons Ratio (x) = 0.25450 0.11688
# Poissons Ratio (y) = 0.20635 0.21752
# Poissons Ratio (z) = 0.26427 0.60656
#
# Static dielectric constant tensor:
#      x y z
#    x 4.372160 0.004930 -0.169660 
#    y 0.004930 4.310400 0.091720 
#    z -0.169660 0.091720 3.737680 
# 
# 
# High freq. dielectric constant tensor:
#      x y z
#    x 1.933130 -0.002720 -0.018830 
#    y -0.002720 1.923150 -0.003070 
#    z -0.018830 -0.003070 1.882040 
# 
# From -- ./inp_files/486180.got.cif
#   From: 2010.06.25/outbox.cif.g09.slc.cpg/sg2_244_cif.got.tgz:486180.got - 2010.06.27 13:26:56.
