data_PCOD8023325
_publ_section_title
;
Structure prediction by ZEFSAII (Michael W. Deem and Ramdas Pophale) SiO2 
 PCOD8023325
Probable space group: P -1
;
_chemical_formula_sum "Si O2"
_cell_formula_units_Z 12
_cell_length_a 14.619830
_cell_length_b 6.906229
_cell_length_c 11.871824
_cell_angle_alpha 132.696768
_cell_angle_beta 38.320726
_cell_angle_gamma 133.577693
_cell_volume 512.674673
_symmetry_space_group_name_H-M "P -1"
_symmetry_group_IT_number 2
_symmetry_cell_setting 'triclinic'
loop_
_space_group_symop_operation_xyz
x,y,z
-x,-y,-z
loop_
_atom_site_type_symbol
_atom_site_label
_atom_site_fract_x
_atom_site_fract_y
_atom_site_fract_z
Si Si1 0.581681 0.588047 0.075337
Si Si2 0.052301 0.491166 0.820000
Si Si3 0.607652 0.186581 0.324574
Si Si4 0.513742 0.646726 0.696022
Si Si5 0.866391 0.036893 0.472020
Si Si6 0.076275 0.406228 0.235276
O O1 0.515101 0.344250 0.138066
O O2 0.539076 0.851389 0.265710
O O3 0.500000 0.500000 0.000000
O O4 0.767990 0.661395 0.909823
O O5 0.228374 0.705953 0.727125
O O6 0.948650 0.601991 0.878396
O O7 0.045140 0.179876 0.668955
O O8 0.000000 0.500000 0.000000
O O9 0.495690 0.329684 0.550960
O O10 0.618622 0.273285 0.214615
O O11 0.679703 0.875583 0.588896
O O12 0.912182 0.284028 0.615766
O O13 0.926062 0.173785 0.346125
#
# Coordination Sequence:
#
# PCOD8023325 Si02
#       6
#     2   2   2   2   2   2
#     4  12  26  42  66  97 128 166 213 266 320 376
#     4  11  23  40  67  97 129 169 212 262 318 376
#     4  10  23  41  65  95 128 168 213 259 316 377
#     4  10  23  44  68  93 128 169 214 262 314 377
#     4  10  24  44  66  92 128 173 213 258 317 375
#     4  11  25  43  65  95 132 167 212 264 315 379
#
# _framework density 23.406656999999999
#
# number of rings (size 3 to 8) (size 9 to 14) (size 15 to 20)
#    0.000    1.333    0.000    4.000    0.000   20.000 
#    0.000    0.000    0.000    0.000    0.000    0.000 
#    0.000    0.000    0.000    0.000    0.000    0.000 
#
# Total GULP energy -148778.153335 kJ/mol
# GULP energy per Si atom -12398.179445 kJ/mol
# Density = 2.335338 g / cm^3
# Si number density = 23.406657 Si / 1000 Ang^3
#
#
#
# Elastic Constant Matrix: (Units=GPa)
#
#
# Indices 1 2 3 4 5 6 
#
# 1 171.8316 44.5539 31.5481 -15.1771 11.4752 -24.8767
# 2 44.5539 117.1681 40.0426 -2.3160 10.7825 4.3358
# 3 31.5481 40.0426 59.8428 -14.5784 2.5755 -6.6512
# 4 -15.1771 -2.3160 -14.5784 39.6200 -11.3726 5.6879
# 5 11.4752 10.7825 2.5755 -11.3726 35.2499 -7.3001
# 6 -24.8767 4.3358 -6.6512 5.6879 -7.3001 27.7318
#
#
#
# Elastic Compliance Matrix: (Units=1/GPa)
#
#
# Indices 1 2 3 4 5 6 
#
# 1 0.007905 -0.002900 -0.001080 0.001550 0.000355 0.007062
# 2 -0.002900 0.013419 -0.009052 -0.004132 -0.005373 -0.007438
# 3 -0.001080 -0.009052 0.026067 0.009338 0.005520 0.006236
# 4 0.001550 -0.004132 0.009338 0.031970 0.010491 0.000480
# 5 0.000355 -0.005373 0.005520 0.010491 0.034846 0.009503
# 6 0.007062 -0.007438 0.006236 0.000480 0.009503 0.047456
#
#
# Mechanical properties :
#
#
# Convention : Reuss Voigt Hill
#
# Bulk Modulus (GPa) = 46.88865 64.57020 55.72942
# Shear Modulus (GPa) = 25.66233 36.03354 30.84793
#
# Velocity S-wave (km/s) = 3.31474 3.92785 3.63425
# Velocity P-wave (km/s) = 5.89285 6.94383 6.43982
#
# Compressibility (1/GPa) = 0.02132712
#
# Stress axis : x y z
#
# Youngs Moduli (GPa) = 126.49495 74.51995 38.36250
#
# Poissons Ratio (x) = 0.21614 0.04142
# Poissons Ratio (y) = 0.36689 0.34726
# Poissons Ratio (z) = 0.13659 0.67456
#
# Static dielectric constant tensor:
#      x y z
#    x 3.764170 -0.133340 0.402320 
#    y -0.133340 4.257480 0.234400 
#    z 0.402320 0.234400 3.871180 
# 
# 
# High freq. dielectric constant tensor:
#      x y z
#    x 1.930240 -0.008720 0.005000 
#    y -0.008720 1.929770 0.009090 
#    z 0.005000 0.009090 1.920570 
# 
# From -- ./inp_files/20975.got.cif
#   From: 2010.06.25/outbox.cif.g09.slc.cpg/sg2_11_cif.got.tgz:20975.got - 2010.06.27 13:26:56.
