data_PCOD8023848
_publ_section_title
;
Structure prediction by ZEFSAII (Michael W. Deem and Ramdas Pophale) SiO2 
 PCOD8023848
Probable space group: P -1
;
_chemical_formula_sum "Si O2"
_cell_formula_units_Z 10
_cell_length_a 7.971777
_cell_length_b 11.853812
_cell_length_c 8.639580
_cell_angle_alpha 119.251439
_cell_angle_beta 50.285546
_cell_angle_gamma 140.197139
_cell_volume 402.015406
_symmetry_space_group_name_H-M "P -1"
_symmetry_group_IT_number 2
_symmetry_cell_setting 'triclinic'
loop_
_space_group_symop_operation_xyz
x,y,z
-x,-y,-z
loop_
_atom_site_type_symbol
_atom_site_label
_atom_site_fract_x
_atom_site_fract_y
_atom_site_fract_z
Si Si1 0.689033 0.335118 0.240526
Si Si2 0.654461 0.381463 0.628751
Si Si3 0.682667 0.968959 0.276901
Si Si4 0.179418 0.000478 0.123701
Si Si5 0.798931 0.609941 0.144607
O O1 0.543895 0.285382 0.461185
O O2 0.478664 0.160571 0.142073
O O3 0.736631 0.499881 0.259647
O O4 0.018652 0.402401 0.095927
O O5 0.516958 0.240928 0.752574
O O6 0.524306 0.474642 0.788667
O O7 0.000000 0.500000 0.500000
O O8 0.500000 0.000000 0.500000
O O9 0.737113 0.035034 0.113112
O O10 0.991702 0.055948 0.238423
O O11 0.988753 0.817712 0.209941
#
# Coordination Sequence:
#
# PCOD8023848 Si02
#       5
#     2   2   2   2   2
#     4  11  24  43  70  96 129 179 213 271 329 383
#     4  11  26  43  64  99 135 169 220 271 324 389
#     4  10  23  42  66  98 132 171 211 274 329 380
#     4  10  23  44  67  97 131 168 224 266 322 393
#     4  10  24  43  68  98 128 171 221 268 326 385
#
# _framework density 24.874669000000001
#
# number of rings (size 3 to 8) (size 9 to 14) (size 15 to 20)
#    0.000    1.600    0.000    2.400    8.400    5.600 
#    0.000    0.000    0.000    0.000    0.000    0.000 
#    0.000    0.000    0.000    0.000    0.000    0.000 
#
# Total GULP energy -123940.997900 kJ/mol
# GULP energy per Si atom -12394.099790 kJ/mol
# Density = 2.481805 g / cm^3
# Si number density = 24.874669 Si / 1000 Ang^3
#
#
#
# Elastic Constant Matrix: (Units=GPa)
#
#
# Indices 1 2 3 4 5 6 
#
# 1 110.8209 39.2958 32.8357 -2.5542 -46.4284 1.5128
# 2 39.2958 105.0946 12.7490 -13.2769 1.4813 -11.3617
# 3 32.8357 12.7490 94.6670 -3.5035 -31.1936 4.4732
# 4 -2.5542 -13.2769 -3.5035 31.3109 -0.7061 -8.8608
# 5 -46.4284 1.4813 -31.1936 -0.7061 55.9497 -6.3215
# 6 1.5128 -11.3617 4.4732 -8.8608 -6.3215 31.5710
#
#
#
# Elastic Compliance Matrix: (Units=1/GPa)
#
#
# Indices 1 2 3 4 5 6 
#
# 1 0.017723 -0.007062 -0.000419 -0.001506 0.014546 -0.000841
# 2 -0.007062 0.013964 -0.001552 0.006792 -0.006306 0.006227
# 3 -0.000419 -0.001552 0.013297 0.000724 0.007024 -0.000813
# 4 -0.001506 0.006792 0.000724 0.038603 0.000981 0.013444
# 5 0.014546 -0.006306 0.007024 0.000981 0.034401 0.003202
# 6 -0.000841 0.006227 -0.000813 0.013444 0.003202 0.038486
#
#
# Mechanical properties :
#
#
# Convention : Reuss Voigt Hill
#
# Bulk Modulus (GPa) = 37.14929 53.37151 45.26040
# Shear Modulus (GPa) = 27.24610 38.81309 33.02960
#
# Velocity S-wave (km/s) = 3.31318 3.95441 3.64791
# Velocity P-wave (km/s) = 5.44088 6.50788 5.99815
#
# Compressibility (1/GPa) = 0.02691842
#
# Stress axis : x y z
#
# Youngs Moduli (GPa) = 56.42480 71.61199 75.20224
#
# Poissons Ratio (x) = 0.50573 0.03152
# Poissons Ratio (y) = 0.39848 0.11670
# Poissons Ratio (z) = 0.02365 0.11113
#
# Static dielectric constant tensor:
#      x y z
#    x 4.737900 -0.282870 -0.325950 
#    y -0.282870 4.403490 -0.371580 
#    z -0.325950 -0.371580 4.764690 
# 
# 
# High freq. dielectric constant tensor:
#      x y z
#    x 1.997290 -0.018030 -0.030440 
#    y -0.018030 1.980550 -0.026450 
#    z -0.030440 -0.026450 1.994470 
# 
# From -- ./inp_files/143743.got.cif
#   From: 2010.06.25/outbox.cif.g09.slc.cpg/sg2_72_cif.got.tgz:143743.got - 2010.06.27 13:26:56.
