data_PCOD8023198
_publ_section_title
;
Structure prediction by ZEFSAII (Michael W. Deem and Ramdas Pophale) SiO2 
 PCOD8023198
Probable space group: P -1
;
_chemical_formula_sum "Si O2"
_cell_formula_units_Z 16
_cell_length_a 14.123879
_cell_length_b 8.120120
_cell_length_c 9.073239
_cell_angle_alpha 91.800696
_cell_angle_beta 81.516825
_cell_angle_gamma 43.932950
_cell_volume 699.562301
_symmetry_space_group_name_H-M "P -1"
_symmetry_group_IT_number 2
_symmetry_cell_setting 'triclinic'
loop_
_space_group_symop_operation_xyz
x,y,z
-x,-y,-z
loop_
_atom_site_type_symbol
_atom_site_label
_atom_site_fract_x
_atom_site_fract_y
_atom_site_fract_z
Si Si1 0.300981 0.905688 0.493235
Si Si2 0.362700 0.125568 0.948991
Si Si3 0.794825 0.843953 0.764168
Si Si4 0.948219 0.657263 0.234227
Si Si5 0.208505 0.662577 0.419537
Si Si6 0.504834 0.848965 0.612978
Si Si7 0.098168 0.616524 0.942857
Si Si8 0.984431 0.920624 0.723059
O O1 0.283410 0.739002 0.448576
O O2 0.445660 0.758171 0.543874
O O3 0.306400 0.018578 0.350997
O O4 0.167102 0.121602 0.627889
O O5 0.257541 0.416378 0.965278
O O6 0.400459 0.012018 0.776314
O O7 0.288359 0.076625 0.061189
O O8 0.500000 0.000000 0.000000
O O9 0.873102 0.916781 0.759551
O O10 0.909043 0.553203 0.709316
O O11 0.902341 0.543283 0.167932
O O12 0.981704 0.747964 0.101086
O O13 0.336688 0.372544 0.365717
O O14 0.104363 0.731120 0.571363
O O15 0.111222 0.800751 0.296559
O O16 0.500000 0.000000 0.500000
O O17 0.061994 0.828190 0.862527
#
# Coordination Sequence:
#
# PCOD8023198 Si02
#       8
#     2   2   2   2   2   2   2   2
#     4  11  21  39  62  96 129 167 207 255 319 374
#     4  11  22  40  60  97 131 160 210 269 311 372
#     4   9  20  36  63  92 125 165 210 256 311 365
#     4   9  17  32  62  93 125 157 207 259 306 363
#     4  10  23  41  61  95 128 166 209 261 309 379
#     4  12  25  41  69  91 126 169 212 255 318 380
#     4   9  17  35  62  91 120 165 208 258 307 365
#     4   9  19  40  64  80 129 163 210 257 310 360
#
# _framework density 22.871445000000001
#
# number of rings (size 3 to 8) (size 9 to 14) (size 15 to 20)
#    0.000    2.000    1.250    3.000    1.750    0.000 
#   15.750    3.125    5.500    0.000    0.000    0.000 
#    0.000    0.000    0.000    0.000    0.000    0.000 
#
# Total GULP energy -198258.560057 kJ/mol
# GULP energy per Si atom -12391.160004 kJ/mol
# Density = 2.281939 g / cm^3
# Si number density = 22.871445 Si / 1000 Ang^3
#
#
#
# Elastic Constant Matrix: (Units=GPa)
#
#
# Indices 1 2 3 4 5 6 
#
# 1 50.1549 19.7898 16.1154 -12.8329 -14.0063 -17.3021
# 2 19.7898 124.0089 64.3821 -22.7888 -19.1247 -25.6483
# 3 16.1154 64.3821 132.2684 -21.5695 -30.4179 -3.5442
# 4 -12.8329 -22.7888 -21.5695 42.2192 -1.2643 3.6975
# 5 -14.0063 -19.1247 -30.4179 -1.2643 34.9883 -1.0870
# 6 -17.3021 -25.6483 -3.5442 3.6975 -1.0870 35.5873
#
#
#
# Elastic Compliance Matrix: (Units=1/GPa)
#
#
# Indices 1 2 3 4 5 6 
#
# 1 0.031293 0.002221 0.000686 0.010089 0.015208 0.016299
# 2 0.002221 0.014063 -0.004921 0.004988 0.004799 0.010353
# 3 0.000686 -0.004921 0.012491 0.004379 0.008535 -0.002163
# 4 0.010089 0.004988 0.004379 0.031511 0.011898 0.006026
# 5 0.015208 0.004799 0.008535 0.011898 0.045511 0.011857
# 6 0.016299 0.010353 -0.002163 0.006026 0.011857 0.043006
#
#
# Mechanical properties :
#
#
# Convention : Reuss Voigt Hill
#
# Bulk Modulus (GPa) = 18.58143 56.33409 37.45776
# Shear Modulus (GPa) = 25.01969 36.30195 30.66082
#
# Velocity S-wave (km/s) = 3.31104 3.98831 3.66535
# Velocity P-wave (km/s) = 4.77067 6.77444 5.85885
#
# Compressibility (1/GPa) = 0.05381718
#
# Stress axis : x y z
#
# Youngs Moduli (GPa) = 31.95624 71.11111 80.05717
#
# Poissons Ratio (x) = -0.15791 -0.05490
# Poissons Ratio (y) = -0.07096 0.39396
# Poissons Ratio (z) = -0.02191 0.34993
#
# Static dielectric constant tensor:
#      x y z
#    x 4.072460 -0.351960 -0.143770 
#    y -0.351960 4.751670 -0.711950 
#    z -0.143770 -0.711950 4.653310 
# 
# 
# High freq. dielectric constant tensor:
#      x y z
#    x 1.892040 -0.020630 -0.011280 
#    y -0.020630 1.902390 -0.024650 
#    z -0.011280 -0.024650 1.909080 
# 
# From -- ./inp_files/209371.got.cif
#   From: 2010.06.25/outbox.cif.g09.slc.cpg/sg2_105_cif.got.tgz:209371.got - 2010.06.27 13:26:56.
