data_PCOD8023368
_publ_section_title
;
Structure prediction by ZEFSAII (Michael W. Deem and Ramdas Pophale) SiO2 
 PCOD8023368
Probable space group: P -1
;
_chemical_formula_sum "Si O2"
_cell_formula_units_Z 14
_cell_length_a 12.520133
_cell_length_b 8.089028
_cell_length_c 11.483393
_cell_angle_alpha 50.397263
_cell_angle_beta 134.184288
_cell_angle_gamma 115.900792
_cell_volume 642.509397
_symmetry_space_group_name_H-M "P -1"
_symmetry_group_IT_number 2
_symmetry_cell_setting 'triclinic'
loop_
_space_group_symop_operation_xyz
x,y,z
-x,-y,-z
loop_
_atom_site_type_symbol
_atom_site_label
_atom_site_fract_x
_atom_site_fract_y
_atom_site_fract_z
Si Si1 0.532804 0.239171 0.949254
Si Si2 0.947447 0.758284 0.727355
Si Si3 0.985426 0.525997 0.287615
Si Si4 0.442275 0.720654 0.306988
Si Si5 0.118952 0.709433 0.099671
Si Si6 0.244154 0.503530 0.675111
Si Si7 0.312965 0.920199 0.651898
O O1 0.448097 0.084657 0.667725
O O2 0.385769 0.349692 0.840604
O O3 0.663151 0.231975 0.147901
O O4 0.500000 0.000000 0.000000
O O5 0.043867 0.686297 0.718970
O O6 0.859158 0.546217 0.799175
O O7 0.841095 0.949895 0.518689
O O8 0.046455 0.835946 0.877639
O O9 0.017800 0.727305 0.133305
O O10 0.137158 0.478059 0.495264
O O11 0.845385 0.570310 0.243846
O O12 0.500000 0.500000 0.500000
O O13 0.284454 0.797363 0.207161
O O14 0.417904 0.656970 0.181168
O O15 0.299864 0.749877 0.613036
#
# Coordination Sequence:
#
# PCOD8023368 Si02
#       7
#     2   2   2   2   2   2   2
#     4  10  23  41  66  89 126 174 220 262 322 389
#     4   9  19  40  67  93 122 172 223 254 316 386
#     4   9  20  40  66  88 129 175 209 267 324 381
#     4  11  20  40  69  92 131 171 222 265 316 392
#     4   9  19  39  69  94 122 176 220 263 316 387
#     4  11  22  40  63  96 136 167 213 276 324 383
#     4  11  23  39  62 101 130 170 220 264 325 380
#
# _framework density 21.789563999999999
#
# number of rings (size 3 to 8) (size 9 to 14) (size 15 to 20)
#    0.857    1.143    1.429    3.000    2.000    0.571 
#   10.286    3.571    6.286    0.000    0.000    0.000 
#    0.000    0.000    0.000    0.000    0.000    0.000 
#
# Total GULP energy -173433.511451 kJ/mol
# GULP energy per Si atom -12388.107961 kJ/mol
# Density = 2.173997 g / cm^3
# Si number density = 21.789564 Si / 1000 Ang^3
#
#
#
# Elastic Constant Matrix: (Units=GPa)
#
#
# Indices 1 2 3 4 5 6 
#
# 1 113.5918 29.6177 43.7817 2.8519 -4.1286 -7.9508
# 2 29.6177 63.5611 18.1317 -2.2350 -4.5628 -3.7716
# 3 43.7817 18.1317 131.9517 3.4678 -8.1545 -7.0099
# 4 2.8519 -2.2350 3.4678 28.3783 -8.7230 4.9831
# 5 -4.1286 -4.5628 -8.1545 -8.7230 31.5671 2.6367
# 6 -7.9508 -3.7716 -7.0099 4.9831 2.6367 32.8159
#
#
#
# Elastic Compliance Matrix: (Units=1/GPa)
#
#
# Indices 1 2 3 4 5 6 
#
# 1 0.011261 -0.004367 -0.003028 -0.001599 -0.000538 0.001865
# 2 -0.004367 0.018340 -0.000973 0.002754 0.002571 0.000217
# 3 -0.003028 -0.000973 0.008880 -0.000570 0.001515 0.001016
# 4 -0.001599 0.002754 -0.000570 0.040621 0.011878 -0.007315
# 5 -0.000538 0.002571 0.001515 0.011878 0.036005 -0.004208
# 6 0.001865 0.000217 0.001016 -0.007315 -0.004208 0.032616
#
#
# Mechanical properties :
#
#
# Convention : Reuss Voigt Hill
#
# Bulk Modulus (GPa) = 45.99248 54.68519 50.33884
# Shear Modulus (GPa) = 29.11951 33.05718 31.08834
#
# Velocity S-wave (km/s) = 3.65964 3.89924 3.78134
# Velocity P-wave (km/s) = 6.24586 6.73970 6.49747
#
# Compressibility (1/GPa) = 0.02174268
#
# Stress axis : x y z
#
# Youngs Moduli (GPa) = 88.80583 54.52611 112.61785
#
# Poissons Ratio (x) = 0.23814 0.34104
# Poissons Ratio (y) = 0.38785 0.10957
# Poissons Ratio (z) = 0.26893 0.05305
#
# Static dielectric constant tensor:
#      x y z
#    x -15.347630 28.084510 39.937780 
#    y 28.084510 -37.366220 -58.509190 
#    z 39.937780 -58.509190 -80.004630 
# 
# 
# High freq. dielectric constant tensor:
#      x y z
#    x 1.845170 0.004450 -0.000730 
#    y 0.004450 1.834450 0.013210 
#    z -0.000730 0.013210 1.870390 
# 
# From -- ./inp_files/233644.got.cif
#   From: 2010.06.25/outbox.cif.g09.slc.cpg/sg2_117_cif.got.tgz:233644.got - 2010.06.27 13:26:56.
