data_PCOD8023106
_publ_section_title
;
Structure prediction by ZEFSAII (Michael W. Deem and Ramdas Pophale) SiO2 
 PCOD8023106
Probable space group: P -1
;
_chemical_formula_sum "Si O2"
_cell_formula_units_Z 14
_cell_length_a 8.170085
_cell_length_b 5.412747
_cell_length_c 18.790453
_cell_angle_alpha 99.322774
_cell_angle_beta 135.073397
_cell_angle_gamma 95.304604
_cell_volume 552.900575
_symmetry_space_group_name_H-M "P -1"
_symmetry_group_IT_number 2
_symmetry_cell_setting 'triclinic'
loop_
_space_group_symop_operation_xyz
x,y,z
-x,-y,-z
loop_
_atom_site_type_symbol
_atom_site_label
_atom_site_fract_x
_atom_site_fract_y
_atom_site_fract_z
Si Si1 0.342964 0.100308 0.545914
Si Si2 0.708695 0.370120 0.567054
Si Si3 0.409508 0.195888 0.027514
Si Si4 0.871616 0.655249 0.174455
Si Si5 0.309428 0.609286 0.226366
Si Si6 0.932432 0.139374 0.319925
Si Si7 0.383336 0.074214 0.169612
O O1 0.606265 0.167175 0.589808
O O2 0.419265 0.231952 0.652517
O O3 0.124320 0.189302 0.447238
O O4 0.254395 0.782240 0.501223
O O5 0.500000 0.500000 0.500000
O O6 0.965033 0.582971 0.678621
O O7 0.642956 0.441034 0.129590
O O8 0.298963 0.052052 0.060200
O O9 0.205665 0.271229 0.923919
O O10 0.500000 0.000000 0.000000
O O11 0.102310 0.557442 0.221041
O O12 0.945096 0.897420 0.263665
O O13 0.312778 0.321090 0.191194
O O14 0.254870 0.795638 0.155634
O O15 0.669278 0.115709 0.266352
#
# Coordination Sequence:
#
# PCOD8023106 Si02
#       7
#     2   2   2   2   2   2   2
#     4  10  23  40  68 106 149 194 253 295 359 436
#     4   9  19  37  67 102 135 188 260 302 336 419
#     4  11  26  51  82 106 137 191 263 309 369 446
#     4  11  26  48  83 109 140 197 255 313 367 443
#     4  12  30  48  72 115 162 194 238 306 391 439
#     4  11  24  44  77 102 146 201 258 297 353 443
#     4  12  30  48  71 113 158 194 245 309 382 447
#
# _framework density 25.321009
#
# number of rings (size 3 to 8) (size 9 to 14) (size 15 to 20)
#    0.000    1.143    1.429    3.429   16.000    2.286 
#    0.000    0.000    0.000    0.000    0.000    0.000 
#    0.000    0.000    0.000    0.000    0.000    0.000 
#
# Total GULP energy -173440.878812 kJ/mol
# GULP energy per Si atom -12388.634201 kJ/mol
# Density = 2.526338 g / cm^3
# Si number density = 25.321009 Si / 1000 Ang^3
#
#
#
# Elastic Constant Matrix: (Units=GPa)
#
#
# Indices 1 2 3 4 5 6 
#
# 1 74.9720 29.5373 -1.7022 -2.1873 -2.9155 -17.9493
# 2 29.5373 105.9388 -2.5944 18.6608 -10.8590 -18.1138
# 3 -1.7022 -2.5944 87.1452 -16.2634 -16.5536 -11.5758
# 4 -2.1873 18.6608 -16.2634 37.8390 -2.9724 -8.1594
# 5 -2.9155 -10.8590 -16.5536 -2.9724 40.6587 -2.3428
# 6 -17.9493 -18.1138 -11.5758 -8.1594 -2.3428 48.1561
#
#
#
# Elastic Compliance Matrix: (Units=1/GPa)
#
#
# Indices 1 2 3 4 5 6 
#
# 1 0.016857 -0.004383 0.002434 0.005676 0.001805 0.006269
# 2 -0.004383 0.012302 0.000033 -0.005624 0.002700 0.002180
# 3 0.002434 0.000033 0.015436 0.008743 0.007480 0.006476
# 4 0.005676 -0.005624 0.008743 0.035532 0.005546 0.008392
# 5 0.001805 0.002700 0.007480 0.005546 0.029233 0.005848
# 6 0.006269 0.002180 0.006476 0.008392 0.005848 0.027186
#
#
# Mechanical properties :
#
#
# Convention : Reuss Voigt Hill
#
# Bulk Modulus (GPa) = 24.53175 35.39304 29.96240
# Shear Modulus (GPa) = 32.47442 41.51842 36.99642
#
# Velocity S-wave (km/s) = 3.58510 4.05369 3.82658
# Velocity P-wave (km/s) = 5.18137 5.99316 5.60199
#
# Compressibility (1/GPa) = 0.04076349
#
# Stress axis : x y z
#
# Youngs Moduli (GPa) = 59.32208 81.28433 64.78225
#
# Poissons Ratio (x) = 0.35629 -0.15765
# Poissons Ratio (y) = 0.26003 -0.00217
# Poissons Ratio (z) = -0.14437 -0.00272
#
# Static dielectric constant tensor:
#      x y z
#    x 5.068580 0.815620 0.488530 
#    y 0.815620 5.488710 0.391820 
#    z 0.488530 0.391820 4.785650 
# 
# 
# High freq. dielectric constant tensor:
#      x y z
#    x 1.992150 -0.003380 0.006310 
#    y -0.003380 2.023740 -0.002640 
#    z 0.006310 -0.002640 2.027570 
# 
# From -- ./inp_files/585807.got.cif
#   From: 2010.06.25/outbox.cif.g09.slc.cpg/sg2_293_cif.got.tgz:585807.got - 2010.06.27 13:26:56.
