data_PCOD8023552
_publ_section_title
;
Structure prediction by ZEFSAII (Michael W. Deem and Ramdas Pophale) SiO2 
 PCOD8023552
Probable space group: P -1
;
_chemical_formula_sum "Si O2"
_cell_formula_units_Z 16
_cell_length_a 22.005429
_cell_length_b 9.757321
_cell_length_c 6.886061
_cell_angle_alpha 132.353906
_cell_angle_beta 97.347000
_cell_angle_gamma 51.757754
_cell_volume 744.091397
_symmetry_space_group_name_H-M "P -1"
_symmetry_group_IT_number 2
_symmetry_cell_setting 'triclinic'
loop_
_space_group_symop_operation_xyz
x,y,z
-x,-y,-z
loop_
_atom_site_type_symbol
_atom_site_label
_atom_site_fract_x
_atom_site_fract_y
_atom_site_fract_z
Si Si1 0.640020 0.713362 0.198459
Si Si2 0.957743 0.391820 0.345431
Si Si3 0.756306 0.572586 0.777208
Si Si4 0.314181 0.578089 0.668841
Si Si5 0.429527 0.790250 0.144948
Si Si6 0.041347 0.926833 0.654646
Si Si7 0.242655 0.105206 0.195336
Si Si8 0.541475 0.726281 0.838975
O O1 0.678521 0.507558 0.191886
O O2 0.572182 0.018135 0.542991
O O3 0.719479 0.644982 0.050645
O O4 0.596322 0.657725 0.988866
O O5 0.979957 0.212849 0.367571
O O6 0.851039 0.635926 0.494214
O O7 0.000000 0.500000 0.500000
O O8 0.001703 0.199902 0.993784
O O9 0.698195 0.573250 0.613149
O O10 0.854305 0.274151 0.522323
O O11 0.747977 0.798816 0.907743
O O12 0.401022 0.488269 0.520600
O O13 0.236083 0.902973 0.940723
O O14 0.327530 0.940789 0.220289
O O15 0.500000 0.500000 0.000000
O O16 0.465630 0.751386 0.904475
O O17 0.000000 0.000000 0.500000
O O18 0.500000 0.000000 0.000000
#
# Coordination Sequence:
#
# PCOD8023552 Si02
#       8
#     2   2   2   2   2   2   2   2
#     4  11  23  42  65  89 131 174 219 274 325 384
#     4  10  23  45  70 100 138 171 221 277 336 409
#     4  10  23  43  65  97 131 169 217 272 326 398
#     4  11  23  43  65  91 129 173 222 268 327 381
#     4  12  25  39  62  97 130 174 226 268 322 385
#     4  10  23  41  70 102 133 174 215 272 347 405
#     4  11  24  43  66  96 131 175 216 273 329 387
#     4  11  23  41  61  87 124 174 221 270 327 378
#
# _framework density 21.502735000000001
#
# number of rings (size 3 to 8) (size 9 to 14) (size 15 to 20)
#    0.000    1.250    2.500    2.625    5.250    3.000 
#    0.000    0.000    0.000    0.000    0.000    0.000 
#    0.000    0.000    0.000    0.000    0.000    0.000 
#
# Total GULP energy -198345.797085 kJ/mol
# GULP energy per Si atom -12396.612318 kJ/mol
# Density = 2.145379 g / cm^3
# Si number density = 21.502735 Si / 1000 Ang^3
#
#
#
# Elastic Constant Matrix: (Units=GPa)
#
#
# Indices 1 2 3 4 5 6 
#
# 1 91.4287 50.5118 34.1929 1.6946 -10.7776 8.7501
# 2 50.5118 142.0421 75.6940 6.2080 -9.9454 8.8368
# 3 34.1929 75.6940 117.6227 5.9108 -15.7321 16.1193
# 4 1.6946 6.2080 5.9108 43.4158 3.0397 1.5049
# 5 -10.7776 -9.9454 -15.7321 3.0397 39.0437 5.1462
# 6 8.7501 8.8368 16.1193 1.5049 5.1462 34.1859
#
#
#
# Elastic Compliance Matrix: (Units=1/GPa)
#
#
# Indices 1 2 3 4 5 6 
#
# 1 0.014159 -0.004375 -0.000544 0.000035 0.002925 -0.002678
# 2 -0.004375 0.012091 -0.006802 -0.000610 -0.001003 0.001379
# 3 -0.000544 -0.006802 0.014503 -0.001121 0.004788 -0.005612
# 4 0.000035 -0.000610 -0.001121 0.023441 -0.002424 0.000010
# 5 0.002925 -0.001003 0.004788 -0.002424 0.029210 -0.007038
# 6 -0.002678 0.001379 -0.005612 0.000010 -0.007038 0.033286
#
#
# Mechanical properties :
#
#
# Convention : Reuss Voigt Hill
#
# Bulk Modulus (GPa) = 57.76608 74.65455 66.21032
# Shear Modulus (GPa) = 32.07146 36.04206 34.05676
#
# Velocity S-wave (km/s) = 3.86619 4.09854 3.98406
# Velocity P-wave (km/s) = 6.84491 7.56250 7.21263
#
# Compressibility (1/GPa) = 0.01731120
#
# Stress axis : x y z
#
# Youngs Moduli (GPa) = 70.62875 82.70370 68.95172
#
# Poissons Ratio (x) = 0.36185 0.03749
# Poissons Ratio (y) = 0.30902 0.46900
# Poissons Ratio (z) = 0.03840 0.56253
#
# Static dielectric constant tensor:
#      x y z
#    x 3.949770 0.130290 -0.206690 
#    y 0.130290 3.473460 0.755240 
#    z -0.206690 0.755240 2.594800 
# 
# 
# High freq. dielectric constant tensor:
#      x y z
#    x 1.842690 0.010120 -0.011740 
#    y 0.010120 1.846260 0.008120 
#    z -0.011740 0.008120 1.853330 
# 
# From -- ./inp_files/123003.got.cif
#   From: 2010.06.25/outbox.cif.g09.slc.cpg/sg2_62_cif.got.tgz:123003.got - 2010.06.27 13:26:56.
