data_PCOD8023507
_publ_section_title
;
Structure prediction by ZEFSAII (Michael W. Deem and Ramdas Pophale) SiO2 
 PCOD8023507
Probable space group: P -1
;
_chemical_formula_sum "Si O2"
_cell_formula_units_Z 14
_cell_length_a 17.801918
_cell_length_b 25.488756
_cell_length_c 9.033119
_cell_angle_alpha 35.810822
_cell_angle_beta 153.146300
_cell_angle_gamma 159.979897
_cell_volume 623.896591
_symmetry_space_group_name_H-M "P -1"
_symmetry_group_IT_number 2
_symmetry_cell_setting 'triclinic'
loop_
_space_group_symop_operation_xyz
x,y,z
-x,-y,-z
loop_
_atom_site_type_symbol
_atom_site_label
_atom_site_fract_x
_atom_site_fract_y
_atom_site_fract_z
Si Si1 0.437648 0.272481 0.228918
Si Si2 0.245041 0.457288 0.631478
Si Si3 0.079103 0.404997 0.132545
Si Si4 0.574725 0.301146 0.087277
Si Si5 0.116431 0.228495 0.531946
Si Si6 0.394976 0.857124 0.693633
Si Si7 0.576213 0.900134 0.236221
O O1 0.687519 0.428991 0.405799
O O2 0.599251 0.296955 0.316629
O O3 0.281670 0.130680 0.385169
O O4 0.191463 0.231969 0.826636
O O5 0.227136 0.484350 0.370580
O O6 0.944668 0.281896 0.556212
O O7 0.500000 0.500000 0.000000
O O8 0.201804 0.370672 0.343220
O O9 0.740281 0.238047 0.934153
O O10 0.144859 0.522980 0.883929
O O11 0.535819 0.187301 0.205671
O O12 0.301509 0.248551 0.697032
O O13 0.776239 0.067436 0.269536
O O14 0.500000 0.000000 0.500000
O O15 0.566427 0.901989 0.038285
#
# Coordination Sequence:
#
# PCOD8023507 Si02
#       7
#     2   2   2   2   2   2   2
#     4  10  23  41  69  96 133 175 219 261 329 385
#     4  11  22  42  68  93 128 174 219 268 317 392
#     4  11  22  42  68 101 130 172 221 266 327 384
#     4  10  24  42  65  97 133 168 221 265 324 389
#     4  10  23  41  68  98 135 175 213 265 326 391
#     4  11  27  45  65  98 131 172 221 275 334 381
#     4  11  24  42  66  95 134 173 219 272 321 388
#
# _framework density 22.439616000000001
#
# number of rings (size 3 to 8) (size 9 to 14) (size 15 to 20)
#    0.857    0.571    1.429    3.000    0.000   12.000 
#    0.000    0.000    0.000    0.000    0.000    0.000 
#    0.000    0.000    0.000    0.000    0.000    0.000 
#
# Total GULP energy -173540.936379 kJ/mol
# GULP energy per Si atom -12395.781170 kJ/mol
# Density = 2.238854 g / cm^3
# Si number density = 22.439616 Si / 1000 Ang^3
#
#
#
# Elastic Constant Matrix: (Units=GPa)
#
#
# Indices 1 2 3 4 5 6 
#
# 1 111.6317 69.5808 31.4147 -4.1723 -8.2760 -15.0668
# 2 69.5808 148.1786 32.3154 -8.0336 -17.9482 -24.2545
# 3 31.4147 32.3154 69.5422 7.3252 -11.6428 -11.5248
# 4 -4.1723 -8.0336 7.3252 47.8005 -3.2068 1.4207
# 5 -8.2760 -17.9482 -11.6428 -3.2068 36.3389 -3.4173
# 6 -15.0668 -24.2545 -11.5248 1.4207 -3.4173 34.6682
#
#
#
# Elastic Compliance Matrix: (Units=1/GPa)
#
#
# Indices 1 2 3 4 5 6 
#
# 1 0.013447 -0.005444 -0.003609 0.000746 -0.000647 0.000741
# 2 -0.005444 0.011088 -0.001235 0.001720 0.004497 0.005354
# 3 -0.003609 -0.001235 0.018390 -0.003160 0.004582 0.004263
# 4 0.000746 0.001720 -0.003160 0.021894 0.001918 -0.000231
# 5 -0.000647 0.004497 0.004582 0.001918 0.031931 0.007457
# 6 0.000741 0.005354 0.004263 -0.000231 0.007457 0.035074
#
#
# Mechanical properties :
#
#
# Convention : Reuss Voigt Hill
#
# Bulk Modulus (GPa) = 44.74067 66.21938 55.48002
# Shear Modulus (GPa) = 31.27941 36.83094 34.05518
#
# Velocity S-wave (km/s) = 3.73760 4.05574 3.89991
# Velocity P-wave (km/s) = 6.21351 7.17677 6.71244
#
# Compressibility (1/GPa) = 0.02235103
#
# Stress axis : x y z
#
# Youngs Moduli (GPa) = 74.36764 90.18433 54.37701
#
# Poissons Ratio (x) = 0.49094 0.19624
# Poissons Ratio (y) = 0.40484 0.06713
# Poissons Ratio (z) = 0.26838 0.11134
#
# Static dielectric constant tensor:
#      x y z
#    x 3.930410 -0.151510 -0.120930 
#    y -0.151510 4.065760 -0.035770 
#    z -0.120930 -0.035770 4.129950 
# 
# 
# High freq. dielectric constant tensor:
#      x y z
#    x 1.873180 -0.010030 -0.003160 
#    y -0.010030 1.888900 0.001280 
#    z -0.003160 0.001280 1.890460 
# 
# From -- ./inp_files/338669.got.cif
#   From: 2010.06.25/outbox.cif.g09.slc.cpg/sg2_170_cif.got.tgz:338669.got - 2010.06.27 13:26:56.
