data_PCOD8023209
_publ_section_title
;
Structure prediction by ZEFSAII (Michael W. Deem and Ramdas Pophale) SiO2 
 PCOD8023209
Probable space group: P -1
;
_chemical_formula_sum "Si O2"
_cell_formula_units_Z 16
_cell_length_a 12.120365
_cell_length_b 27.891655
_cell_length_c 9.241523
_cell_angle_alpha 30.387938
_cell_angle_beta 144.279257
_cell_angle_gamma 152.398190
_cell_volume 717.071941
_symmetry_space_group_name_H-M "P -1"
_symmetry_group_IT_number 2
_symmetry_cell_setting 'triclinic'
loop_
_space_group_symop_operation_xyz
x,y,z
-x,-y,-z
loop_
_atom_site_type_symbol
_atom_site_label
_atom_site_fract_x
_atom_site_fract_y
_atom_site_fract_z
Si Si1 0.185972 0.483434 0.804437
Si Si2 0.216781 0.343662 0.685270
Si Si3 0.856491 0.074236 0.050831
Si Si4 0.469730 0.924362 0.528202
Si Si5 0.535737 0.407669 0.593012
Si Si6 0.893787 0.354403 0.110008
Si Si7 0.916620 0.041345 0.510714
Si Si8 0.308193 0.323792 0.260238
O O1 0.456120 0.615162 0.751939
O O2 0.000000 0.500000 0.500000
O O3 0.197349 0.395025 0.941091
O O4 0.099201 0.422477 0.027753
O O5 0.365228 0.338280 0.730585
O O6 0.386869 0.456179 0.684148
O O7 0.028953 0.362756 0.375569
O O8 0.078125 0.216360 0.951276
O O9 0.770487 0.013868 0.275714
O O10 0.649095 0.059298 0.776824
O O11 0.940604 0.011873 0.207841
O O12 0.316666 0.787626 0.780596
O O13 0.500000 0.000000 0.500000
O O14 0.731262 0.972628 0.625026
O O15 0.393384 0.335058 0.486805
O O16 0.774596 0.418800 0.838024
O O17 0.105625 0.184227 0.370802
#
# Coordination Sequence:
#
# PCOD8023209 Si02
#       8
#     2   2   2   2   2   2   2   2
#     4  11  23  41  63  94 135 165 216 269 331 394
#     4  10  23  41  62  93 135 171 219 273 328 403
#     4  10  25  45  68  97 131 185 221 276 338 393
#     4  11  25  43  70  99 134 177 226 279 332 394
#     4  11  22  39  65  93 133 170 217 272 334 387
#     4  11  22  41  63  96 128 171 219 267 332 394
#     4  11  25  46  69  98 138 175 229 274 332 402
#     4  11  25  39  67  99 129 175 216 275 330 390
#
# _framework density 22.312963
#
# number of rings (size 3 to 8) (size 9 to 14) (size 15 to 20)
#    0.000    1.250    2.500    2.250    7.000    1.500 
#    0.000    5.000    0.000    0.000    0.000    0.000 
#    0.000    0.000    0.000    0.000    0.000    0.000 
#
# Total GULP energy -198413.586411 kJ/mol
# GULP energy per Si atom -12400.849151 kJ/mol
# Density = 2.226218 g / cm^3
# Si number density = 22.312963 Si / 1000 Ang^3
#
#
#
# Elastic Constant Matrix: (Units=GPa)
#
#
# Indices 1 2 3 4 5 6 
#
# 1 125.5716 31.1124 25.4387 0.4788 -1.3447 12.1128
# 2 31.1124 78.8730 5.8031 -11.6790 1.3635 1.9475
# 3 25.4387 5.8031 57.3689 -1.8773 10.2774 3.0861
# 4 0.4788 -11.6790 -1.8773 31.3333 2.6720 1.2916
# 5 -1.3447 1.3635 10.2774 2.6720 37.1920 1.1006
# 6 12.1128 1.9475 3.0861 1.2916 1.1006 34.4925
#
#
#
# Elastic Compliance Matrix: (Units=1/GPa)
#
#
# Indices 1 2 3 4 5 6 
#
# 1 0.010126 -0.003920 -0.004345 -0.001920 0.001935 -0.002936
# 2 -0.003920 0.015054 0.000621 0.005806 -0.001291 0.000295
# 3 -0.004345 0.000621 0.020443 0.002041 -0.005969 -0.000224
# 4 -0.001920 0.005806 0.002041 0.034554 -0.003298 -0.001025
# 5 0.001935 -0.001291 -0.005969 -0.003298 0.028917 -0.000872
# 6 -0.002936 0.000295 -0.000224 -0.001025 -0.000872 0.030092
#
#
# Mechanical properties :
#
#
# Convention : Reuss Voigt Hill
#
# Bulk Modulus (GPa) = 32.96569 42.94688 37.95628
# Shear Modulus (GPa) = 30.37887 33.90083 32.13985
#
# Velocity S-wave (km/s) = 3.69384 3.90209 3.79939
# Velocity P-wave (km/s) = 5.74447 6.29214 6.02453
#
# Compressibility (1/GPa) = 0.03033457
#
# Stress axis : x y z
#
# Youngs Moduli (GPa) = 98.75183 66.42733 48.91589
#
# Poissons Ratio (x) = 0.26040 0.21256
# Poissons Ratio (y) = 0.38712 -0.03037
# Poissons Ratio (z) = 0.42911 -0.04124
#
# Static dielectric constant tensor:
#      x y z
#    x 4.093380 0.228060 -0.083130 
#    y 0.228060 4.591290 -0.726440 
#    z -0.083130 -0.726440 4.669550 
# 
# 
# High freq. dielectric constant tensor:
#      x y z
#    x 1.887220 0.005270 0.000500 
#    y 0.005270 1.875880 -0.000270 
#    z 0.000500 -0.000270 1.886950 
# 
# From -- ./inp_files/285782.got.cif
#   From: 2010.06.25/outbox.cif.g09.slc.cpg/sg2_143_cif.got.tgz:285782.got - 2010.06.27 13:26:56.
