data_PCOD8023716
_publ_section_title
;
Structure prediction by ZEFSAII (Michael W. Deem and Ramdas Pophale) SiO2 
 PCOD8023716
Probable space group: P -1
;
_chemical_formula_sum "Si O2"
_cell_formula_units_Z 16
_cell_length_a 8.450972
_cell_length_b 14.980169
_cell_length_c 12.423314
_cell_angle_alpha 42.909591
_cell_angle_beta 127.948954
_cell_angle_gamma 102.562959
_cell_volume 760.801142
_symmetry_space_group_name_H-M "P -1"
_symmetry_group_IT_number 2
_symmetry_cell_setting 'triclinic'
loop_
_space_group_symop_operation_xyz
x,y,z
-x,-y,-z
loop_
_atom_site_type_symbol
_atom_site_label
_atom_site_fract_x
_atom_site_fract_y
_atom_site_fract_z
Si Si1 0.694965 0.046856 0.542423
Si Si2 0.839670 0.945070 0.924044
Si Si3 0.550780 0.437597 0.903522
Si Si4 0.232678 0.437072 0.592574
Si Si5 0.365600 0.359869 0.094961
Si Si6 0.150260 0.824657 0.858381
Si Si7 0.529600 0.902995 0.995188
Si Si8 0.058092 0.660950 0.146233
O O1 0.594058 0.212703 0.316908
O O2 0.500000 0.000000 0.500000
O O3 0.892752 0.941931 0.638521
O O4 0.779420 0.035584 0.709072
O O5 0.624422 0.970518 0.882029
O O6 0.959513 0.772959 0.104345
O O7 0.000000 0.000000 0.000000
O O8 0.408898 0.474728 0.701034
O O9 0.643333 0.554408 0.873066
O O10 0.379924 0.444677 0.919874
O O11 0.764348 0.280107 0.117912
O O12 0.312518 0.265187 0.764437
O O13 0.000000 0.500000 0.500000
O O14 0.208484 0.506172 0.401389
O O15 0.141269 0.338903 0.011859
O O16 0.289823 0.918643 0.844142
O O17 0.197614 0.716898 0.077049
O O18 0.500000 0.000000 0.000000
#
# Coordination Sequence:
#
# PCOD8023716 Si02
#       8
#     2   2   2   2   2   2   2   2
#     4  11  23  42  66  91 123 179 211 256 327 384
#     4  11  23  41  67  93 129 168 216 261 319 382
#     4  10  24  40  63  95 124 166 211 273 313 376
#     4  11  21  40  71  89 123 173 213 259 321 382
#     4  11  22  43  63  90 131 165 220 254 318 393
#     4  10  23  42  64  93 132 165 212 276 317 372
#     4  11  23  42  62  99 133 158 214 274 321 375
#     4  11  21  42  66  91 127 169 214 263 318 385
#
# _framework density 21.030462
#
# number of rings (size 3 to 8) (size 9 to 14) (size 15 to 20)
#    0.000    1.250    5.000    2.250    1.750    4.000 
#    2.250    0.000    0.000    0.000    0.000    0.000 
#    0.000    0.000    0.000    0.000    0.000    0.000 
#
# Total GULP energy -198365.956092 kJ/mol
# GULP energy per Si atom -12397.872256 kJ/mol
# Density = 2.098260 g / cm^3
# Si number density = 21.030462 Si / 1000 Ang^3
#
#
#
# Elastic Constant Matrix: (Units=GPa)
#
#
# Indices 1 2 3 4 5 6 
#
# 1 95.7267 35.1762 3.4493 8.3942 16.9434 9.2107
# 2 35.1762 161.8753 34.4943 5.1517 26.2619 2.8866
# 3 3.4493 34.4943 95.3835 3.1571 11.6443 7.0419
# 4 8.3942 5.1517 3.1571 26.3333 -0.0229 4.3925
# 5 16.9434 26.2619 11.6443 -0.0229 37.2467 -0.7530
# 6 9.2107 2.8866 7.0419 4.3925 -0.7530 35.2551
#
#
#
# Elastic Compliance Matrix: (Units=1/GPa)
#
#
# Indices 1 2 3 4 5 6 
#
# 1 0.012573 -0.002068 0.001199 -0.003242 -0.004700 -0.003051
# 2 -0.002068 0.007741 -0.002265 -0.000647 -0.003802 0.000358
# 3 0.001199 -0.002265 0.011798 -0.000952 -0.002686 -0.002423
# 4 -0.003242 -0.000647 -0.000952 0.039890 0.002175 -0.003833
# 5 -0.004700 -0.003802 -0.002686 0.002175 0.032559 0.002500
# 6 -0.003051 0.000358 -0.002423 -0.003833 0.002500 0.030148
#
#
# Mechanical properties :
#
#
# Convention : Reuss Voigt Hill
#
# Bulk Modulus (GPa) = 38.69290 55.46946 47.08118
# Shear Modulus (GPa) = 33.42467 38.42474 35.92471
#
# Velocity S-wave (km/s) = 3.99098 4.27910 4.13755
# Velocity P-wave (km/s) = 6.29887 7.13072 6.72767
#
# Compressibility (1/GPa) = 0.02584453
#
# Stress axis : x y z
#
# Youngs Moduli (GPa) = 79.53694 129.18775 84.75850
#
# Poissons Ratio (x) = 0.26711 -0.10166
# Poissons Ratio (y) = 0.16445 0.19201
# Poissons Ratio (z) = -0.09540 0.29267
#
# Static dielectric constant tensor:
#      x y z
#    x 3.656370 -0.084210 0.330460 
#    y -0.084210 3.880270 -0.016630 
#    z 0.330460 -0.016630 3.632720 
# 
# 
# High freq. dielectric constant tensor:
#      x y z
#    x 1.830560 0.002780 0.003940 
#    y 0.002780 1.826080 -0.001940 
#    z 0.003940 -0.001940 1.812900 
# 
# From -- ./inp_files/398653.got.cif
#   From: 2010.06.25/outbox.cif.g09.slc.cpg/sg2_200_cif.got.tgz:398653.got - 2010.06.27 13:26:56.
