data_PCOD8023396
_publ_section_title
;
Structure prediction by ZEFSAII (Michael W. Deem and Ramdas Pophale) SiO2 
 PCOD8023396
Probable space group: P -1
;
_chemical_formula_sum "Si O2"
_cell_formula_units_Z 14
_cell_length_a 18.317530
_cell_length_b 13.034359
_cell_length_c 6.527321
_cell_angle_alpha 55.448033
_cell_angle_beta 137.534489
_cell_angle_gamma 144.524360
_cell_volume 608.391187
_symmetry_space_group_name_H-M "P -1"
_symmetry_group_IT_number 2
_symmetry_cell_setting 'triclinic'
loop_
_space_group_symop_operation_xyz
x,y,z
-x,-y,-z
loop_
_atom_site_type_symbol
_atom_site_label
_atom_site_fract_x
_atom_site_fract_y
_atom_site_fract_z
Si Si1 0.776540 0.842440 0.378788
Si Si2 0.866164 0.307731 0.034263
Si Si3 0.284051 0.995163 0.242646
Si Si4 0.344947 0.440878 0.813371
Si Si5 0.064284 0.855529 0.331469
Si Si6 0.284586 0.409309 0.182880
Si Si7 0.374260 0.695859 0.326941
O O1 0.808740 0.757383 0.374101
O O2 0.661428 0.668385 0.487136
O O3 0.910147 0.006494 0.615600
O O4 0.698588 0.886228 0.033533
O O5 0.930752 0.263345 0.383495
O O6 0.745106 0.289364 0.933243
O O7 0.000000 0.500000 0.000000
O O8 0.788220 0.183873 0.812565
O O9 0.455835 0.105356 0.547749
O O10 0.187432 0.956876 0.286129
O O11 0.340441 0.581243 0.582692
O O12 0.500000 0.500000 0.000000
O O13 0.343817 0.430852 0.060615
O O14 0.900315 0.732588 0.025136
O O15 0.356393 0.596905 0.199702
#
# Coordination Sequence:
#
# PCOD8023396 Si02
#       7
#     2   2   2   2   2   2   2
#     4  10  23  41  66  96 134 172 216 266 321 383
#     4  11  25  46  69  93 130 172 222 271 323 384
#     4  11  24  43  68  97 135 167 220 268 328 382
#     4  11  23  41  66  96 135 170 212 269 323 384
#     4  11  25  43  67  98 130 176 217 271 320 389
#     4  11  25  40  68  98 133 176 218 260 329 387
#     4  11  25  42  67  99 131 173 215 270 324 386
#
# _framework density 23.011510999999999
#
# number of rings (size 3 to 8) (size 9 to 14) (size 15 to 20)
#    0.000    1.143    1.429    3.429    2.000    9.714 
#    0.000    0.000    0.000    0.000    0.000    0.000 
#    0.000    0.000    0.000    0.000    0.000    0.000 
#
# Total GULP energy -173438.369709 kJ/mol
# GULP energy per Si atom -12388.454979 kJ/mol
# Density = 2.295914 g / cm^3
# Si number density = 23.011511 Si / 1000 Ang^3
#
#
#
# Elastic Constant Matrix: (Units=GPa)
#
#
# Indices 1 2 3 4 5 6 
#
# 1 127.4284 55.5784 50.3538 4.9245 -24.3589 7.7411
# 2 55.5784 150.9016 50.9846 16.6355 -11.1909 -20.2793
# 3 50.3538 50.9846 97.2949 3.6526 -26.4543 0.4446
# 4 4.9245 16.6355 3.6526 38.9553 -5.2294 -0.0219
# 5 -24.3589 -11.1909 -26.4543 -5.2294 42.7816 6.1037
# 6 7.7411 -20.2793 0.4446 -0.0219 6.1037 22.6807
#
#
#
# Elastic Compliance Matrix: (Units=1/GPa)
#
#
# Indices 1 2 3 4 5 6 
#
# 1 0.012694 -0.005031 -0.002259 0.001582 0.006199 -0.010454
# 2 -0.005031 0.012289 -0.005216 -0.004854 -0.005507 0.014284
# 3 -0.002259 -0.005216 0.016511 0.002137 0.008758 -0.006571
# 4 0.001582 -0.004854 0.002137 0.028048 0.005282 -0.006316
# 5 0.006199 -0.005507 0.008758 0.005282 0.033853 -0.016317
# 6 -0.010454 0.014284 -0.006571 -0.006316 -0.016317 0.064944
#
#
# Mechanical properties :
#
#
# Convention : Reuss Voigt Hill
#
# Bulk Modulus (GPa) = 60.67508 76.60650 68.64079
# Shear Modulus (GPa) = 25.14522 35.46405 30.30463
#
# Velocity S-wave (km/s) = 3.30922 3.93000 3.63290
# Velocity P-wave (km/s) = 6.40514 7.34547 6.89136
#
# Compressibility (1/GPa) = 0.01648123
#
# Stress axis : x y z
#
# Youngs Moduli (GPa) = 78.77988 81.37647 60.56422
#
# Poissons Ratio (x) = 0.40945 0.13680
# Poissons Ratio (y) = 0.39638 0.31589
# Poissons Ratio (z) = 0.17795 0.42445
#
# Static dielectric constant tensor:
#      x y z
#    x 4.014510 -0.244910 -0.238370 
#    y -0.244910 4.537270 0.136940 
#    z -0.238370 0.136940 4.390490 
# 
# 
# High freq. dielectric constant tensor:
#      x y z
#    x 1.896530 -0.010410 -0.019300 
#    y -0.010410 1.927840 0.006420 
#    z -0.019300 0.006420 1.923110 
# 
# From -- ./inp_files/109618.got.cif
#   From: 2010.06.25/outbox.cif.g09.slc.cpg/sg2_55_cif.got.tgz:109618.got - 2010.06.27 13:26:56.
