data_PCOD8023141
_publ_section_title
;
Structure prediction by ZEFSAII (Michael W. Deem and Ramdas Pophale) SiO2 
 PCOD8023141
Probable space group: P -1
;
_chemical_formula_sum "Si O2"
_cell_formula_units_Z 14
_cell_length_a 16.096088
_cell_length_b 15.592473
_cell_length_c 6.087844
_cell_angle_alpha 74.472070
_cell_angle_beta 67.608135
_cell_angle_gamma 24.204156
_cell_volume 566.235343
_symmetry_space_group_name_H-M "P -1"
_symmetry_group_IT_number 2
_symmetry_cell_setting 'triclinic'
loop_
_space_group_symop_operation_xyz
x,y,z
-x,-y,-z
loop_
_atom_site_type_symbol
_atom_site_label
_atom_site_fract_x
_atom_site_fract_y
_atom_site_fract_z
Si Si1 0.449776 0.511593 0.806576
Si Si2 0.132422 0.799496 0.603988
Si Si3 0.565263 0.668831 0.943614
Si Si4 0.048030 0.697482 0.525280
Si Si5 0.300471 0.019953 0.665682
Si Si6 0.175820 0.242601 0.017794
Si Si7 0.597591 0.791726 0.143827
O O1 0.189615 0.755753 0.838780
O O2 0.615366 0.423976 0.564448
O O3 0.500000 0.500000 0.000000
O O4 0.511205 0.351863 0.846582
O O5 0.032973 0.794703 0.639470
O O6 0.000000 0.000000 0.500000
O O7 0.731740 0.501970 0.693101
O O8 0.352782 0.902521 0.886203
O O9 0.666469 0.638722 0.056356
O O10 0.854677 0.885180 0.420560
O O11 0.017950 0.632847 0.740725
O O12 0.519409 0.850316 0.434136
O O13 0.183951 0.208855 0.773855
O O14 0.182724 0.344680 0.975057
O O15 0.406422 0.006167 0.047338
#
# Coordination Sequence:
#
# PCOD8023141 Si02
#       7
#     2   2   2   2   2   2   2
#     4  11  26  47  68  99 136 174 223 278 336 405
#     4  11  28  44  72  98 132 176 225 278 337 403
#     4  11  25  41  67  98 137 176 219 275 335 394
#     4  11  25  41  65 102 135 168 226 277 328 404
#     4  10  23  40  69  94 134 178 221 274 334 386
#     4   9  20  40  64  98 133 174 225 274 324 395
#     4   9  20  40  66  94 134 179 222 268 333 394
#
# _framework density 24.724703000000002
#
# number of rings (size 3 to 8) (size 9 to 14) (size 15 to 20)
#    0.000    1.714    1.429    0.429   12.000    2.286 
#    0.000    1.429    0.000    0.000    0.000    0.000 
#    0.000    0.000    0.000    0.000    0.000    0.000 
#
# Total GULP energy -173498.609015 kJ/mol
# GULP energy per Si atom -12392.757787 kJ/mol
# Density = 2.466843 g / cm^3
# Si number density = 24.724703 Si / 1000 Ang^3
#
#
#
# Elastic Constant Matrix: (Units=GPa)
#
#
# Indices 1 2 3 4 5 6 
#
# 1 192.0977 44.7952 47.2207 -21.6430 2.6158 7.4424
# 2 44.7952 29.6810 3.8551 -21.0186 12.4832 -3.9664
# 3 47.2207 3.8551 87.3832 -6.5384 5.7734 -0.5628
# 4 -21.6430 -21.0186 -6.5384 44.1871 -3.9984 0.6632
# 5 2.6158 12.4832 5.7734 -3.9984 45.2503 -5.1344
# 6 7.4424 -3.9664 -0.5628 0.6632 -5.1344 38.8523
#
#
#
# Elastic Compliance Matrix: (Units=1/GPa)
#
#
# Indices 1 2 3 4 5 6 
#
# 1 0.011750 -0.024211 -0.006145 -0.006087 0.005799 -0.003941
# 2 -0.024211 0.108612 0.012984 0.039249 -0.025403 0.011887
# 3 -0.006145 0.012984 0.014869 0.004932 -0.004456 0.002045
# 4 -0.006087 0.039249 0.004932 0.038334 -0.007307 0.003624
# 5 0.005799 -0.025403 -0.004456 -0.007307 0.028712 0.000150
# 6 -0.003941 0.011887 0.002045 0.003624 0.000150 0.027695
#
#
# Mechanical properties :
#
#
# Convention : Reuss Voigt Hill
#
# Bulk Modulus (GPa) = 9.95177 55.65597 32.80387
# Shear Modulus (GPa) = 16.76656 39.87736 28.32196
#
# Velocity S-wave (km/s) = 2.60692 4.02039 3.38818
# Velocity P-wave (km/s) = 3.61872 6.64158 5.34816
#
# Compressibility (1/GPa) = 0.10048464
#
# Stress axis : x y z
#
# Youngs Moduli (GPa) = 85.10541 9.20705 67.25594
#
# Poissons Ratio (x) = 0.22292 0.41332
# Poissons Ratio (y) = 2.06052 -0.87323
# Poissons Ratio (z) = 0.52301 -0.11954
#
# Static dielectric constant tensor:
#      x y z
#    x 5.154580 -0.192630 0.348540 
#    y -0.192630 4.159470 0.033910 
#    z 0.348540 0.033910 4.204250 
# 
# 
# High freq. dielectric constant tensor:
#      x y z
#    x 2.001250 -0.017180 0.004960 
#    y -0.017180 1.981720 -0.017550 
#    z 0.004960 -0.017550 1.983430 
# 
# From -- ./inp_files/97869.got.cif
#   From: 2010.06.25/outbox.cif.g09.slc.cpg/sg2_49_cif.got.tgz:97869.got - 2010.06.27 13:26:56.
