data_PCOD8023366
_publ_section_title
;
Structure prediction by ZEFSAII (Michael W. Deem and Ramdas Pophale) SiO2 
 PCOD8023366
Probable space group: P -1
;
_chemical_formula_sum "Si O2"
_cell_formula_units_Z 16
_cell_length_a 12.450348
_cell_length_b 11.680737
_cell_length_c 7.958729
_cell_angle_alpha 55.515143
_cell_angle_beta 122.301542
_cell_angle_gamma 135.960174
_cell_volume 646.619370
_symmetry_space_group_name_H-M "P -1"
_symmetry_group_IT_number 2
_symmetry_cell_setting 'triclinic'
loop_
_space_group_symop_operation_xyz
x,y,z
-x,-y,-z
loop_
_atom_site_type_symbol
_atom_site_label
_atom_site_fract_x
_atom_site_fract_y
_atom_site_fract_z
Si Si1 0.259077 0.914412 0.552074
Si Si2 0.572528 0.736028 0.755217
Si Si3 0.797117 0.058356 0.156640
Si Si4 0.623316 0.509408 0.800869
Si Si5 0.257867 0.288877 0.581710
Si Si6 0.796921 0.505141 0.403391
Si Si7 0.071299 0.695933 0.249326
Si Si8 0.488245 0.833398 0.910775
O O1 0.150326 0.808866 0.390818
O O2 0.406932 0.904990 0.684673
O O3 0.331717 0.116139 0.428564
O O4 0.165565 0.848834 0.706943
O O5 0.624900 0.608313 0.888224
O O6 0.387334 0.639888 0.652990
O O7 0.607706 0.821416 0.897986
O O8 0.832084 0.916756 0.312139
O O9 0.609234 0.966880 0.043393
O O10 0.902978 0.195936 0.984951
O O11 0.444464 0.398158 0.674808
O O12 0.755779 0.651028 0.665234
O O13 0.650042 0.362994 0.979928
O O14 0.169497 0.332635 0.600429
O O15 0.866999 0.419390 0.635936
O O16 0.883176 0.571995 0.237157
#
# Coordination Sequence:
#
# PCOD8023366 Si02
#       8
#     2   2   2   2   2   2   2   2
#     4  12  23  40  64  97 128 158 210 262 307 369
#     4  11  19  39  64  93 127 159 205 264 307 368
#     4  11  23  39  65  93 127 163 205 259 315 366
#     4   9  19  33  58  94 130 153 203 261 311 365
#     4   9  19  38  59  92 122 164 205 255 309 368
#     4  10  23  41  66  84 129 170 204 256 308 364
#     4  11  24  45  62  91 128 171 206 252 309 370
#     4  11  21  34  61  98 122 165 203 255 322 359
#
# _framework density 24.744074999999999
#
# number of rings (size 3 to 8) (size 9 to 14) (size 15 to 20)
#    0.000    1.500    3.750    1.875    3.500    0.500 
#    0.000    4.375    0.000    0.000    0.000    0.000 
#    0.000    0.000    0.000    0.000    0.000    0.000 
#
# Total GULP energy -198341.958762 kJ/mol
# GULP energy per Si atom -12396.372423 kJ/mol
# Density = 2.468776 g / cm^3
# Si number density = 24.744075 Si / 1000 Ang^3
#
#
#
# Elastic Constant Matrix: (Units=GPa)
#
#
# Indices 1 2 3 4 5 6 
#
# 1 68.7059 4.3665 15.5272 -7.6395 -17.1305 -7.4817
# 2 4.3665 39.8681 13.5878 -9.1829 -1.9449 -5.1472
# 3 15.5272 13.5878 86.2508 -27.0777 -35.8138 5.6277
# 4 -7.6395 -9.1829 -27.0777 46.9756 0.1368 -5.8972
# 5 -17.1305 -1.9449 -35.8138 0.1368 46.2707 -3.1054
# 6 -7.4817 -5.1472 5.6277 -5.8972 -3.1054 30.9512
#
#
#
# Elastic Compliance Matrix: (Units=1/GPa)
#
#
# Indices 1 2 3 4 5 6 
#
# 1 0.017252 -0.000217 0.000892 0.003942 0.007423 0.005468
# 2 -0.000217 0.028133 -0.004442 0.003654 -0.001949 0.005934
# 3 0.000892 -0.004442 0.023976 0.012975 0.018627 -0.000542
# 4 0.003942 0.003654 0.012975 0.030876 0.011986 0.006287
# 5 0.007423 -0.001949 0.018627 0.011986 0.038947 0.004275
# 6 0.005468 0.005934 -0.000542 0.006287 0.004275 0.036343
#
#
# Mechanical properties :
#
#
# Convention : Reuss Voigt Hill
#
# Bulk Modulus (GPa) = 16.17445 29.08754 22.63099
# Shear Modulus (GPa) = 24.54936 35.59573 30.07255
#
# Velocity S-wave (km/s) = 3.15323 3.79694 3.48996
# Velocity P-wave (km/s) = 4.45062 5.56806 5.04040
#
# Compressibility (1/GPa) = 0.06182590
#
# Stress axis : x y z
#
# Youngs Moduli (GPa) = 57.96543 35.54509 41.70784
#
# Poissons Ratio (x) = 0.00773 -0.03719
# Poissons Ratio (y) = 0.01260 0.18526
# Poissons Ratio (z) = -0.05169 0.15789
#
# Static dielectric constant tensor:
#      x y z
#    x 4.347440 -0.252280 -0.218140 
#    y -0.252280 4.432050 -0.314610 
#    z -0.218140 -0.314610 4.666150 
# 
# 
# High freq. dielectric constant tensor:
#      x y z
#    x 1.973260 -0.018200 -0.008860 
#    y -0.018200 1.976360 -0.017490 
#    z -0.008860 -0.017490 1.987390 
# 
# From -- ./inp_files/256634.got.cif
#   From: 2010.06.25/outbox.cif.g09.slc.cpg/sg2_129_cif.got.tgz:256634.got - 2010.06.27 13:26:56.
