data_PCOD8023497
_publ_section_title
;
Structure prediction by ZEFSAII (Michael W. Deem and Ramdas Pophale) SiO2 
 PCOD8023497
Probable space group: P -1
;
_chemical_formula_sum "Si O2"
_cell_formula_units_Z 14
_cell_length_a 23.200340
_cell_length_b 10.010554
_cell_length_c 6.593805
_cell_angle_alpha 48.212470
_cell_angle_beta 131.569146
_cell_angle_gamma 145.408052
_cell_volume 623.895150
_symmetry_space_group_name_H-M "P -1"
_symmetry_group_IT_number 2
_symmetry_cell_setting 'triclinic'
loop_
_space_group_symop_operation_xyz
x,y,z
-x,-y,-z
loop_
_atom_site_type_symbol
_atom_site_label
_atom_site_fract_x
_atom_site_fract_y
_atom_site_fract_z
Si Si1 0.181745 0.352090 0.050498
Si Si2 0.278138 0.959066 0.340315
Si Si3 0.037006 0.836420 0.289086
Si Si4 0.041564 0.595053 0.220255
Si Si5 0.315076 0.737065 0.301295
Si Si6 0.452114 0.088665 0.916965
Si Si7 0.669553 0.548995 0.053569
O O1 0.221336 0.556664 0.102037
O O2 0.067761 0.225860 0.817203
O O3 0.267697 0.459580 0.966914
O O4 0.147957 0.110748 0.322911
O O5 0.163292 0.726633 0.393896
O O6 0.293327 0.868032 0.265480
O O7 0.360328 0.040052 0.626259
O O8 0.283821 0.179237 0.073703
O O9 0.040957 0.653374 0.593064
O O10 0.031903 0.784363 0.086414
O O11 0.000000 0.500000 0.000000
O O12 0.329380 0.572438 0.619858
O O13 0.416758 0.955691 0.187155
O O14 0.547422 0.380919 0.875111
O O15 0.500000 0.000000 0.000000
#
# Coordination Sequence:
#
# PCOD8023497 Si02
#       7
#     2   2   2   2   2   2   2
#     4  11  23  44  69  99 139 187 231 282 349 413
#     4  12  27  46  72 107 142 182 237 291 347 419
#     4  10  23  41  68  96 138 186 228 281 348 410
#     4  11  23  42  67 104 140 175 230 287 342 411
#     4  12  25  44  73 101 141 181 235 287 353 412
#     4  12  25  49  73  99 145 186 230 293 354 413
#     4  12  26  46  72 105 141 185 237 288 345 422
#
# _framework density 22.439665999999999
#
# number of rings (size 3 to 8) (size 9 to 14) (size 15 to 20)
#    0.000    0.571    4.286    3.429    2.000    2.857 
#    0.000    3.571    0.000    0.000    0.000    0.000 
#    0.000    0.000    0.000    0.000    0.000    0.000 
#
# Total GULP energy -173503.748521 kJ/mol
# GULP energy per Si atom -12393.124894 kJ/mol
# Density = 2.238859 g / cm^3
# Si number density = 22.439666 Si / 1000 Ang^3
#
#
#
# Elastic Constant Matrix: (Units=GPa)
#
#
# Indices 1 2 3 4 5 6 
#
# 1 117.5723 38.2206 39.5316 -3.9652 -16.1173 -1.1306
# 2 38.2206 116.8672 22.1310 -1.1579 -20.4283 5.9099
# 3 39.5316 22.1310 76.7197 -3.3549 -12.6575 -0.0436
# 4 -3.9652 -1.1579 -3.3549 34.7526 5.8602 1.7149
# 5 -16.1173 -20.4283 -12.6575 5.8602 31.0746 0.3882
# 6 -1.1306 5.9099 -0.0436 1.7149 0.3882 52.2128
#
#
#
# Elastic Compliance Matrix: (Units=1/GPa)
#
#
# Indices 1 2 3 4 5 6 
#
# 1 0.011185 -0.002399 -0.004685 0.000342 0.002245 0.000482
# 2 -0.002399 0.010531 -0.000937 -0.000875 0.005478 -0.001257
# 3 -0.004685 -0.000937 0.016318 0.000417 0.003523 -0.000022
# 4 0.000342 -0.000875 0.000417 0.029852 -0.005848 -0.000830
# 5 0.002245 0.005478 0.003523 -0.005848 0.039492 -0.000670
# 6 0.000482 -0.001257 -0.000022 -0.000830 -0.000670 0.019337
#
#
# Mechanical properties :
#
#
# Convention : Reuss Voigt Hill
#
# Bulk Modulus (GPa) = 45.47279 56.76951 51.12115
# Shear Modulus (GPa) = 33.31359 37.69305 35.50332
#
# Velocity S-wave (km/s) = 3.85721 4.10292 3.98196
# Velocity P-wave (km/s) = 6.33608 6.91368 6.63117
#
# Compressibility (1/GPa) = 0.02199117
#
# Stress axis : x y z
#
# Youngs Moduli (GPa) = 89.40847 94.95614 61.28057
#
# Poissons Ratio (x) = 0.22781 0.28713
# Poissons Ratio (y) = 0.21450 0.05741
# Poissons Ratio (z) = 0.41892 0.08896
#
# Static dielectric constant tensor:
#      x y z
#    x 3.897930 -0.119740 -0.218380 
#    y -0.119740 4.838980 -0.035980 
#    z -0.218380 -0.035980 3.992480 
# 
# 
# High freq. dielectric constant tensor:
#      x y z
#    x 1.892040 0.003420 -0.008200 
#    y 0.003420 1.912290 -0.012610 
#    z -0.008200 -0.012610 1.865310 
# 
# From -- ./inp_files/107517.got.cif
#   From: 2010.06.25/outbox.cif.g09.slc.cpg/sg2_54_cif.got.tgz:107517.got - 2010.06.27 13:26:56.
