data_PCOD8023281
_publ_section_title
;
Structure prediction by ZEFSAII (Michael W. Deem and Ramdas Pophale) SiO2 
 PCOD8023281
Probable space group: P -1
;
_chemical_formula_sum "Si O2"
_cell_formula_units_Z 16
_cell_length_a 11.264032
_cell_length_b 9.805421
_cell_length_c 8.605485
_cell_angle_alpha 62.033593
_cell_angle_beta 86.698688
_cell_angle_gamma 127.679645
_cell_volume 578.246289
_symmetry_space_group_name_H-M "P -1"
_symmetry_group_IT_number 2
_symmetry_cell_setting 'triclinic'
loop_
_space_group_symop_operation_xyz
x,y,z
-x,-y,-z
loop_
_atom_site_type_symbol
_atom_site_label
_atom_site_fract_x
_atom_site_fract_y
_atom_site_fract_z
Si Si1 0.948922 0.284120 0.061339
Si Si2 0.788319 0.064981 0.641499
Si Si3 0.752761 0.590933 0.870686
Si Si4 0.355842 0.208421 0.674784
Si Si5 0.146383 0.272813 0.544077
Si Si6 0.460737 0.642303 0.715815
Si Si7 0.476573 0.149105 0.977661
Si Si8 0.826019 0.448103 0.366104
O O1 0.053258 0.263539 0.174187
O O2 0.007871 0.323657 0.856039
O O3 0.747832 0.049464 0.218403
O O4 0.000000 0.500000 0.000000
O O5 0.858373 0.295979 0.455636
O O6 0.939507 0.078109 0.634508
O O7 0.646871 0.866555 0.641726
O O8 0.709478 0.017615 0.840897
O O9 0.760643 0.680400 0.653712
O O10 0.632920 0.326610 0.991414
O O11 0.643939 0.566303 0.038882
O O12 0.206921 0.200422 0.703313
O O13 0.496533 0.397318 0.433384
O O14 0.472546 0.279514 0.777103
O O15 0.190573 0.484535 0.499679
O O16 0.340510 0.676524 0.664154
O O17 0.500000 0.000000 0.000000
#
# Coordination Sequence:
#
# PCOD8023281 Si02
#       8
#     2   2   2   2   2   2   2   2
#     4  11  23  42  69  98 130 169 218 273 329 393
#     4  11  23  42  69  99 132 174 224 273 326 390
#     4  10  23  41  64  95 128 171 221 268 324 388
#     4  12  26  44  66  96 135 174 217 273 336 395
#     4  12  26  43  64  96 138 178 217 270 334 395
#     4  10  23  42  67  97 129 173 225 277 326 382
#     4  11  23  42  69  98 130 169 218 273 329 393
#     4  11  23  42  69  99 132 174 224 273 326 390
#
# _framework density 27.669871000000001
#
# number of rings (size 3 to 8) (size 9 to 14) (size 15 to 20)
#    0.000    1.000    0.000    6.750    0.000    8.500 
#    0.000    5.000    0.000    0.000    0.000    0.000 
#    0.000    0.000    0.000    0.000    0.000    0.000 
#
# Total GULP energy -198256.256959 kJ/mol
# GULP energy per Si atom -12391.016060 kJ/mol
# Density = 2.760689 g / cm^3
# Si number density = 27.669871 Si / 1000 Ang^3
#
#
#
# Elastic Constant Matrix: (Units=GPa)
#
#
# Indices 1 2 3 4 5 6 
#
# 1 107.6308 0.7098 33.7796 16.3066 3.6214 11.6389
# 2 0.7098 53.3908 -1.2978 7.5351 -11.2728 33.5423
# 3 33.7796 -1.2978 138.0709 30.9664 -19.2394 11.0346
# 4 16.3066 7.5351 30.9664 42.0752 3.4237 -3.3648
# 5 3.6214 -11.2728 -19.2394 3.4237 34.9401 -3.1562
# 6 11.6389 33.5423 11.0346 -3.3648 -3.1562 36.8391
#
#
#
# Elastic Compliance Matrix: (Units=1/GPa)
#
#
# Indices 1 2 3 4 5 6 
#
# 1 0.011594 0.008764 -0.000012 -0.007127 0.001217 -0.012186
# 2 0.008764 0.094915 0.022534 -0.047836 0.038043 -0.097049
# 3 -0.000012 0.022534 0.015975 -0.019115 0.015619 -0.025706
# 4 -0.007127 -0.047836 -0.019115 0.055611 -0.025755 0.054405
# 5 0.001217 0.038043 0.015619 -0.025755 0.048469 -0.037901
# 6 -0.012186 -0.097049 -0.025706 0.054405 -0.037901 0.128781
#
#
# Mechanical properties :
#
#
# Convention : Reuss Voigt Hill
#
# Bulk Modulus (GPa) = 5.40380 40.60842 23.00611
# Shear Modulus (GPa) = 14.10601 40.49758 27.30180
#
# Velocity S-wave (km/s) = 2.26032 3.82985 3.14458
# Velocity P-wave (km/s) = 2.96129 5.85362 4.63865
#
# Compressibility (1/GPa) = 0.18505495
#
# Stress axis : x y z
#
# Youngs Moduli (GPa) = 86.25437 10.53574 62.59628
#
# Poissons Ratio (x) = -0.09233 0.00076
# Poissons Ratio (y) = -0.75592 -1.41053
# Poissons Ratio (z) = 0.00105 -0.23741
#
# Static dielectric constant tensor:
#      x y z
#    x 4.946630 0.346670 -0.231470 
#    y 0.346670 5.019390 0.245770 
#    z -0.231470 0.245770 5.461460 
# 
# 
# High freq. dielectric constant tensor:
#      x y z
#    x 2.112560 0.021350 -0.007600 
#    y 0.021350 2.127380 0.008480 
#    z -0.007600 0.008480 2.123300 
# 
# From -- ./inp_files/262083.got.cif
#   From: 2010.06.25/outbox.cif.g09.slc.cpg/sg2_132_cif.got.tgz:262083.got - 2010.06.27 13:26:56.
