data_PCOD8023693
_publ_section_title
;
Structure prediction by ZEFSAII (Michael W. Deem and Ramdas Pophale) SiO2 
 PCOD8023693
Probable space group: P -1
;
_chemical_formula_sum "Si O2"
_cell_formula_units_Z 16
_cell_length_a 8.947288
_cell_length_b 8.721843
_cell_length_c 14.203369
_cell_angle_alpha 96.661671
_cell_angle_beta 68.775186
_cell_angle_gamma 132.014206
_cell_volume 754.773361
_symmetry_space_group_name_H-M "P -1"
_symmetry_group_IT_number 2
_symmetry_cell_setting 'triclinic'
loop_
_space_group_symop_operation_xyz
x,y,z
-x,-y,-z
loop_
_atom_site_type_symbol
_atom_site_label
_atom_site_fract_x
_atom_site_fract_y
_atom_site_fract_z
Si Si1 0.850897 0.622726 0.722923
Si Si2 0.451203 0.630428 0.568083
Si Si3 0.873155 0.058855 0.487407
Si Si4 0.006395 0.726100 0.087178
Si Si5 0.555953 0.861588 0.948545
Si Si6 0.868683 0.524007 0.907722
Si Si7 0.025784 0.594995 0.402222
Si Si8 0.467893 0.598577 0.779142
O O1 0.938016 0.675609 0.814294
O O2 0.623662 0.561408 0.771222
O O3 0.014789 0.806732 0.624164
O O4 0.821598 0.419919 0.694032
O O5 0.500000 0.500000 0.500000
O O6 0.209094 0.533306 0.601265
O O7 0.509211 0.665272 0.666871
O O8 0.627080 0.860587 0.498126
O O9 0.860576 0.168869 0.585938
O O10 0.000000 0.000000 0.500000
O O11 0.063977 0.611700 0.127648
O O12 0.772371 0.630219 0.169380
O O13 0.183442 0.980086 0.080759
O O14 0.002175 0.682618 0.975076
O O15 0.508901 0.780994 0.844830
O O16 0.396870 0.644928 0.029564
O O17 0.500000 0.000000 0.000000
O O18 0.000000 0.500000 0.500000
#
# Coordination Sequence:
#
# PCOD8023693 Si02
#       8
#     2   2   2   2   2   2   2   2
#     4  11  23  41  61  96 139 169 211 282 331 378
#     4  12  23  41  70  96 129 177 222 271 325 393
#     4  11  22  44  67  93 130 176 224 267 325 397
#     4   9  19  39  65  90 120 169 219 258 325 401
#     4   9  20  39  64  93 124 163 220 271 318 389
#     4   9  19  39  62  89 128 164 207 272 330 382
#     4  10  23  42  63  93 132 167 215 278 328 378
#     4  11  23  38  62  94 127 172 218 260 330 390
#
# _framework density 21.198414
#
# number of rings (size 3 to 8) (size 9 to 14) (size 15 to 20)
#    0.000    1.750    2.500    2.250    0.000    8.000 
#    0.000    7.500    0.000    0.000    0.000    0.000 
#    0.000    0.000    0.000    0.000    0.000    0.000 
#
# Total GULP energy -198232.209649 kJ/mol
# GULP energy per Si atom -12389.513103 kJ/mol
# Density = 2.115017 g / cm^3
# Si number density = 21.198414 Si / 1000 Ang^3
#
#
#
# Elastic Constant Matrix: (Units=GPa)
#
#
# Indices 1 2 3 4 5 6 
#
# 1 109.2458 37.3503 47.4655 5.8408 0.6256 -0.1138
# 2 37.3503 132.7255 46.2572 4.0105 -8.0032 16.9866
# 3 47.4655 46.2572 120.1915 9.1989 9.0915 -3.0150
# 4 5.8408 4.0105 9.1989 27.6590 -1.2833 -6.2135
# 5 0.6256 -8.0032 9.0915 -1.2833 45.5776 -0.9689
# 6 -0.1138 16.9866 -3.0150 -6.2135 -0.9689 33.1747
#
#
#
# Elastic Compliance Matrix: (Units=1/GPa)
#
#
# Indices 1 2 3 4 5 6 
#
# 1 0.011485 -0.001972 -0.003721 -0.000762 0.000229 0.000575
# 2 -0.001972 0.010159 -0.003365 -0.001099 0.002331 -0.005652
# 3 -0.003721 -0.003365 0.011524 -0.002182 -0.002852 0.002266
# 4 -0.000762 -0.001099 -0.002182 0.039003 0.001515 0.007711
# 5 0.000229 0.002331 -0.002852 0.001515 0.022948 -0.000498
# 6 0.000575 -0.005652 0.002266 0.007711 -0.000498 0.034675
#
#
# Mechanical properties :
#
#
# Convention : Reuss Voigt Hill
#
# Bulk Modulus (GPa) = 66.43691 69.36764 67.90227
# Shear Modulus (GPa) = 32.69511 36.68826 34.69169
#
# Velocity S-wave (km/s) = 3.93152 4.16469 4.04978
# Velocity P-wave (km/s) = 7.21233 7.47799 7.34636
#
# Compressibility (1/GPa) = 0.01505188
#
# Stress axis : x y z
#
# Youngs Moduli (GPa) = 87.07304 98.43284 86.77265
#
# Poissons Ratio (x) = 0.19408 0.32290
# Poissons Ratio (y) = 0.17168 0.29201
# Poissons Ratio (z) = 0.32402 0.33125
#
# Static dielectric constant tensor:
#      x y z
#    x 3.844100 0.296840 -0.083610 
#    y 0.296840 3.684920 -0.144690 
#    z -0.083610 -0.144690 3.861730 
# 
# 
# High freq. dielectric constant tensor:
#      x y z
#    x 1.826280 0.008220 -0.008050 
#    y 0.008220 1.823270 0.010670 
#    z -0.008050 0.010670 1.838170 
# 
# From -- ./inp_files/215049.got.cif
#   From: 2010.06.25/outbox.cif.g09.slc.cpg/sg2_108_cif.got.tgz:215049.got - 2010.06.27 13:26:56.
