data_PCOD8023057
_publ_section_title
;
Structure prediction by ZEFSAII (Michael W. Deem and Ramdas Pophale) SiO2 
 PCOD8023057
Probable space group: P -1
;
_chemical_formula_sum "Si O2"
_cell_formula_units_Z 16
_cell_length_a 16.468317
_cell_length_b 17.053098
_cell_length_c 17.704923
_cell_angle_alpha 23.818714
_cell_angle_beta 22.923140
_cell_angle_gamma 26.622089
_cell_volume 739.167669
_symmetry_space_group_name_H-M "P -1"
_symmetry_group_IT_number 2
_symmetry_cell_setting 'triclinic'
loop_
_space_group_symop_operation_xyz
x,y,z
-x,-y,-z
loop_
_atom_site_type_symbol
_atom_site_label
_atom_site_fract_x
_atom_site_fract_y
_atom_site_fract_z
Si Si1 0.918266 0.245898 0.859009
Si Si2 0.591181 0.147851 0.897286
Si Si3 0.262204 0.706821 0.865274
Si Si4 0.790254 0.659096 0.845310
Si Si5 0.452182 0.774056 0.305824
Si Si6 0.124013 0.575356 0.762455
Si Si7 0.231800 0.508506 0.373832
Si Si8 0.023684 0.127040 0.619855
O O1 0.767598 0.354220 0.821721
O O2 0.124148 0.330505 0.609600
O O3 0.768273 0.311094 0.003847
O O4 0.000000 0.000000 0.000000
O O5 0.575718 0.252410 0.737098
O O6 0.844846 0.058261 0.785131
O O7 0.454134 0.296225 0.949889
O O8 0.460676 0.986512 0.141411
O O9 0.519876 0.615948 0.704944
O O10 0.138001 0.570255 0.048336
O O11 0.157139 0.943464 0.721912
O O12 0.955736 0.679639 0.749657
O O13 0.796007 0.824457 0.630958
O O14 0.236622 0.735295 0.560788
O O15 0.680879 0.608092 0.280901
O O16 0.000000 0.500000 0.000000
O O17 0.101699 0.664174 0.412622
#
# Coordination Sequence:
#
# PCOD8023057 Si02
#       8
#     2   2   2   2   2   2   2   2
#     4  11  24  47  75 105 139 178 224 284 335 410
#     4  11  23  43  65  95 134 177 232 290 342 408
#     4  12  26  44  73 102 138 186 226 276 351 405
#     4  12  25  43  67 100 139 180 233 288 344 416
#     4  10  23  40  66  93 129 178 228 294 348 398
#     4  11  22  41  66  94 132 179 235 286 348 411
#     4  11  25  46  74 102 141 177 229 278 337 415
#     4  12  25  46  67 102 142 183 228 286 347 408
#
# _framework density 21.645966999999999
#
# number of rings (size 3 to 8) (size 9 to 14) (size 15 to 20)
#    0.000    0.750    6.250    1.125    0.000    5.000 
#    2.250    0.000    0.000    0.000    0.000    0.000 
#    0.000    0.000    0.000    0.000    0.000    0.000 
#
# Total GULP energy -198381.468635 kJ/mol
# GULP energy per Si atom -12398.841790 kJ/mol
# Density = 2.159670 g / cm^3
# Si number density = 21.645967 Si / 1000 Ang^3
#
#
#
# Elastic Constant Matrix: (Units=GPa)
#
#
# Indices 1 2 3 4 5 6 
#
# 1 70.2923 26.7239 29.8427 -1.1827 1.8834 -4.6551
# 2 26.7239 95.3343 37.5411 -4.0244 -3.1192 -6.0397
# 3 29.8427 37.5411 129.6301 -8.4022 -1.5742 1.6010
# 4 -1.1827 -4.0244 -8.4022 31.5260 -0.8668 1.2942
# 5 1.8834 -3.1192 -1.5742 -0.8668 34.8706 2.0194
# 6 -4.6551 -6.0397 1.6010 1.2942 2.0194 40.3220
#
#
#
# Elastic Compliance Matrix: (Units=1/GPa)
#
#
# Indices 1 2 3 4 5 6 
#
# 1 0.016975 -0.003568 -0.002959 -0.000715 -0.001482 0.001640
# 2 -0.003568 0.012771 -0.002836 0.000709 0.001136 0.001534
# 3 -0.002959 -0.002836 0.009373 0.002088 0.000452 -0.001228
# 4 -0.000715 0.000709 0.002088 0.032417 0.001069 -0.001153
# 5 -0.001482 0.001136 0.000452 0.001069 0.028993 -0.001505
# 6 0.001640 0.001534 -0.001228 -0.001153 -0.001505 0.025381
#
#
# Mechanical properties :
#
#
# Convention : Reuss Voigt Hill
#
# Bulk Modulus (GPa) = 49.03891 53.71914 51.37902
# Shear Modulus (GPa) = 33.01768 34.75367 33.88567
#
# Velocity S-wave (km/s) = 3.90981 4.01128 3.96087
# Velocity P-wave (km/s) = 6.56402 6.80623 6.68622
#
# Compressibility (1/GPa) = 0.02039197
#
# Stress axis : x y z
#
# Youngs Moduli (GPa) = 58.90849 78.30429 106.69051
#
# Poissons Ratio (x) = 0.27939 0.31573
# Poissons Ratio (y) = 0.21019 0.30260
# Poissons Ratio (z) = 0.17433 0.22209
#
# Static dielectric constant tensor:
#      x y z
#    x 4.274140 0.275780 0.167020 
#    y 0.275780 3.975740 0.098720 
#    z 0.167020 0.098720 4.188770 
# 
# 
# High freq. dielectric constant tensor:
#      x y z
#    x 1.850820 0.002310 -0.002920 
#    y 0.002310 1.845170 -0.000810 
#    z -0.002920 -0.000810 1.866940 
# 
# From -- ./inp_files/534064.got.cif
#   From: 2010.06.25/outbox.cif.g09.slc.cpg/sg2_268_cif.got.tgz:534064.got - 2010.06.27 13:26:56.
