data_PCOD8023255
_publ_section_title
;
Structure prediction by ZEFSAII (Michael W. Deem and Ramdas Pophale) SiO2 
 PCOD8023255
Probable space group: P -1
;
_chemical_formula_sum "Si O2"
_cell_formula_units_Z 14
_cell_length_a 13.316708
_cell_length_b 10.457556
_cell_length_c 12.523567
_cell_angle_alpha 77.943998
_cell_angle_beta 31.450003
_cell_angle_gamma 100.036020
_cell_volume 643.474369
_symmetry_space_group_name_H-M "P -1"
_symmetry_group_IT_number 2
_symmetry_cell_setting 'triclinic'
loop_
_space_group_symop_operation_xyz
x,y,z
-x,-y,-z
loop_
_atom_site_type_symbol
_atom_site_label
_atom_site_fract_x
_atom_site_fract_y
_atom_site_fract_z
Si Si1 0.216120 0.552184 0.004214
Si Si2 0.528227 0.099521 0.061251
Si Si3 0.767207 0.546094 0.372392
Si Si4 0.241732 0.057049 0.512328
Si Si5 0.097920 0.269550 0.567171
Si Si6 0.757023 0.466082 0.775199
Si Si7 0.816327 0.698652 0.084568
O O1 0.476781 0.767380 0.721413
O O2 0.221817 0.445468 0.928557
O O3 0.203165 0.480263 0.145906
O O4 0.946796 0.505347 0.237781
O O5 0.296640 0.975109 0.382124
O O6 0.515182 0.248934 0.018927
O O7 0.804838 0.192782 0.850656
O O8 0.500000 0.000000 0.000000
O O9 0.753864 0.630534 0.474408
O O10 0.886281 0.687155 0.142836
O O11 0.466382 0.357230 0.650999
O O12 0.089522 0.109795 0.589496
O O13 0.055249 0.904247 0.796230
O O14 0.274064 0.414085 0.284784
O O15 0.000000 0.500000 0.500000
#
# Coordination Sequence:
#
# PCOD8023255 Si02
#       7
#     2   2   2   2   2   2   2
#     4  11  22  46  68  98 136 170 228 275 336 400
#     4  10  23  41  63  99 138 170 226 271 327 408
#     4  11  23  48  68  97 134 179 224 277 340 392
#     4  11  25  43  66 103 132 176 227 275 330 397
#     4  11  22  43  66  96 137 180 215 275 337 395
#     4   9  19  38  67  91 127 178 206 269 334 389
#     4  11  27  43  70 100 132 177 231 276 329 401
#
# _framework density 21.756889999999999
#
# number of rings (size 3 to 8) (size 9 to 14) (size 15 to 20)
#    0.000    1.429    5.714    0.429    4.000    6.286 
#    0.000    0.000    0.000    0.000    0.000    0.000 
#    0.000    0.000    0.000    0.000    0.000    0.000 
#
# Total GULP energy -173544.053872 kJ/mol
# GULP energy per Si atom -12396.003848 kJ/mol
# Density = 2.170737 g / cm^3
# Si number density = 21.756890 Si / 1000 Ang^3
#
#
#
# Elastic Constant Matrix: (Units=GPa)
#
#
# Indices 1 2 3 4 5 6 
#
# 1 145.5881 49.0175 53.8908 -0.3357 28.3073 5.8334
# 2 49.0175 65.6787 25.6993 -0.5118 4.8833 -4.4135
# 3 53.8908 25.6993 121.2175 0.6495 27.1306 -4.1368
# 4 -0.3357 -0.5118 0.6495 19.3049 -0.8244 -2.2223
# 5 28.3073 4.8833 27.1306 -0.8244 37.1851 4.4166
# 6 5.8334 -4.4135 -4.1368 -2.2223 4.4166 26.6376
#
#
#
# Elastic Compliance Matrix: (Units=1/GPa)
#
#
# Indices 1 2 3 4 5 6 
#
# 1 0.011478 -0.007440 -0.002365 -0.000531 -0.005665 -0.003219
# 2 -0.007440 0.021570 -0.001967 0.001173 0.003773 0.004370
# 3 -0.002365 -0.001967 0.011286 -0.000408 -0.006541 0.002995
# 4 -0.000531 0.001173 -0.000408 0.052396 0.001183 0.004422
# 5 -0.005665 0.003773 -0.006541 0.001183 0.036106 -0.005038
# 6 -0.003219 0.004370 0.002995 0.004422 -0.005038 0.040639
#
#
# Mechanical properties :
#
#
# Convention : Reuss Voigt Hill
#
# Bulk Modulus (GPa) = 48.09791 65.52217 56.81004
# Shear Modulus (GPa) = 24.51572 30.21730 27.36651
#
# Velocity S-wave (km/s) = 3.36043 3.73079 3.55044
# Velocity P-wave (km/s) = 6.10013 6.98136 6.55557
#
# Compressibility (1/GPa) = 0.02079092
#
# Stress axis : x y z
#
# Youngs Moduli (GPa) = 87.12103 46.35962 88.60289
#
# Poissons Ratio (x) = 0.34494 0.20951
# Poissons Ratio (y) = 0.64822 0.17428
# Poissons Ratio (z) = 0.20601 0.09119
#
# Static dielectric constant tensor:
#      x y z
#    x 3.811520 -0.362750 0.104010 
#    y -0.362750 3.584570 0.036640 
#    z 0.104010 0.036640 4.282660 
# 
# 
# High freq. dielectric constant tensor:
#      x y z
#    x 1.850070 -0.000870 0.004840 
#    y -0.000870 1.849590 0.024740 
#    z 0.004840 0.024740 1.864940 
# 
# From -- ./inp_files/425593.got.cif
#   From: 2010.06.25/outbox.cif.g09.slc.cpg/sg2_213_cif.got.tgz:425593.got - 2010.06.27 13:26:56.
