data_PCOD8023233
_publ_section_title
;
Structure prediction by ZEFSAII (Michael W. Deem and Ramdas Pophale) SiO2 
 PCOD8023233
Probable space group: P -1
;
_chemical_formula_sum "Si O2"
_cell_formula_units_Z 16
_cell_length_a 9.369014
_cell_length_b 11.979410
_cell_length_c 27.903580
_cell_angle_alpha 30.581447
_cell_angle_beta 28.556249
_cell_angle_gamma 40.224946
_cell_volume 761.296604
_symmetry_space_group_name_H-M "P -1"
_symmetry_group_IT_number 2
_symmetry_cell_setting 'triclinic'
loop_
_space_group_symop_operation_xyz
x,y,z
-x,-y,-z
loop_
_atom_site_type_symbol
_atom_site_label
_atom_site_fract_x
_atom_site_fract_y
_atom_site_fract_z
Si Si1 0.395082 0.961057 0.598233
Si Si2 0.110851 0.584806 0.230270
Si Si3 0.587590 0.277983 0.001453
Si Si4 0.788859 0.978664 0.225603
Si Si5 0.156393 0.670879 0.993859
Si Si6 0.499567 0.458090 0.779026
Si Si7 0.263250 0.831895 0.495330
Si Si8 0.832249 0.069403 0.778600
O O1 0.450323 0.704036 0.685284
O O2 0.500000 0.000000 0.500000
O O3 0.596365 0.109447 0.517178
O O4 0.049814 0.044436 0.677352
O O5 0.391231 0.532057 0.201893
O O6 0.979006 0.825481 0.190654
O O7 0.852394 0.412819 0.377829
O O8 0.214963 0.586168 0.144119
O O9 0.781083 0.219567 0.013328
O O10 0.474861 0.053218 0.094847
O O11 0.293387 0.424951 0.046632
O O12 0.500746 0.851056 0.375412
O O13 0.988238 0.046556 0.187361
O O14 0.691547 0.193120 0.144253
O O15 0.805978 0.670011 0.086589
O O16 0.747175 0.323365 0.723333
O O17 0.000000 0.000000 0.500000
#
# Coordination Sequence:
#
# PCOD8023233 Si02
#       8
#     2   2   2   2   2   2   2   2
#     4  11  25  43  65  92 131 168 211 261 313 376
#     4  11  23  40  65  93 125 166 214 260 310 377
#     4  11  24  40  64  96 128 164 211 260 319 379
#     4  10  23  41  63  94 126 163 212 263 310 377
#     4  11  24  40  64  95 129 165 207 264 321 371
#     4  11  23  43  66  93 127 166 212 263 314 374
#     4  11  22  41  64  90 122 169 210 253 314 370
#     4  10  23  43  66  95 124 165 216 257 317 377
#
# _framework density 21.016777999999999
#
# number of rings (size 3 to 8) (size 9 to 14) (size 15 to 20)
#    0.000    1.250    2.500    2.625    3.500    6.500 
#    0.000    0.000    0.000    0.000    0.000    0.000 
#    0.000    0.000    0.000    0.000    0.000    0.000 
#
# Total GULP energy -198447.245637 kJ/mol
# GULP energy per Si atom -12402.952852 kJ/mol
# Density = 2.096894 g / cm^3
# Si number density = 21.016778 Si / 1000 Ang^3
#
#
#
# Elastic Constant Matrix: (Units=GPa)
#
#
# Indices 1 2 3 4 5 6 
#
# 1 116.5442 21.2530 75.6657 8.2173 -0.4820 5.8850
# 2 21.2530 65.6366 22.9632 8.1803 6.8517 6.9431
# 3 75.6657 22.9632 112.5050 10.8670 -3.9843 5.1694
# 4 8.2173 8.1803 10.8670 31.8840 9.0628 -2.2748
# 5 -0.4820 6.8517 -3.9843 9.0628 38.8634 4.9342
# 6 5.8850 6.9431 5.1694 -2.2748 4.9342 24.5778
#
#
#
# Elastic Compliance Matrix: (Units=1/GPa)
#
#
# Indices 1 2 3 4 5 6 
#
# 1 0.015404 -0.001287 -0.010042 -0.000178 -0.000425 -0.001144
# 2 -0.001287 0.017481 -0.002298 -0.003055 -0.002113 -0.004006
# 3 -0.010042 -0.002298 0.016608 -0.003418 0.002952 -0.001348
# 4 -0.000178 -0.003055 -0.003418 0.036457 -0.009184 0.006843
# 5 -0.000425 -0.002113 0.002952 -0.009184 0.029390 -0.006673
# 6 -0.001144 -0.004006 -0.001348 0.006843 -0.006673 0.044349
#
#
# Mechanical properties :
#
#
# Convention : Reuss Voigt Hill
#
# Bulk Modulus (GPa) = 44.96792 59.38330 52.17561
# Shear Modulus (GPa) = 25.72588 30.71863 28.22226
#
# Velocity S-wave (km/s) = 3.50246 3.82727 3.66846
# Velocity P-wave (km/s) = 6.14808 6.91716 6.54393
#
# Compressibility (1/GPa) = 0.02223808
#
# Stress axis : x y z
#
# Youngs Moduli (GPa) = 64.91973 57.20451 60.21084
#
# Poissons Ratio (x) = 0.07361 0.60467
# Poissons Ratio (y) = 0.08354 0.13838
# Poissons Ratio (z) = 0.65195 0.13147
#
# Static dielectric constant tensor:
#      x y z
#    x 10.594930 -3.417980 -7.917070 
#    y -3.417980 5.608820 4.142080 
#    z -7.917070 4.142080 12.900430 
# 
# 
# High freq. dielectric constant tensor:
#      x y z
#    x 1.824100 0.005290 -0.007340 
#    y 0.005290 1.834240 0.003530 
#    z -0.007340 0.003530 1.818670 
# 
# From -- ./inp_files/214764.got.cif
#   From: 2010.06.25/outbox.cif.g09.slc.cpg/sg2_108_cif.got.tgz:214764.got - 2010.06.27 13:26:56.
