data_PCOD8023540
_publ_section_title
;
Structure prediction by ZEFSAII (Michael W. Deem and Ramdas Pophale) SiO2 
 PCOD8023540
Probable space group: P -1
;
_chemical_formula_sum "Si O2"
_cell_formula_units_Z 16
_cell_length_a 11.861853
_cell_length_b 16.870213
_cell_length_c 6.509883
_cell_angle_alpha 85.739243
_cell_angle_beta 53.560019
_cell_angle_gamma 123.261127
_cell_volume 704.493931
_symmetry_space_group_name_H-M "P -1"
_symmetry_group_IT_number 2
_symmetry_cell_setting 'triclinic'
loop_
_space_group_symop_operation_xyz
x,y,z
-x,-y,-z
loop_
_atom_site_type_symbol
_atom_site_label
_atom_site_fract_x
_atom_site_fract_y
_atom_site_fract_z
Si Si1 0.984983 0.868445 0.055871
Si Si2 0.843952 0.930954 0.872658
Si Si3 0.311869 0.879979 0.609209
Si Si4 0.142412 0.707891 0.165572
Si Si5 0.592710 0.207123 0.789346
Si Si6 0.200997 0.321616 0.383084
Si Si7 0.473288 0.544758 0.322609
Si Si8 0.854150 0.462483 0.345569
O O1 0.823778 0.761381 0.412188
O O2 0.861037 0.859335 0.007655
O O3 0.128824 0.985724 0.014354
O O4 0.131351 0.868837 0.774466
O O5 0.620866 0.840158 0.024919
O O6 0.000000 0.000000 0.500000
O O7 0.390313 0.872818 0.316500
O O8 0.500000 0.000000 0.500000
O O9 0.205182 0.760764 0.860736
O O10 0.368901 0.791701 0.010680
O O11 0.021742 0.730002 0.408037
O O12 0.992904 0.568045 0.343288
O O13 0.780864 0.346884 0.526418
O O14 0.343327 0.446322 0.310190
O O15 0.305756 0.339126 0.048687
O O16 0.500000 0.500000 0.500000
O O17 0.344140 0.569590 0.515418
O O18 0.000000 0.500000 0.000000
#
# Coordination Sequence:
#
# PCOD8023540 Si02
#       8
#     2   2   2   2   2   2   2   2
#     4  10  24  46  69  93 144 176 227 295 335 411
#     4  11  27  45  67 104 137 182 235 287 351 409
#     4  11  23  45  70  99 135 183 234 275 345 411
#     4  10  24  44  71 100 139 177 231 291 337 422
#     4  12  26  44  72 102 134 186 231 283 358 407
#     4   9  22  43  65  99 130 181 223 282 344 403
#     4  10  23  41  69  98 133 175 234 274 341 417
#     4  11  24  46  68 103 140 180 227 287 354 407
#
# _framework density 22.711334999999998
#
# number of rings (size 3 to 8) (size 9 to 14) (size 15 to 20)
#    0.000    1.500    2.500    0.375    7.000    2.500 
#    2.250    0.000    0.000    0.000    0.000    0.000 
#    0.000    0.000    0.000    0.000    0.000    0.000 
#
# Total GULP energy -198274.818762 kJ/mol
# GULP energy per Si atom -12392.176173 kJ/mol
# Density = 2.265964 g / cm^3
# Si number density = 22.711335 Si / 1000 Ang^3
#
#
#
# Elastic Constant Matrix: (Units=GPa)
#
#
# Indices 1 2 3 4 5 6 
#
# 1 138.3900 40.1497 45.7058 10.7151 -2.2760 11.5481
# 2 40.1497 93.5709 14.9825 -0.2706 -8.8387 -1.3686
# 3 45.7058 14.9825 114.9941 3.9094 -2.8014 -4.6940
# 4 10.7151 -0.2706 3.9094 33.5029 -3.6375 -2.8176
# 5 -2.2760 -8.8387 -2.8014 -3.6375 28.9902 -6.4117
# 6 11.5481 -1.3686 -4.6940 -2.8176 -6.4117 39.8409
#
#
#
# Elastic Compliance Matrix: (Units=1/GPa)
#
#
# Indices 1 2 3 4 5 6 
#
# 1 0.010170 -0.004055 -0.003616 -0.003439 -0.002125 -0.004098
# 2 -0.004055 0.012876 0.000073 0.002082 0.004425 0.002486
# 3 -0.003616 0.000073 0.010247 0.000314 0.001319 0.002492
# 4 -0.003439 0.002082 0.000314 0.031861 0.005325 0.004216
# 5 -0.002125 0.004425 0.001319 0.005325 0.038117 0.007434
# 6 -0.004098 0.002486 0.002492 0.004216 0.007434 0.028161
#
#
# Mechanical properties :
#
#
# Convention : Reuss Voigt Hill
#
# Bulk Modulus (GPa) = 55.26170 60.95900 58.11035
# Shear Modulus (GPa) = 32.75224 36.87459 34.81341
#
# Velocity S-wave (km/s) = 3.80163 4.03379 3.91943
# Velocity P-wave (km/s) = 6.60719 6.97096 6.79151
#
# Compressibility (1/GPa) = 0.01809572
#
# Stress axis : x y z
#
# Youngs Moduli (GPa) = 98.32763 77.66409 97.58919
#
# Poissons Ratio (x) = 0.31496 0.35288
# Poissons Ratio (y) = 0.39876 -0.00710
# Poissons Ratio (z) = 0.35555 -0.00565
#
# Static dielectric constant tensor:
#      x y z
#    x 3.823890 0.208910 -0.235230 
#    y 0.208910 3.911780 -0.010420 
#    z -0.235230 -0.010420 4.142390 
# 
# 
# High freq. dielectric constant tensor:
#      x y z
#    x 1.899130 -0.006720 -0.003730 
#    y -0.006720 1.902790 -0.005980 
#    z -0.003730 -0.005980 1.891720 
# 
# From -- ./inp_files/81402.got.cif
#   From: 2010.06.25/outbox.cif.g09.slc.cpg/sg2_41_cif.got.tgz:81402.got - 2010.06.27 13:26:56.
