data_PCOD8023904
_publ_section_title
;
Structure prediction by ZEFSAII (Michael W. Deem and Ramdas Pophale) SiO2 
 PCOD8023904
Probable space group: P -1
;
_chemical_formula_sum "Si O2"
_cell_formula_units_Z 14
_cell_length_a 8.783678
_cell_length_b 8.809371
_cell_length_c 9.769934
_cell_angle_alpha 115.632250
_cell_angle_beta 78.004020
_cell_angle_gamma 115.208967
_cell_volume 616.415419
_symmetry_space_group_name_H-M "P -1"
_symmetry_group_IT_number 2
_symmetry_cell_setting 'triclinic'
loop_
_space_group_symop_operation_xyz
x,y,z
-x,-y,-z
loop_
_atom_site_type_symbol
_atom_site_label
_atom_site_fract_x
_atom_site_fract_y
_atom_site_fract_z
Si Si1 0.823677 0.324101 0.611852
Si Si2 0.818821 0.887210 0.836789
Si Si3 0.185666 0.041149 0.434847
Si Si4 0.917377 0.281059 0.273548
Si Si5 0.465111 0.170425 0.632079
Si Si6 0.472436 0.300855 0.971502
Si Si7 0.316638 0.837066 0.965250
O O1 0.799283 0.157137 0.656256
O O2 0.873246 0.264500 0.434240
O O3 0.641854 0.344200 0.646159
O O4 0.959347 0.514806 0.711077
O O5 0.992046 0.861379 0.830692
O O6 0.773687 0.844452 0.668740
O O7 0.669917 0.758909 0.909848
O O8 0.830628 0.095718 0.931316
O O9 0.311857 0.179723 0.575194
O O10 0.000000 0.000000 0.500000
O O11 0.744342 0.237434 0.204885
O O12 0.415124 0.160168 0.798545
O O13 0.500000 0.000000 0.500000
O O14 0.500000 0.500000 0.000000
O O15 0.654397 0.313469 0.002724
O O16 0.500000 0.000000 0.000000
#
# Coordination Sequence:
#
# PCOD8023904 Si02
#       7
#     2   2   2   2   2   2   2
#     4  10  23  42  67  95 146 180 235 282 371 394
#     4  11  24  42  71 105 135 184 240 286 357 419
#     4  11  23  41  68 103 138 183 241 287 348 427
#     4  11  23  43  67 104 141 184 227 303 343 430
#     4  10  23  42  70  95 139 187 234 286 348 428
#     4  11  25  47  70 105 141 183 236 300 365 418
#     4  10  24  40  70  99 138 180 237 280 357 418
#
# _framework density 22.711957000000002
#
# number of rings (size 3 to 8) (size 9 to 14) (size 15 to 20)
#    0.000    1.429    1.429    3.000   12.000    2.286 
#    0.000    6.429    0.000    0.000    0.000    0.000 
#    0.000    0.000    0.000    0.000    0.000    0.000 
#
# Total GULP energy -173467.319002 kJ/mol
# GULP energy per Si atom -12390.522786 kJ/mol
# Density = 2.266026 g / cm^3
# Si number density = 22.711957 Si / 1000 Ang^3
#
#
#
# Elastic Constant Matrix: (Units=GPa)
#
#
# Indices 1 2 3 4 5 6 
#
# 1 150.8623 47.3612 56.0738 -6.7416 19.1929 -2.7793
# 2 47.3612 100.9646 43.1628 -15.7429 6.8658 -8.8715
# 3 56.0738 43.1628 126.3412 -16.4079 12.6799 0.0639
# 4 -6.7416 -15.7429 -16.4079 34.1691 3.0753 -2.6675
# 5 19.1929 6.8658 12.6799 3.0753 46.9967 -1.6595
# 6 -2.7793 -8.8715 0.0639 -2.6675 -1.6595 46.0495
#
#
#
# Elastic Compliance Matrix: (Units=1/GPa)
#
#
# Indices 1 2 3 4 5 6 
#
# 1 0.008851 -0.002928 -0.002783 -0.000736 -0.002393 -0.000155
# 2 -0.002928 0.013371 -0.002656 0.004537 -0.000244 0.002657
# 3 -0.002783 -0.002656 0.010667 0.003450 -0.001598 -0.000552
# 4 -0.000736 0.004537 0.003450 0.033378 -0.003384 0.002636
# 5 -0.002393 -0.000244 -0.001598 -0.003384 0.022959 0.000442
# 6 -0.000155 0.002657 -0.000552 0.002636 0.000442 0.022388
#
#
# Mechanical properties :
#
#
# Convention : Reuss Voigt Hill
#
# Bulk Modulus (GPa) = 61.90484 74.59598 68.25041
# Shear Modulus (GPa) = 37.38801 40.88108 39.13455
#
# Velocity S-wave (km/s) = 4.06172 4.24722 4.15550
# Velocity P-wave (km/s) = 7.02228 7.54768 7.28972
#
# Compressibility (1/GPa) = 0.01615383
#
# Stress axis : x y z
#
# Youngs Moduli (GPa) = 112.98244 74.79034 93.75008
#
# Poissons Ratio (x) = 0.21895 0.26095
# Poissons Ratio (y) = 0.33076 0.24903
# Poissons Ratio (z) = 0.31448 0.19866
#
# Static dielectric constant tensor:
#      x y z
#    x 5.415930 -0.582650 0.675570 
#    y -0.582650 4.285930 -0.361040 
#    z 0.675570 -0.361040 4.692330 
# 
# 
# High freq. dielectric constant tensor:
#      x y z
#    x 1.909540 -0.005640 -0.000640 
#    y -0.005640 1.873380 -0.011500 
#    z -0.000640 -0.011500 1.900620 
# 
# From -- ./inp_files/159765.got.cif
#   From: 2010.06.25/outbox.cif.g09.slc.cpg/sg2_80_cif.got.tgz:159765.got - 2010.06.27 13:26:56.
