data_PCOD8023786
_publ_section_title
;
Structure prediction by ZEFSAII (Michael W. Deem and Ramdas Pophale) SiO2 
 PCOD8023786
Probable space group: P -1
;
_chemical_formula_sum "Si O2"
_cell_formula_units_Z 12
_cell_length_a 7.701921
_cell_length_b 8.521006
_cell_length_c 19.692674
_cell_angle_alpha 129.098301
_cell_angle_beta 143.289870
_cell_angle_gamma 54.198603
_cell_volume 590.701568
_symmetry_space_group_name_H-M "P -1"
_symmetry_group_IT_number 2
_symmetry_cell_setting 'triclinic'
loop_
_space_group_symop_operation_xyz
x,y,z
-x,-y,-z
loop_
_atom_site_type_symbol
_atom_site_label
_atom_site_fract_x
_atom_site_fract_y
_atom_site_fract_z
Si Si1 0.930010 0.580088 0.667585
Si Si2 0.724218 0.140319 0.679762
Si Si3 0.552078 0.516481 0.410898
Si Si4 0.250429 0.125559 0.632439
Si Si5 0.789855 0.098624 0.313365
Si Si6 0.260524 0.948714 0.859427
O O1 0.153847 0.369114 0.668178
O O2 0.112771 0.760310 0.789583
O O3 0.727250 0.636033 0.551994
O O4 0.723574 0.561238 0.661802
O O5 0.572486 0.352805 0.657790
O O6 0.500122 0.051890 0.635051
O O7 0.860965 0.985280 0.618842
O O8 0.007564 0.150967 0.821330
O O9 0.783582 0.321807 0.404403
O O10 0.344682 0.052590 0.718670
O O11 0.000000 0.000000 0.500000
O O12 0.596171 0.115218 0.187515
O O13 0.500000 0.000000 0.000000
#
# Coordination Sequence:
#
# PCOD8023786 Si02
#       6
#     2   2   2   2   2   2
#     4  11  23  38  70  99 142 171 224 270 338 406
#     4  10  25  41  67  95 137 175 219 274 334 396
#     4  11  22  42  66 108 131 175 213 283 351 395
#     4  12  23  41  64 106 140 168 213 273 348 408
#     4  10  23  42  65  96 136 170 224 270 334 394
#     4  10  24  46  66  94 134 181 232 272 316 395
#
# _framework density 20.314826
#
# number of rings (size 3 to 8) (size 9 to 14) (size 15 to 20)
#    1.000    0.333    3.333    2.000    4.667    2.667 
#    0.000   10.000    0.000    0.000    0.000    0.000 
#    0.000    0.000    0.000    0.000    0.000    0.000 
#
# Total GULP energy -148667.388959 kJ/mol
# GULP energy per Si atom -12388.949080 kJ/mol
# Density = 2.026859 g / cm^3
# Si number density = 20.314826 Si / 1000 Ang^3
#
#
#
# Elastic Constant Matrix: (Units=GPa)
#
#
# Indices 1 2 3 4 5 6 
#
# 1 163.8664 47.6152 46.4145 -2.9218 -3.3357 6.7790
# 2 47.6152 105.9840 32.1902 -5.5221 9.0578 2.9266
# 3 46.4145 32.1902 120.4431 4.0789 4.8269 18.4108
# 4 -2.9218 -5.5221 4.0789 23.8686 1.2620 -1.9218
# 5 -3.3357 9.0578 4.8269 1.2620 21.0542 -3.8919
# 6 6.7790 2.9266 18.4108 -1.9218 -3.8919 42.7045
#
#
#
# Elastic Compliance Matrix: (Units=1/GPa)
#
#
# Indices 1 2 3 4 5 6 
#
# 1 0.007696 -0.002986 -0.002354 0.000515 0.003069 0.000301
# 2 -0.002986 0.011983 -0.001964 0.003036 -0.005333 0.000150
# 3 -0.002354 -0.001964 0.010610 -0.002774 -0.002613 -0.004429
# 4 0.000515 0.003036 -0.002774 0.043490 -0.002712 0.002616
# 5 0.003069 -0.005333 -0.002613 -0.002712 0.052079 0.005629
# 6 0.000301 0.000150 -0.004429 0.002616 0.005629 0.025899
#
#
# Mechanical properties :
#
#
# Convention : Reuss Voigt Hill
#
# Bulk Modulus (GPa) = 63.77066 71.41482 67.59274
# Shear Modulus (GPa) = 29.13856 35.13035 32.13445
#
# Velocity S-wave (km/s) = 3.79139 4.16299 3.98153
# Velocity P-wave (km/s) = 7.11516 7.63791 7.38117
#
# Compressibility (1/GPa) = 0.01568119
#
# Stress axis : x y z
#
# Youngs Moduli (GPa) = 129.93241 83.44893 94.24652
#
# Poissons Ratio (x) = 0.24921 0.22187
# Poissons Ratio (y) = 0.38803 0.18510
# Poissons Ratio (z) = 0.30588 0.16389
#
# Static dielectric constant tensor:
#      x y z
#    x 4.373670 0.174360 -0.273290 
#    y 0.174360 3.910770 -0.302200 
#    z -0.273290 -0.302200 3.173900 
# 
# 
# High freq. dielectric constant tensor:
#      x y z
#    x 1.820300 0.007250 -0.010590 
#    y 0.007250 1.805980 -0.019180 
#    z -0.010590 -0.019180 1.731110 
# 
# From -- ./inp_files/265141.got.cif
#   From: 2010.06.25/outbox.cif.g09.slc.cpg/sg2_133_cif.got.tgz:265141.got - 2010.06.27 13:26:56.
