data_PCOD8023811
_publ_section_title
;
Structure prediction by ZEFSAII (Michael W. Deem and Ramdas Pophale) SiO2 
 PCOD8023811
Probable space group: P -1
;
_chemical_formula_sum "Si O2"
_cell_formula_units_Z 16
_cell_length_a 14.174358
_cell_length_b 17.499955
_cell_length_c 22.568561
_cell_angle_alpha 157.973992
_cell_angle_beta 19.836638
_cell_angle_gamma 147.662774
_cell_volume 696.096029
_symmetry_space_group_name_H-M "P -1"
_symmetry_group_IT_number 2
_symmetry_cell_setting 'triclinic'
loop_
_space_group_symop_operation_xyz
x,y,z
-x,-y,-z
loop_
_atom_site_type_symbol
_atom_site_label
_atom_site_fract_x
_atom_site_fract_y
_atom_site_fract_z
Si Si1 0.936693 0.919885 0.044661
Si Si2 0.488796 0.011206 0.811965
Si Si3 0.713177 0.907250 0.728197
Si Si4 0.795141 0.211136 0.993393
Si Si5 0.388893 0.207764 0.624513
Si Si6 0.663158 0.426054 0.007666
Si Si7 0.810432 0.489733 0.835925
Si Si8 0.203430 0.333165 0.698108
O O1 0.629457 0.021606 0.325847
O O2 0.948379 0.673872 0.860557
O O3 0.172359 0.981335 0.993245
O O4 0.000000 0.000000 0.000000
O O5 0.711858 0.929637 0.674061
O O6 0.578005 0.875254 0.602532
O O7 0.476212 0.255233 0.980861
O O8 0.971927 0.723177 0.464058
O O9 0.759442 0.119685 0.883191
O O10 0.401991 0.875514 0.906356
O O11 0.129796 0.137451 0.762925
O O12 0.689742 0.461008 0.236989
O O13 0.202739 0.330151 0.767780
O O14 0.520547 0.368215 0.702818
O O15 0.791235 0.502313 0.927197
O O16 0.905755 0.324549 0.837679
O O17 0.500000 0.500000 0.000000
#
# Coordination Sequence:
#
# PCOD8023811 Si02
#       8
#     2   2   2   2   2   2   2   2
#     4  12  27  46  69 101 138 184 226 284 349 405
#     4  12  24  42  73 103 137 178 232 284 339 410
#     4  11  24  43  69 102 140 175 233 287 341 404
#     4  10  23  42  66 103 135 181 223 285 343 399
#     4  11  24  45  69  98 141 181 230 279 344 412
#     4  11  25  44  71 105 133 183 232 277 346 410
#     4  12  27  46  72 100 140 184 231 283 343 413
#     4  11  21  41  75  96 138 175 232 281 337 411
#
# _framework density 22.985333000000001
#
# number of rings (size 3 to 8) (size 9 to 14) (size 15 to 20)
#    0.000    0.750    2.500    5.625    5.250    2.000 
#    4.500    0.000    0.000    0.000    0.000    0.000 
#    0.000    0.000    0.000    0.000    0.000    0.000 
#
# Total GULP energy -198377.720951 kJ/mol
# GULP energy per Si atom -12398.607559 kJ/mol
# Density = 2.293302 g / cm^3
# Si number density = 22.985333 Si / 1000 Ang^3
#
#
#
# Elastic Constant Matrix: (Units=GPa)
#
#
# Indices 1 2 3 4 5 6 
#
# 1 81.5289 30.1731 25.7883 9.3869 11.7619 5.6065
# 2 30.1731 142.3892 35.5466 14.9855 6.4389 23.3665
# 3 25.7883 35.5466 102.9578 -4.7616 9.9457 9.4836
# 4 9.3869 14.9855 -4.7616 36.6356 7.8483 3.3767
# 5 11.7619 6.4389 9.9457 7.8483 37.9413 2.1395
# 6 5.6065 23.3665 9.4836 3.3767 2.1395 33.6816
#
#
#
# Elastic Compliance Matrix: (Units=1/GPa)
#
#
# Indices 1 2 3 4 5 6 
#
# 1 0.014619 -0.002012 -0.002831 -0.002688 -0.002905 0.000213
# 2 -0.002012 0.009197 -0.002416 -0.003231 0.000651 -0.005083
# 3 -0.002831 -0.002416 0.011813 0.003923 -0.002541 -0.001411
# 4 -0.002688 -0.003231 0.003923 0.031217 -0.006039 -0.001161
# 5 -0.002905 0.000651 -0.002541 -0.006039 0.029090 -0.000495
# 6 0.000213 -0.005083 -0.001411 -0.001161 -0.000495 0.033726
#
#
# Mechanical properties :
#
#
# Convention : Reuss Voigt Hill
#
# Bulk Modulus (GPa) = 47.36451 56.65465 52.00958
# Shear Modulus (GPa) = 33.06546 37.34287 35.20417
#
# Velocity S-wave (km/s) = 3.79693 4.03505 3.91780
# Velocity P-wave (km/s) = 6.31454 6.81253 6.56826
#
# Compressibility (1/GPa) = 0.02111285
#
# Stress axis : x y z
#
# Youngs Moduli (GPa) = 68.40214 108.72935 84.65592
#
# Poissons Ratio (x) = 0.21877 0.23962
# Poissons Ratio (y) = 0.13763 0.20449
# Poissons Ratio (z) = 0.19361 0.26264
#
# Static dielectric constant tensor:
#      x y z
#    x 4.142690 0.187060 0.110440 
#    y 0.187060 4.195930 0.041390 
#    z 0.110440 0.041390 4.091720 
# 
# 
# High freq. dielectric constant tensor:
#      x y z
#    x 1.906650 0.011340 0.013850 
#    y 0.011340 1.915480 0.003600 
#    z 0.013850 0.003600 1.904560 
# 
# From -- ./inp_files/612203.got.cif
#   From: 2010.06.25/outbox.cif.g09.slc.cpg/sg2_307_cif.got.tgz:612203.got - 2010.06.27 13:26:56.
