data_PCOD8023251
_publ_section_title
;
Structure prediction by ZEFSAII (Michael W. Deem and Ramdas Pophale) SiO2 
 PCOD8023251
Probable space group: P -1
;
_chemical_formula_sum "Si O2"
_cell_formula_units_Z 16
_cell_length_a 11.247911
_cell_length_b 12.050928
_cell_length_c 11.871676
_cell_angle_alpha 71.908111
_cell_angle_beta 44.478968
_cell_angle_gamma 107.117196
_cell_volume 677.790269
_symmetry_space_group_name_H-M "P -1"
_symmetry_group_IT_number 2
_symmetry_cell_setting 'triclinic'
loop_
_space_group_symop_operation_xyz
x,y,z
-x,-y,-z
loop_
_atom_site_type_symbol
_atom_site_label
_atom_site_fract_x
_atom_site_fract_y
_atom_site_fract_z
Si Si1 0.631251 0.192061 0.379428
Si Si2 0.622986 0.793803 0.073606
Si Si3 0.092810 0.286010 0.412460
Si Si4 0.780404 0.269226 0.016826
Si Si5 0.370278 0.862366 0.362818
Si Si6 0.143741 0.106026 0.753232
Si Si7 0.524224 0.702521 0.919260
Si Si8 0.209886 0.395086 0.544908
O O1 0.836698 0.324956 0.094302
O O2 0.772603 0.260915 0.385666
O O3 0.407976 0.172549 0.537414
O O4 0.500000 0.000000 0.500000
O O5 0.442478 0.794733 0.254587
O O6 0.606709 0.807610 0.947117
O O7 0.501873 0.602029 0.249337
O O8 0.934273 0.964493 0.840850
O O9 0.283162 0.485035 0.169130
O O10 0.039738 0.280346 0.582215
O O11 0.815994 0.145776 0.575031
O O12 0.218691 0.225259 0.330069
O O13 0.645417 0.070493 0.149968
O O14 0.574917 0.256007 0.115578
O O15 0.059501 0.413956 0.714872
O O16 0.238799 0.291484 0.628322
O O17 0.000000 0.000000 0.000000
#
# Coordination Sequence:
#
# PCOD8023251 Si02
#       8
#     2   2   2   2   2   2   2   2
#     4  10  23  42  64  96 133 173 216 268 323 382
#     4  11  24  42  69  99 128 174 216 267 335 379
#     4  10  23  42  64  93 135 165 219 274 321 391
#     4  11  22  40  67  95 135 172 218 270 324 387
#     4  11  22  41  64  95 129 175 218 264 325 390
#     4  12  23  45  70  95 135 169 219 272 316 395
#     4  10  23  41  63  98 128 169 216 276 326 381
#     4  11  24  44  69  99 132 171 216 272 325 386
#
# _framework density 23.606123
#
# number of rings (size 3 to 8) (size 9 to 14) (size 15 to 20)
#    0.000    1.250    2.500    3.000    5.250    4.000 
#    0.000    2.500    0.000    0.000    0.000    0.000 
#    0.000    0.000    0.000    0.000    0.000    0.000 
#
# Total GULP energy -198439.309210 kJ/mol
# GULP energy per Si atom -12402.456826 kJ/mol
# Density = 2.355239 g / cm^3
# Si number density = 23.606123 Si / 1000 Ang^3
#
#
#
# Elastic Constant Matrix: (Units=GPa)
#
#
# Indices 1 2 3 4 5 6 
#
# 1 104.1488 30.8745 19.7767 21.2720 10.6580 -14.8627
# 2 30.8745 79.0641 12.7162 30.4233 4.1850 -1.1014
# 3 19.7767 12.7162 64.7078 31.4786 11.5088 0.0880
# 4 21.2720 30.4233 31.4786 45.3346 4.9252 5.6270
# 5 10.6580 4.1850 11.5088 4.9252 39.8458 7.4596
# 6 -14.8627 -1.1014 0.0880 5.6270 7.4596 36.5604
#
#
#
# Elastic Compliance Matrix: (Units=1/GPa)
#
#
# Indices 1 2 3 4 5 6 
#
# 1 0.012718 -0.003140 -0.000862 -0.003665 -0.003562 0.006369
# 2 -0.003140 0.018718 0.004365 -0.014222 -0.000939 0.001657
# 3 -0.000862 0.004365 0.025773 -0.020280 -0.005923 0.004049
# 4 -0.003665 -0.014222 -0.020280 0.048200 0.004276 -0.010161
# 5 -0.003562 -0.000939 -0.005923 0.004276 0.028829 -0.008002
# 6 0.006369 0.001657 0.004049 -0.010161 -0.008002 0.033178
#
#
# Mechanical properties :
#
#
# Convention : Reuss Voigt Hill
#
# Bulk Modulus (GPa) = 17.26091 41.62840 29.44466
# Shear Modulus (GPa) = 26.88142 36.65170 31.76656
#
# Velocity S-wave (km/s) = 3.37819 3.94462 3.67235
# Velocity P-wave (km/s) = 4.74807 6.19836 5.52104
#
# Compressibility (1/GPa) = 0.05793436
#
# Stress axis : x y z
#
# Youngs Moduli (GPa) = 78.62706 53.42588 38.79980
#
# Poissons Ratio (x) = 0.16777 0.03345
# Poissons Ratio (y) = 0.24690 -0.16935
# Poissons Ratio (z) = 0.06778 -0.23319
#
# Static dielectric constant tensor:
#      x y z
#    x 4.502940 0.112410 0.310660 
#    y 0.112410 4.903800 0.654240 
#    z 0.310660 0.654240 4.617930 
# 
# 
# High freq. dielectric constant tensor:
#      x y z
#    x 1.939480 -0.003290 0.020550 
#    y -0.003290 1.942730 0.010290 
#    z 0.020550 0.010290 1.928640 
# 
# From -- ./inp_files/219043.got.cif
#   From: 2010.06.25/outbox.cif.g09.slc.cpg/sg2_110_cif.got.tgz:219043.got - 2010.06.27 13:26:56.
