data_PCOD8023713
_publ_section_title
;
Structure prediction by ZEFSAII (Michael W. Deem and Ramdas Pophale) SiO2 
 PCOD8023713
Probable space group: P -1
;
_chemical_formula_sum "Si O2"
_cell_formula_units_Z 12
_cell_length_a 16.501450
_cell_length_b 19.979876
_cell_length_c 10.051083
_cell_angle_alpha 38.452632
_cell_angle_beta 49.781919
_cell_angle_gamma 19.041854
_cell_volume 594.830550
_symmetry_space_group_name_H-M "P -1"
_symmetry_group_IT_number 2
_symmetry_cell_setting 'triclinic'
loop_
_space_group_symop_operation_xyz
x,y,z
-x,-y,-z
loop_
_atom_site_type_symbol
_atom_site_label
_atom_site_fract_x
_atom_site_fract_y
_atom_site_fract_z
Si Si1 0.738777 0.235989 0.756094
Si Si2 0.186061 0.086717 0.833892
Si Si3 0.649449 0.285391 0.069417
Si Si4 0.192906 0.438200 0.015520
Si Si5 0.720303 0.577412 0.769504
Si Si6 0.191030 0.192228 0.391290
O O1 0.500000 0.500000 0.500000
O O2 0.627712 0.359666 0.830842
O O3 0.818512 0.037110 0.955998
O O4 0.022154 0.038217 0.737619
O O5 0.106111 0.196237 0.598695
O O6 0.961725 0.350768 0.758282
O O7 0.488607 0.847903 0.926765
O O8 0.500000 0.500000 0.000000
O O9 0.497639 0.314398 0.185250
O O10 0.988180 0.678116 0.747360
O O11 0.142201 0.553327 0.025491
O O12 0.123973 0.378134 0.208903
O O13 0.524854 0.867362 0.511943
#
# Coordination Sequence:
#
# PCOD8023713 Si02
#       6
#     2   2   2   2   2   2
#     4  11  25  42  63  90 124 163 208 251 298 362
#     4  11  22  41  63  92 123 163 202 253 306 359
#     4  11  23  43  61  91 126 159 205 251 305 358
#     4  10  23  42  64  92 122 160 207 253 306 361
#     4  11  22  40  63  93 124 162 201 251 306 363
#     4  10  23  43  65  88 124 163 202 257 307 359
#
# _framework density 20.173812000000002
#
# number of rings (size 3 to 8) (size 9 to 14) (size 15 to 20)
#    0.000    1.333    5.000    2.000    2.333    4.667 
#    3.000    3.333    0.000    0.000    0.000    0.000 
#    0.000    0.000    0.000    0.000    0.000    0.000 
#
# Total GULP energy -148813.346203 kJ/mol
# GULP energy per Si atom -12401.112184 kJ/mol
# Density = 2.012790 g / cm^3
# Si number density = 20.173812 Si / 1000 Ang^3
#
#
#
# Elastic Constant Matrix: (Units=GPa)
#
#
# Indices 1 2 3 4 5 6 
#
# 1 100.4920 36.4654 37.1654 -2.4430 23.5873 4.0741
# 2 36.4654 133.2232 40.7523 -2.9942 25.5169 28.8725
# 3 37.1654 40.7523 98.6901 -4.6772 30.3036 2.1268
# 4 -2.4430 -2.9942 -4.6772 14.3912 -8.9580 -2.9521
# 5 23.5873 25.5169 30.3036 -8.9580 44.3330 -2.1918
# 6 4.0741 28.8725 2.1268 -2.9521 -2.1918 39.9817
#
#
#
# Elastic Compliance Matrix: (Units=1/GPa)
#
#
# Indices 1 2 3 4 5 6 
#
# 1 0.012569 -0.001794 -0.002814 -0.001740 -0.004092 -0.000188
# 2 -0.001794 0.011514 -0.002492 -0.003668 -0.005133 -0.008551
# 3 -0.002814 -0.002492 0.014295 -0.000448 -0.006884 0.000916
# 4 -0.001740 -0.003668 -0.000448 0.083220 0.020659 0.010127
# 5 -0.004092 -0.005133 -0.006884 0.020659 0.036966 0.008042
# 6 -0.000188 -0.008551 0.000916 0.010127 0.008042 0.032346
#
#
# Mechanical properties :
#
#
# Convention : Reuss Voigt Hill
#
# Bulk Modulus (GPa) = 41.36389 62.35238 51.85814
# Shear Modulus (GPa) = 23.45570 34.27600 28.86585
#
# Velocity S-wave (km/s) = 3.41351 4.12641 3.78677
# Velocity P-wave (km/s) = 6.00702 7.32650 6.69933
#
# Compressibility (1/GPa) = 0.02417568
#
# Stress axis : x y z
#
# Youngs Moduli (GPa) = 79.56340 86.85455 69.95613
#
# Poissons Ratio (x) = 0.15581 0.19689
# Poissons Ratio (y) = 0.14273 0.17435
# Poissons Ratio (z) = 0.22393 0.21646
#
# Static dielectric constant tensor:
#      x y z
#    x 4.075580 0.166100 -0.127970 
#    y 0.166100 3.969600 -0.292420 
#    z -0.127970 -0.292420 3.850680 
# 
# 
# High freq. dielectric constant tensor:
#      x y z
#    x 1.807380 -0.003960 0.003320 
#    y -0.003960 1.785340 -0.000460 
#    z 0.003320 -0.000460 1.777910 
# 
# From -- ./inp_files/48438.got.cif
#   From: 2010.06.25/outbox.cif.g09.slc.cpg/sg2_25_cif.got.tgz:48438.got - 2010.06.27 13:26:56.
