data_PCOD8023289
_publ_section_title
;
Structure prediction by ZEFSAII (Michael W. Deem and Ramdas Pophale) SiO2 
 PCOD8023289
Probable space group: P -1
;
_chemical_formula_sum "Si O2"
_cell_formula_units_Z 14
_cell_length_a 10.557141
_cell_length_b 11.011344
_cell_length_c 7.133627
_cell_angle_alpha 113.123277
_cell_angle_beta 112.541989
_cell_angle_gamma 54.989692
_cell_volume 610.741875
_symmetry_space_group_name_H-M "P -1"
_symmetry_group_IT_number 2
_symmetry_cell_setting 'triclinic'
loop_
_space_group_symop_operation_xyz
x,y,z
-x,-y,-z
loop_
_atom_site_type_symbol
_atom_site_label
_atom_site_fract_x
_atom_site_fract_y
_atom_site_fract_z
Si Si1 0.019231 0.261157 0.101199
Si Si2 0.725429 0.553873 0.146336
Si Si3 0.482493 0.381693 0.286685
Si Si4 0.030067 0.138995 0.628807
Si Si5 0.360820 0.172879 0.219637
Si Si6 0.342351 0.120724 0.742609
Si Si7 0.204574 0.691215 0.692886
O O1 0.190467 0.228692 0.253436
O O2 0.910410 0.445398 0.124836
O O3 0.930625 0.206468 0.167761
O O4 0.034765 0.169981 0.867645
O O5 0.681815 0.725346 0.274908
O O6 0.699714 0.483962 0.282589
O O7 0.623970 0.542558 0.911052
O O8 0.500000 0.500000 0.500000
O O9 0.413502 0.299758 0.328506
O O10 0.660712 0.261460 0.237555
O O11 0.195089 0.097311 0.596222
O O12 0.887618 0.290365 0.543251
O O13 0.000000 0.000000 0.500000
O O14 0.491778 0.023946 0.315796
O O15 0.346999 0.136753 0.976298
#
# Coordination Sequence:
#
# PCOD8023289 Si02
#       7
#     2   2   2   2   2   2   2
#     4   9  22  42  66  96 125 167 218 264 319 382
#     4   9  21  40  63  91 126 169 213 264 319 376
#     4  11  21  37  66  98 132 168 215 265 326 386
#     4  11  22  39  64  96 133 170 211 265 330 382
#     4   9  19  39  64  93 126 171 212 264 324 382
#     4   9  19  37  64  89 126 170 213 262 322 383
#     4  10  23  41  64  96 130 166 216 268 319 381
#
# _framework density 22.922941999999999
#
# number of rings (size 3 to 8) (size 9 to 14) (size 15 to 20)
#    0.857    1.429    0.000    2.143    0.000    8.571 
#    2.571    0.714    0.000    0.000    0.000    0.000 
#    0.000    0.000    0.000    0.000    0.000    0.000 
#
# Total GULP energy -173445.308912 kJ/mol
# GULP energy per Si atom -12388.950637 kJ/mol
# Density = 2.287077 g / cm^3
# Si number density = 22.922942 Si / 1000 Ang^3
#
#
#
# Elastic Constant Matrix: (Units=GPa)
#
#
# Indices 1 2 3 4 5 6 
#
# 1 156.9821 43.0422 48.5623 2.3070 23.0804 -25.1968
# 2 43.0422 108.8743 40.4659 7.3958 24.4834 -8.0757
# 3 48.5623 40.4659 75.7175 4.4328 23.2434 8.6656
# 4 2.3070 7.3958 4.4328 19.1752 3.6955 5.3240
# 5 23.0804 24.4834 23.2434 3.6955 35.5493 -6.3185
# 6 -25.1968 -8.0757 8.6656 5.3240 -6.3185 44.8864
#
#
#
# Elastic Compliance Matrix: (Units=1/GPa)
#
#
# Indices 1 2 3 4 5 6 
#
# 1 0.009690 -0.000832 -0.006385 -0.001161 -0.000245 0.006626
# 2 -0.000832 0.012782 -0.005153 -0.003606 -0.004041 0.002686
# 3 -0.006385 -0.005153 0.024379 0.002165 -0.010415 -0.010941
# 4 -0.001161 -0.003606 0.002165 0.056860 -0.005737 -0.009270
# 5 -0.000245 -0.004041 -0.010415 -0.005737 0.039799 0.007429
# 6 0.006626 0.002686 -0.010941 -0.009270 0.007429 0.030739
#
#
# Mechanical properties :
#
#
# Convention : Reuss Voigt Hill
#
# Bulk Modulus (GPa) = 45.22907 67.30164 56.26536
# Shear Modulus (GPa) = 24.22953 33.88906 29.05930
#
# Velocity S-wave (km/s) = 3.25468 3.84916 3.56433
# Velocity P-wave (km/s) = 5.82217 7.01273 6.44500
#
# Compressibility (1/GPa) = 0.02210967
#
# Stress axis : x y z
#
# Youngs Moduli (GPa) = 103.19710 78.23362 41.01935
#
# Poissons Ratio (x) = 0.06511 0.26192
# Poissons Ratio (y) = 0.08588 0.21138
# Poissons Ratio (z) = 0.65895 0.40315
#
# Static dielectric constant tensor:
#      x y z
#    x 4.498610 -0.251900 0.201310 
#    y -0.251900 4.196750 -0.382420 
#    z 0.201310 -0.382420 3.875320 
# 
# 
# High freq. dielectric constant tensor:
#      x y z
#    x 1.913430 -0.012410 0.007620 
#    y -0.012410 1.895860 -0.024710 
#    z 0.007620 -0.024710 1.893200 
# 
# From -- ./inp_files/260286.got.cif
#   From: 2010.06.25/outbox.cif.g09.slc.cpg/sg2_131_cif.got.tgz:260286.got - 2010.06.27 13:26:56.
