data_PCOD8023794
_publ_section_title
;
Structure prediction by ZEFSAII (Michael W. Deem and Ramdas Pophale) SiO2 
 PCOD8023794
Probable space group: P -1
;
_chemical_formula_sum "Si O2"
_cell_formula_units_Z 16
_cell_length_a 10.426606
_cell_length_b 7.843931
_cell_length_c 13.813922
_cell_angle_alpha 100.317252
_cell_angle_beta 57.657244
_cell_angle_gamma 133.533877
_cell_volume 658.076502
_symmetry_space_group_name_H-M "P -1"
_symmetry_group_IT_number 2
_symmetry_cell_setting 'triclinic'
loop_
_space_group_symop_operation_xyz
x,y,z
-x,-y,-z
loop_
_atom_site_type_symbol
_atom_site_label
_atom_site_fract_x
_atom_site_fract_y
_atom_site_fract_z
Si Si1 0.049526 0.399687 0.890730
Si Si2 0.868290 0.056488 0.309012
Si Si3 0.767488 0.155035 0.705696
Si Si4 0.626511 0.925920 0.934579
Si Si5 0.646456 0.444082 0.839830
Si Si6 0.629124 0.806612 0.559158
Si Si7 0.200689 0.614299 0.647266
Si Si8 0.599946 0.593645 0.240611
O O1 0.090915 0.537329 0.789330
O O2 0.260295 0.464304 0.843879
O O3 0.845429 0.107679 0.928429
O O4 0.000000 0.500000 0.000000
O O5 0.759399 0.156175 0.378005
O O6 0.125132 0.273574 0.209338
O O7 0.818218 0.915105 0.416444
O O8 0.758944 0.871808 0.244221
O O9 0.670935 0.267403 0.774476
O O10 0.028906 0.379594 0.622120
O O11 0.685167 0.948748 0.799578
O O12 0.691901 0.025766 0.619393
O O13 0.477735 0.655146 0.015582
O O14 0.500000 0.000000 0.000000
O O15 0.509479 0.437400 0.816713
O O16 0.418046 0.679740 0.567175
O O17 0.581557 0.601524 0.624907
#
# Coordination Sequence:
#
# PCOD8023794 Si02
#       8
#     2   2   2   2   2   2   2   2
#     4  10  23  42  67  95 126 170 216 265 326 395
#     4  11  24  44  63  96 136 169 222 268 320 389
#     4   9  20  41  67  96 128 169 228 262 315 382
#     4   9  20  40  68  94 127 167 212 267 317 386
#     4  10  23  42  65  97 135 176 209 270 328 382
#     4  11  23  40  69  93 127 181 219 269 321 376
#     4   9  21  40  66  98 127 165 222 272 314 380
#     4  11  26  42  62  97 134 170 216 268 334 390
#
# _framework density 24.313282999999998
#
# number of rings (size 3 to 8) (size 9 to 14) (size 15 to 20)
#    0.000    2.000    0.000    2.250    8.750    7.000 
#    0.000    1.250    0.000    0.000    0.000    0.000 
#    0.000    0.000    0.000    0.000    0.000    0.000 
#
# Total GULP energy -198425.189763 kJ/mol
# GULP energy per Si atom -12401.574360 kJ/mol
# Density = 2.425794 g / cm^3
# Si number density = 24.313283 Si / 1000 Ang^3
#
#
#
# Elastic Constant Matrix: (Units=GPa)
#
#
# Indices 1 2 3 4 5 6 
#
# 1 105.8079 23.8454 15.0547 -15.3480 18.5579 8.9057
# 2 23.8454 84.3133 18.4272 -18.3236 4.7922 0.3846
# 3 15.0547 18.4272 84.2106 -30.6691 9.3397 -2.2474
# 4 -15.3480 -18.3236 -30.6691 36.2517 -3.2759 3.5245
# 5 18.5579 4.7922 9.3397 -3.2759 20.9878 -7.2412
# 6 8.9057 0.3846 -2.2474 3.5245 -7.2412 26.3358
#
#
#
# Elastic Compliance Matrix: (Units=1/GPa)
#
#
# Indices 1 2 3 4 5 6 
#
# 1 0.013933 -0.002151 0.001402 0.005570 -0.014820 -0.009381
# 2 -0.002151 0.013828 -0.000587 0.005594 -0.000238 -0.000339
# 3 0.001402 -0.000587 0.018067 0.015175 -0.007851 -0.003113
# 4 0.005570 0.005594 0.015175 0.045694 -0.009020 -0.009266
# 5 -0.014820 -0.000238 -0.007851 -0.009020 0.071599 0.025239
# 6 -0.009381 -0.000339 -0.003113 -0.009266 0.025239 0.049062
#
#
# Mechanical properties :
#
#
# Convention : Reuss Voigt Hill
#
# Bulk Modulus (GPa) = 23.17182 43.22074 33.19628
# Shear Modulus (GPa) = 21.81111 31.18203 26.49657
#
# Velocity S-wave (km/s) = 2.99839 3.58510 3.30479
# Velocity P-wave (km/s) = 4.64094 5.91206 5.31464
#
# Compressibility (1/GPa) = 0.04315587
#
# Stress axis : x y z
#
# Youngs Moduli (GPa) = 71.77032 72.31764 55.34936
#
# Poissons Ratio (x) = 0.15557 -0.07759
# Poissons Ratio (y) = 0.15440 0.03248
# Poissons Ratio (z) = -0.10061 0.04243
#
# Static dielectric constant tensor:
#      x y z
#    x 4.461580 0.074680 0.179580 
#    y 0.074680 4.422790 -0.456270 
#    z 0.179580 -0.456270 4.458360 
# 
# 
# High freq. dielectric constant tensor:
#      x y z
#    x 1.962640 0.004480 0.004030 
#    y 0.004480 1.973190 -0.015930 
#    z 0.004030 -0.015930 1.963530 
# 
# From -- ./inp_files/515768.got.cif
#   From: 2010.06.25/outbox.cif.g09.slc.cpg/sg2_258_cif.got.tgz:515768.got - 2010.06.27 13:26:56.
