data_PCOD8023286
_publ_section_title
;
Structure prediction by ZEFSAII (Michael W. Deem and Ramdas Pophale) SiO2 
 PCOD8023286
Probable space group: P -1
;
_chemical_formula_sum "Si O2"
_cell_formula_units_Z 14
_cell_length_a 22.380090
_cell_length_b 6.367478
_cell_length_c 14.326999
_cell_angle_alpha 91.054157
_cell_angle_beta 21.030270
_cell_angle_gamma 101.261675
_cell_volume 635.911162
_symmetry_space_group_name_H-M "P -1"
_symmetry_group_IT_number 2
_symmetry_cell_setting 'triclinic'
loop_
_space_group_symop_operation_xyz
x,y,z
-x,-y,-z
loop_
_atom_site_type_symbol
_atom_site_label
_atom_site_fract_x
_atom_site_fract_y
_atom_site_fract_z
Si Si1 0.698301 0.772107 0.965142
Si Si2 0.806690 0.180325 0.068272
Si Si3 0.498053 0.694834 0.434280
Si Si4 0.069865 0.744944 0.454657
Si Si5 0.863612 0.316621 0.435234
Si Si6 0.944077 0.967846 0.189555
Si Si7 0.585466 0.479980 0.779182
O O1 0.881392 0.767978 0.739458
O O2 0.525337 0.634095 0.289186
O O3 0.605758 0.627323 0.004789
O O4 0.766668 0.052088 0.847368
O O5 0.701142 0.308460 0.272738
O O6 0.668044 0.972140 0.198653
O O7 0.988029 0.400964 0.756569
O O8 0.874541 0.048199 0.039786
O O9 0.500000 0.500000 0.500000
O O10 0.000000 0.500000 0.500000
O O11 0.166890 0.790118 0.416609
O O12 0.673912 0.301773 0.665249
O O13 0.941247 0.193745 0.246445
O O14 0.743175 0.731591 0.505142
O O15 0.000000 0.000000 0.000000
O O16 0.500000 0.500000 0.000000
#
# Coordination Sequence:
#
# PCOD8023286 Si02
#       7
#     2   2   2   2   2   2   2
#     4  11  25  40  66  98 131 168 226 277 330 407
#     4  10  23  41  64  95 132 170 225 273 339 403
#     4  11  23  40  66  97 133 172 222 282 340 399
#     4  11  23  43  68  96 133 173 222 275 351 402
#     4  11  24  45  69  93 141 180 222 286 345 399
#     4  11  26  43  68  96 137 187 231 275 347 408
#     4  11  26  45  67 102 139 178 235 282 337 416
#
# _framework density 22.015651999999999
#
# number of rings (size 3 to 8) (size 9 to 14) (size 15 to 20)
#    0.000    1.143    0.000    5.143    6.000   10.286 
#    0.000    0.000    0.000    0.000    0.000    0.000 
#    0.000    0.000    0.000    0.000    0.000    0.000 
#
# Total GULP energy -173468.619539 kJ/mol
# GULP energy per Si atom -12390.615681 kJ/mol
# Density = 2.196554 g / cm^3
# Si number density = 22.015652 Si / 1000 Ang^3
#
#
#
# Elastic Constant Matrix: (Units=GPa)
#
#
# Indices 1 2 3 4 5 6 
#
# 1 113.7878 34.7193 35.7749 8.3709 19.7028 -2.7930
# 2 34.7193 105.8217 23.0684 7.1440 16.5394 -5.5568
# 3 35.7749 23.0684 86.1121 3.4709 14.5277 -7.9267
# 4 8.3709 7.1440 3.4709 39.3053 3.1383 -6.1300
# 5 19.7028 16.5394 14.5277 3.1383 48.4359 6.5902
# 6 -2.7930 -5.5568 -7.9267 -6.1300 6.5902 36.4615
#
#
#
# Elastic Compliance Matrix: (Units=1/GPa)
#
#
# Indices 1 2 3 4 5 6 
#
# 1 0.011176 -0.002405 -0.003512 -0.001435 -0.002572 -0.000050
# 2 -0.002405 0.011076 -0.001363 -0.000943 -0.002539 0.001508
# 3 -0.003512 -0.001363 0.014189 0.000467 -0.002827 0.003198
# 4 -0.001435 -0.000943 0.000467 0.026727 -0.001596 0.004630
# 5 -0.002572 -0.002539 -0.002827 -0.001596 0.024308 -0.005860
# 6 -0.000050 0.001508 0.003198 0.004630 -0.005860 0.030185
#
#
# Mechanical properties :
#
#
# Convention : Reuss Voigt Hill
#
# Bulk Modulus (GPa) = 45.69946 54.76074 50.23010
# Shear Modulus (GPa) = 35.83887 38.98446 37.41167
#
# Velocity S-wave (km/s) = 4.03908 4.21261 4.12675
# Velocity P-wave (km/s) = 6.52342 6.97058 6.75070
#
# Compressibility (1/GPa) = 0.02188210
#
# Stress axis : x y z
#
# Youngs Moduli (GPa) = 89.47887 90.28821 70.47596
#
# Poissons Ratio (x) = 0.21714 0.24748
# Poissons Ratio (y) = 0.21520 0.09604
# Poissons Ratio (z) = 0.31421 0.12304
#
# Static dielectric constant tensor:
#      x y z
#    x 4.087800 -0.252130 -0.191790 
#    y -0.252130 4.042180 0.097260 
#    z -0.191790 0.097260 4.195080 
# 
# 
# High freq. dielectric constant tensor:
#      x y z
#    x 1.874210 -0.007510 -0.001130 
#    y -0.007510 1.871220 -0.004220 
#    z -0.001130 -0.004220 1.876240 
# 
# From -- ./inp_files/69483.got.cif
#   From: 2010.06.25/outbox.cif.g09.slc.cpg/sg2_35_cif.got.tgz:69483.got - 2010.06.27 13:26:56.
