data_PCOD8023958
_publ_section_title
;
Structure prediction by ZEFSAII (Michael W. Deem and Ramdas Pophale) SiO2 
 PCOD8023958
Probable space group: P -1
;
_chemical_formula_sum "Si O2"
_cell_formula_units_Z 14
_cell_length_a 11.953292
_cell_length_b 10.980242
_cell_length_c 5.769415
_cell_angle_alpha 97.649071
_cell_angle_beta 50.298687
_cell_angle_gamma 100.993786
_cell_volume 571.849984
_symmetry_space_group_name_H-M "P -1"
_symmetry_group_IT_number 2
_symmetry_cell_setting 'triclinic'
loop_
_space_group_symop_operation_xyz
x,y,z
-x,-y,-z
loop_
_atom_site_type_symbol
_atom_site_label
_atom_site_fract_x
_atom_site_fract_y
_atom_site_fract_z
Si Si1 0.478608 0.864614 0.383615
Si Si2 0.931100 0.674481 0.701919
Si Si3 0.157840 0.573533 0.053018
Si Si4 0.026524 0.065913 0.732390
Si Si5 0.696395 0.781927 0.744324
Si Si6 0.517934 0.365313 0.338385
Si Si7 0.843792 0.228997 0.232890
O O1 0.509781 0.751611 0.479865
O O2 0.313053 0.840241 0.501187
O O3 0.500000 0.000000 0.500000
O O4 0.587501 0.868522 0.023231
O O5 0.861989 0.575607 0.963262
O O6 0.795756 0.733882 0.799211
O O7 0.016296 0.610249 0.377505
O O8 0.046154 0.779280 0.699880
O O9 0.314815 0.625616 0.978890
O O10 0.164540 0.627894 0.795470
O O11 0.194398 0.132689 0.549845
O O12 0.000000 0.000000 0.500000
O O13 0.909250 0.164196 0.906639
O O14 0.000000 0.000000 0.000000
O O15 0.600734 0.664836 0.716534
O O16 0.500000 0.500000 0.500000
#
# Coordination Sequence:
#
# PCOD8023958 Si02
#       7
#     2   2   2   2   2   2   2
#     4  11  27  49  76 109 155 203 265 323 403 469
#     4  11  23  42  75 107 150 197 258 320 394 463
#     4  10  23  42  68 107 150 194 258 315 395 460
#     4  12  28  48  78 110 155 202 262 329 398 475
#     4  12  27  47  77 112 152 204 264 325 396 478
#     4  11  27  47  75 107 155 203 260 322 398 477
#     4  11  24  45  72 105 150 198 256 320 392 467
#
# _framework density 24.481943000000001
#
# number of rings (size 3 to 8) (size 9 to 14) (size 15 to 20)
#    0.000    0.857    1.429    3.857    8.000    7.429 
#    0.000    0.000    0.000    0.000    0.000    0.000 
#    0.000    0.000    0.000    0.000    0.000    0.000 
#
# Total GULP energy -173505.708415 kJ/mol
# GULP energy per Si atom -12393.264887 kJ/mol
# Density = 2.442622 g / cm^3
# Si number density = 24.481943 Si / 1000 Ang^3
#
#
#
# Elastic Constant Matrix: (Units=GPa)
#
#
# Indices 1 2 3 4 5 6 
#
# 1 170.7445 63.3379 50.3141 -2.0553 -13.3959 29.1698
# 2 63.3379 144.3472 54.5579 -2.2473 2.5799 3.5435
# 3 50.3141 54.5579 131.2414 -7.8450 -28.0148 2.3221
# 4 -2.0553 -2.2473 -7.8450 42.9675 2.8933 2.4834
# 5 -13.3959 2.5799 -28.0148 2.8933 46.5059 -8.4676
# 6 29.1698 3.5435 2.3221 2.4834 -8.4676 40.6909
#
#
#
# Elastic Compliance Matrix: (Units=1/GPa)
#
#
# Indices 1 2 3 4 5 6 
#
# 1 0.008470 -0.002889 -0.001837 0.000214 0.000454 -0.005634
# 2 -0.002889 0.009611 -0.003636 -0.000112 -0.003415 0.000738
# 3 -0.001837 -0.003636 0.011327 0.001194 0.006848 0.002339
# 4 0.000214 -0.000112 0.001194 0.023673 -0.001026 -0.001870
# 5 0.000454 -0.003415 0.006848 -0.001026 0.026969 0.005256
# 6 -0.005634 0.000738 0.002339 -0.001870 0.005256 0.029625
#
#
# Mechanical properties :
#
#
# Convention : Reuss Voigt Hill
#
# Bulk Modulus (GPa) = 78.83962 86.97255 82.90609
# Shear Modulus (GPa) = 38.27687 44.57441 41.42564
#
# Velocity S-wave (km/s) = 3.95837 4.27160 4.11796
# Velocity P-wave (km/s) = 7.29141 7.74152 7.51983
#
# Compressibility (1/GPa) = 0.01268398
#
# Stress axis : x y z
#
# Youngs Moduli (GPa) = 118.05805 104.04761 88.28371
#
# Poissons Ratio (x) = 0.30059 0.16217
# Poissons Ratio (y) = 0.34106 0.32104
# Poissons Ratio (z) = 0.21686 0.37836
#
# Static dielectric constant tensor:
#      x y z
#    x 4.641710 -0.244710 -0.456350 
#    y -0.244710 4.866650 -0.171470 
#    z -0.456350 -0.171470 4.624820 
# 
# 
# High freq. dielectric constant tensor:
#      x y z
#    x 1.976950 -0.003570 -0.022040 
#    y -0.003570 1.983490 -0.011710 
#    z -0.022040 -0.011710 1.977650 
# 
# From -- ./inp_files/68199.got.cif
#   From: 2010.06.25/outbox.cif.g09.slc.cpg/sg2_35_cif.got.tgz:68199.got - 2010.06.27 13:26:56.
