data_PCOD8023563
_publ_section_title
;
Structure prediction by ZEFSAII (Michael W. Deem and Ramdas Pophale) SiO2 
 PCOD8023563
Probable space group: P -1
;
_chemical_formula_sum "Si O2"
_cell_formula_units_Z 12
_cell_length_a 8.777692
_cell_length_b 11.629293
_cell_length_c 20.142074
_cell_angle_alpha 148.757004
_cell_angle_beta 32.559419
_cell_angle_gamma 130.175233
_cell_volume 552.541285
_symmetry_space_group_name_H-M "P -1"
_symmetry_group_IT_number 2
_symmetry_cell_setting 'triclinic'
loop_
_space_group_symop_operation_xyz
x,y,z
-x,-y,-z
loop_
_atom_site_type_symbol
_atom_site_label
_atom_site_fract_x
_atom_site_fract_y
_atom_site_fract_z
Si Si1 0.631095 0.927013 0.986328
Si Si2 0.759505 0.734866 0.138894
Si Si3 0.090945 0.887481 0.481832
Si Si4 0.042731 0.797951 0.937314
Si Si5 0.154258 0.526928 0.641788
Si Si6 0.087010 0.793225 0.171056
O O1 0.414222 0.823327 0.059159
O O2 0.659103 0.177314 0.124847
O O3 0.953612 0.738156 0.775359
O O4 0.500000 0.000000 0.000000
O O5 0.429559 0.750846 0.287120
O O6 0.904941 0.868597 0.206495
O O7 0.926989 0.466064 0.939592
O O8 0.784795 0.837231 0.106661
O O9 0.902717 0.708805 0.478827
O O10 0.000000 0.000000 0.500000
O O11 0.059657 0.065674 0.641394
O O12 0.068857 0.565769 0.771051
O O13 0.000000 0.000000 0.000000
O O14 0.500000 0.500000 0.500000
#
# Coordination Sequence:
#
# PCOD8023563 Si02
#       6
#     2   2   2   2   2   2
#     4  11  22  44  71 100 132 185 231 281 347 410
#     4  11  24  46  67 101 137 178 229 284 345 407
#     4  12  27  41  70 103 135 181 231 280 346 413
#     4  10  23  41  70  93 138 181 225 280 347 405
#     4  11  25  44  65 102 142 177 231 284 342 416
#     4  11  24  45  71  97 139 178 228 287 344 411
#
# _framework density 21.717835000000001
#
# number of rings (size 3 to 8) (size 9 to 14) (size 15 to 20)
#    0.000    1.000    3.333    2.500    9.333    1.333 
#    0.000    5.000    0.000    0.000    0.000    0.000 
#    0.000    0.000    0.000    0.000    0.000    0.000 
#
# Total GULP energy -148683.782315 kJ/mol
# GULP energy per Si atom -12390.315193 kJ/mol
# Density = 2.166840 g / cm^3
# Si number density = 21.717835 Si / 1000 Ang^3
#
#
#
# Elastic Constant Matrix: (Units=GPa)
#
#
# Indices 1 2 3 4 5 6 
#
# 1 153.2856 34.7901 69.6675 -0.6048 17.6925 -1.0221
# 2 34.7901 94.9688 36.8083 -12.6632 5.8276 6.7561
# 3 69.6675 36.8083 101.5105 -9.0507 7.8547 -0.7132
# 4 -0.6048 -12.6632 -9.0507 37.0002 6.9858 1.8582
# 5 17.6925 5.8276 7.8547 6.9858 49.3775 -1.8635
# 6 -1.0221 6.7561 -0.7132 1.8582 -1.8635 47.7789
#
#
#
# Elastic Compliance Matrix: (Units=1/GPa)
#
#
# Indices 1 2 3 4 5 6 
#
# 1 0.009928 -0.001264 -0.006309 -0.001413 -0.002194 0.000266
# 2 -0.001264 0.013078 -0.003447 0.003942 -0.001180 -0.002127
# 3 -0.006309 -0.003447 0.015676 0.002560 -0.000170 0.000480
# 4 -0.001413 0.003942 0.002560 0.029957 -0.004676 -0.001897
# 5 -0.002194 -0.001180 -0.000170 -0.004676 0.021910 0.001154
# 6 0.000266 -0.002127 0.000480 -0.001897 0.001154 0.021362
#
#
# Mechanical properties :
#
#
# Convention : Reuss Voigt Hill
#
# Bulk Modulus (GPa) = 60.09170 70.25521 65.17346
# Shear Modulus (GPa) = 35.84257 40.73124 38.28690
#
# Velocity S-wave (km/s) = 4.06689 4.33537 4.20327
# Velocity P-wave (km/s) = 7.05564 7.58155 7.32332
#
# Compressibility (1/GPa) = 0.01664123
#
# Stress axis : x y z
#
# Youngs Moduli (GPa) = 100.72762 76.46348 63.79173
#
# Poissons Ratio (x) = 0.09666 0.40249
# Poissons Ratio (y) = 0.12733 0.21988
# Poissons Ratio (z) = 0.63553 0.26356
#
# Static dielectric constant tensor:
#      x y z
#    x 4.419100 0.326420 0.412290 
#    y 0.326420 3.996080 0.100800 
#    z 0.412290 0.100800 3.971300 
# 
# 
# High freq. dielectric constant tensor:
#      x y z
#    x 1.878770 0.015850 0.009360 
#    y 0.015850 1.859620 -0.003830 
#    z 0.009360 -0.003830 1.830920 
# 
# From -- ./inp_files/63053.got.cif
#   From: 2010.06.25/outbox.cif.g09.slc.cpg/sg2_32_cif.got.tgz:63053.got - 2010.06.27 13:26:56.
