data_PCOD8023587
_publ_section_title
;
Structure prediction by ZEFSAII (Michael W. Deem and Ramdas Pophale) SiO2 
 PCOD8023587
Probable space group: P -1
;
_chemical_formula_sum "Si O2"
_cell_formula_units_Z 14
_cell_length_a 5.256112
_cell_length_b 9.229510
_cell_length_c 17.249896
_cell_angle_alpha 49.451670
_cell_angle_beta 83.991228
_cell_angle_gamma 99.487394
_cell_volume 601.589925
_symmetry_space_group_name_H-M "P -1"
_symmetry_group_IT_number 2
_symmetry_cell_setting 'triclinic'
loop_
_space_group_symop_operation_xyz
x,y,z
-x,-y,-z
loop_
_atom_site_type_symbol
_atom_site_label
_atom_site_fract_x
_atom_site_fract_y
_atom_site_fract_z
Si Si1 0.159630 0.230452 0.406494
Si Si2 0.556116 0.099413 0.793657
Si Si3 0.253965 0.192608 0.910542
Si Si4 0.210917 0.720697 0.869924
Si Si5 0.753887 0.388265 0.268241
Si Si6 0.315779 0.269507 0.053344
Si Si7 0.732996 0.497509 0.552186
O O1 0.440792 0.270471 0.337502
O O2 0.223342 0.307383 0.464949
O O3 0.960846 0.336061 0.337292
O O4 0.000000 0.000000 0.500000
O O5 0.465616 0.127912 0.874112
O O6 0.668225 0.308025 0.675949
O O7 0.310929 0.960705 0.797519
O O8 0.767449 0.971615 0.840352
O O9 0.178222 0.372395 0.807008
O O10 0.392034 0.291656 0.952274
O O11 0.000000 0.000000 0.000000
O O12 0.177445 0.672413 0.797929
O O13 0.927846 0.642399 0.951628
O O14 0.424955 0.621665 0.937402
O O15 0.500000 0.500000 0.500000
O O16 0.000000 0.500000 0.500000
#
# Coordination Sequence:
#
# PCOD8023587 Si02
#       7
#     2   2   2   2   2   2   2
#     4  12  29  50  76 107 150 194 256 308 382 445
#     4  10  25  44  73 100 153 183 254 295 378 425
#     4  12  24  46  75 108 154 197 248 305 371 452
#     4  10  24  42  69  98 143 188 243 292 353 436
#     4  12  28  47  75 107 151 200 243 305 379 445
#     4  10  23  41  71 102 141 193 238 292 360 427
#     4  12  29  46  77 108 142 188 251 315 376 435
#
# _framework density 23.271666
#
# number of rings (size 3 to 8) (size 9 to 14) (size 15 to 20)
#    0.857    0.000    2.857    2.571    8.000    3.429 
#    0.000    0.000    0.000    0.000    0.000    0.000 
#    0.000    0.000    0.000    0.000    0.000    0.000 
#
# Total GULP energy -173590.593530 kJ/mol
# GULP energy per Si atom -12399.328109 kJ/mol
# Density = 2.321870 g / cm^3
# Si number density = 23.271666 Si / 1000 Ang^3
#
#
#
# Elastic Constant Matrix: (Units=GPa)
#
#
# Indices 1 2 3 4 5 6 
#
# 1 164.4402 51.7005 60.6322 4.4020 5.3818 -15.4784
# 2 51.7005 140.5415 41.9026 10.3824 -4.0710 -0.3012
# 3 60.6322 41.9026 121.0833 -6.1304 -3.8660 -2.0302
# 4 4.4020 10.3824 -6.1304 44.0440 -1.0386 -4.0832
# 5 5.3818 -4.0710 -3.8660 -1.0386 52.1641 2.8637
# 6 -15.4784 -0.3012 -2.0302 -4.0832 2.8637 42.7713
#
#
#
# Elastic Compliance Matrix: (Units=1/GPa)
#
#
# Indices 1 2 3 4 5 6 
#
# 1 0.008343 -0.002013 -0.003510 -0.000615 -0.001448 0.002877
# 2 -0.002013 0.008663 -0.002096 -0.002210 0.000741 -0.001028
# 3 -0.003510 -0.002096 0.010884 0.002328 0.001086 -0.000619
# 4 -0.000615 -0.002210 0.002328 0.023817 0.000421 0.002118
# 5 -0.001448 0.000741 0.001086 0.000421 0.019562 -0.001737
# 6 0.002877 -0.001028 -0.000619 0.002118 -0.001737 0.024703
#
#
# Mechanical properties :
#
#
# Convention : Reuss Voigt Hill
#
# Bulk Modulus (GPa) = 79.03513 81.61507 80.32510
# Shear Modulus (GPa) = 43.31731 45.91788 44.61759
#
# Velocity S-wave (km/s) = 4.31905 4.44680 4.38339
# Velocity P-wave (km/s) = 7.67515 7.84297 7.75951
#
# Compressibility (1/GPa) = 0.01265260
#
# Stress axis : x y z
#
# Youngs Moduli (GPa) = 119.86016 115.43160 91.87853
#
# Poissons Ratio (x) = 0.23234 0.32253
# Poissons Ratio (y) = 0.24126 0.19254
# Poissons Ratio (z) = 0.42075 0.24189
#
# Static dielectric constant tensor:
#      x y z
#    x 4.226070 0.031720 0.104530 
#    y 0.031720 4.598940 -0.131830 
#    z 0.104530 -0.131830 4.222450 
# 
# 
# High freq. dielectric constant tensor:
#      x y z
#    x 1.926090 -0.001630 0.005320 
#    y -0.001630 1.951760 -0.014540 
#    z 0.005320 -0.014540 1.927770 
# 
# From -- ./inp_files/546879.got.cif
#   From: 2010.06.25/outbox.cif.g09.slc.cpg/sg2_274_cif.got.tgz:546879.got - 2010.06.27 13:26:56.
