data_PCOD8023788
_publ_section_title
;
Structure prediction by ZEFSAII (Michael W. Deem and Ramdas Pophale) SiO2 
 PCOD8023788
Probable space group: P -1
;
_chemical_formula_sum "Si O2"
_cell_formula_units_Z 16
_cell_length_a 14.447388
_cell_length_b 14.752206
_cell_length_c 11.802553
_cell_angle_alpha 63.181351
_cell_angle_beta 151.028274
_cell_angle_gamma 136.149542
_cell_volume 712.818802
_symmetry_space_group_name_H-M "P -1"
_symmetry_group_IT_number 2
_symmetry_cell_setting 'triclinic'
loop_
_space_group_symop_operation_xyz
x,y,z
-x,-y,-z
loop_
_atom_site_type_symbol
_atom_site_label
_atom_site_fract_x
_atom_site_fract_y
_atom_site_fract_z
Si Si1 0.921571 0.700398 0.025293
Si Si2 0.721573 0.349704 0.593261
Si Si3 0.654331 0.861536 0.492856
Si Si4 0.724675 0.577163 0.497540
Si Si5 0.829936 0.830904 0.032137
Si Si6 0.592133 0.048822 0.200859
Si Si7 0.753419 0.665536 0.239161
Si Si8 0.959106 0.154827 0.153068
O O1 0.928066 0.764779 0.113889
O O2 0.041746 0.634992 0.207652
O O3 0.590157 0.562945 0.702334
O O4 0.101651 0.833794 0.047382
O O5 0.633648 0.290999 0.662746
O O6 0.843523 0.513723 0.621133
O O7 0.441197 0.223930 0.284678
O O8 0.782238 0.823616 0.571883
O O9 0.590354 0.933490 0.310146
O O10 0.903274 0.983303 0.786108
O O11 0.678116 0.635355 0.308594
O O12 0.952928 0.711969 0.754331
O O13 0.748625 0.771905 0.109951
O O14 0.901099 0.230308 0.450753
O O15 0.500000 0.000000 0.000000
O O16 0.343395 0.010226 0.026311
O O17 0.500000 0.500000 0.000000
#
# Coordination Sequence:
#
# PCOD8023788 Si02
#       8
#     2   2   2   2   2   2   2   2
#     4  11  23  39  67 102 131 179 227 286 343 398
#     4  11  22  39  66 100 133 177 225 281 347 394
#     4  11  24  42  68  98 138 179 222 287 341 402
#     4  11  24  44  66  97 144 176 227 285 337 407
#     4  10  23  42  65  96 138 176 224 285 338 401
#     4  11  25  46  70  99 136 182 228 283 333 412
#     4  11  21  47  71  92 142 183 216 284 343 395
#     4  12  24  44  69 101 137 180 229 277 346 409
#
# _framework density 22.446096000000001
#
# number of rings (size 3 to 8) (size 9 to 14) (size 15 to 20)
#    0.000    1.000    7.500    0.750    0.000    4.500 
#    0.000    2.500    0.000    0.000    0.000    0.000 
#    0.000    0.000    0.000    0.000    0.000    0.000 
#
# Total GULP energy -198298.622869 kJ/mol
# GULP energy per Si atom -12393.663929 kJ/mol
# Density = 2.239501 g / cm^3
# Si number density = 22.446096 Si / 1000 Ang^3
#
#
#
# Elastic Constant Matrix: (Units=GPa)
#
#
# Indices 1 2 3 4 5 6 
#
# 1 74.4189 32.4274 23.1657 -8.4941 6.7686 3.1463
# 2 32.4274 63.2960 15.6462 0.3456 -1.3009 2.4606
# 3 23.1657 15.6462 72.2462 7.7686 -1.5477 -6.5498
# 4 -8.4941 0.3456 7.7686 48.2188 -0.8266 1.9891
# 5 6.7686 -1.3009 -1.5477 -0.8266 40.1900 -6.8489
# 6 3.1463 2.4606 -6.5498 1.9891 -6.8489 43.5241
#
#
#
# Elastic Compliance Matrix: (Units=1/GPa)
#
#
# Indices 1 2 3 4 5 6 
#
# 1 0.019978 -0.008941 -0.005276 0.004469 -0.004208 -0.002599
# 2 -0.008941 0.020808 -0.001475 -0.001437 0.002030 -0.000367
# 3 -0.005276 -0.001475 0.016606 -0.003702 0.001991 0.003446
# 4 0.004469 -0.001437 -0.003702 0.022199 -0.000816 -0.001942
# 5 -0.004208 0.002030 0.001991 -0.000816 0.026517 0.004699
# 6 -0.002599 -0.000367 0.003446 -0.001942 0.004699 0.024531
#
#
# Mechanical properties :
#
#
# Convention : Reuss Voigt Hill
#
# Bulk Modulus (GPa) = 38.44852 39.15997 38.80425
# Shear Modulus (GPa) = 29.29259 35.63470 32.46365
#
# Velocity S-wave (km/s) = 3.61642 3.98875 3.80714
# Velocity P-wave (km/s) = 5.88256 6.22074 6.05401
#
# Compressibility (1/GPa) = 0.02600880
#
# Stress axis : x y z
#
# Youngs Moduli (GPa) = 50.05411 48.05918 60.21969
#
# Poissons Ratio (x) = 0.42969 0.31772
# Poissons Ratio (y) = 0.44753 0.08881
# Poissons Ratio (z) = 0.26409 0.07087
#
# Static dielectric constant tensor:
#      x y z
#    x 4.036380 0.308370 0.073670 
#    y 0.308370 4.171750 0.129090 
#    z 0.073670 0.129090 4.081230 
# 
# 
# High freq. dielectric constant tensor:
#      x y z
#    x 1.868410 0.020390 -0.004190 
#    y 0.020390 1.883250 0.003040 
#    z -0.004190 0.003040 1.888510 
# 
# From -- ./inp_files/455672.got.cif
#   From: 2010.06.25/outbox.cif.g09.slc.cpg/sg2_228_cif.got.tgz:455672.got - 2010.06.27 13:26:56.
