data_PCOD8023971
_publ_section_title
;
Structure prediction by ZEFSAII (Michael W. Deem and Ramdas Pophale) SiO2 
 PCOD8023971
Probable space group: P -1
;
_chemical_formula_sum "Si O2"
_cell_formula_units_Z 12
_cell_length_a 15.089774
_cell_length_b 14.536862
_cell_length_c 7.888783
_cell_angle_alpha 113.732500
_cell_angle_beta 111.224675
_cell_angle_gamma 19.950158
_cell_volume 539.773548
_symmetry_space_group_name_H-M "P -1"
_symmetry_group_IT_number 2
_symmetry_cell_setting 'triclinic'
loop_
_space_group_symop_operation_xyz
x,y,z
-x,-y,-z
loop_
_atom_site_type_symbol
_atom_site_label
_atom_site_fract_x
_atom_site_fract_y
_atom_site_fract_z
Si Si1 0.043020 0.862033 0.812242
Si Si2 0.697962 0.564402 0.159127
Si Si3 0.464948 0.262351 0.185311
Si Si4 0.069089 0.325239 0.846039
Si Si5 0.455180 0.704409 0.392479
Si Si6 0.762962 0.726188 0.380985
O O1 0.054733 0.750392 0.857790
O O2 0.316443 0.602542 0.707243
O O3 0.820853 0.073879 0.673740
O O4 0.000000 0.000000 0.000000
O O5 0.498538 0.752319 0.320131
O O6 0.775662 0.604046 0.208297
O O7 0.575979 0.644102 0.956186
O O8 0.193804 0.478940 0.216850
O O9 0.546128 0.259421 0.387051
O O10 0.708928 0.947180 0.090668
O O11 0.208916 0.208045 0.677221
O O12 0.000000 0.500000 0.000000
O O13 0.000000 0.500000 0.500000
O O14 0.500000 0.000000 0.500000
#
# Coordination Sequence:
#
# PCOD8023971 Si02
#       6
#     2   2   2   2   2   2
#     4  10  23  46  71  95 130 168 216 279 342 397
#     4  10  26  40  70  92 135 173 223 263 339 381
#     4  12  25  43  65  98 136 178 222 274 328 395
#     4  12  25  41  61  93 141 177 223 272 320 379
#     4  10  23  42  68  95 128 169 216 274 333 396
#     4  12  26  40  64  95 135 179 228 266 321 394
#
# _framework density 22.231545000000001
#
# number of rings (size 3 to 8) (size 9 to 14) (size 15 to 20)
#    1.000    0.000    1.667    5.000    9.333    0.000 
#    0.000    1.667    0.000    0.000    0.000    0.000 
#    0.000    0.000    0.000    0.000    0.000    0.000 
#
# Total GULP energy -148723.348394 kJ/mol
# GULP energy per Si atom -12393.612366 kJ/mol
# Density = 2.218094 g / cm^3
# Si number density = 22.231545 Si / 1000 Ang^3
#
#
#
# Elastic Constant Matrix: (Units=GPa)
#
#
# Indices 1 2 3 4 5 6 
#
# 1 25.7021 15.7349 15.1167 -2.5227 5.3375 2.4983
# 2 15.7349 180.2120 55.5363 -7.0641 11.4831 -9.3700
# 3 15.1167 55.5363 152.6835 -17.0606 -2.1972 8.6387
# 4 -2.5227 -7.0641 -17.0606 44.9689 2.4529 5.7910
# 5 5.3375 11.4831 -2.1972 2.4529 31.6495 1.0121
# 6 2.4983 -9.3700 8.6387 5.7910 1.0121 23.4975
#
#
#
# Elastic Compliance Matrix: (Units=1/GPa)
#
#
# Indices 1 2 3 4 5 6 
#
# 1 0.044389 -0.002695 -0.003022 0.001913 -0.006711 -0.004865
# 2 -0.002695 0.006928 -0.002576 -0.000455 -0.002337 0.004209
# 3 -0.003022 -0.002576 0.008425 0.003116 0.001936 -0.004655
# 4 0.001913 -0.000455 0.003116 0.024509 -0.001601 -0.007501
# 5 -0.006711 -0.002337 0.001936 -0.001601 0.033898 -0.001996
# 6 -0.004865 0.004209 -0.004655 -0.007501 -0.001996 0.048399
#
#
# Mechanical properties :
#
#
# Convention : Reuss Voigt Hill
#
# Bulk Modulus (GPa) = 23.17149 59.04147 41.10648
# Shear Modulus (GPa) = 25.31402 38.17049 31.74226
#
# Velocity S-wave (km/s) = 3.37805 4.14811 3.78273
# Velocity P-wave (km/s) = 5.06561 7.03971 6.13262
#
# Compressibility (1/GPa) = 0.04315649
#
# Stress axis : x y z
#
# Youngs Moduli (GPa) = 22.52822 144.34130 118.69471
#
# Poissons Ratio (x) = 0.38897 0.35871
# Poissons Ratio (y) = 0.06071 0.30572
# Poissons Ratio (z) = 0.06808 0.37178
#
# Static dielectric constant tensor:
#      x y z
#    x 3.073250 0.039950 -0.106660 
#    y 0.039950 4.236430 -0.116850 
#    z -0.106660 -0.116850 4.020110 
# 
# 
# High freq. dielectric constant tensor:
#      x y z
#    x 1.839860 -0.001320 -0.009620 
#    y -0.001320 1.893290 -0.002930 
#    z -0.009620 -0.002930 1.883210 
# 
# From -- ./inp_files/136241.got.cif
#   From: 2010.06.25/outbox.cif.g09.slc.cpg/sg2_69_cif.got.tgz:136241.got - 2010.06.27 13:26:56.
