data_PCOD8023612
_publ_section_title
;
Structure prediction by ZEFSAII (Michael W. Deem and Ramdas Pophale) SiO2 
 PCOD8023612
Probable space group: P -1
;
_chemical_formula_sum "Si O2"
_cell_formula_units_Z 12
_cell_length_a 8.407250
_cell_length_b 10.764772
_cell_length_c 13.376147
_cell_angle_alpha 145.267063
_cell_angle_beta 42.427023
_cell_angle_gamma 122.808190
_cell_volume 458.666361
_symmetry_space_group_name_H-M "P -1"
_symmetry_group_IT_number 2
_symmetry_cell_setting 'triclinic'
loop_
_space_group_symop_operation_xyz
x,y,z
-x,-y,-z
loop_
_atom_site_type_symbol
_atom_site_label
_atom_site_fract_x
_atom_site_fract_y
_atom_site_fract_z
Si Si1 0.302269 0.357083 0.666086
Si Si2 0.009457 0.807347 0.132546
Si Si3 0.143520 0.199629 0.080353
Si Si4 0.179533 0.752183 0.570833
Si Si5 0.236329 0.601348 0.218463
Si Si6 0.708019 0.043540 0.724405
O O1 0.585571 0.329421 0.527254
O O2 0.194987 0.284012 0.771124
O O3 0.242095 0.210854 0.503361
O O4 0.188528 0.610365 0.865652
O O5 0.172039 0.943796 0.215460
O O6 0.873907 0.976436 0.225275
O O7 0.095733 0.389156 0.139772
O O8 0.042749 0.318923 0.311332
O O9 0.425258 0.124062 0.914412
O O10 0.000000 0.000000 0.000000
O O11 0.219460 0.679009 0.390982
O O12 0.157632 0.805059 0.313461
O O13 0.500000 0.500000 0.000000
#
# Coordination Sequence:
#
# PCOD8023612 Si02
#       6
#     2   2   2   2   2   2
#     4  11  23  44  73 107 146 190 245 300 358 433
#     4  11  26  42  73 114 145 186 250 303 362 432
#     4  11  24  44  71 109 146 190 247 293 371 441
#     4  12  24  46  74 106 149 192 238 305 370 434
#     4  10  23  41  72 103 139 189 242 293 357 428
#     4  11  23  48  71 106 149 190 245 307 356 435
#
# _framework density 26.162807000000001
#
# number of rings (size 3 to 8) (size 9 to 14) (size 15 to 20)
#    0.000    1.000    3.333    3.500    0.000    3.333 
#    0.000    0.833    0.000    0.000    0.000    0.000 
#    0.000    0.000    0.000    0.000    0.000    0.000 
#
# Total GULP energy -148734.730661 kJ/mol
# GULP energy per Si atom -12394.560888 kJ/mol
# Density = 2.610326 g / cm^3
# Si number density = 26.162807 Si / 1000 Ang^3
#
#
#
# Elastic Constant Matrix: (Units=GPa)
#
#
# Indices 1 2 3 4 5 6 
#
# 1 57.1320 14.7193 29.7473 -9.7028 -11.7534 14.1859
# 2 14.7193 118.4584 51.4879 -6.1404 3.6997 4.8104
# 3 29.7473 51.4879 181.6089 1.5839 -3.9952 -0.3149
# 4 -9.7028 -6.1404 1.5839 50.8587 3.1888 -7.1269
# 5 -11.7534 3.6997 -3.9952 3.1888 25.2179 -4.8503
# 6 14.1859 4.8104 -0.3149 -7.1269 -4.8503 34.5149
#
#
#
# Elastic Compliance Matrix: (Units=1/GPa)
#
#
# Indices 1 2 3 4 5 6 
#
# 1 0.023857 -0.001309 -0.003379 0.002845 0.008913 -0.007814
# 2 -0.001309 0.009957 -0.002682 0.001066 -0.002833 -0.001052
# 3 -0.003379 -0.002682 0.006839 -0.000969 0.000347 0.001674
# 4 0.002845 0.001066 -0.000969 0.020827 -0.001075 0.002823
# 5 0.008913 -0.002833 0.000347 -0.001075 0.044960 0.002831
# 6 -0.007814 -0.001052 0.001674 0.002823 0.002831 0.033327
#
#
# Mechanical properties :
#
#
# Convention : Reuss Voigt Hill
#
# Bulk Modulus (GPa) = 38.59118 61.01203 49.80161
# Shear Modulus (GPa) = 30.64788 39.53462 35.09125
#
# Velocity S-wave (km/s) = 3.42633 3.89150 3.66630
# Velocity P-wave (km/s) = 5.51683 6.60019 6.08268
#
# Compressibility (1/GPa) = 0.02591265
#
# Stress axis : x y z
#
# Youngs Moduli (GPa) = 41.91653 100.43622 146.21901
#
# Poissons Ratio (x) = 0.13151 0.49404
# Poissons Ratio (y) = 0.05489 0.39212
# Poissons Ratio (z) = 0.14163 0.26934
#
# Static dielectric constant tensor:
#      x y z
#    x 4.660210 -0.225260 -0.357990 
#    y -0.225260 5.295210 0.174480 
#    z -0.357990 0.174480 6.136560 
# 
# 
# High freq. dielectric constant tensor:
#      x y z
#    x 2.040530 0.006370 -0.003250 
#    y 0.006370 2.044430 0.000690 
#    z -0.003250 0.000690 2.092110 
# 
# From -- ./inp_files/242329.got.cif
#   From: 2010.06.25/outbox.cif.g09.slc.cpg/sg2_122_cif.got.tgz:242329.got - 2010.06.27 13:26:56.
