data_PCOD8023201
_publ_section_title
;
Structure prediction by ZEFSAII (Michael W. Deem and Ramdas Pophale) SiO2 
 PCOD8023201
Probable space group: P -1
;
_chemical_formula_sum "Si O2"
_cell_formula_units_Z 16
_cell_length_a 14.962788
_cell_length_b 8.136658
_cell_length_c 9.423121
_cell_angle_alpha 84.402460
_cell_angle_beta 136.120028
_cell_angle_gamma 84.299503
_cell_volume 767.114922
_symmetry_space_group_name_H-M "P -1"
_symmetry_group_IT_number 2
_symmetry_cell_setting 'triclinic'
loop_
_space_group_symop_operation_xyz
x,y,z
-x,-y,-z
loop_
_atom_site_type_symbol
_atom_site_label
_atom_site_fract_x
_atom_site_fract_y
_atom_site_fract_z
Si Si1 0.479571 0.170023 0.871437
Si Si2 0.715789 0.317321 0.152810
Si Si3 0.237813 0.339635 0.925485
Si Si4 0.162052 0.867924 0.971711
Si Si5 0.183621 0.251614 0.573231
Si Si6 0.595334 0.001979 0.738664
Si Si7 0.081409 0.939082 0.458139
Si Si8 0.048930 0.558678 0.905125
O O1 0.328270 0.280937 0.700851
O O2 0.512454 0.130973 0.747779
O O3 0.572019 0.287744 0.029055
O O4 0.500000 0.000000 0.000000
O O5 0.699673 0.511939 0.077314
O O6 0.824929 0.254595 0.410889
O O7 0.780040 0.188405 0.112314
O O8 0.154630 0.280167 0.707232
O O9 0.148173 0.400335 0.955436
O O10 0.358396 0.184452 0.122945
O O11 0.277016 0.933589 0.178938
O O12 0.123512 0.707275 0.015249
O O13 0.029327 0.026688 0.797333
O O14 0.182920 0.060503 0.543810
O O15 0.071557 0.381806 0.346847
O O16 0.500000 0.000000 0.500000
O O17 0.000000 0.000000 0.500000
O O18 0.000000 0.500000 0.000000
#
# Coordination Sequence:
#
# PCOD8023201 Si02
#       8
#     2   2   2   2   2   2   2   2
#     4  11  20  40  62  89 120 159 203 236 300 360
#     4   9  18  33  57  90 121 153 189 249 297 353
#     4  11  22  39  60  92 118 153 205 249 296 346
#     4   8  18  38  59  81 117 163 199 228 302 365
#     4  11  21  37  64  87 122 159 196 246 292 360
#     4  11  24  42  64  85 120 161 202 247 293 364
#     4   9  15  30  59  84 111 158 195 232 293 356
#     4  10  23  41  62  90 124 157 197 250 303 350
#
# _framework density 20.85737
#
# number of rings (size 3 to 8) (size 9 to 14) (size 15 to 20)
#    0.000    2.000    2.500    2.625    1.750    1.500 
#    2.250    2.500    2.750    0.000    0.000    0.000 
#    0.000    0.000    0.000    0.000    0.000    0.000 
#
# Total GULP energy -198314.576436 kJ/mol
# GULP energy per Si atom -12394.661027 kJ/mol
# Density = 2.080990 g / cm^3
# Si number density = 20.857370 Si / 1000 Ang^3
#
#
#
# Elastic Constant Matrix: (Units=GPa)
#
#
# Indices 1 2 3 4 5 6 
#
# 1 94.9678 24.5640 35.6361 6.7591 8.2178 12.2998
# 2 24.5640 73.6727 41.9381 -3.1372 5.0846 11.2181
# 3 35.6361 41.9381 133.8021 8.9253 6.1650 10.9782
# 4 6.7591 -3.1372 8.9253 26.0567 4.1782 4.1614
# 5 8.2178 5.0846 6.1650 4.1782 36.3554 3.4380
# 6 12.2998 11.2181 10.9782 4.1614 3.4380 30.5170
#
#
#
# Elastic Compliance Matrix: (Units=1/GPa)
#
#
# Indices 1 2 3 4 5 6 
#
# 1 0.012654 -0.002549 -0.002114 -0.002137 -0.001623 -0.002929
# 2 -0.002549 0.018272 -0.004985 0.005502 -0.001341 -0.004495
# 3 -0.002114 -0.004985 0.009859 -0.003354 -0.000074 -0.000397
# 4 -0.002137 0.005502 -0.003354 0.042236 -0.004075 -0.005255
# 5 -0.001623 -0.001341 -0.000074 -0.004075 0.028684 -0.001502
# 6 -0.002929 -0.004495 -0.000397 -0.005255 -0.001502 0.036630
#
#
# Mechanical properties :
#
#
# Convention : Reuss Voigt Hill
#
# Bulk Modulus (GPa) = 46.53212 56.30211 51.41711
# Shear Modulus (GPa) = 28.60531 31.93946 30.27238
#
# Velocity S-wave (km/s) = 3.70736 3.91746 3.81386
# Velocity P-wave (km/s) = 6.37841 6.89308 6.64073
#
# Compressibility (1/GPa) = 0.02149053
#
# Stress axis : x y z
#
# Youngs Moduli (GPa) = 79.02514 54.72767 101.43370
#
# Poissons Ratio (x) = 0.13950 0.21440
# Poissons Ratio (y) = 0.20144 0.50561
# Poissons Ratio (z) = 0.16703 0.27280
#
# Static dielectric constant tensor:
#      x y z
#    x 4.205820 0.374360 0.335090 
#    y 0.374360 4.011310 -0.120240 
#    z 0.335090 -0.120240 3.916170 
# 
# 
# High freq. dielectric constant tensor:
#      x y z
#    x 1.802990 0.017000 0.025240 
#    y 0.017000 1.809060 -0.007290 
#    z 0.025240 -0.007290 1.808580 
# 
# From -- ./inp_files/298611.got.cif
#   From: 2010.06.25/outbox.cif.g09.slc.cpg/sg2_150_cif.got.tgz:298611.got - 2010.06.27 13:26:56.
