data_PCOD8023955
_publ_section_title
;
Structure prediction by ZEFSAII (Michael W. Deem and Ramdas Pophale) SiO2 
 PCOD8023955
Probable space group: P -1
;
_chemical_formula_sum "Si O2"
_cell_formula_units_Z 16
_cell_length_a 9.604766
_cell_length_b 19.053658
_cell_length_c 8.045135
_cell_angle_alpha 81.673344
_cell_angle_beta 98.816774
_cell_angle_gamma 152.124597
_cell_volume 680.105077
_symmetry_space_group_name_H-M "P -1"
_symmetry_group_IT_number 2
_symmetry_cell_setting 'triclinic'
loop_
_space_group_symop_operation_xyz
x,y,z
-x,-y,-z
loop_
_atom_site_type_symbol
_atom_site_label
_atom_site_fract_x
_atom_site_fract_y
_atom_site_fract_z
Si Si1 0.155105 0.273488 0.427141
Si Si2 0.117200 0.776974 0.096598
Si Si3 0.602210 0.229684 0.340890
Si Si4 0.538336 0.562809 0.229547
Si Si5 0.169240 0.534382 0.163937
Si Si6 0.596576 0.076995 0.248771
Si Si7 0.438570 0.788981 0.269107
Si Si8 0.080561 0.089477 0.337304
O O1 0.314945 0.401677 0.295164
O O2 0.276027 0.328727 0.615483
O O3 0.209777 0.220016 0.383872
O O4 0.799261 0.132264 0.412772
O O5 0.198680 0.730093 0.146936
O O6 0.764730 0.633592 0.106816
O O7 0.295154 0.899462 0.228546
O O8 0.201061 0.839743 0.907897
O O9 0.512589 0.119550 0.263361
O O10 0.602813 0.217142 0.541255
O O11 0.353533 0.176401 0.253950
O O12 0.932123 0.401567 0.299623
O O13 0.354283 0.548198 0.127286
O O14 0.392330 0.686825 0.246288
O O15 0.000000 0.500000 0.000000
O O16 0.775509 0.963134 0.218124
O O17 0.000000 0.000000 0.500000
#
# Coordination Sequence:
#
# PCOD8023955 Si02
#       8
#     2   2   2   2   2   2   2   2
#     4  11  23  45  72 103 140 177 243 287 343 417
#     4  11  26  43  69 105 143 183 228 293 352 421
#     4  11  24  44  71  98 138 187 234 291 341 414
#     4  11  26  43  72 105 135 188 237 288 345 422
#     4  12  27  48  67 105 147 185 228 287 357 426
#     4  11  24  46  67 101 143 182 234 285 357 410
#     4  11  24  43  71 103 135 183 237 288 349 415
#     4  10  23  42  68 105 135 178 229 294 344 409
#
# _framework density 23.525776
#
# number of rings (size 3 to 8) (size 9 to 14) (size 15 to 20)
#    0.000    1.000    2.500    3.375    8.750    2.500 
#    0.000    1.250    0.000    0.000    0.000    0.000 
#    0.000    0.000    0.000    0.000    0.000    0.000 
#
# Total GULP energy -198462.126773 kJ/mol
# GULP energy per Si atom -12403.882923 kJ/mol
# Density = 2.347223 g / cm^3
# Si number density = 23.525776 Si / 1000 Ang^3
#
#
#
# Elastic Constant Matrix: (Units=GPa)
#
#
# Indices 1 2 3 4 5 6 
#
# 1 172.1691 34.8637 7.5768 4.2792 3.2169 2.1842
# 2 34.8637 65.1961 -9.4087 12.5917 2.9648 -1.8646
# 3 7.5768 -9.4087 27.3617 9.4565 12.9762 1.4618
# 4 4.2792 12.5917 9.4565 25.9984 1.4390 -1.5416
# 5 3.2169 2.9648 12.9762 1.4390 34.6467 5.0342
# 6 2.1842 -1.8646 1.4618 -1.5416 5.0342 55.9679
#
#
#
# Elastic Compliance Matrix: (Units=1/GPa)
#
#
# Indices 1 2 3 4 5 6 
#
# 1 0.007040 -0.005381 -0.005887 0.003460 0.001923 -0.000378
# 2 -0.005381 0.025104 0.020486 -0.018197 -0.008680 0.000791
# 3 -0.005887 0.020486 0.068550 -0.032438 -0.025610 0.000532
# 4 0.003460 -0.018197 -0.032438 0.057947 0.010873 0.000724
# 5 0.001923 -0.008680 -0.025610 0.010873 0.038989 -0.002903
# 6 -0.000378 0.000791 0.000532 0.000724 -0.002903 0.018176
#
#
# Mechanical properties :
#
#
# Convention : Reuss Voigt Hill
#
# Bulk Modulus (GPa) = 8.39422 36.75447 22.57434
# Shear Modulus (GPa) = 21.08997 38.76893 29.92945
#
# Velocity S-wave (km/s) = 2.99735 4.06388 3.57066
# Velocity P-wave (km/s) = 3.94393 6.13817 5.15906
#
# Compressibility (1/GPa) = 0.11912956
#
# Stress axis : x y z
#
# Youngs Moduli (GPa) = 142.05086 39.83471 14.58788
#
# Poissons Ratio (x) = 0.21433 0.08588
# Poissons Ratio (y) = 0.76431 -0.29884
# Poissons Ratio (z) = 0.83625 -0.81604
#
# Static dielectric constant tensor:
#      x y z
#    x 4.630050 0.270550 0.051860 
#    y 0.270550 4.744970 0.177100 
#    z 0.051860 0.177100 3.996920 
# 
# 
# High freq. dielectric constant tensor:
#      x y z
#    x 1.946860 -0.000160 0.000890 
#    y -0.000160 1.947290 0.012010 
#    z 0.000890 0.012010 1.915080 
# 
# From -- ./inp_files/186616.got.cif
#   From: 2010.06.25/outbox.cif.g09.slc.cpg/sg2_94_cif.got.tgz:186616.got - 2010.06.27 13:26:56.
