data_PCOD8023573
_publ_section_title
;
Structure prediction by ZEFSAII (Michael W. Deem and Ramdas Pophale) SiO2 
 PCOD8023573
Probable space group: P -1
;
_chemical_formula_sum "Si O2"
_cell_formula_units_Z 16
_cell_length_a 16.022618
_cell_length_b 5.008517
_cell_length_c 8.649587
_cell_angle_alpha 107.524597
_cell_angle_beta 106.454773
_cell_angle_gamma 71.238153
_cell_volume 613.236141
_symmetry_space_group_name_H-M "P -1"
_symmetry_group_IT_number 2
_symmetry_cell_setting 'triclinic'
loop_
_space_group_symop_operation_xyz
x,y,z
-x,-y,-z
loop_
_atom_site_type_symbol
_atom_site_label
_atom_site_fract_x
_atom_site_fract_y
_atom_site_fract_z
Si Si1 0.697408 0.884606 0.539010
Si Si2 0.298157 0.636361 0.737389
Si Si3 0.485728 0.704292 0.881463
Si Si4 0.112364 0.831979 0.528212
Si Si5 0.939001 0.534198 0.300520
Si Si6 0.207141 0.632274 0.996385
Si Si7 0.116565 0.080163 0.260285
Si Si8 0.646428 0.532274 0.708248
O O1 0.682606 0.711445 0.346380
O O2 0.803890 0.776507 0.617477
O O3 0.639148 0.790936 0.629145
O O4 0.665479 0.231490 0.569483
O O5 0.385967 0.747600 0.767338
O O6 0.217182 0.811390 0.615871
O O7 0.272445 0.708563 0.914658
O O8 0.553760 0.573629 0.757310
O O9 0.500000 0.500000 0.000000
O O10 0.500000 0.000000 0.000000
O O11 0.051155 0.139213 0.618031
O O12 0.103838 0.841281 0.339099
O O13 0.078177 0.578478 0.554126
O O14 0.026818 0.334605 0.230691
O O15 0.853678 0.553343 0.148520
O O16 0.270781 0.459403 0.133469
O O17 0.141718 0.925373 0.081573
#
# Coordination Sequence:
#
# PCOD8023573 Si02
#       8
#     2   2   2   2   2   2   2   2
#     4  11  26  45  72 100 145 185 236 285 351 412
#     4  11  25  48  71 106 139 190 231 288 355 417
#     4  12  27  45  78 108 144 178 233 289 352 423
#     4  11  25  43  70  98 138 185 232 290 352 413
#     4  11  25  43  68 102 137 184 239 291 343 416
#     4  10  23  41  70  98 144 178 237 283 356 411
#     4  11  23  45  69 101 139 188 234 292 346 412
#     4  11  25  47  70 107 138 188 231 291 349 413
#
# _framework density 26.091093000000001
#
# number of rings (size 3 to 8) (size 9 to 14) (size 15 to 20)
#    0.000    1.000    1.250    4.875    3.500    8.000 
#    0.000    3.750    0.000    0.000    0.000    0.000 
#    0.000    0.000    0.000    0.000    0.000    0.000 
#
# Total GULP energy -198483.689670 kJ/mol
# GULP energy per Si atom -12405.230604 kJ/mol
# Density = 2.603171 g / cm^3
# Si number density = 26.091093 Si / 1000 Ang^3
#
#
#
# Elastic Constant Matrix: (Units=GPa)
#
#
# Indices 1 2 3 4 5 6 
#
# 1 158.8554 29.2223 30.2528 12.7888 -13.8472 1.5780
# 2 29.2223 95.3377 28.1304 12.1790 1.3949 13.6744
# 3 30.2528 28.1304 117.2741 20.9172 -18.1204 6.1646
# 4 12.7888 12.1790 20.9172 37.4316 0.0533 1.5592
# 5 -13.8472 1.3949 -18.1204 0.0533 49.5174 7.5295
# 6 1.5780 13.6744 6.1646 1.5592 7.5295 41.4341
#
#
#
# Elastic Compliance Matrix: (Units=1/GPa)
#
#
# Indices 1 2 3 4 5 6 
#
# 1 0.007044 -0.001774 -0.000908 -0.001333 0.001658 0.000201
# 2 -0.001774 0.012443 -0.002142 -0.002100 -0.001105 -0.003440
# 3 -0.000908 -0.002142 0.010861 -0.005009 0.004001 -0.001413
# 4 -0.001333 -0.002100 -0.005009 0.030625 -0.002294 0.000754
# 5 0.001658 -0.001105 0.004001 -0.002294 0.022818 -0.004354
# 6 0.000201 -0.003440 -0.001413 0.000754 -0.004354 0.026235
#
#
# Mechanical properties :
#
#
# Convention : Reuss Voigt Hill
#
# Bulk Modulus (GPa) = 48.31174 60.74201 54.52687
# Shear Modulus (GPa) = 39.50200 44.60073 42.05136
#
# Velocity S-wave (km/s) = 3.89524 4.13900 4.01897
# Velocity P-wave (km/s) = 6.22794 6.79508 6.51768
#
# Compressibility (1/GPa) = 0.02069890
#
# Stress axis : x y z
#
# Youngs Moduli (GPa) = 141.96098 80.36763 92.07181
#
# Poissons Ratio (x) = 0.14257 0.08363
# Poissons Ratio (y) = 0.25184 0.19725
# Poissons Ratio (z) = 0.12894 0.17217
#
# Static dielectric constant tensor:
#      x y z
#    x 5.168530 -0.177040 -0.006310 
#    y -0.177040 4.443220 0.098660 
#    z -0.006310 0.098660 4.812180 
# 
# 
# High freq. dielectric constant tensor:
#      x y z
#    x 2.070640 -0.002190 -0.006710 
#    y -0.002190 2.033350 0.009550 
#    z -0.006710 0.009550 2.049000 
# 
# From -- ./inp_files/289206.got.cif
#   From: 2010.06.25/outbox.cif.g09.slc.cpg/sg2_145_cif.got.tgz:289206.got - 2010.06.27 13:26:56.
