data_PCOD8023956
_publ_section_title
;
Structure prediction by ZEFSAII (Michael W. Deem and Ramdas Pophale) SiO2 
 PCOD8023956
Probable space group: P -1
;
_chemical_formula_sum "Si O2"
_cell_formula_units_Z 16
_cell_length_a 9.023156
_cell_length_b 24.478874
_cell_length_c 9.486558
_cell_angle_alpha 41.535390
_cell_angle_beta 106.676314
_cell_angle_gamma 141.143225
_cell_volume 612.607114
_symmetry_space_group_name_H-M "P -1"
_symmetry_group_IT_number 2
_symmetry_cell_setting 'triclinic'
loop_
_space_group_symop_operation_xyz
x,y,z
-x,-y,-z
loop_
_atom_site_type_symbol
_atom_site_label
_atom_site_fract_x
_atom_site_fract_y
_atom_site_fract_z
Si Si1 0.162489 0.256682 0.920649
Si Si2 0.680792 0.727270 0.792428
Si Si3 0.651246 0.887578 0.595220
Si Si4 0.378394 0.591818 0.473643
Si Si5 0.225008 0.314034 0.360346
Si Si6 0.397878 0.785788 0.031349
Si Si7 0.304520 0.844024 0.149330
Si Si8 0.937291 0.342704 0.299425
O O1 0.279700 0.329060 0.975111
O O2 0.488514 0.372725 0.711328
O O3 0.838857 0.043791 0.249831
O O4 0.045278 0.283199 0.758344
O O5 0.808764 0.869780 0.638835
O O6 0.902085 0.811873 0.550420
O O7 0.296781 0.556441 0.971152
O O8 0.276207 0.709818 0.773591
O O9 0.628297 0.898987 0.734100
O O10 0.624302 0.666700 0.508708
O O11 0.424109 0.711424 0.261590
O O12 0.991653 0.382583 0.793563
O O13 0.939746 0.243638 0.466146
O O14 0.500000 0.500000 0.000000
O O15 0.510044 0.907211 0.945981
O O16 0.207926 0.719059 0.461733
O O17 0.500000 0.000000 0.000000
#
# Coordination Sequence:
#
# PCOD8023956 Si02
#       8
#     2   2   2   2   2   2   2   2
#     4  12  26  47  73 103 148 188 240 301 361 430
#     4  11  25  43  73 104 140 194 243 297 357 431
#     4  12  26  48  70 108 150 189 239 299 368 427
#     4  11  24  48  72 110 141 190 243 304 353 431
#     4  10  23  42  68 105 142 181 238 293 356 417
#     4  11  27  44  76 104 146 189 247 294 363 427
#     4  12  27  47  68 105 147 195 237 297 369 431
#     4  11  24  44  71 102 146 192 243 294 359 430
#
# _framework density 26.117882000000002
#
# number of rings (size 3 to 8) (size 9 to 14) (size 15 to 20)
#    0.000    0.750    3.750    3.000    8.750    2.500 
#    0.000    1.250    0.000    0.000    0.000    0.000 
#    0.000    0.000    0.000    0.000    0.000    0.000 
#
# Total GULP energy -198350.975824 kJ/mol
# GULP energy per Si atom -12396.935989 kJ/mol
# Density = 2.605844 g / cm^3
# Si number density = 26.117882 Si / 1000 Ang^3
#
#
#
# Elastic Constant Matrix: (Units=GPa)
#
#
# Indices 1 2 3 4 5 6 
#
# 1 128.8288 51.4161 27.6519 15.4273 -19.2707 -20.1611
# 2 51.4161 113.0070 9.5570 24.4623 -4.6769 -16.4557
# 3 27.6519 9.5570 85.0582 20.8922 -19.4981 -17.5962
# 4 15.4273 24.4623 20.8922 36.0740 -3.8073 -0.2609
# 5 -19.2707 -4.6769 -19.4981 -3.8073 44.4165 2.5851
# 6 -20.1611 -16.4557 -17.5962 -0.2609 2.5851 50.2747
#
#
#
# Elastic Compliance Matrix: (Units=1/GPa)
#
#
# Indices 1 2 3 4 5 6 
#
# 1 0.010669 -0.004181 -0.001712 -0.000374 0.003280 0.002140
# 2 -0.004181 0.012847 0.002650 -0.008458 -0.000222 0.003424
# 3 -0.001712 0.002650 0.017079 -0.010301 0.005813 0.005806
# 4 -0.000374 -0.008458 -0.010301 0.039343 -0.001840 -0.006225
# 5 0.003280 -0.000222 0.005813 -0.001840 0.026196 0.001921
# 6 0.002140 0.003424 0.005806 -0.006225 0.001921 0.023771
#
#
# Mechanical properties :
#
#
# Convention : Reuss Voigt Hill
#
# Bulk Modulus (GPa) = 29.31650 56.01602 42.66626
# Shear Modulus (GPa) = 33.83870 42.03765 37.93817
#
# Velocity S-wave (km/s) = 3.60337 4.01625 3.81540
# Velocity P-wave (km/s) = 5.34429 6.55751 5.98174
#
# Compressibility (1/GPa) = 0.03411048
#
# Stress axis : x y z
#
# Youngs Moduli (GPa) = 93.73200 77.83776 58.55044
#
# Poissons Ratio (x) = 0.32543 0.10024
# Poissons Ratio (y) = 0.39188 -0.15519
# Poissons Ratio (z) = 0.16047 -0.20631
#
# Static dielectric constant tensor:
#      x y z
#    x 5.286010 -0.424090 -0.376370 
#    y -0.424090 5.054780 0.244570 
#    z -0.376370 0.244570 4.613430 
# 
# 
# High freq. dielectric constant tensor:
#      x y z
#    x 2.046960 0.000260 -0.013450 
#    y 0.000260 2.064140 0.001590 
#    z -0.013450 0.001590 2.053060 
# 
# From -- ./inp_files/226157.got.cif
#   From: 2010.06.25/outbox.cif.g09.slc.cpg/sg2_114_cif.got.tgz:226157.got - 2010.06.27 13:26:56.
