data_PCOD8023447
_publ_section_title
;
Structure prediction by ZEFSAII (Michael W. Deem and Ramdas Pophale) SiO2 
 PCOD8023447
Probable space group: P -1
;
_chemical_formula_sum "Si O2"
_cell_formula_units_Z 12
_cell_length_a 8.706478
_cell_length_b 10.994546
_cell_length_c 10.111642
_cell_angle_alpha 38.660639
_cell_angle_beta 89.145452
_cell_angle_gamma 67.342701
_cell_volume 484.556966
_symmetry_space_group_name_H-M "P -1"
_symmetry_group_IT_number 2
_symmetry_cell_setting 'triclinic'
loop_
_space_group_symop_operation_xyz
x,y,z
-x,-y,-z
loop_
_atom_site_type_symbol
_atom_site_label
_atom_site_fract_x
_atom_site_fract_y
_atom_site_fract_z
Si Si1 0.398879 0.463686 0.210204
Si Si2 0.010827 0.256486 0.060831
Si Si3 0.205906 0.207053 0.847505
Si Si4 0.310137 0.014185 0.489652
Si Si5 0.549620 0.681312 0.378734
Si Si6 0.836766 0.002233 0.228754
O O1 0.599109 0.273365 0.291080
O O2 0.407935 0.332392 0.455813
O O3 0.209729 0.521249 0.085033
O O4 0.362048 0.720852 0.023888
O O5 0.160677 0.192918 0.227201
O O6 0.051384 0.342302 0.851299
O O7 0.013392 0.019893 0.231276
O O8 0.269309 0.376171 0.659410
O O9 0.119316 0.163255 0.757817
O O10 0.376473 0.955997 0.120900
O O11 0.500000 0.000000 0.500000
O O12 0.192526 0.107689 0.547702
O O13 0.500000 0.500000 0.500000
#
# Coordination Sequence:
#
# PCOD8023447 Si02
#       6
#     2   2   2   2   2   2
#     4  10  23  41  67  96 133 176 233 268 344 396
#     4  10  24  42  70  97 137 176 230 284 336 403
#     4  11  22  41  72 100 135 184 224 275 350 401
#     4  12  24  43  68  95 138 184 225 282 338 407
#     4  11  21  39  67 102 137 175 228 280 334 405
#     4  10  23  42  67 100 134 179 231 279 336 407
#
# _framework density 24.764887999999999
#
# number of rings (size 3 to 8) (size 9 to 14) (size 15 to 20)
#    1.000    0.333    3.333    2.500    2.333    1.333 
#    0.000    1.667    0.000    0.000    0.000    0.000 
#    0.000    0.000    0.000    0.000    0.000    0.000 
#
# Total GULP energy -148706.592162 kJ/mol
# GULP energy per Si atom -12392.216013 kJ/mol
# Density = 2.470852 g / cm^3
# Si number density = 24.764888 Si / 1000 Ang^3
#
#
#
# Elastic Constant Matrix: (Units=GPa)
#
#
# Indices 1 2 3 4 5 6 
#
# 1 117.4469 9.3413 40.0297 24.5947 -1.6368 9.6599
# 2 9.3413 64.9575 38.6026 26.9337 8.0266 -9.4272
# 3 40.0297 38.6026 93.1765 29.3210 16.3518 7.9757
# 4 24.5947 26.9337 29.3210 42.2378 -4.3635 -2.0116
# 5 -1.6368 8.0266 16.3518 -4.3635 52.5740 0.8474
# 6 9.6599 -9.4272 7.9757 -2.0116 0.8474 33.9410
#
#
#
# Elastic Compliance Matrix: (Units=1/GPa)
#
#
# Indices 1 2 3 4 5 6 
#
# 1 0.010973 0.002731 -0.004207 -0.005206 0.000828 -0.001705
# 2 0.002731 0.026778 -0.008536 -0.012621 -0.002525 0.007981
# 3 -0.004207 -0.008536 0.019597 -0.006554 -0.005370 -0.006033
# 4 -0.005206 -0.012621 -0.006554 0.040120 0.007105 0.001717
# 5 0.000828 -0.002525 -0.005370 0.007105 0.021689 0.000204
# 6 -0.001705 0.007981 -0.006033 0.001717 0.000204 0.033679
#
#
# Mechanical properties :
#
#
# Convention : Reuss Voigt Hill
#
# Bulk Modulus (GPa) = 26.79191 50.16979 38.48085
# Shear Modulus (GPa) = 26.98320 38.25772 32.62046
#
# Velocity S-wave (km/s) = 3.30445 3.93471 3.63327
# Velocity P-wave (km/s) = 5.03996 6.39882 5.75961
#
# Compressibility (1/GPa) = 0.03732470
#
# Stress axis : x y z
#
# Youngs Moduli (GPa) = 91.13199 37.34431 51.02862
#
# Poissons Ratio (x) = -0.10198 0.21466
# Poissons Ratio (y) = -0.24886 0.43557
# Poissons Ratio (z) = 0.38335 0.31876
#
# Static dielectric constant tensor:
#      x y z
#    x 4.443450 -0.165640 -0.107360 
#    y -0.165640 4.461870 0.058950 
#    z -0.107360 0.058950 4.595210 
# 
# 
# High freq. dielectric constant tensor:
#      x y z
#    x 1.975660 -0.002890 -0.001060 
#    y -0.002890 1.972120 0.005190 
#    z -0.001060 0.005190 1.999780 
# 
# From -- ./inp_files/183700.got.cif
#   From: 2010.06.25/outbox.cif.g09.slc.cpg/sg2_92_cif.got.tgz:183700.got - 2010.06.27 13:26:56.
