data_PCOD8023419
_publ_section_title
;
Structure prediction by ZEFSAII (Michael W. Deem and Ramdas Pophale) SiO2 
 PCOD8023419
Probable space group: P -1
;
_chemical_formula_sum "Si O2"
_cell_formula_units_Z 16
_cell_length_a 11.104786
_cell_length_b 12.436915
_cell_length_c 13.787095
_cell_angle_alpha 84.652437
_cell_angle_beta 160.061712
_cell_angle_gamma 96.820455
_cell_volume 643.769513
_symmetry_space_group_name_H-M "P -1"
_symmetry_group_IT_number 2
_symmetry_cell_setting 'triclinic'
loop_
_space_group_symop_operation_xyz
x,y,z
-x,-y,-z
loop_
_atom_site_type_symbol
_atom_site_label
_atom_site_fract_x
_atom_site_fract_y
_atom_site_fract_z
Si Si1 0.248042 0.991989 0.096338
Si Si2 0.173124 0.456987 0.453715
Si Si3 0.338759 0.362542 0.391863
Si Si4 0.136834 0.396760 0.019292
Si Si5 0.162311 0.137836 0.364453
Si Si6 0.514247 0.776748 0.815603
Si Si7 0.718036 0.265238 0.155277
Si Si8 0.121047 0.394839 0.658853
O O1 0.534889 0.906253 0.336348
O O2 0.460810 0.106877 0.225246
O O3 0.000953 0.956634 0.821308
O O4 0.000000 0.000000 0.000000
O O5 0.126763 0.415921 0.312264
O O6 0.570672 0.501885 0.784683
O O7 0.064171 0.346594 0.447820
O O8 0.909850 0.553204 0.259572
O O9 0.140878 0.369816 0.139384
O O10 0.350946 0.235722 0.435708
O O11 0.738412 0.424876 0.687933
O O12 0.194006 0.292401 0.005955
O O13 0.844684 0.173243 0.189041
O O14 0.538505 0.788791 0.950463
O O15 0.130291 0.715840 0.516437
O O16 0.507911 0.356784 0.933305
O O17 0.000000 0.500000 0.500000
#
# Coordination Sequence:
#
# PCOD8023419 Si02
#       8
#     2   2   2   2   2   2   2   2
#     4  12  27  51  77 111 142 190 244 304 369 430
#     4  10  23  41  67 100 140 187 234 297 355 426
#     4  11  23  45  66 103 140 187 240 297 358 428
#     4  11  25  41  69 102 143 188 238 294 361 425
#     4  11  27  47  78 104 148 188 243 308 363 427
#     4  11  27  44  74 102 146 192 242 301 363 438
#     4  11  26  46  70 106 147 193 245 294 367 434
#     4  11  24  43  71 106 147 194 242 293 362 438
#
# _framework density 24.853614
#
# number of rings (size 3 to 8) (size 9 to 14) (size 15 to 20)
#    0.000    1.000    1.250    3.750    7.000    4.000 
#    0.000    0.000    0.000    0.000    0.000    0.000 
#    0.000    0.000    0.000    0.000    0.000    0.000 
#
# Total GULP energy -198293.692837 kJ/mol
# GULP energy per Si atom -12393.355802 kJ/mol
# Density = 2.479705 g / cm^3
# Si number density = 24.853614 Si / 1000 Ang^3
#
#
#
# Elastic Constant Matrix: (Units=GPa)
#
#
# Indices 1 2 3 4 5 6 
#
# 1 128.4992 53.8757 36.0403 -5.7003 22.6294 -7.4395
# 2 53.8757 136.1524 27.7937 8.0369 8.2350 16.1438
# 3 36.0403 27.7937 96.7371 -21.0052 7.7431 -4.1980
# 4 -5.7003 8.0369 -21.0052 41.3210 -5.8816 5.4540
# 5 22.6294 8.2350 7.7431 -5.8816 36.5232 -4.5460
# 6 -7.4395 16.1438 -4.1980 5.4540 -4.5460 53.7792
#
#
#
# Elastic Compliance Matrix: (Units=1/GPa)
#
#
# Indices 1 2 3 4 5 6 
#
# 1 0.011137 -0.003808 -0.002554 -0.000039 -0.005252 0.002044
# 2 -0.003808 0.009920 -0.002246 -0.003198 -0.000338 -0.003384
# 3 -0.002554 -0.002246 0.013423 0.006877 0.000439 0.000708
# 4 -0.000039 -0.003198 0.006877 0.029005 0.003818 -0.001127
# 5 -0.005252 -0.000338 0.000439 0.003818 0.031441 0.001680
# 6 0.002044 -0.003384 0.000708 -0.001127 0.001680 0.020205
#
#
# Mechanical properties :
#
#
# Convention : Reuss Voigt Hill
#
# Bulk Modulus (GPa) = 57.92384 66.31200 62.11792
# Shear Modulus (GPa) = 36.20522 42.56995 39.38759
#
# Velocity S-wave (km/s) = 3.82087 4.14312 3.98525
# Velocity P-wave (km/s) = 6.54385 7.04459 6.79883
#
# Compressibility (1/GPa) = 0.01726405
#
# Stress axis : x y z
#
# Youngs Moduli (GPa) = 89.79451 100.80295 74.49866
#
# Poissons Ratio (x) = 0.38383 0.19030
# Poissons Ratio (y) = 0.34191 0.16731
# Poissons Ratio (z) = 0.22937 0.22639
#
# Static dielectric constant tensor:
#      x y z
#    x 5.675610 -0.051770 0.104520 
#    y -0.051770 4.493020 0.110120 
#    z 0.104520 0.110120 4.213980 
# 
# 
# High freq. dielectric constant tensor:
#      x y z
#    x 2.021120 -0.005630 0.006960 
#    y -0.005630 1.990870 0.007150 
#    z 0.006960 0.007150 1.981070 
# 
# From -- ./inp_files/519691.got.cif
#   From: 2010.06.25/outbox.cif.g09.slc.cpg/sg2_260_cif.got.tgz:519691.got - 2010.06.27 13:26:56.
