data_PCOD8023502
_publ_section_title
;
Structure prediction by ZEFSAII (Michael W. Deem and Ramdas Pophale) SiO2 
 PCOD8023502
Probable space group: P -1
;
_chemical_formula_sum "Si O2"
_cell_formula_units_Z 14
_cell_length_a 14.532478
_cell_length_b 9.390084
_cell_length_c 5.170577
_cell_angle_alpha 108.390981
_cell_angle_beta 92.234117
_cell_angle_gamma 65.847922
_cell_volume 607.618465
_symmetry_space_group_name_H-M "P -1"
_symmetry_group_IT_number 2
_symmetry_cell_setting 'triclinic'
loop_
_space_group_symop_operation_xyz
x,y,z
-x,-y,-z
loop_
_atom_site_type_symbol
_atom_site_label
_atom_site_fract_x
_atom_site_fract_y
_atom_site_fract_z
Si Si1 0.050565 0.850475 0.725234
Si Si2 0.216128 0.546501 0.810635
Si Si3 0.146102 0.031135 0.517640
Si Si4 0.551810 0.305024 0.431795
Si Si5 0.681978 0.225361 0.904845
Si Si6 0.642079 0.752153 0.617362
Si Si7 0.736148 0.783063 0.153448
O O1 0.106414 0.678304 0.781241
O O2 0.134271 0.882670 0.585519
O O3 0.962729 0.840720 0.529960
O O4 0.000000 0.000000 0.000000
O O5 0.283417 0.443637 0.514770
O O6 0.200708 0.416652 0.930417
O O7 0.278936 0.630893 0.014217
O O8 0.224027 0.949408 0.243912
O O9 0.186102 0.132047 0.772189
O O10 0.500000 0.500000 0.500000
O O11 0.596168 0.266627 0.702243
O O12 0.472004 0.225308 0.344752
O O13 0.638836 0.214993 0.177645
O O14 0.653420 0.847037 0.414877
O O15 0.675786 0.831471 0.906784
#
# Coordination Sequence:
#
# PCOD8023502 Si02
#       7
#     2   2   2   2   2   2   2
#     4  11  24  44  72 101 133 174 228 284 337 406
#     4  10  23  41  72  98 137 173 230 275 340 387
#     4  11  27  44  68 101 139 177 225 279 346 403
#     4  12  22  39  66 104 132 176 230 276 326 395
#     4  12  24  39  70 100 135 176 226 282 331 389
#     4  10  23  41  68  97 139 174 225 278 328 394
#     4  10  24  44  69  94 145 179 219 272 344 399
#
# _framework density 23.040773999999999
#
# number of rings (size 3 to 8) (size 9 to 14) (size 15 to 20)
#    0.857    0.286    2.857    3.000    4.000    0.571 
#    0.000    5.714    0.000    0.000    0.000    0.000 
#    0.000    0.000    0.000    0.000    0.000    0.000 
#
# Total GULP energy -173599.590203 kJ/mol
# GULP energy per Si atom -12399.970729 kJ/mol
# Density = 2.298833 g / cm^3
# Si number density = 23.040774 Si / 1000 Ang^3
#
#
#
# Elastic Constant Matrix: (Units=GPa)
#
#
# Indices 1 2 3 4 5 6 
#
# 1 121.1520 17.0235 48.8870 10.5721 34.0393 -6.8552
# 2 17.0235 25.6369 4.4231 4.0194 4.6661 -9.6792
# 3 48.8870 4.4231 132.8463 -7.2673 21.2736 -1.8319
# 4 10.5721 4.0194 -7.2673 30.4692 -1.0215 1.2069
# 5 34.0393 4.6661 21.2736 -1.0215 52.5429 6.5711
# 6 -6.8552 -9.6792 -1.8319 1.2069 6.5711 20.8976
#
#
#
# Elastic Compliance Matrix: (Units=1/GPa)
#
#
# Indices 1 2 3 4 5 6 
#
# 1 0.013134 -0.004146 -0.003752 -0.005335 -0.007308 0.004665
# 2 -0.004146 0.053374 0.000641 -0.006652 -0.005642 0.025576
# 3 -0.003752 0.000641 0.009287 0.003384 -0.001333 0.000104
# 4 -0.005335 -0.006652 0.003384 0.036822 0.004399 -0.008044
# 5 -0.007308 -0.005642 -0.001333 0.004399 0.026612 -0.013749
# 6 0.004665 0.025576 0.000104 -0.008044 -0.013749 0.066026
#
#
# Mechanical properties :
#
#
# Convention : Reuss Voigt Hill
#
# Bulk Modulus (GPa) = 16.31840 46.70028 31.50934
# Shear Modulus (GPa) = 20.81627 34.73538 27.77582
#
# Velocity S-wave (km/s) = 3.00901 3.88694 3.47581
# Velocity P-wave (km/s) = 4.37835 6.36058 5.46017
#
# Compressibility (1/GPa) = 0.06128051
#
# Stress axis : x y z
#
# Youngs Moduli (GPa) = 76.14056 18.73557 107.67682
#
# Poissons Ratio (x) = 0.07767 0.40403
# Poissons Ratio (y) = 0.31566 -0.06899
# Poissons Ratio (z) = 0.28570 -0.01200
#
# Static dielectric constant tensor:
#      x y z
#    x 4.190290 -0.043460 0.028700 
#    y -0.043460 3.936420 -0.006400 
#    z 0.028700 -0.006400 4.195100 
# 
# 
# High freq. dielectric constant tensor:
#      x y z
#    x 1.910210 -0.001680 0.008810 
#    y -0.001680 1.894710 -0.002980 
#    z 0.008810 -0.002980 1.918250 
# 
# From -- ./inp_files/67905.got.cif
#   From: 2010.06.25/outbox.cif.g09.slc.cpg/sg2_34_cif.got.tgz:67905.got - 2010.06.27 13:26:56.
