data_PCOD8023876
_publ_section_title
;
Structure prediction by ZEFSAII (Michael W. Deem and Ramdas Pophale) SiO2 
 PCOD8023876
Probable space group: P -1
;
_chemical_formula_sum "Si O2"
_cell_formula_units_Z 16
_cell_length_a 9.153130
_cell_length_b 15.956453
_cell_length_c 9.715137
_cell_angle_alpha 137.633767
_cell_angle_beta 103.455506
_cell_angle_gamma 105.248289
_cell_volume 695.626604
_symmetry_space_group_name_H-M "P -1"
_symmetry_group_IT_number 2
_symmetry_cell_setting 'triclinic'
loop_
_space_group_symop_operation_xyz
x,y,z
-x,-y,-z
loop_
_atom_site_type_symbol
_atom_site_label
_atom_site_fract_x
_atom_site_fract_y
_atom_site_fract_z
Si Si1 0.263193 0.989329 0.688604
Si Si2 0.911224 0.129192 0.063946
Si Si3 0.416640 0.822277 0.212678
Si Si4 0.703961 0.440627 0.664412
Si Si5 0.723681 0.832992 0.850776
Si Si6 0.925915 0.311053 0.528147
Si Si7 0.072611 0.789624 0.133110
Si Si8 0.371977 0.556748 0.039547
O O1 0.134591 0.909542 0.422116
O O2 0.230238 0.848860 0.602504
O O3 0.498415 0.135685 0.874666
O O4 0.203091 0.076004 0.873071
O O5 0.138466 0.203501 0.212606
O O6 0.917297 0.262337 0.308430
O O7 0.852024 0.103937 0.860888
O O8 0.746375 0.952377 0.885816
O O9 0.178478 0.710058 0.050643
O O10 0.479931 0.727019 0.183687
O O11 0.500000 0.000000 0.500000
O O12 0.508674 0.335001 0.396361
O O13 0.636292 0.397565 0.753477
O O14 0.853485 0.410994 0.630275
O O15 0.832921 0.636493 0.899437
O O16 0.148611 0.409757 0.755475
O O17 0.500000 0.500000 0.000000
#
# Coordination Sequence:
#
# PCOD8023876 Si02
#       8
#     2   2   2   2   2   2   2   2
#     4  10  23  43  68  99 137 182 234 291 346 420
#     4  10  25  44  67  98 143 181 230 290 358 419
#     4  10  23  42  67 106 138 179 236 293 342 419
#     4  12  24  41  73  99 136 184 238 289 349 422
#     4  10  25  45  65 100 141 182 230 290 362 423
#     4  11  23  45  70 100 141 184 238 285 353 428
#     4  11  23  42  69  99 137 177 235 296 344 415
#     4  12  25  44  71 106 147 186 229 293 367 423
#
# _framework density 23.000843
#
# number of rings (size 3 to 8) (size 9 to 14) (size 15 to 20)
#    0.000    1.250    2.500    2.625    7.000    4.500 
#    0.000    0.000    0.000    0.000    0.000    0.000 
#    0.000    0.000    0.000    0.000    0.000    0.000 
#
# Total GULP energy -198260.694720 kJ/mol
# GULP energy per Si atom -12391.293420 kJ/mol
# Density = 2.294849 g / cm^3
# Si number density = 23.000843 Si / 1000 Ang^3
#
#
#
# Elastic Constant Matrix: (Units=GPa)
#
#
# Indices 1 2 3 4 5 6 
#
# 1 85.5431 18.1364 42.2438 10.4079 0.2123 10.7509
# 2 18.1364 117.8527 48.4550 -4.6150 -12.0772 20.4088
# 3 42.2438 48.4550 118.2037 -12.3088 -0.0127 15.0470
# 4 10.4079 -4.6150 -12.3088 41.2515 9.6617 -1.8126
# 5 0.2123 -12.0772 -0.0127 9.6617 37.3390 -2.0457
# 6 10.7509 20.4088 15.0470 -1.8126 -2.0457 35.9501
#
#
#
# Elastic Compliance Matrix: (Units=1/GPa)
#
#
# Indices 1 2 3 4 5 6 
#
# 1 0.015689 0.000465 -0.006109 -0.006200 0.001520 -0.002625
# 2 0.000465 0.011334 -0.004354 -0.001223 0.003726 -0.004601
# 3 -0.006109 -0.004354 0.013149 0.005604 -0.002879 -0.001087
# 4 -0.006200 -0.001223 0.005604 0.029235 -0.007856 0.001230
# 5 0.001520 0.003726 -0.002879 -0.007856 0.030007 -0.000054
# 6 -0.002625 -0.004601 -0.001087 0.001230 -0.000054 0.031727
#
#
# Mechanical properties :
#
#
# Convention : Reuss Voigt Hill
#
# Bulk Modulus (GPa) = 49.56099 59.91887 54.73993
# Shear Modulus (GPa) = 31.67311 37.09243 34.38277
#
# Velocity S-wave (km/s) = 3.71488 4.02014 3.87052
# Velocity P-wave (km/s) = 6.32413 6.90333 6.62007
#
# Compressibility (1/GPa) = 0.02017716
#
# Stress axis : x y z
#
# Youngs Moduli (GPa) = 63.74039 88.22726 76.04924
#
# Poissons Ratio (x) = -0.04100 0.46456
# Poissons Ratio (y) = -0.02962 0.33109
# Poissons Ratio (z) = 0.38937 0.38411
#
# Static dielectric constant tensor:
#      x y z
#    x 4.732920 0.472330 0.134390 
#    y 0.472330 4.227370 0.096590 
#    z 0.134390 0.096590 4.114970 
# 
# 
# High freq. dielectric constant tensor:
#      x y z
#    x 1.908220 0.021550 -0.005470 
#    y 0.021550 1.910860 0.005370 
#    z -0.005470 0.005370 1.905020 
# 
# From -- ./inp_files/209061.got.cif
#   From: 2010.06.25/outbox.cif.g09.slc.cpg/sg2_105_cif.got.tgz:209061.got - 2010.06.27 13:26:56.
