data_PCOD8023824
_publ_section_title
;
Structure prediction by ZEFSAII (Michael W. Deem and Ramdas Pophale) SiO2 
 PCOD8023824
Probable space group: P -1
;
_chemical_formula_sum "Si O2"
_cell_formula_units_Z 16
_cell_length_a 16.046282
_cell_length_b 15.370886
_cell_length_c 11.418024
_cell_angle_alpha 37.794265
_cell_angle_beta 132.399793
_cell_angle_gamma 154.387823
_cell_volume 738.219508
_symmetry_space_group_name_H-M "P -1"
_symmetry_group_IT_number 2
_symmetry_cell_setting 'triclinic'
loop_
_space_group_symop_operation_xyz
x,y,z
-x,-y,-z
loop_
_atom_site_type_symbol
_atom_site_label
_atom_site_fract_x
_atom_site_fract_y
_atom_site_fract_z
Si Si1 0.235636 0.528437 0.042617
Si Si2 0.825777 0.490239 0.264795
Si Si3 0.744394 0.127574 0.684955
Si Si4 0.496623 0.330681 0.197313
Si Si5 0.454139 0.385581 0.700271
Si Si6 0.805016 0.080765 0.179498
Si Si7 0.458866 0.245368 0.509961
Si Si8 0.408215 0.922897 0.160789
O O1 0.358518 0.510371 0.189624
O O2 0.166393 0.475169 0.901658
O O3 0.038512 0.322194 0.152684
O O4 0.366771 0.794594 0.927342
O O5 0.714508 0.226431 0.460754
O O6 0.718986 0.505513 0.218930
O O7 0.036997 0.703754 0.294497
O O8 0.696976 0.130886 0.765735
O O9 0.608060 0.855551 0.812144
O O10 0.392629 0.177295 0.383699
O O11 0.500000 0.500000 0.000000
O O12 0.500000 0.500000 0.500000
O O13 0.265539 0.092343 0.812507
O O14 0.416687 0.480304 0.650581
O O15 0.727057 0.946644 0.374604
O O16 0.710209 0.138010 0.999124
O O17 0.596557 0.252698 0.662791
#
# Coordination Sequence:
#
# PCOD8023824 Si02
#       8
#     2   2   2   2   2   2   2   2
#     4  11  21  38  70  93 121 172 214 256 316 380
#     4  11  22  40  68  95 123 168 216 254 319 377
#     4  11  23  42  66  93 127 170 213 260 316 373
#     4  12  25  41  65  94 132 164 211 265 316 375
#     4   9  22  43  63  88 125 171 209 254 314 373
#     4  10  23  42  66  94 127 166 214 259 317 383
#     4  11  23  41  63  94 131 167 206 266 322 369
#     4  11  21  41  67  92 130 164 211 265 313 377
#
# _framework density 21.673770999999999
#
# number of rings (size 3 to 8) (size 9 to 14) (size 15 to 20)
#    0.000    1.250    3.750    2.250    1.750    3.000 
#    0.000    6.250    0.000    0.000    0.000    0.000 
#    0.000    0.000    0.000    0.000    0.000    0.000 
#
# Total GULP energy -198386.649126 kJ/mol
# GULP energy per Si atom -12399.165570 kJ/mol
# Density = 2.162444 g / cm^3
# Si number density = 21.673771 Si / 1000 Ang^3
#
#
#
# Elastic Constant Matrix: (Units=GPa)
#
#
# Indices 1 2 3 4 5 6 
#
# 1 109.5962 38.2839 41.1474 -5.9435 10.0374 11.3582
# 2 38.2839 67.4260 22.3120 -6.3467 14.1792 26.5571
# 3 41.1474 22.3120 116.0861 4.2777 16.6618 10.3567
# 4 -5.9435 -6.3467 4.2777 24.9940 -2.8500 -8.0386
# 5 10.0374 14.1792 16.6618 -2.8500 55.4685 -0.7919
# 6 11.3582 26.5571 10.3567 -8.0386 -0.7919 25.8551
#
#
#
# Elastic Compliance Matrix: (Units=1/GPa)
#
#
# Indices 1 2 3 4 5 6 
#
# 1 0.012895 -0.008029 -0.003780 0.003477 0.001107 0.005211
# 2 -0.008029 0.033246 0.000705 -0.005018 -0.007982 -0.032708
# 3 -0.003780 0.000705 0.010862 -0.004507 -0.003061 -0.004909
# 4 0.003477 -0.005018 -0.004507 0.047407 0.004733 0.020316
# 5 0.001107 -0.007982 -0.003061 0.004733 0.021189 0.011059
# 6 0.005211 -0.032708 -0.004909 0.020316 0.011059 0.078606
#
#
# Mechanical properties :
#
#
# Convention : Reuss Voigt Hill
#
# Bulk Modulus (GPa) = 28.73997 55.17719 41.95858
# Shear Modulus (GPa) = 21.00746 34.02118 27.51432
#
# Velocity S-wave (km/s) = 3.11667 3.96623 3.56683
# Velocity P-wave (km/s) = 5.12255 6.81821 6.03028
#
# Compressibility (1/GPa) = 0.03479475
#
# Stress axis : x y z
#
# Youngs Moduli (GPa) = 77.54806 30.07901 92.06517
#
# Poissons Ratio (x) = 0.24151 0.34796
# Poissons Ratio (y) = 0.62265 -0.06488
# Poissons Ratio (z) = 0.29309 -0.02120
#
# Static dielectric constant tensor:
#      x y z
#    x 3.992000 -0.179770 0.086110 
#    y -0.179770 3.926390 -0.149400 
#    z 0.086110 -0.149400 4.225950 
# 
# 
# High freq. dielectric constant tensor:
#      x y z
#    x 1.852670 -0.002090 -0.000570 
#    y -0.002090 1.827920 0.006890 
#    z -0.000570 0.006890 1.872380 
# 
# From -- ./inp_files/455501.got.cif
#   From: 2010.06.25/outbox.cif.g09.slc.cpg/sg2_228_cif.got.tgz:455501.got - 2010.06.27 13:26:56.
