data_PCOD8023937
_publ_section_title
;
Structure prediction by ZEFSAII (Michael W. Deem and Ramdas Pophale) SiO2 
 PCOD8023937
Probable space group: P -1
;
_chemical_formula_sum "Si O2"
_cell_formula_units_Z 16
_cell_length_a 12.912275
_cell_length_b 23.849043
_cell_length_c 9.943644
_cell_angle_alpha 25.431988
_cell_angle_beta 41.974585
_cell_angle_gamma 33.302882
_cell_volume 721.176077
_symmetry_space_group_name_H-M "P -1"
_symmetry_group_IT_number 2
_symmetry_cell_setting 'triclinic'
loop_
_space_group_symop_operation_xyz
x,y,z
-x,-y,-z
loop_
_atom_site_type_symbol
_atom_site_label
_atom_site_fract_x
_atom_site_fract_y
_atom_site_fract_z
Si Si1 0.625232 0.819031 0.220686
Si Si2 0.424855 0.328336 0.660624
Si Si3 0.437919 0.793755 0.687728
Si Si4 0.382705 0.176383 0.284731
Si Si5 0.808623 0.316304 0.875268
Si Si6 0.073876 0.140263 0.231975
Si Si7 0.959379 0.829804 0.291673
Si Si8 0.836382 0.183388 0.619279
O O1 0.541767 0.797422 0.212397
O O2 0.609048 0.724210 0.564873
O O3 0.839473 0.759371 0.109187
O O4 0.500000 0.000000 0.000000
O O5 0.261752 0.508659 0.383908
O O6 0.617957 0.316882 0.513312
O O7 0.360789 0.295010 0.934378
O O8 0.503785 0.814752 0.721437
O O9 0.248206 0.957414 0.465437
O O10 0.377466 0.672625 0.016849
O O11 0.180232 0.219716 0.428097
O O12 0.500000 0.000000 0.500000
O O13 0.945014 0.268382 0.721882
O O14 0.919660 0.183281 0.172966
O O15 0.970093 0.189262 0.369089
O O16 0.114290 0.777000 0.371508
O O17 0.855814 0.017043 0.960079
#
# Coordination Sequence:
#
# PCOD8023937 Si02
#       8
#     2   2   2   2   2   2   2   2
#     4  10  23  42  68 101 132 175 224 277 335 395
#     4  12  27  44  68 101 139 180 218 281 345 400
#     4  11  23  41  69 100 133 182 225 275 336 397
#     4  12  23  43  72 101 134 173 232 282 333 395
#     4  12  27  44  65 100 144 178 222 277 341 401
#     4  11  23  42  69  99 134 180 226 279 325 404
#     4  11  24  42  69 103 131 177 225 280 330 398
#     4  11  23  41  70 100 133 173 232 273 330 399
#
# _framework density 22.185984000000001
#
# number of rings (size 3 to 8) (size 9 to 14) (size 15 to 20)
#    0.000    0.750    2.500    5.625    3.500    5.000 
#    0.000    2.500    0.000    0.000    0.000    0.000 
#    0.000    0.000    0.000    0.000    0.000    0.000 
#
# Total GULP energy -198393.728338 kJ/mol
# GULP energy per Si atom -12399.608021 kJ/mol
# Density = 2.213549 g / cm^3
# Si number density = 22.185984 Si / 1000 Ang^3
#
#
#
# Elastic Constant Matrix: (Units=GPa)
#
#
# Indices 1 2 3 4 5 6 
#
# 1 127.6830 13.2598 29.8585 -12.6785 6.7897 20.6961
# 2 13.2598 48.0153 33.2809 4.0839 14.0930 12.9894
# 3 29.8585 33.2809 78.3426 13.3160 0.3478 3.6806
# 4 -12.6785 4.0839 13.3160 40.3578 1.5440 -0.1890
# 5 6.7897 14.0930 0.3478 1.5440 28.1824 12.9690
# 6 20.6961 12.9894 3.6806 -0.1890 12.9690 29.6319
#
#
#
# Elastic Compliance Matrix: (Units=1/GPa)
#
#
# Indices 1 2 3 4 5 6 
#
# 1 0.010650 0.002922 -0.005778 0.004948 -0.000700 -0.007664
# 2 0.002922 0.039559 -0.017943 0.003389 -0.015736 -0.010244
# 3 -0.005778 -0.017943 0.023676 -0.008093 0.008035 0.005392
# 4 0.004948 0.003389 -0.008093 0.028776 -0.003302 -0.002307
# 5 -0.000700 -0.015736 0.008035 -0.003302 0.050930 -0.015923
# 6 -0.007664 -0.010244 0.005392 -0.002307 -0.015923 0.049875
#
#
# Mechanical properties :
#
#
# Convention : Reuss Voigt Hill
#
# Bulk Modulus (GPa) = 30.97398 45.20434 38.08916
# Shear Modulus (GPa) = 19.54444 31.47721 25.51083
#
# Velocity S-wave (km/s) = 2.97128 3.77077 3.39464
# Velocity P-wave (km/s) = 5.07570 6.27516 5.70703
#
# Compressibility (1/GPa) = 0.03228516
#
# Stress axis : x y z
#
# Youngs Moduli (GPa) = 93.89322 25.27888 42.23707
#
# Poissons Ratio (x) = -0.07386 0.24405
# Poissons Ratio (y) = -0.27433 0.75788
# Poissons Ratio (z) = 0.54252 0.45359
#
# Static dielectric constant tensor:
#      x y z
#    x 4.374320 -0.583460 -0.620180 
#    y -0.583460 4.889300 1.322940 
#    z -0.620180 1.322940 5.041290 
# 
# 
# High freq. dielectric constant tensor:
#      x y z
#    x 1.884560 0.001300 -0.008410 
#    y 0.001300 1.872730 0.031450 
#    z -0.008410 0.031450 1.865590 
# 
# From -- ./inp_files/216343.got.cif
#   From: 2010.06.25/outbox.cif.g09.slc.cpg/sg2_109_cif.got.tgz:216343.got - 2010.06.27 13:26:56.
