data_PCOD8023143
_publ_section_title
;
Structure prediction by ZEFSAII (Michael W. Deem and Ramdas Pophale) SiO2 
 PCOD8023143
Probable space group: P -1
;
_chemical_formula_sum "Si O2"
_cell_formula_units_Z 16
_cell_length_a 8.875155
_cell_length_b 25.151971
_cell_length_c 11.119007
_cell_angle_alpha 21.863533
_cell_angle_beta 59.166853
_cell_angle_gamma 59.851747
_cell_volume 790.932640
_symmetry_space_group_name_H-M "P -1"
_symmetry_group_IT_number 2
_symmetry_cell_setting 'triclinic'
loop_
_space_group_symop_operation_xyz
x,y,z
-x,-y,-z
loop_
_atom_site_type_symbol
_atom_site_label
_atom_site_fract_x
_atom_site_fract_y
_atom_site_fract_z
Si Si1 0.471863 0.911261 0.539084
Si Si2 0.922109 0.778350 0.237473
Si Si3 0.117424 0.359079 0.214184
Si Si4 0.069298 0.771669 0.646151
Si Si5 0.011182 0.493536 0.649347
Si Si6 0.631896 0.607541 0.168148
Si Si7 0.657048 0.036930 0.777093
Si Si8 0.211940 0.985792 0.688825
O O1 0.419741 0.890246 0.466504
O O2 0.300114 0.978131 0.537655
O O3 0.636988 0.009300 0.279910
O O4 0.529578 0.762532 0.894738
O O5 0.830288 0.725564 0.507262
O O6 0.968072 0.648858 0.398663
O O7 0.103138 0.848543 0.047858
O O8 0.783514 0.895679 0.986950
O O9 0.998688 0.256381 0.401601
O O10 0.290845 0.405019 0.974957
O O11 0.000000 0.500000 0.000000
O O12 0.244113 0.854235 0.408546
O O13 0.913224 0.868363 0.572243
O O14 0.120312 0.619337 0.010787
O O15 0.201358 0.417535 0.762042
O O16 0.000000 0.500000 0.500000
O O17 0.500000 0.500000 0.500000
O O18 0.500000 0.000000 0.000000
#
# Coordination Sequence:
#
# PCOD8023143 Si02
#       8
#     2   2   2   2   2   2   2   2
#     4  11  23  42  65  99 138 164 221 276 326 400
#     4  11  24  43  70  97 128 176 221 268 332 395
#     4  11  21  43  68  96 130 169 228 267 317 404
#     4  10  23  43  66  93 128 178 216 269 329 388
#     4  11  24  42  67  99 130 170 222 265 328 397
#     4  11  23  42  68  98 130 178 217 274 329 380
#     4  11  27  42  65  97 133 172 216 275 339 381
#     4  10  23  40  69  95 127 175 220 266 331 387
#
# _framework density 20.229282999999999
#
# number of rings (size 3 to 8) (size 9 to 14) (size 15 to 20)
#    0.000    1.250    5.000    1.500    7.000    2.000 
#    0.000    1.875    0.000    0.000    0.000    0.000 
#    0.000    0.000    0.000    0.000    0.000    0.000 
#
# Total GULP energy -198299.096068 kJ/mol
# GULP energy per Si atom -12393.693504 kJ/mol
# Density = 2.018324 g / cm^3
# Si number density = 20.229283 Si / 1000 Ang^3
#
#
#
# Elastic Constant Matrix: (Units=GPa)
#
#
# Indices 1 2 3 4 5 6 
#
# 1 93.1293 53.4297 54.0141 4.9157 -2.9588 3.5271
# 2 53.4297 100.8327 52.4608 -7.2203 -18.3228 6.5877
# 3 54.0141 52.4608 123.3330 -6.1646 -11.5595 1.0279
# 4 4.9157 -7.2203 -6.1646 45.0438 -1.8109 0.1956
# 5 -2.9588 -18.3228 -11.5595 -1.8109 37.9127 7.7993
# 6 3.5271 6.5877 1.0279 0.1956 7.7993 35.7254
#
#
#
# Elastic Compliance Matrix: (Units=1/GPa)
#
#
# Indices 1 2 3 4 5 6 
#
# 1 0.018604 -0.008310 -0.005260 -0.004269 -0.004550 0.000864
# 2 -0.008310 0.017892 -0.002989 0.003711 0.008126 -0.004187
# 3 -0.005260 -0.002989 0.011940 0.001800 0.001805 0.000323
# 4 -0.004269 0.003711 0.001800 0.023649 0.003382 -0.001182
# 5 -0.004550 0.008126 0.001805 0.003382 0.032343 -0.008181
# 6 0.000864 -0.004187 0.000323 -0.001182 -0.008181 0.030461
#
#
# Mechanical properties :
#
#
# Convention : Reuss Voigt Hill
#
# Bulk Modulus (GPa) = 65.28609 70.78935 68.03772
# Shear Modulus (GPa) = 28.88284 34.22907 31.55595
#
# Velocity S-wave (km/s) = 3.78269 4.11792 3.95386
# Velocity P-wave (km/s) = 7.17087 7.59468 7.38582
#
# Compressibility (1/GPa) = 0.01531720
#
# Stress axis : x y z
#
# Youngs Moduli (GPa) = 53.75080 55.89129 83.75520
#
# Poissons Ratio (x) = 0.46448 0.44055
# Poissons Ratio (y) = 0.44669 0.25034
# Poissons Ratio (z) = 0.28273 0.16706
#
# Static dielectric constant tensor:
#      x y z
#    x 4.078410 0.088520 -0.481930 
#    y 0.088520 3.963970 0.024620 
#    z -0.481930 0.024620 4.504960 
# 
# 
# High freq. dielectric constant tensor:
#      x y z
#    x 1.781010 -0.004640 -0.002130 
#    y -0.004640 1.795230 -0.006190 
#    z -0.002130 -0.006190 1.800230 
# 
# From -- ./inp_files/407301.got.cif
#   From: 2010.06.25/outbox.cif.g09.slc.cpg/sg2_204_cif.got.tgz:407301.got - 2010.06.27 13:26:56.
