data_PCOD8023042
_publ_section_title
;
Structure prediction by ZEFSAII (Michael W. Deem and Ramdas Pophale) SiO2 
 PCOD8023042
Probable space group: P -1
;
_chemical_formula_sum "Si O2"
_cell_formula_units_Z 16
_cell_length_a 17.603857
_cell_length_b 20.780983
_cell_length_c 11.719688
_cell_angle_alpha 32.823168
_cell_angle_beta 29.163644
_cell_angle_gamma 20.434968
_cell_volume 723.288166
_symmetry_space_group_name_H-M "P -1"
_symmetry_group_IT_number 2
_symmetry_cell_setting 'triclinic'
loop_
_space_group_symop_operation_xyz
x,y,z
-x,-y,-z
loop_
_atom_site_type_symbol
_atom_site_label
_atom_site_fract_x
_atom_site_fract_y
_atom_site_fract_z
Si Si1 0.528103 0.243824 0.968257
Si Si2 0.896175 0.169902 0.453890
Si Si3 0.456252 0.709157 0.689299
Si Si4 0.658783 0.003376 0.720242
Si Si5 0.934146 0.353222 0.968362
Si Si6 0.166531 0.652732 0.142622
Si Si7 0.532348 0.982650 0.258579
Si Si8 0.270747 0.957940 0.765418
O O1 0.654500 0.273246 0.685353
O O2 0.243330 0.433511 0.086623
O O3 0.678961 0.147653 0.030379
O O4 0.547023 0.112710 0.067278
O O5 0.818916 0.311209 0.251103
O O6 0.090235 0.113651 0.371257
O O7 0.000000 0.000000 0.500000
O O8 0.715114 0.531745 0.676080
O O9 0.265233 0.873112 0.790049
O O10 0.478443 0.789679 0.435361
O O11 0.364862 0.636052 0.871778
O O12 0.692445 0.918582 0.679332
O O13 0.500000 0.000000 0.000000
O O14 0.954847 0.318089 0.858572
O O15 0.216465 0.208214 0.848843
O O16 0.977502 0.823064 0.223239
O O17 0.486444 0.930444 0.509310
#
# Coordination Sequence:
#
# PCOD8023042 Si02
#       8
#     2   2   2   2   2   2   2   2
#     4  12  24  42  69  99 133 177 226 275 329 399
#     4  12  23  45  75  96 131 181 226 277 328 396
#     4  10  23  40  66 100 136 178 218 286 333 402
#     4  11  22  44  70  97 135 178 221 271 345 393
#     4  12  24  42  68  98 132 175 230 271 332 398
#     4  11  22  41  67 102 136 173 228 277 340 397
#     4  11  25  43  66  96 136 179 214 278 333 398
#     4  11  22  41  66  97 134 176 221 274 340 396
#
# _framework density 22.121198
#
# number of rings (size 3 to 8) (size 9 to 14) (size 15 to 20)
#    0.000    0.750    5.000    2.625    0.000    3.500 
#    0.000    0.625    2.750    0.000    0.000    0.000 
#    0.000    0.000    0.000    0.000    0.000    0.000 
#
# Total GULP energy -198303.164595 kJ/mol
# GULP energy per Si atom -12393.947787 kJ/mol
# Density = 2.207085 g / cm^3
# Si number density = 22.121198 Si / 1000 Ang^3
#
#
#
# Elastic Constant Matrix: (Units=GPa)
#
#
# Indices 1 2 3 4 5 6 
#
# 1 76.1239 18.7895 -6.4680 6.6105 -7.4554 -4.6462
# 2 18.7895 117.4038 15.1185 -0.2721 7.9807 8.4554
# 3 -6.4680 15.1185 107.5598 -1.3259 7.8350 -2.2800
# 4 6.6105 -0.2721 -1.3259 33.1323 -4.1225 4.9114
# 5 -7.4554 7.9807 7.8350 -4.1225 34.9162 0.7634
# 6 -4.6462 8.4554 -2.2800 4.9114 0.7634 18.7359
#
#
#
# Elastic Compliance Matrix: (Units=1/GPa)
#
#
# Indices 1 2 3 4 5 6 
#
# 1 0.015017 -0.003220 0.001215 -0.003491 0.003124 0.006113
# 2 -0.003220 0.009792 -0.001505 0.001207 -0.002323 -0.005623
# 3 0.001215 -0.001505 0.009749 -0.000422 -0.001685 0.002346
# 4 -0.003491 0.001207 -0.000422 0.032775 0.003166 -0.010182
# 5 0.003124 -0.002323 -0.001685 0.003166 0.030600 -0.000459
# 6 0.006113 -0.005623 0.002346 -0.010182 -0.000459 0.060401
#
#
# Mechanical properties :
#
#
# Convention : Reuss Voigt Hill
#
# Bulk Modulus (GPa) = 36.31557 39.55196 37.93376
# Shear Modulus (GPa) = 28.64763 35.60005 32.12384
#
# Velocity S-wave (km/s) = 3.60256 4.01598 3.81487
# Velocity P-wave (km/s) = 5.81006 6.27874 6.04894
#
# Compressibility (1/GPa) = 0.02753640
#
# Stress axis : x y z
#
# Youngs Moduli (GPa) = 66.59187 102.11900 102.57395
#
# Poissons Ratio (x) = 0.32887 -0.12459
# Poissons Ratio (y) = 0.21446 0.15439
# Poissons Ratio (z) = -0.08089 0.15371
#
# Static dielectric constant tensor:
#      x y z
#    x 4.061780 -0.057390 0.139470 
#    y -0.057390 3.895360 -0.119450 
#    z 0.139470 -0.119450 4.333840 
# 
# 
# High freq. dielectric constant tensor:
#      x y z
#    x 1.870640 -0.002300 0.001410 
#    y -0.002300 1.852650 -0.007560 
#    z 0.001410 -0.007560 1.888320 
# 
# From -- ./inp_files/432239.got.cif
#   From: 2010.06.25/outbox.cif.g09.slc.cpg/sg2_217_cif.got.tgz:432239.got - 2010.06.27 13:26:56.
