data_PCOD8023969
_publ_section_title
;
Structure prediction by ZEFSAII (Michael W. Deem and Ramdas Pophale) SiO2 
 PCOD8023969
Probable space group: P -1
;
_chemical_formula_sum "Si O2"
_cell_formula_units_Z 16
_cell_length_a 8.782471
_cell_length_b 22.597977
_cell_length_c 15.712656
_cell_angle_alpha 17.789678
_cell_angle_beta 50.263238
_cell_angle_gamma 53.217308
_cell_volume 732.005616
_symmetry_space_group_name_H-M "P -1"
_symmetry_group_IT_number 2
_symmetry_cell_setting 'triclinic'
loop_
_space_group_symop_operation_xyz
x,y,z
-x,-y,-z
loop_
_atom_site_type_symbol
_atom_site_label
_atom_site_fract_x
_atom_site_fract_y
_atom_site_fract_z
Si Si1 0.959286 0.271187 0.724404
Si Si2 0.794541 0.345681 0.854099
Si Si3 0.036936 0.832407 0.316904
Si Si4 0.347157 0.878304 0.278995
Si Si5 0.380554 0.463687 0.876510
Si Si6 0.929216 0.721496 0.875611
Si Si7 0.070358 0.076811 0.231007
Si Si8 0.723010 0.552921 0.877041
O O1 0.792469 0.306696 0.806309
O O2 0.128707 0.437390 0.448675
O O3 0.876726 0.270181 0.658477
O O4 0.052826 0.063402 0.987242
O O5 0.568714 0.329172 0.987741
O O6 0.923743 0.187060 0.070567
O O7 0.812701 0.745368 0.533426
O O8 0.170618 0.780910 0.419214
O O9 0.447283 0.693102 0.539595
O O10 0.262653 0.017107 0.191560
O O11 0.500000 0.000000 0.000000
O O12 0.235622 0.427747 0.897805
O O13 0.267742 0.405968 0.082336
O O14 0.852131 0.790298 0.900564
O O15 0.950434 0.892895 0.564705
O O16 0.139211 0.625571 0.948620
O O17 0.500000 0.500000 0.000000
#
# Coordination Sequence:
#
# PCOD8023969 Si02
#       8
#     2   2   2   2   2   2   2   2
#     4  10  23  42  68  94 140 169 234 271 332 401
#     4  11  24  44  68  99 137 184 215 286 335 401
#     4  11  22  44  68 100 128 183 225 279 330 401
#     4  12  25  43  70  98 138 182 222 278 338 403
#     4  12  25  43  69 102 136 171 236 274 338 403
#     4  11  24  45  70  99 137 178 220 291 330 406
#     4  11  24  46  68  95 140 179 225 272 350 390
#     4  12  24  44  73 101 136 178 226 282 340 401
#
# _framework density 21.857754
#
# number of rings (size 3 to 8) (size 9 to 14) (size 15 to 20)
#    0.000    0.750    3.750    4.125    1.750    2.500 
#    4.500    1.250    0.000    0.000    0.000    0.000 
#    0.000    0.000    0.000    0.000    0.000    0.000 
#
# Total GULP energy -198398.438973 kJ/mol
# GULP energy per Si atom -12399.902436 kJ/mol
# Density = 2.180801 g / cm^3
# Si number density = 21.857754 Si / 1000 Ang^3
#
#
#
# Elastic Constant Matrix: (Units=GPa)
#
#
# Indices 1 2 3 4 5 6 
#
# 1 83.3802 49.1333 25.1253 -6.6002 -4.2690 3.6793
# 2 49.1333 172.5511 36.1071 -4.7545 -1.1851 20.5101
# 3 25.1253 36.1071 96.9128 -4.6905 2.5554 -2.4990
# 4 -6.6002 -4.7545 -4.6905 35.1406 1.8250 1.5405
# 5 -4.2690 -1.1851 2.5554 1.8250 25.2846 -2.7236
# 6 3.6793 20.5101 -2.4990 1.5405 -2.7236 40.9455
#
#
#
# Elastic Compliance Matrix: (Units=1/GPa)
#
#
# Indices 1 2 3 4 5 6 
#
# 1 0.015247 -0.003807 -0.002500 0.001860 0.002566 0.000485
# 2 -0.003807 0.007733 -0.001964 0.000257 -0.000498 -0.003694
# 3 -0.002500 -0.001964 0.011827 0.000847 -0.001577 0.001793
# 4 0.001860 0.000257 0.000847 0.029124 -0.002020 -0.001474
# 5 0.002566 -0.000498 -0.001577 -0.002020 0.040555 0.002696
# 6 0.000485 -0.003694 0.001793 -0.001474 0.002696 0.026574
#
#
# Mechanical properties :
#
#
# Convention : Reuss Voigt Hill
#
# Bulk Modulus (GPa) = 54.74611 63.73062 59.23837
# Shear Modulus (GPa) = 32.53284 36.43936 34.48610
#
# Velocity S-wave (km/s) = 3.86215 4.08746 3.97640
# Velocity P-wave (km/s) = 6.70740 7.17612 6.94571
#
# Compressibility (1/GPa) = 0.01826614
#
# Stress axis : x y z
#
# Youngs Moduli (GPa) = 65.58547 129.31249 84.55194
#
# Poissons Ratio (x) = 0.49234 0.21134
# Poissons Ratio (y) = 0.24971 0.16604
# Poissons Ratio (z) = 0.16394 0.25394
#
# Static dielectric constant tensor:
#      x y z
#    x 3.796290 0.322490 0.122350 
#    y 0.322490 4.198220 -0.009170 
#    z 0.122350 -0.009170 4.007270 
# 
# 
# High freq. dielectric constant tensor:
#      x y z
#    x 1.841870 0.021080 0.008400 
#    y 0.021080 1.872560 -0.001810 
#    z 0.008400 -0.001810 1.872190 
# 
# From -- ./inp_files/262563.got.cif
#   From: 2010.06.25/outbox.cif.g09.slc.cpg/sg2_132_cif.got.tgz:262563.got - 2010.06.27 13:26:56.
