data_PCOD8023591
_publ_section_title
;
Structure prediction by ZEFSAII (Michael W. Deem and Ramdas Pophale) SiO2 
 PCOD8023591
Probable space group: P -1
;
_chemical_formula_sum "Si O2"
_cell_formula_units_Z 16
_cell_length_a 8.291586
_cell_length_b 9.387096
_cell_length_c 22.112636
_cell_angle_alpha 128.529695
_cell_angle_beta 32.167049
_cell_angle_gamma 128.344494
_cell_volume 698.676359
_symmetry_space_group_name_H-M "P -1"
_symmetry_group_IT_number 2
_symmetry_cell_setting 'triclinic'
loop_
_space_group_symop_operation_xyz
x,y,z
-x,-y,-z
loop_
_atom_site_type_symbol
_atom_site_label
_atom_site_fract_x
_atom_site_fract_y
_atom_site_fract_z
Si Si1 0.331516 0.339054 0.468000
Si Si2 0.758768 0.053751 0.267966
Si Si3 0.854167 0.351243 0.851318
Si Si4 0.592818 0.562547 0.083989
Si Si5 0.653212 0.344240 0.693448
Si Si6 0.062239 0.935862 0.029879
Si Si7 0.260518 0.061239 0.202640
Si Si8 0.470070 0.410943 0.307551
O O1 0.500000 0.500000 0.500000
O O2 0.486718 0.164162 0.381303
O O3 0.351112 0.418383 0.414994
O O4 0.974079 0.281542 0.587128
O O5 0.026340 0.141251 0.254662
O O6 0.618502 0.839830 0.273671
O O7 0.918429 0.066844 0.155129
O O8 0.637639 0.358998 0.865254
O O9 0.158979 0.516434 0.792687
O O10 0.923369 0.145372 0.772657
O O11 0.680106 0.380835 0.977709
O O12 0.428795 0.523129 0.191348
O O13 0.908413 0.719332 0.032251
O O14 0.682726 0.456585 0.651260
O O15 0.425947 0.962050 0.936437
O O16 0.000000 0.000000 0.000000
O O17 0.361916 0.197236 0.263233
#
# Coordination Sequence:
#
# PCOD8023591 Si02
#       8
#     2   2   2   2   2   2   2   2
#     4  12  27  50  74 100 140 189 242 297 353 421
#     4  11  26  44  71 105 142 191 240 291 354 424
#     4  11  23  42  69 109 145 190 226 291 357 422
#     4  10  23  41  71 104 149 186 233 286 358 424
#     4  11  25  48  72 104 143 186 241 296 355 414
#     4  11  21  40  68 104 145 187 234 289 350 424
#     4  12  24  43  69 107 146 184 233 288 358 421
#     4  12  26  47  75 106 142 184 239 296 354 428
#
# _framework density 22.900445000000001
#
# number of rings (size 3 to 8) (size 9 to 14) (size 15 to 20)
#    0.000    0.750    3.750    3.375    1.750    3.500 
#    2.250    1.250    0.000    0.000    0.000    0.000 
#    0.000    0.000    0.000    0.000    0.000    0.000 
#
# Total GULP energy -198439.456553 kJ/mol
# GULP energy per Si atom -12402.466035 kJ/mol
# Density = 2.284832 g / cm^3
# Si number density = 22.900445 Si / 1000 Ang^3
#
#
#
# Elastic Constant Matrix: (Units=GPa)
#
#
# Indices 1 2 3 4 5 6 
#
# 1 99.9422 38.7577 32.5895 -13.3776 16.0213 13.5221
# 2 38.7577 86.4226 28.9271 3.8622 17.2138 6.7443
# 3 32.5895 28.9271 97.7644 -9.6543 7.7643 8.8119
# 4 -13.3776 3.8622 -9.6543 29.7415 7.7277 -2.8598
# 5 16.0213 17.2138 7.7643 7.7277 46.0582 -1.6627
# 6 13.5221 6.7443 8.8119 -2.8598 -1.6627 34.3779
#
#
#
# Elastic Compliance Matrix: (Units=1/GPa)
#
#
# Indices 1 2 3 4 5 6 
#
# 1 0.014882 -0.005177 -0.001999 0.007458 -0.004297 -0.003913
# 2 -0.005177 0.015766 -0.003113 -0.004734 -0.002801 -0.000788
# 3 -0.001999 -0.003113 0.012380 0.003609 -0.000889 -0.001519
# 4 0.007458 -0.004734 0.003609 0.040926 -0.008297 0.000074
# 5 -0.004297 -0.002801 -0.000889 -0.008297 0.025905 0.003030
# 6 -0.003913 -0.000788 -0.001519 0.000074 0.003030 0.031324
#
#
# Mechanical properties :
#
#
# Convention : Reuss Voigt Hill
#
# Bulk Modulus (GPa) = 44.54374 53.85310 49.19842
# Shear Modulus (GPa) = 29.54329 34.29251 31.91790
#
# Velocity S-wave (km/s) = 3.59566 3.87390 3.73737
# Velocity P-wave (km/s) = 6.06066 6.60127 6.33673
#
# Compressibility (1/GPa) = 0.02244984
#
# Stress axis : x y z
#
# Youngs Moduli (GPa) = 67.19696 63.42880 80.77609
#
# Poissons Ratio (x) = 0.32837 0.16144
# Poissons Ratio (y) = 0.34787 0.25147
# Poissons Ratio (z) = 0.13430 0.19747
#
# Static dielectric constant tensor:
#      x y z
#    x 4.251330 0.172270 -0.142480 
#    y 0.172270 4.015810 0.021770 
#    z -0.142480 0.021770 4.694020 
# 
# 
# High freq. dielectric constant tensor:
#      x y z
#    x 1.917260 0.014050 -0.007040 
#    y 0.014050 1.903010 -0.000880 
#    z -0.007040 -0.000880 1.899620 
# 
# From -- ./inp_files/399999.got.cif
#   From: 2010.06.25/outbox.cif.g09.slc.cpg/sg2_200_cif.got.tgz:399999.got - 2010.06.27 13:26:56.
