data_PCOD8023925
_publ_section_title
;
Structure prediction by ZEFSAII (Michael W. Deem and Ramdas Pophale) SiO2 
 PCOD8023925
Probable space group: P -1
;
_chemical_formula_sum "Si O2"
_cell_formula_units_Z 16
_cell_length_a 18.849473
_cell_length_b 10.224575
_cell_length_c 12.043379
_cell_angle_alpha 137.118334
_cell_angle_beta 27.970128
_cell_angle_gamma 137.108134
_cell_volume 713.732201
_symmetry_space_group_name_H-M "P -1"
_symmetry_group_IT_number 2
_symmetry_cell_setting 'triclinic'
loop_
_space_group_symop_operation_xyz
x,y,z
-x,-y,-z
loop_
_atom_site_type_symbol
_atom_site_label
_atom_site_fract_x
_atom_site_fract_y
_atom_site_fract_z
Si Si1 0.514509 0.647014 0.747563
Si Si2 0.016022 0.900994 0.207263
Si Si3 0.540557 0.781068 0.555132
Si Si4 0.197921 0.618762 0.276937
Si Si5 0.793224 0.581477 0.446518
Si Si6 0.935400 0.667304 0.537867
Si Si7 0.349338 0.874528 0.699477
Si Si8 0.868996 0.011984 0.274996
O O1 0.536370 0.792124 0.701491
O O2 0.473568 0.429452 0.614698
O O3 0.666233 0.694588 0.648566
O O4 0.378638 0.689905 0.038257
O O5 0.958854 0.694834 0.228269
O O6 0.005324 0.094616 0.411059
O O7 0.199404 0.961007 0.955496
O O8 0.898847 0.873059 0.247725
O O9 0.406832 0.874161 0.747479
O O10 0.709360 0.917139 0.371230
O O11 0.170010 0.411294 0.254943
O O12 0.138219 0.772567 0.534929
O O13 0.092655 0.589623 0.290844
O O14 0.827788 0.583083 0.529714
O O15 0.719218 0.351574 0.383983
O O16 0.500000 0.000000 0.500000
O O17 0.000000 0.000000 0.000000
#
# Coordination Sequence:
#
# PCOD8023925 Si02
#       8
#     2   2   2   2   2   2   2   2
#     4  10  23  44  67  96 136 171 229 272 339 398
#     4  11  24  45  65  99 134 176 227 276 337 402
#     4  10  23  42  67  99 130 179 217 281 329 397
#     4  10  25  43  67 103 130 177 222 280 338 401
#     4  11  24  45  68  98 134 179 225 276 335 401
#     4  10  25  43  67  97 132 176 223 274 343 396
#     4  11  26  42  67 101 136 175 230 274 336 401
#     4  11  24  42  71  97 133 173 225 277 336 403
#
# _framework density 22.417372
#
# number of rings (size 3 to 8) (size 9 to 14) (size 15 to 20)
#    0.000    1.500    1.250    1.500   14.000    2.000 
#    0.000    0.000    0.000    0.000    0.000    0.000 
#    0.000    0.000    0.000    0.000    0.000    0.000 
#
# Total GULP energy -198212.296054 kJ/mol
# GULP energy per Si atom -12388.268503 kJ/mol
# Density = 2.236635 g / cm^3
# Si number density = 22.417372 Si / 1000 Ang^3
#
#
#
# Elastic Constant Matrix: (Units=GPa)
#
#
# Indices 1 2 3 4 5 6 
#
# 1 163.7085 30.2572 27.7521 -3.6194 -23.0287 -2.1432
# 2 30.2572 112.4501 24.8168 -20.3710 -2.5915 -5.8594
# 3 27.7521 24.8168 102.2028 -20.0191 -7.9769 -0.6257
# 4 -3.6194 -20.3710 -20.0191 28.8152 1.6053 -9.2583
# 5 -23.0287 -2.5915 -7.9769 1.6053 29.6436 -7.1637
# 6 -2.1432 -5.8594 -0.6257 -9.2583 -7.1637 27.3376
#
#
#
# Elastic Compliance Matrix: (Units=1/GPa)
#
#
# Indices 1 2 3 4 5 6 
#
# 1 0.007442 -0.001707 -0.001381 -0.001135 0.005630 0.001277
# 2 -0.001707 0.011439 -0.000416 0.009354 0.000405 0.005582
# 3 -0.001381 -0.000416 0.012286 0.009167 0.002638 0.003880
# 4 -0.001135 0.009354 0.009167 0.054266 0.004718 0.021740
# 5 0.005630 0.000405 0.002638 0.004718 0.041771 0.013132
# 6 0.001277 0.005582 0.003880 0.021740 0.013132 0.048769
#
#
# Mechanical properties :
#
#
# Convention : Reuss Voigt Hill
#
# Bulk Modulus (GPa) = 41.39425 60.44598 50.92012
# Shear Modulus (GPa) = 26.17349 36.86163 31.51756
#
# Velocity S-wave (km/s) = 3.42066 4.05944 3.75366
# Velocity P-wave (km/s) = 5.84008 6.99961 6.44597
#
# Compressibility (1/GPa) = 0.02415795
#
# Stress axis : x y z
#
# Youngs Moduli (GPa) = 134.37866 87.42255 81.39415
#
# Poissons Ratio (x) = 0.14921 0.11243
# Poissons Ratio (y) = 0.22936 0.03386
# Poissons Ratio (z) = 0.18562 0.03637
#
# Static dielectric constant tensor:
#      x y z
#    x 4.724940 -0.158000 -0.418340 
#    y -0.158000 4.044870 -0.098440 
#    z -0.418340 -0.098440 3.898810 
# 
# 
# High freq. dielectric constant tensor:
#      x y z
#    x 1.899150 -0.001640 -0.022190 
#    y -0.001640 1.890520 -0.013140 
#    z -0.022190 -0.013140 1.860990 
# 
# From -- ./inp_files/462414.got.cif
#   From: 2010.06.25/outbox.cif.g09.slc.cpg/sg2_232_cif.got.tgz:462414.got - 2010.06.27 13:26:56.
