data_PCOD8023264
_publ_section_title
;
Structure prediction by ZEFSAII (Michael W. Deem and Ramdas Pophale) SiO2 
 PCOD8023264
Probable space group: P -1
;
_chemical_formula_sum "Si O2"
_cell_formula_units_Z 14
_cell_length_a 22.124230
_cell_length_b 9.645362
_cell_length_c 9.390851
_cell_angle_alpha 130.939717
_cell_angle_beta 44.894028
_cell_angle_gamma 152.398932
_cell_volume 652.992096
_symmetry_space_group_name_H-M "P -1"
_symmetry_group_IT_number 2
_symmetry_cell_setting 'triclinic'
loop_
_space_group_symop_operation_xyz
x,y,z
-x,-y,-z
loop_
_atom_site_type_symbol
_atom_site_label
_atom_site_fract_x
_atom_site_fract_y
_atom_site_fract_z
Si Si1 0.530062 0.050271 0.819647
Si Si2 0.305478 0.179175 0.367928
Si Si3 0.295934 0.011445 0.577840
Si Si4 0.635657 0.297420 0.388632
Si Si5 0.842613 0.106383 0.850692
Si Si6 0.397984 0.441619 0.932183
Si Si7 0.120918 0.510745 0.760408
O O1 0.595132 0.970356 0.604108
O O2 0.386788 0.830867 0.817294
O O3 0.636277 0.403878 0.867758
O O4 0.500000 0.000000 0.000000
O O5 0.357695 0.475120 0.490095
O O6 0.434049 0.286718 0.154661
O O7 0.253182 0.008547 0.490761
O O8 0.171669 0.932584 0.321454
O O9 0.168153 0.717147 0.686324
O O10 0.360982 0.301464 0.742261
O O11 0.773544 0.473554 0.365417
O O12 0.500000 0.000000 0.500000
O O13 0.964892 0.174148 0.750099
O O14 0.892760 0.393227 0.007868
O O15 0.688951 0.817150 0.980428
#
# Coordination Sequence:
#
# PCOD8023264 Si02
#       7
#     2   2   2   2   2   2   2
#     4  12  22  37  65  96 127 161 204 258 315 364
#     4  12  22  38  65  94 127 159 208 260 313 363
#     4  11  23  42  61  96 129 162 202 263 311 366
#     4  12  22  39  64  95 123 162 210 258 305 370
#     4  10  23  41  64  90 121 170 211 256 303 372
#     4  11  21  40  65  92 127 160 210 255 308 368
#     4  10  23  44  64  85 130 165 211 254 309 369
#
# _framework density 21.439768999999998
#
# number of rings (size 3 to 8) (size 9 to 14) (size 15 to 20)
#    0.000    0.857    4.286    4.286    0.000    1.143 
#    0.000    0.000    0.000    3.429    0.000    0.000 
#    0.000    0.000    0.000    0.000    0.000    0.000 
#
# Total GULP energy -173451.522761 kJ/mol
# GULP energy per Si atom -12389.394483 kJ/mol
# Density = 2.139097 g / cm^3
# Si number density = 21.439769 Si / 1000 Ang^3
#
#
#
# Elastic Constant Matrix: (Units=GPa)
#
#
# Indices 1 2 3 4 5 6 
#
# 1 123.4090 34.3797 56.5853 6.4427 28.6525 4.0027
# 2 34.3797 52.6429 32.5738 9.4671 11.9634 0.8253
# 3 56.5853 32.5738 93.4924 14.1600 19.2955 3.2327
# 4 6.4427 9.4671 14.1600 32.4192 4.3017 -3.0706
# 5 28.6525 11.9634 19.2955 4.3017 39.9815 7.2882
# 6 4.0027 0.8253 3.2327 -3.0706 7.2882 33.3486
#
#
#
# Elastic Compliance Matrix: (Units=1/GPa)
#
#
# Indices 1 2 3 4 5 6 
#
# 1 0.013007 -0.004095 -0.005566 0.001845 -0.005698 0.000495
# 2 -0.004095 0.026356 -0.005721 -0.004103 -0.001825 0.000415
# 3 -0.005566 -0.005721 0.017178 -0.004548 -0.001945 -0.000849
# 4 0.001845 -0.004103 -0.004548 0.034350 -0.002323 0.003991
# 5 -0.005698 -0.001825 -0.001945 -0.002323 0.031976 -0.006284
# 6 0.000495 0.000415 -0.000849 0.003991 -0.006284 0.031740
#
#
# Mechanical properties :
#
#
# Convention : Reuss Voigt Hill
#
# Bulk Modulus (GPa) = 38.79362 57.40243 48.09802
# Shear Modulus (GPa) = 25.77831 30.88356 28.33094
#
# Velocity S-wave (km/s) = 3.47127 3.79948 3.63908
# Velocity P-wave (km/s) = 5.84806 6.78823 6.33561
#
# Compressibility (1/GPa) = 0.02577744
#
# Stress axis : x y z
#
# Youngs Moduli (GPa) = 76.88396 37.94209 58.21506
#
# Poissons Ratio (x) = 0.15537 0.32402
# Poissons Ratio (y) = 0.31483 0.33303
# Poissons Ratio (z) = 0.42793 0.21705
#
# Static dielectric constant tensor:
#      x y z
#    x 4.169670 0.330430 -0.679770 
#    y 0.330430 7.869610 -11.947920 
#    z -0.679770 -11.947920 26.710160 
# 
# 
# High freq. dielectric constant tensor:
#      x y z
#    x 1.841290 0.000600 0.015000 
#    y 0.000600 1.820550 0.017370 
#    z 0.015000 0.017370 1.850270 
# 
# From -- ./inp_files/269615.got.cif
#   From: 2010.06.25/outbox.cif.g09.slc.cpg/sg2_135_cif.got.tgz:269615.got - 2010.06.27 13:26:56.
