data_PCOD8023856
_publ_section_title
;
Structure prediction by ZEFSAII (Michael W. Deem and Ramdas Pophale) SiO2 
 PCOD8023856
Probable space group: P -1
;
_chemical_formula_sum "Si O2"
_cell_formula_units_Z 12
_cell_length_a 9.335886
_cell_length_b 9.533288
_cell_length_c 14.240299
_cell_angle_alpha 138.941614
_cell_angle_beta 50.066230
_cell_angle_gamma 106.959878
_cell_volume 589.957607
_symmetry_space_group_name_H-M "P -1"
_symmetry_group_IT_number 2
_symmetry_cell_setting 'triclinic'
loop_
_space_group_symop_operation_xyz
x,y,z
-x,-y,-z
loop_
_atom_site_type_symbol
_atom_site_label
_atom_site_fract_x
_atom_site_fract_y
_atom_site_fract_z
Si Si1 0.996778 0.508308 0.896804
Si Si2 0.954811 0.766628 0.630812
Si Si3 0.862590 0.103528 0.020152
Si Si4 0.553009 0.713873 0.106496
Si Si5 0.150408 0.984125 0.511872
Si Si6 0.520375 0.956803 0.859812
O O1 0.769860 0.639652 0.024028
O O2 0.102398 0.246478 0.689651
O O3 0.000000 0.500000 0.000000
O O4 0.127337 0.653246 0.884569
O O5 0.758701 0.829721 0.677399
O O6 0.000000 0.500000 0.500000
O O7 0.120611 0.823402 0.527752
O O8 0.924973 0.915707 0.814220
O O9 0.623016 0.176853 0.179269
O O10 0.000000 0.000000 0.000000
O O11 0.384334 0.884680 0.332706
O O12 0.560789 0.811045 0.049078
O O13 0.500000 0.500000 0.000000
O O14 0.000000 0.000000 0.500000
O O15 0.500000 0.000000 0.000000
#
# Coordination Sequence:
#
# PCOD8023856 Si02
#       6
#     2   2   2   2   2   2
#     4  12  26  48  68 102 146 178 229 292 343 407
#     4  11  25  44  69 101 137 177 234 283 337 417
#     4  11  24  44  69  97 139 181 222 286 350 393
#     4  12  25  43  74 101 137 186 231 281 345 416
#     4  12  25  44  72 104 136 184 235 278 347 416
#     4  10  23  42  66  99 132 181 228 267 348 413
#
# _framework density 20.340444999999999
#
# number of rings (size 3 to 8) (size 9 to 14) (size 15 to 20)
#    0.000    0.667    6.667    0.000    9.333    0.667 
#    3.000    1.667    0.000    0.000    0.000    0.000 
#    0.000    0.000    0.000    0.000    0.000    0.000 
#
# Total GULP energy -148692.941191 kJ/mol
# GULP energy per Si atom -12391.078433 kJ/mol
# Density = 2.029415 g / cm^3
# Si number density = 20.340445 Si / 1000 Ang^3
#
#
#
# Elastic Constant Matrix: (Units=GPa)
#
#
# Indices 1 2 3 4 5 6 
#
# 1 141.5237 66.7475 43.0897 8.1859 -7.3939 1.5391
# 2 66.7475 191.4275 56.4330 21.8152 5.0275 4.9735
# 3 43.0897 56.4330 123.2741 16.8513 5.4955 7.6838
# 4 8.1859 21.8152 16.8513 40.7947 6.5583 2.7304
# 5 -7.3939 5.0275 5.4955 6.5583 39.0404 0.4862
# 6 1.5391 4.9735 7.6838 2.7304 0.4862 46.4382
#
#
#
# Elastic Compliance Matrix: (Units=1/GPa)
#
#
# Indices 1 2 3 4 5 6 
#
# 1 0.009053 -0.002613 -0.002098 0.000052 0.002334 0.000299
# 2 -0.002613 0.006988 -0.001928 -0.002284 -0.000737 -0.000201
# 3 -0.002098 -0.001928 0.010198 -0.002492 -0.001150 -0.001253
# 4 0.000052 -0.002284 -0.002492 0.027449 -0.003945 -0.000917
# 5 0.002334 -0.000737 -0.001150 -0.003945 0.026974 0.000141
# 6 0.000299 -0.000201 -0.001253 -0.000917 0.000141 0.021805
#
#
# Mechanical properties :
#
#
# Convention : Reuss Voigt Hill
#
# Bulk Modulus (GPa) = 77.15592 87.64063 82.39827
# Shear Modulus (GPa) = 41.64365 44.58500 43.11433
#
# Velocity S-wave (km/s) = 4.52965 4.68689 4.60894
# Velocity P-wave (km/s) = 8.08527 8.51291 8.30185
#
# Compressibility (1/GPa) = 0.01296077
#
# Stress axis : x y z
#
# Youngs Moduli (GPa) = 110.46300 143.09498 98.05855
#
# Poissons Ratio (x) = 0.37392 0.20572
# Poissons Ratio (y) = 0.28865 0.18907
# Poissons Ratio (z) = 0.23175 0.27591
#
# Static dielectric constant tensor:
#      x y z
#    x 4.098020 -0.098970 0.206850 
#    y -0.098970 4.117330 0.457680 
#    z 0.206850 0.457680 4.620790 
# 
# 
# High freq. dielectric constant tensor:
#      x y z
#    x 1.811750 0.000600 -0.005100 
#    y 0.000600 1.826540 -0.001020 
#    z -0.005100 -0.001020 1.779230 
# 
# From -- ./inp_files/148712.got.cif
#   From: 2010.06.25/outbox.cif.g09.slc.cpg/sg2_75_cif.got.tgz:148712.got - 2010.06.27 13:26:56.
