data_PCOD8023510
_publ_section_title
;
Structure prediction by ZEFSAII (Michael W. Deem and Ramdas Pophale) SiO2 
 PCOD8023510
Probable space group: P -1
;
_chemical_formula_sum "Si O2"
_cell_formula_units_Z 10
_cell_length_a 9.308465
_cell_length_b 5.350057
_cell_length_c 16.010581
_cell_angle_alpha 106.103311
_cell_angle_beta 37.099883
_cell_angle_gamma 122.365643
_cell_volume 388.337918
_symmetry_space_group_name_H-M "P -1"
_symmetry_group_IT_number 2
_symmetry_cell_setting 'triclinic'
loop_
_space_group_symop_operation_xyz
x,y,z
-x,-y,-z
loop_
_atom_site_type_symbol
_atom_site_label
_atom_site_fract_x
_atom_site_fract_y
_atom_site_fract_z
Si Si1 0.147295 0.607847 0.788084
Si Si2 0.260239 0.654917 0.558837
Si Si3 0.312025 0.426662 0.208241
Si Si4 0.670664 0.742552 0.635404
Si Si5 0.812035 0.927453 0.931626
O O1 0.167254 0.483062 0.675671
O O2 0.457842 0.838808 0.707696
O O3 0.005861 0.806320 0.864983
O O4 0.967581 0.298042 0.899261
O O5 0.398765 0.535386 0.420298
O O6 0.988047 0.618318 0.636735
O O7 0.500000 0.000000 0.500000
O O8 0.420842 0.366535 0.237857
O O9 0.285256 0.185198 0.128736
O O10 0.534414 0.775660 0.105071
O O11 0.000000 0.000000 0.500000
#
# Coordination Sequence:
#
# PCOD8023510 Si02
#       5
#     2   2   2   2   2
#     4  11  24  44  69  95 136 181 226 274 342 408
#     4  11  23  44  70  98 138 184 223 275 346 413
#     4  10  23  41  68  99 134 175 230 281 333 400
#     4  12  24  39  67 105 138 174 227 288 337 400
#     4  10  24  46  68  96 135 185 224 275 342 409
#
# _framework density 25.750771
#
# number of rings (size 3 to 8) (size 9 to 14) (size 15 to 20)
#    0.000    1.200    0.000    6.000    0.000   12.000 
#    0.000    0.000    0.000    0.000    0.000    0.000 
#    0.000    0.000    0.000    0.000    0.000    0.000 
#
# Total GULP energy -124013.582708 kJ/mol
# GULP energy per Si atom -12401.358271 kJ/mol
# Density = 2.569216 g / cm^3
# Si number density = 25.750771 Si / 1000 Ang^3
#
#
#
# Elastic Constant Matrix: (Units=GPa)
#
#
# Indices 1 2 3 4 5 6 
#
# 1 149.8635 31.1100 27.3917 3.1681 -5.3365 4.3250
# 2 31.1100 99.8453 27.3007 -24.2660 -3.9894 -5.1557
# 3 27.3917 27.3007 93.3021 -17.8852 -2.9180 1.8823
# 4 3.1681 -24.2660 -17.8852 38.6636 4.2818 -1.1572
# 5 -5.3365 -3.9894 -2.9180 4.2818 31.6691 -13.1098
# 6 4.3250 -5.1557 1.8823 -1.1572 -13.1098 28.4503
#
#
#
# Elastic Compliance Matrix: (Units=1/GPa)
#
#
# Indices 1 2 3 4 5 6 
#
# 1 0.007755 -0.002721 -0.002088 -0.003424 0.000670 -0.001365
# 2 -0.002721 0.013511 -0.001677 0.007859 0.001717 0.004084
# 3 -0.002088 -0.001677 0.012795 0.005058 -0.000405 -0.000814
# 4 -0.003424 0.007859 0.005058 0.033801 -0.003034 0.001587
# 5 0.000670 0.001717 -0.000405 -0.003034 0.039945 0.018519
# 6 -0.001365 0.004084 -0.000814 0.001587 0.018519 0.044749
#
#
# Mechanical properties :
#
#
# Convention : Reuss Voigt Hill
#
# Bulk Modulus (GPa) = 47.41894 57.17953 52.29924
# Shear Modulus (GPa) = 28.97579 36.90382 32.93981
#
# Velocity S-wave (km/s) = 3.35810 3.78976 3.58044
# Velocity P-wave (km/s) = 5.78708 6.43451 6.11936
#
# Compressibility (1/GPa) = 0.02108862
#
# Stress axis : x y z
#
# Youngs Moduli (GPa) = 128.94952 74.01121 78.15585
#
# Poissons Ratio (x) = 0.20140 0.16322
# Poissons Ratio (y) = 0.35090 0.13105
# Poissons Ratio (z) = 0.26930 0.12410
#
# Static dielectric constant tensor:
#      x y z
#    x 4.979700 0.194390 0.424160 
#    y 0.194390 4.306940 0.351480 
#    z 0.424160 0.351480 7.632080 
# 
# 
# High freq. dielectric constant tensor:
#      x y z
#    x 2.047390 0.006800 -0.003070 
#    y 0.006800 2.002060 -0.014220 
#    z -0.003070 -0.014220 2.042350 
# 
# From -- ./inp_files/18092.got.cif
#   From: 2010.06.25/outbox.cif.g09.slc.cpg/sg2_10_cif.got.tgz:18092.got - 2010.06.27 13:26:56.
