data_PCOD8023561
_publ_section_title
;
Structure prediction by ZEFSAII (Michael W. Deem and Ramdas Pophale) SiO2 
 PCOD8023561
Probable space group: P -1
;
_chemical_formula_sum "Si O2"
_cell_formula_units_Z 16
_cell_length_a 9.008701
_cell_length_b 6.795460
_cell_length_c 14.221172
_cell_angle_alpha 86.162218
_cell_angle_beta 68.504104
_cell_angle_gamma 93.080648
_cell_volume 805.346268
_symmetry_space_group_name_H-M "P -1"
_symmetry_group_IT_number 2
_symmetry_cell_setting 'triclinic'
loop_
_space_group_symop_operation_xyz
x,y,z
-x,-y,-z
loop_
_atom_site_type_symbol
_atom_site_label
_atom_site_fract_x
_atom_site_fract_y
_atom_site_fract_z
Si Si1 0.559262 0.397075 0.897650
Si Si2 0.380103 0.188868 0.197890
Si Si3 0.183836 0.907734 0.119101
Si Si4 0.166495 0.121963 0.737417
Si Si5 0.118858 0.825286 0.589305
Si Si6 0.328355 0.046859 0.895195
Si Si7 0.311973 0.444650 0.554650
Si Si8 0.786993 0.834834 0.582220
O O1 0.618130 0.573801 0.808546
O O2 0.706640 0.270822 0.887701
O O3 0.412457 0.263477 0.890454
O O4 0.500000 0.500000 0.000000
O O5 0.356772 0.128347 0.314281
O O6 0.237149 0.090199 0.169601
O O7 0.544945 0.117793 0.122657
O O8 0.005669 0.818861 0.189349
O O9 0.193580 0.987089 0.006854
O O10 0.257244 0.045376 0.808292
O O11 0.268343 0.307712 0.659959
O O12 0.143562 0.941794 0.676569
O O13 0.218888 0.637858 0.580047
O O14 0.932252 0.766233 0.614536
O O15 0.180177 0.955505 0.482095
O O16 0.500000 0.500000 0.500000
O O17 0.255490 0.336763 0.476165
#
# Coordination Sequence:
#
# PCOD8023561 Si02
#       8
#     2   2   2   2   2   2   2   2
#     4  11  21  40  65  92 126 163 213 260 305 362
#     4  11  22  39  69  95 122 169 211 256 309 371
#     4  11  22  43  64  93 128 167 214 258 301 375
#     4  11  26  42  63  95 129 169 209 252 320 374
#     4  10  23  46  65  91 128 161 209 266 311 374
#     4  11  24  40  64  93 132 168 211 253 310 372
#     4  11  27  43  64  97 129 159 209 265 316 379
#     4  10  23  41  70  93 120 166 212 254 320 371
#
# _framework density 19.867228999999998
#
# number of rings (size 3 to 8) (size 9 to 14) (size 15 to 20)
#    0.000    1.250    3.750    1.500    7.000    2.000 
#    0.000    0.625    0.000    0.000    0.000    0.000 
#    0.000    0.000    0.000    0.000    0.000    0.000 
#
# Total GULP energy -198428.688517 kJ/mol
# GULP energy per Si atom -12401.793032 kJ/mol
# Density = 1.982201 g / cm^3
# Si number density = 19.867229 Si / 1000 Ang^3
#
#
#
# Elastic Constant Matrix: (Units=GPa)
#
#
# Indices 1 2 3 4 5 6 
#
# 1 79.9747 31.7355 37.7418 -15.0181 1.4557 10.1733
# 2 31.7355 111.7379 37.8360 -7.4086 0.2481 1.7358
# 3 37.7418 37.8360 143.2311 -7.5276 -0.3286 8.6468
# 4 -15.0181 -7.4086 -7.5276 23.3897 2.2793 -2.8574
# 5 1.4557 0.2481 -0.3286 2.2793 39.4836 -1.0359
# 6 10.1733 1.7358 8.6468 -2.8574 -1.0359 21.8633
#
#
#
# Elastic Compliance Matrix: (Units=1/GPa)
#
#
# Indices 1 2 3 4 5 6 
#
# 1 0.017608 -0.003328 -0.002962 0.008732 -0.001306 -0.005678
# 2 -0.003328 0.010590 -0.001976 0.000773 0.000037 0.001592
# 3 -0.002962 -0.001976 0.008389 -0.000060 0.000148 -0.001784
# 4 0.008732 0.000773 -0.000060 0.049155 -0.003108 0.002176
# 5 -0.001306 0.000037 0.000148 -0.003108 0.025591 0.001353
# 6 -0.005678 0.001592 -0.001784 0.002176 0.001353 0.049308
#
#
# Mechanical properties :
#
#
# Convention : Reuss Voigt Hill
#
# Bulk Modulus (GPa) = 49.86143 61.06336 55.46239
# Shear Modulus (GPa) = 27.19478 32.12269 29.65874
#
# Velocity S-wave (km/s) = 3.70378 4.02539 3.86793
# Velocity P-wave (km/s) = 6.59109 7.23930 6.92279
#
# Compressibility (1/GPa) = 0.02005558
#
# Stress axis : x y z
#
# Youngs Moduli (GPa) = 56.79148 94.42664 119.20313
#
# Poissons Ratio (x) = 0.31425 0.35308
# Poissons Ratio (y) = 0.18900 0.23555
# Poissons Ratio (z) = 0.16822 0.18659
#
# Static dielectric constant tensor:
#      x y z
#    x 3.724070 0.236030 -0.179000 
#    y 0.236030 3.935660 -0.181170 
#    z -0.179000 -0.181170 3.909350 
# 
# 
# High freq. dielectric constant tensor:
#      x y z
#    x 1.768860 0.003740 -0.002950 
#    y 0.003740 1.777090 0.002330 
#    z -0.002950 0.002330 1.796430 
# 
# From -- ./inp_files/37909.got.cif
#   From: 2010.06.25/outbox.cif.g09.slc.cpg/sg2_19_cif.got.tgz:37909.got - 2010.06.27 13:26:56.
