data_PCOD8023734
_publ_section_title
;
Structure prediction by ZEFSAII (Michael W. Deem and Ramdas Pophale) SiO2 
 PCOD8023734
Probable space group: P -1
;
_chemical_formula_sum "Si O2"
_cell_formula_units_Z 16
_cell_length_a 9.909174
_cell_length_b 15.227775
_cell_length_c 5.446659
_cell_angle_alpha 109.299845
_cell_angle_beta 118.888454
_cell_angle_gamma 82.332645
_cell_volume 678.816716
_symmetry_space_group_name_H-M "P -1"
_symmetry_group_IT_number 2
_symmetry_cell_setting 'triclinic'
loop_
_space_group_symop_operation_xyz
x,y,z
-x,-y,-z
loop_
_atom_site_type_symbol
_atom_site_label
_atom_site_fract_x
_atom_site_fract_y
_atom_site_fract_z
Si Si1 0.172404 0.711218 0.970730
Si Si2 0.738291 0.862877 0.735603
Si Si3 0.612796 0.118697 0.617255
Si Si4 0.737167 0.039739 0.168601
Si Si5 0.984252 0.836288 0.567789
Si Si6 0.452576 0.606814 0.054493
Si Si7 0.574232 0.602880 0.659043
Si Si8 0.129864 0.300318 0.044754
O O1 0.091935 0.762731 0.727712
O O2 0.042666 0.671959 0.009691
O O3 0.294224 0.784835 0.267840
O O4 0.268144 0.621228 0.889665
O O5 0.566455 0.864215 0.478857
O O6 0.870735 0.897678 0.690656
O O7 0.781138 0.755894 0.719138
O O8 0.758029 0.928803 0.055672
O O9 0.629739 0.056193 0.327217
O O10 0.669533 0.069810 0.870542
O O11 0.902138 0.091928 0.411695
O O12 0.874293 0.772524 0.245392
O O13 0.514854 0.653484 0.406577
O O14 0.500000 0.500000 0.000000
O O15 0.521998 0.654810 0.911388
O O16 0.500000 0.500000 0.500000
O O17 0.762147 0.607628 0.831156
#
# Coordination Sequence:
#
# PCOD8023734 Si02
#       8
#     2   2   2   2   2   2   2   2
#     4  10  23  42  64  97 135 173 217 274 323 399
#     4  11  25  39  65  95 131 179 228 278 322 387
#     4  11  24  41  64  95 130 178 228 272 329 377
#     4  11  24  44  62  93 137 177 225 279 327 380
#     4  10  24  41  62  97 132 181 222 268 332 388
#     4  10  23  45  73 101 129 167 214 270 334 393
#     4  10  24  45  70  98 131 165 216 272 328 397
#     4  11  24  41  67  96 132 176 224 267 334 395
#
# _framework density 23.570426000000001
#
# number of rings (size 3 to 8) (size 9 to 14) (size 15 to 20)
#    0.000    1.500    1.250    1.875   10.500    1.500 
#    0.000    5.000    0.000    0.000    0.000    0.000 
#    0.000    0.000    0.000    0.000    0.000    0.000 
#
# Total GULP energy -198230.186839 kJ/mol
# GULP energy per Si atom -12389.386677 kJ/mol
# Density = 2.351678 g / cm^3
# Si number density = 23.570426 Si / 1000 Ang^3
#
#
#
# Elastic Constant Matrix: (Units=GPa)
#
#
# Indices 1 2 3 4 5 6 
#
# 1 178.0108 59.3534 55.6004 -6.3331 6.9182 -23.3251
# 2 59.3534 72.7409 15.4514 9.6848 7.5616 -18.1384
# 3 55.6004 15.4514 93.6500 -14.4161 -7.9896 8.5574
# 4 -6.3331 9.6848 -14.4161 18.0313 10.4141 4.8158
# 5 6.9182 7.5616 -7.9896 10.4141 55.1809 3.5802
# 6 -23.3251 -18.1384 8.5574 4.8158 3.5802 34.7302
#
#
#
# Elastic Compliance Matrix: (Units=1/GPa)
#
#
# Indices 1 2 3 4 5 6 
#
# 1 0.010028 -0.006042 -0.005168 0.002508 -0.001956 0.004707
# 2 -0.006042 0.027297 -0.006311 -0.025929 0.000001 0.015349
# 3 -0.005168 -0.006311 0.019317 0.020032 0.001467 -0.014455
# 4 0.002508 -0.025929 0.020032 0.100487 -0.010905 -0.029603
# 5 -0.001956 0.000001 0.001467 -0.010905 0.020787 -0.002306
# 6 0.004707 0.015349 -0.014455 -0.029603 -0.002306 0.047875
#
#
# Mechanical properties :
#
#
# Convention : Reuss Voigt Hill
#
# Bulk Modulus (GPa) = 46.29191 67.24579 56.76885
# Shear Modulus (GPa) = 18.65445 35.85491 27.25468
#
# Velocity S-wave (km/s) = 2.81630 3.90446 3.40414
# Velocity P-wave (km/s) = 5.50071 6.99415 6.29190
#
# Compressibility (1/GPa) = 0.02160204
#
# Stress axis : x y z
#
# Youngs Moduli (GPa) = 99.71766 36.63388 51.76776
#
# Poissons Ratio (x) = 0.22134 0.26753
# Poissons Ratio (y) = 0.60248 0.32668
# Poissons Ratio (z) = 0.51533 0.23118
#
# Static dielectric constant tensor:
#      x y z
#    x 4.786910 0.054710 -0.336410 
#    y 0.054710 3.996740 -0.236260 
#    z -0.336410 -0.236260 4.874380 
# 
# 
# High freq. dielectric constant tensor:
#      x y z
#    x 1.949510 -0.003620 0.001360 
#    y -0.003620 1.905580 -0.008150 
#    z 0.001360 -0.008150 1.937370 
# 
# From -- ./inp_files/48509.got.cif
#   From: 2010.06.25/outbox.cif.g09.slc.cpg/sg2_25_cif.got.tgz:48509.got - 2010.06.27 13:26:56.
