data_PCOD8023600
_publ_section_title
;
Structure prediction by ZEFSAII (Michael W. Deem and Ramdas Pophale) SiO2 
 PCOD8023600
Probable space group: P -1
;
_chemical_formula_sum "Si O2"
_cell_formula_units_Z 12
_cell_length_a 8.934843
_cell_length_b 18.822967
_cell_length_c 12.646633
_cell_angle_alpha 160.742913
_cell_angle_beta 125.690124
_cell_angle_gamma 54.714549
_cell_volume 566.846130
_symmetry_space_group_name_H-M "P -1"
_symmetry_group_IT_number 2
_symmetry_cell_setting 'triclinic'
loop_
_space_group_symop_operation_xyz
x,y,z
-x,-y,-z
loop_
_atom_site_type_symbol
_atom_site_label
_atom_site_fract_x
_atom_site_fract_y
_atom_site_fract_z
Si Si1 0.946470 0.267673 0.690521
Si Si2 0.291974 0.061847 0.967460
Si Si3 0.650795 0.819310 0.264411
Si Si4 0.191559 0.094828 0.194714
Si Si5 0.537547 0.742073 0.874029
Si Si6 0.306182 0.454626 0.901740
O O1 0.138633 0.110569 0.560184
O O2 0.813768 0.151781 0.394183
O O3 0.833098 0.322988 0.831925
O O4 0.000000 0.500000 0.000000
O O5 0.195530 0.187851 0.206500
O O6 0.296243 0.202884 0.059803
O O7 0.500000 0.000000 0.000000
O O8 0.651142 0.622155 0.068889
O O9 0.500000 0.000000 0.500000
O O10 0.599003 0.749072 0.029067
O O11 0.209848 0.283826 0.551841
O O12 0.355247 0.904775 0.010340
O O13 0.000000 0.000000 0.000000
O O14 0.500000 0.500000 0.500000
O O15 0.500000 0.500000 0.000000
#
# Coordination Sequence:
#
# PCOD8023600 Si02
#       6
#     2   2   2   2   2   2
#     4  10  23  41  71  96 127 179 220 266 331 397
#     4  10  23  43  67  95 132 176 220 264 327 404
#     4  11  24  44  64  94 137 168 222 279 329 382
#     4  11  23  42  67  94 130 171 221 269 324 399
#     4  11  26  42  65  94 135 177 213 275 338 378
#     4  11  23  41  68  97 126 172 221 269 327 397
#
# _framework density 21.169767
#
# number of rings (size 3 to 8) (size 9 to 14) (size 15 to 20)
#    0.000    1.333    1.667    4.000   14.000    0.667 
#    0.000    0.833    0.000    0.000    0.000    0.000 
#    0.000    0.000    0.000    0.000    0.000    0.000 
#
# Total GULP energy -148672.859398 kJ/mol
# GULP energy per Si atom -12389.404950 kJ/mol
# Density = 2.112158 g / cm^3
# Si number density = 21.169767 Si / 1000 Ang^3
#
#
#
# Elastic Constant Matrix: (Units=GPa)
#
#
# Indices 1 2 3 4 5 6 
#
# 1 184.8691 71.8392 44.3659 -19.5394 -6.2978 -3.5576
# 2 71.8392 104.1782 63.2824 -32.4936 -5.6832 18.9114
# 3 44.3659 63.2824 102.9887 -30.8770 4.5106 -3.1481
# 4 -19.5394 -32.4936 -30.8770 36.0572 -4.3854 -5.8103
# 5 -6.2978 -5.6832 4.5106 -4.3854 45.8494 -1.9991
# 6 -3.5576 18.9114 -3.1481 -5.8103 -1.9991 55.4977
#
#
#
# Elastic Compliance Matrix: (Units=1/GPa)
#
#
# Indices 1 2 3 4 5 6 
#
# 1 0.007721 -0.006183 0.000346 -0.000640 0.000311 0.002566
# 2 -0.006183 0.024573 -0.010061 0.009304 0.003717 -0.008233
# 3 0.000346 -0.010061 0.018168 0.007260 -0.002067 0.005167
# 4 -0.000640 0.009304 0.007260 0.042837 0.004529 0.001848
# 5 0.000311 0.003717 -0.002067 0.004529 0.022948 -0.000063
# 6 0.002566 -0.008233 0.005167 0.001848 -0.000063 0.021473
#
#
# Mechanical properties :
#
#
# Convention : Reuss Voigt Hill
#
# Bulk Modulus (GPa) = 53.57199 83.44566 68.50882
# Shear Modulus (GPa) = 28.45159 41.65078 35.05118
#
# Velocity S-wave (km/s) = 3.67000 4.44042 4.07347
# Velocity P-wave (km/s) = 6.58175 8.11127 7.38621
#
# Compressibility (1/GPa) = 0.01866647
#
# Stress axis : x y z
#
# Youngs Moduli (GPa) = 129.51386 40.69488 55.04263
#
# Poissons Ratio (x) = 0.25162 -0.01904
# Poissons Ratio (y) = 0.80078 0.55376
# Poissons Ratio (z) = -0.04479 0.40942
#
# Static dielectric constant tensor:
#      x y z
#    x 4.964480 0.026350 -0.187260 
#    y 0.026350 4.278080 -0.293320 
#    z -0.187260 -0.293320 3.849550 
# 
# 
# High freq. dielectric constant tensor:
#      x y z
#    x 1.865020 0.003360 -0.007480 
#    y 0.003360 1.815650 -0.026030 
#    z -0.007480 -0.026030 1.823710 
# 
# From -- ./inp_files/145753.got.cif
#   From: 2010.06.25/outbox.cif.g09.slc.cpg/sg2_73_cif.got.tgz:145753.got - 2010.06.27 13:26:56.
