data_PCOD8023260
_publ_section_title
;
Structure prediction by ZEFSAII (Michael W. Deem and Ramdas Pophale) SiO2 
 PCOD8023260
Probable space group: P -1
;
_chemical_formula_sum "Si O2"
_cell_formula_units_Z 16
_cell_length_a 9.503190
_cell_length_b 8.832973
_cell_length_c 15.757070
_cell_angle_alpha 38.020171
_cell_angle_beta 108.843904
_cell_angle_gamma 97.721351
_cell_volume 754.478734
_symmetry_space_group_name_H-M "P -1"
_symmetry_group_IT_number 2
_symmetry_cell_setting 'triclinic'
loop_
_space_group_symop_operation_xyz
x,y,z
-x,-y,-z
loop_
_atom_site_type_symbol
_atom_site_label
_atom_site_fract_x
_atom_site_fract_y
_atom_site_fract_z
Si Si1 0.999583 0.939466 0.657353
Si Si2 0.498033 0.168042 0.508463
Si Si3 0.514896 0.216194 0.026381
Si Si4 0.137789 0.810789 0.153560
Si Si5 0.155818 0.258368 0.436036
Si Si6 0.789807 0.947155 0.766060
Si Si7 0.537483 0.299761 0.802145
Si Si8 0.255131 0.526318 0.953585
O O1 0.123455 0.681704 0.801245
O O2 0.875341 0.902209 0.580493
O O3 0.915964 0.008589 0.699625
O O4 0.078432 0.167743 0.544316
O O5 0.336575 0.205670 0.507705
O O6 0.533015 0.437838 0.372135
O O7 0.500000 0.000000 0.500000
O O8 0.620633 0.039225 0.657088
O O9 0.486332 0.324639 0.878564
O O10 0.371309 0.343266 0.997342
O O11 0.668410 0.277074 0.067143
O O12 0.530996 0.915954 0.162575
O O13 0.085679 0.551658 0.278207
O O14 0.278955 0.761170 0.137944
O O15 0.192558 0.917576 0.202855
O O16 0.000000 0.000000 0.000000
O O17 0.814212 0.647004 0.917196
#
# Coordination Sequence:
#
# PCOD8023260 Si02
#       8
#     2   2   2   2   2   2   2   2
#     4  11  25  43  67  98 133 173 226 276 330 406
#     4  11  23  43  71  95 135 172 223 275 335 401
#     4  10  23  41  64 101 127 172 224 276 337 384
#     4  11  25  45  66  96 138 176 221 276 335 394
#     4  10  25  44  66  99 133 176 223 272 337 395
#     4  12  25  43  67 101 130 182 224 267 342 394
#     4  10  23  43  65  97 130 173 220 276 335 392
#     4  11  24  40  68  96 134 169 228 277 330 396
#
# _framework density 21.206693000000001
#
# number of rings (size 3 to 8) (size 9 to 14) (size 15 to 20)
#    0.000    1.250    2.500    1.875    8.750    3.500 
#    2.250    0.000    0.000    0.000    0.000    0.000 
#    0.000    0.000    0.000    0.000    0.000    0.000 
#
# Total GULP energy -198497.093996 kJ/mol
# GULP energy per Si atom -12406.068375 kJ/mol
# Density = 2.115843 g / cm^3
# Si number density = 21.206693 Si / 1000 Ang^3
#
#
#
# Elastic Constant Matrix: (Units=GPa)
#
#
# Indices 1 2 3 4 5 6 
#
# 1 82.2583 34.4480 48.2040 -6.8829 -24.7358 5.8375
# 2 34.4480 106.8337 44.1399 -0.6430 -9.4589 8.5425
# 3 48.2040 44.1399 131.9126 -14.3177 -17.1309 10.2982
# 4 -6.8829 -0.6430 -14.3177 35.4529 8.3543 -3.8861
# 5 -24.7358 -9.4589 -17.1309 8.3543 39.3662 -4.0109
# 6 5.8375 8.5425 10.2982 -3.8861 -4.0109 24.0915
#
#
#
# Elastic Compliance Matrix: (Units=1/GPa)
#
#
# Indices 1 2 3 4 5 6 
#
# 1 0.019055 -0.003403 -0.004677 -0.000416 0.009214 0.000056
# 2 -0.003403 0.011741 -0.002728 -0.001733 -0.000393 -0.002517
# 3 -0.004677 -0.002728 0.010720 0.003108 0.000213 -0.001945
# 4 -0.000416 -0.001733 0.003108 0.031040 -0.005559 0.003468
# 5 0.009214 -0.000393 0.000213 -0.005559 0.032609 0.002348
# 6 0.000056 -0.002517 -0.001945 0.003468 0.002348 0.044169
#
#
# Mechanical properties :
#
#
# Convention : Reuss Voigt Hill
#
# Bulk Modulus (GPa) = 50.25319 63.84313 57.04816
# Shear Modulus (GPa) = 28.15604 32.72963 30.44284
#
# Velocity S-wave (km/s) = 3.64771 3.93283 3.79295
# Velocity P-wave (km/s) = 6.44122 7.12695 6.79274
#
# Compressibility (1/GPa) = 0.01989924
#
# Stress axis : x y z
#
# Youngs Moduli (GPa) = 52.48029 85.17449 93.28757
#
# Poissons Ratio (x) = 0.28983 0.43635
# Poissons Ratio (y) = 0.17858 0.25446
# Poissons Ratio (z) = 0.24547 0.23233
#
# Static dielectric constant tensor:
#      x y z
#    x 3.872900 0.053090 -0.272170 
#    y 0.053090 3.748530 -0.214890 
#    z -0.272170 -0.214890 3.796260 
# 
# 
# High freq. dielectric constant tensor:
#      x y z
#    x 1.838070 0.005180 -0.011800 
#    y 0.005180 1.831950 -0.004950 
#    z -0.011800 -0.004950 1.838650 
# 
# From -- ./inp_files/190023.got.cif
#   From: 2010.06.25/outbox.cif.g09.slc.cpg/sg2_96_cif.got.tgz:190023.got - 2010.06.27 13:26:56.
