data_PCOD8023906
_publ_section_title
;
Structure prediction by ZEFSAII (Michael W. Deem and Ramdas Pophale) SiO2 
 PCOD8023906
Probable space group: P -1
;
_chemical_formula_sum "Si O2"
_cell_formula_units_Z 14
_cell_length_a 14.515896
_cell_length_b 11.243750
_cell_length_c 4.829896
_cell_angle_alpha 67.596447
_cell_angle_beta 99.284959
_cell_angle_gamma 59.380861
_cell_volume 561.110320
_symmetry_space_group_name_H-M "P -1"
_symmetry_group_IT_number 2
_symmetry_cell_setting 'triclinic'
loop_
_space_group_symop_operation_xyz
x,y,z
-x,-y,-z
loop_
_atom_site_type_symbol
_atom_site_label
_atom_site_fract_x
_atom_site_fract_y
_atom_site_fract_z
Si Si1 0.103702 0.228398 0.257264
Si Si2 0.838480 0.533592 0.860849
Si Si3 0.316491 0.982764 0.222564
Si Si4 0.741406 0.239524 0.503882
Si Si5 0.306711 0.432530 0.732009
Si Si6 0.457624 0.925665 0.842493
Si Si7 0.116683 0.948674 0.752301
O O1 0.147327 0.326790 0.313566
O O2 0.178199 0.133140 0.096722
O O3 0.123591 0.098155 0.606899
O O4 0.962845 0.356087 0.003257
O O5 0.731974 0.571827 0.589908
O O6 0.796604 0.537829 0.148240
O O7 0.346214 0.806896 0.453335
O O8 0.401796 0.003285 0.440025
O O9 0.343273 0.971134 0.919659
O O10 0.677128 0.428528 0.366637
O O11 0.776607 0.210046 0.226303
O O12 0.861798 0.115565 0.864472
O O13 0.437226 0.264205 0.998742
O O14 0.500000 0.000000 0.000000
O O15 0.000000 0.000000 0.500000
#
# Coordination Sequence:
#
# PCOD8023906 Si02
#       7
#     2   2   2   2   2   2   2
#     4  10  23  42  67  96 131 167 212 267 323 384
#     4  11  25  41  66  97 130 169 210 266 327 381
#     4  11  24  42  65  95 127 168 218 262 319 383
#     4  11  24  40  63  93 127 170 213 265 321 375
#     4  12  25  44  65  95 132 168 217 264 320 385
#     4  12  25  43  68  93 127 172 215 267 319 379
#     4  11  22  39  64  93 130 172 215 259 316 386
#
# _framework density 24.950530000000001
#
# number of rings (size 3 to 8) (size 9 to 14) (size 15 to 20)
#    0.000    0.857    0.000    7.714    0.000   10.286 
#    0.000    0.000    0.000    0.000    0.000    0.000 
#    0.000    0.000    0.000    0.000    0.000    0.000 
#
# Total GULP energy -173539.240401 kJ/mol
# GULP energy per Si atom -12395.660029 kJ/mol
# Density = 2.489374 g / cm^3
# Si number density = 24.950530 Si / 1000 Ang^3
#
#
#
# Elastic Constant Matrix: (Units=GPa)
#
#
# Indices 1 2 3 4 5 6 
#
# 1 47.6055 26.2288 -9.7718 -3.9861 5.5301 -0.2861
# 2 26.2288 120.7183 35.5099 -19.7172 -2.4072 -5.0913
# 3 -9.7718 35.5099 67.6125 -1.0886 4.5198 -4.7605
# 4 -3.9861 -19.7172 -1.0886 46.5794 6.6624 5.3903
# 5 5.5301 -2.4072 4.5198 6.6624 36.6488 -0.1229
# 6 -0.2861 -5.0913 -4.7605 5.3903 -0.1229 53.3153
#
#
#
# Elastic Compliance Matrix: (Units=1/GPa)
#
#
# Indices 1 2 3 4 5 6 
#
# 1 0.028629 -0.009141 0.009344 -0.000358 -0.006007 0.000137
# 2 -0.009141 0.013548 -0.008532 0.004387 0.002524 0.000045
# 3 0.009344 -0.008532 0.020964 -0.001868 -0.004212 0.001286
# 4 -0.000358 0.004387 -0.001868 0.024049 -0.003807 -0.002190
# 5 -0.006007 0.002524 -0.004212 -0.003807 0.029571 0.000286
# 6 0.000137 0.000045 0.001286 -0.002190 0.000286 0.019098
#
#
# Mechanical properties :
#
#
# Convention : Reuss Voigt Hill
#
# Bulk Modulus (GPa) = 21.51301 37.76334 29.63817
# Shear Modulus (GPa) = 29.75978 39.57331 34.66655
#
# Velocity S-wave (km/s) = 3.45737 3.98687 3.73152
# Velocity P-wave (km/s) = 4.95771 6.03006 5.51999
#
# Compressibility (1/GPa) = 0.04648351
#
# Stress axis : x y z
#
# Youngs Moduli (GPa) = 34.92919 73.80963 47.70187
#
# Poissons Ratio (x) = 0.67473 -0.44574
# Poissons Ratio (y) = 0.31930 0.40698
# Poissons Ratio (z) = -0.32639 0.62972
#
# Static dielectric constant tensor:
#      x y z
#    x 5.092740 -0.440370 -0.531280 
#    y -0.440370 5.177070 0.395960 
#    z -0.531280 0.395960 4.583350 
# 
# 
# High freq. dielectric constant tensor:
#      x y z
#    x 2.001270 0.007910 -0.003370 
#    y 0.007910 2.006680 0.009690 
#    z -0.003370 0.009690 1.985510 
# 
# From -- ./inp_files/94422.got.cif
#   From: 2010.06.25/outbox.cif.g09.slc.cpg/sg2_48_cif.got.tgz:94422.got - 2010.06.27 13:26:56.
