data_PCOD8023037
_publ_section_title
;
Structure prediction by ZEFSAII (Michael W. Deem and Ramdas Pophale) SiO2 
 PCOD8023037
Probable space group: P -1
;
_chemical_formula_sum "Si O2"
_cell_formula_units_Z 12
_cell_length_a 9.039471
_cell_length_b 7.686899
_cell_length_c 15.225164
_cell_angle_alpha 119.744641
_cell_angle_beta 59.724527
_cell_angle_gamma 145.174721
_cell_volume 514.445889
_symmetry_space_group_name_H-M "P -1"
_symmetry_group_IT_number 2
_symmetry_cell_setting 'triclinic'
loop_
_space_group_symop_operation_xyz
x,y,z
-x,-y,-z
loop_
_atom_site_type_symbol
_atom_site_label
_atom_site_fract_x
_atom_site_fract_y
_atom_site_fract_z
Si Si1 0.486747 0.671143 0.882352
Si Si2 0.976435 0.125351 0.455027
Si Si3 0.806778 0.235499 0.233861
Si Si4 0.629697 0.209598 0.882121
Si Si5 0.431498 0.670309 0.544811
Si Si6 0.960785 0.999527 0.233671
O O1 0.250455 0.352242 0.822150
O O2 0.563966 0.935144 0.871342
O O3 0.381616 0.630181 0.000176
O O4 0.751824 0.775991 0.839789
O O5 0.219816 0.496824 0.484969
O O6 0.704902 0.011759 0.514794
O O7 0.990457 0.012570 0.332971
O O8 0.000000 0.000000 0.500000
O O9 0.676685 0.320340 0.333147
O O10 0.074398 0.532673 0.178676
O O11 0.593866 0.938664 0.159955
O O12 0.865372 0.135076 0.269840
O O13 0.500000 0.500000 0.500000
#
# Coordination Sequence:
#
# PCOD8023037 Si02
#       6
#     2   2   2   2   2   2
#     4  11  26  46  72 102 137 185 233 277 336 419
#     4  10  23  40  65  98 129 184 225 278 334 407
#     4  12  26  43  71 106 141 178 227 289 348 404
#     4  11  26  46  72 102 137 185 233 277 336 419
#     4  10  23  40  65  98 129 184 225 278 334 407
#     4  12  26  43  71 106 141 178 227 289 348 404
#
# _framework density 23.326069
#
# number of rings (size 3 to 8) (size 9 to 14) (size 15 to 20)
#    0.000    1.000    0.000    5.000   14.000    8.000 
#    0.000    0.000    0.000    0.000    0.000    0.000 
#    0.000    0.000    0.000    0.000    0.000    0.000 
#
# Total GULP energy -148800.748643 kJ/mol
# GULP energy per Si atom -12400.062387 kJ/mol
# Density = 2.327298 g / cm^3
# Si number density = 23.326069 Si / 1000 Ang^3
#
#
#
# Elastic Constant Matrix: (Units=GPa)
#
#
# Indices 1 2 3 4 5 6 
#
# 1 73.6685 26.0963 51.3685 -0.4349 -0.8947 15.3247
# 2 26.0963 188.0103 92.6681 2.2123 -1.8211 56.8144
# 3 51.3685 92.6681 200.3451 2.4602 -3.1078 17.7385
# 4 -0.4349 2.2123 2.4602 43.7687 18.4128 0.0335
# 5 -0.8947 -1.8211 -3.1078 18.4128 24.4094 -0.6163
# 6 15.3247 56.8144 17.7385 0.0335 -0.6163 45.4388
#
#
#
# Elastic Compliance Matrix: (Units=1/GPa)
#
#
# Indices 1 2 3 4 5 6 
#
# 1 0.017601 0.001845 -0.004815 0.000518 -0.000381 -0.006369
# 2 0.001845 0.011155 -0.004488 -0.000418 0.000320 -0.012813
# 3 -0.004815 -0.004488 0.007963 -0.000772 0.001190 0.004144
# 4 0.000518 -0.000418 -0.000772 0.033633 -0.025474 0.000280
# 5 -0.000381 0.000320 0.001190 -0.025474 0.060348 0.000101
# 6 -0.006369 -0.012813 0.004144 0.000280 0.000101 0.038560
#
#
# Mechanical properties :
#
#
# Convention : Reuss Voigt Hill
#
# Bulk Modulus (GPa) = 45.86482 89.14331 67.50406
# Shear Modulus (GPa) = 26.11737 42.18278 34.15008
#
# Velocity S-wave (km/s) = 3.34977 4.25714 3.83042
# Velocity P-wave (km/s) = 5.88782 7.90338 6.96885
#
# Compressibility (1/GPa) = 0.02180320
#
# Stress axis : x y z
#
# Youngs Moduli (GPa) = 56.81387 89.64730 125.58342
#
# Poissons Ratio (x) = -0.16538 0.60464
# Poissons Ratio (y) = -0.10481 0.56362
# Poissons Ratio (z) = 0.27354 0.40234
#
# Static dielectric constant tensor:
#      x y z
#    x 4.041320 0.097910 -0.006460 
#    y 0.097910 3.183780 0.009020 
#    z -0.006460 0.009020 4.236620 
# 
# 
# High freq. dielectric constant tensor:
#      x y z
#    x 1.913990 0.023850 -0.000630 
#    y 0.023850 1.948730 0.000710 
#    z -0.000630 0.000710 1.929550 
# 
# From -- ./inp_files/313997.got.cif
#   From: 2010.06.25/outbox.cif.g09.slc.cpg/sg2_157_cif.got.tgz:313997.got - 2010.06.27 13:26:56.
