data_PCOD8023853
_publ_section_title
;
Structure prediction by ZEFSAII (Michael W. Deem and Ramdas Pophale) SiO2 
 PCOD8023853
Probable space group: P -1
;
_chemical_formula_sum "Si O2"
_cell_formula_units_Z 16
_cell_length_a 12.152135
_cell_length_b 12.871279
_cell_length_c 13.926384
_cell_angle_alpha 132.421165
_cell_angle_beta 33.009762
_cell_angle_gamma 109.480853
_cell_volume 715.259728
_symmetry_space_group_name_H-M "P -1"
_symmetry_group_IT_number 2
_symmetry_cell_setting 'triclinic'
loop_
_space_group_symop_operation_xyz
x,y,z
-x,-y,-z
loop_
_atom_site_type_symbol
_atom_site_label
_atom_site_fract_x
_atom_site_fract_y
_atom_site_fract_z
Si Si1 0.484559 0.395000 0.613674
Si Si2 0.893220 0.122289 0.518503
Si Si3 0.030860 0.658275 0.825721
Si Si4 0.563247 0.862245 0.158239
Si Si5 0.358390 0.153939 0.626532
Si Si6 0.888243 0.256371 0.805846
Si Si7 0.713420 0.673429 0.464621
Si Si8 0.353285 0.030741 0.028266
O O1 0.775880 0.301058 0.323639
O O2 0.456445 0.274600 0.631649
O O3 0.344177 0.418117 0.631892
O O4 0.367716 0.582632 0.862509
O O5 0.619621 0.196009 0.725343
O O6 0.861637 0.243538 0.704016
O O7 0.039459 0.921183 0.312061
O O8 0.059502 0.133471 0.323929
O O9 0.167864 0.453557 0.609353
O O10 0.815210 0.734090 0.951421
O O11 0.923458 0.737029 0.060466
O O12 0.414244 0.064133 0.425499
O O13 0.609566 0.858786 0.007710
O O14 0.500000 0.000000 0.500000
O O15 0.097189 0.288650 0.692970
O O16 0.457476 0.844855 0.792426
O O17 0.500000 0.000000 0.000000
#
# Coordination Sequence:
#
# PCOD8023853 Si02
#       8
#     2   2   2   2   2   2   2   2
#     4  12  24  43  73 102 137 181 230 284 347 404
#     4  11  23  42  70  99 137 180 228 279 341 400
#     4  11  27  43  66 102 142 180 226 280 347 409
#     4  11  25  45  66 101 139 183 223 281 340 414
#     4  10  23  42  66  98 139 175 218 282 341 404
#     4  11  22  43  70 102 136 174 230 287 337 403
#     4  12  23  44  69 102 136 177 229 290 338 398
#     4  12  23  43  73 100 132 178 235 278 332 407
#
# _framework density 22.369496000000002
#
# number of rings (size 3 to 8) (size 9 to 14) (size 15 to 20)
#    0.000    0.750    5.000    2.250    3.500    4.000 
#    0.000    3.125    0.000    0.000    0.000    0.000 
#    0.000    0.000    0.000    0.000    0.000    0.000 
#
# Total GULP energy -198366.114576 kJ/mol
# GULP energy per Si atom -12397.882161 kJ/mol
# Density = 2.231858 g / cm^3
# Si number density = 22.369496 Si / 1000 Ang^3
#
#
#
# Elastic Constant Matrix: (Units=GPa)
#
#
# Indices 1 2 3 4 5 6 
#
# 1 105.4981 34.7985 59.3439 -12.4959 -8.2254 -6.5601
# 2 34.7985 83.9135 55.7891 -20.9743 -4.8150 -2.0473
# 3 59.3439 55.7891 139.9745 -31.4924 -1.3879 10.8062
# 4 -12.4959 -20.9743 -31.4924 48.5497 2.9074 -5.1510
# 5 -8.2254 -4.8150 -1.3879 2.9074 39.1520 -4.4052
# 6 -6.5601 -2.0473 10.8062 -5.1510 -4.4052 32.2114
#
#
#
# Elastic Compliance Matrix: (Units=1/GPa)
#
#
# Indices 1 2 3 4 5 6 
#
# 1 0.013669 -0.001832 -0.005528 -0.000526 0.003035 0.004853
# 2 -0.001832 0.017524 -0.005621 0.003718 0.001683 0.003451
# 3 -0.005528 -0.005621 0.013072 0.004182 -0.002320 -0.005517
# 4 -0.000526 0.003718 0.004182 0.025121 -0.001078 0.002596
# 5 0.003035 0.001683 -0.002320 -0.001078 0.026948 0.005017
# 6 0.004853 0.003451 -0.005517 0.002596 0.005017 0.035205
#
#
# Mechanical properties :
#
#
# Convention : Reuss Voigt Hill
#
# Bulk Modulus (GPa) = 54.63584 69.91657 62.27620
# Shear Modulus (GPa) = 30.56221 35.94625 33.25423
#
# Velocity S-wave (km/s) = 3.70029 4.01300 3.85981
# Velocity P-wave (km/s) = 6.53708 7.26605 6.91118
#
# Compressibility (1/GPa) = 0.01830300
#
# Stress axis : x y z
#
# Youngs Moduli (GPa) = 73.16007 57.06457 76.50141
#
# Poissons Ratio (x) = 0.10456 0.42287
# Poissons Ratio (y) = 0.13405 0.43000
# Poissons Ratio (z) = 0.40440 0.32075
#
# Static dielectric constant tensor:
#      x y z
#    x 4.040530 0.021760 0.315380 
#    y 0.021760 4.059140 -0.142170 
#    z 0.315380 -0.142170 4.643740 
# 
# 
# High freq. dielectric constant tensor:
#      x y z
#    x 1.870400 -0.003810 0.007960 
#    y -0.003810 1.876780 -0.011290 
#    z 0.007960 -0.011290 1.892130 
# 
# From -- ./inp_files/522465.got.cif
#   From: 2010.06.25/outbox.cif.g09.slc.cpg/sg2_262_cif.got.tgz:522465.got - 2010.06.27 13:26:56.
