data_PCOD8023494
_publ_section_title
;
Structure prediction by ZEFSAII (Michael W. Deem and Ramdas Pophale) SiO2 
 PCOD8023494
Probable space group: P -1
;
_chemical_formula_sum "Si O2"
_cell_formula_units_Z 14
_cell_length_a 23.393123
_cell_length_b 5.264650
_cell_length_c 15.414100
_cell_angle_alpha 118.292741
_cell_angle_beta 21.808664
_cell_angle_gamma 118.015486
_cell_volume 618.443616
_symmetry_space_group_name_H-M "P -1"
_symmetry_group_IT_number 2
_symmetry_cell_setting 'triclinic'
loop_
_space_group_symop_operation_xyz
x,y,z
-x,-y,-z
loop_
_atom_site_type_symbol
_atom_site_label
_atom_site_fract_x
_atom_site_fract_y
_atom_site_fract_z
Si Si1 0.505789 0.450027 0.121281
Si Si2 0.002202 0.049982 0.606807
Si Si3 0.130194 0.349596 0.120036
Si Si4 0.732557 0.497300 0.395698
Si Si5 0.519701 0.661189 0.408638
Si Si6 0.646848 0.901827 0.877422
Si Si7 0.015035 0.919750 0.064312
O O1 0.362468 0.576022 0.393838
O O2 0.454445 0.268817 0.079834
O O3 0.618814 0.731188 0.980506
O O4 0.598470 0.229312 0.012542
O O5 0.913585 0.332482 0.790351
O O6 0.177482 0.098435 0.399473
O O7 0.928740 0.782605 0.725746
O O8 0.000000 0.000000 0.500000
O O9 0.056671 0.174927 0.113518
O O10 0.313177 0.364137 0.870739
O O11 0.605305 0.521435 0.504861
O O12 0.844618 0.781061 0.307962
O O13 0.842747 0.273973 0.164398
O O14 0.500000 0.500000 0.500000
O O15 0.500000 0.000000 0.500000
O O16 0.000000 0.000000 0.000000
#
# Coordination Sequence:
#
# PCOD8023494 Si02
#       7
#     2   2   2   2   2   2   2
#     4  10  23  41  68  96 132 179 219 294 340 414
#     4  12  28  47  74 103 141 189 245 295 352 434
#     4  12  27  48  76 102 148 191 236 297 367 416
#     4  11  26  42  72 103 143 181 243 283 363 424
#     4  12  26  47  70 105 146 189 232 289 349 435
#     4  10  23  43  65  97 135 171 236 280 352 395
#     4  11  26  45  72 107 144 188 239 297 358 441
#
# _framework density 22.637474000000001
#
# number of rings (size 3 to 8) (size 9 to 14) (size 15 to 20)
#    0.000    0.857    1.429    3.857   12.000    1.143 
#    0.000    0.000    0.000    0.000    0.000    0.000 
#    0.000    0.000    0.000    0.000    0.000    0.000 
#
# Total GULP energy -173530.067092 kJ/mol
# GULP energy per Si atom -12395.004792 kJ/mol
# Density = 2.258595 g / cm^3
# Si number density = 22.637474 Si / 1000 Ang^3
#
#
#
# Elastic Constant Matrix: (Units=GPa)
#
#
# Indices 1 2 3 4 5 6 
#
# 1 93.8890 23.9423 26.9939 -4.7209 2.4200 -5.9837
# 2 23.9423 83.4883 34.8860 1.3906 -8.5287 -20.8974
# 3 26.9939 34.8860 154.4064 -20.8121 -14.5339 -11.7470
# 4 -4.7209 1.3906 -20.8121 33.5067 -5.1280 12.7418
# 5 2.4200 -8.5287 -14.5339 -5.1280 49.8793 -4.6250
# 6 -5.9837 -20.8974 -11.7470 12.7418 -4.6250 44.2099
#
#
#
# Elastic Compliance Matrix: (Units=1/GPa)
#
#
# Indices 1 2 3 4 5 6 
#
# 1 0.011911 -0.003160 -0.001434 0.000952 -0.001503 -0.000694
# 2 -0.003160 0.016688 -0.003163 -0.006024 0.002262 0.008593
# 3 -0.001434 -0.003163 0.008400 0.005866 0.002497 -0.000887
# 4 0.000952 -0.006024 0.005866 0.038986 0.003526 -0.012027
# 5 -0.001503 0.002262 0.002497 0.003526 0.021858 0.002800
# 6 -0.000694 0.008593 -0.000887 -0.012027 0.002800 0.030111
#
#
# Mechanical properties :
#
#
# Convention : Reuss Voigt Hill
#
# Bulk Modulus (GPa) = 46.54446 55.93647 51.24046
# Shear Modulus (GPa) = 33.19386 41.91662 37.55524
#
# Velocity S-wave (km/s) = 3.83341 4.30775 4.07748
# Velocity P-wave (km/s) = 6.34026 7.03602 6.69718
#
# Compressibility (1/GPa) = 0.02148483
#
# Stress axis : x y z
#
# Youngs Moduli (GPa) = 83.95340 59.92368 119.04525
#
# Poissons Ratio (x) = 0.18934 0.17076
# Poissons Ratio (y) = 0.26526 0.37658
# Poissons Ratio (z) = 0.12042 0.18956
#
# Static dielectric constant tensor:
#      x y z
#    x 4.184870 -0.075010 -0.053510 
#    y -0.075010 4.492320 -0.046190 
#    z -0.053510 -0.046190 4.376490 
# 
# 
# High freq. dielectric constant tensor:
#      x y z
#    x 1.901780 -0.000890 -0.003090 
#    y -0.000890 1.893780 -0.005080 
#    z -0.003090 -0.005080 1.913410 
# 
# From -- ./inp_files/99937.got.cif
#   From: 2010.06.25/outbox.cif.g09.slc.cpg/sg2_50_cif.got.tgz:99937.got - 2010.06.27 13:26:56.
