data_PCOD8023115
_publ_section_title
;
Structure prediction by ZEFSAII (Michael W. Deem and Ramdas Pophale) SiO2 
 PCOD8023115
Probable space group: P -1
;
_chemical_formula_sum "Si O2"
_cell_formula_units_Z 16
_cell_length_a 17.929718
_cell_length_b 15.247084
_cell_length_c 13.097387
_cell_angle_alpha 129.250431
_cell_angle_beta 149.004527
_cell_angle_gamma 28.536021
_cell_volume 768.207709
_symmetry_space_group_name_H-M "P -1"
_symmetry_group_IT_number 2
_symmetry_cell_setting 'triclinic'
loop_
_space_group_symop_operation_xyz
x,y,z
-x,-y,-z
loop_
_atom_site_type_symbol
_atom_site_label
_atom_site_fract_x
_atom_site_fract_y
_atom_site_fract_z
Si Si1 0.125970 0.725375 0.789091
Si Si2 0.290830 0.364056 0.747484
Si Si3 0.281500 0.064713 0.181053
Si Si4 0.692187 0.404880 0.746761
Si Si5 0.610060 0.056358 0.556388
Si Si6 0.592179 0.215568 0.181181
Si Si7 0.917173 0.186833 0.430478
Si Si8 0.455197 0.641396 0.278432
O O1 0.281504 0.503378 0.811703
O O2 0.105211 0.787801 0.697898
O O3 0.288708 0.709550 0.034949
O O4 0.825426 0.907620 0.609981
O O5 0.000000 0.500000 0.500000
O O6 0.494016 0.172495 0.765534
O O7 0.393363 0.275746 0.918898
O O8 0.362286 0.138240 0.294371
O O9 0.252957 0.082267 0.282869
O O10 0.986282 0.229998 0.913359
O O11 0.500000 0.500000 0.500000
O O12 0.587987 0.585974 0.813178
O O13 0.703960 0.293919 0.759593
O O14 0.506655 0.250374 0.596295
O O15 0.787222 0.153829 0.286904
O O16 0.772180 0.014617 0.315676
O O17 0.756981 0.393484 0.449915
#
# Coordination Sequence:
#
# PCOD8023115 Si02
#       8
#     2   2   2   2   2   2   2   2
#     4  12  22  42  65 104 129 174 232 284 333 392
#     4  12  24  43  70  94 134 178 229 275 331 404
#     4  11  25  42  67  98 134 180 217 277 341 399
#     4  11  25  42  70  98 135 180 224 275 343 399
#     4  11  24  41  65  98 136 169 222 281 339 396
#     4  10  24  44  64  99 133 170 227 274 335 412
#     4  10  23  40  68  95 132 169 217 286 340 382
#     4  11  23  41  65 103 133 172 232 284 326 406
#
# _framework density 20.827698999999999
#
# number of rings (size 3 to 8) (size 9 to 14) (size 15 to 20)
#    0.000    1.000    5.000    1.500   10.500    0.000 
#    0.000    1.250    0.000    0.000    0.000    0.000 
#    0.000    0.000    0.000    0.000    0.000    0.000 
#
# Total GULP energy -198457.647570 kJ/mol
# GULP energy per Si atom -12403.602973 kJ/mol
# Density = 2.078029 g / cm^3
# Si number density = 20.827699 Si / 1000 Ang^3
#
#
#
# Elastic Constant Matrix: (Units=GPa)
#
#
# Indices 1 2 3 4 5 6 
#
# 1 92.9469 54.9980 48.6359 -3.0243 -2.1408 -7.1503
# 2 54.9980 106.2191 54.9362 0.4623 13.5340 5.9553
# 3 48.6359 54.9362 140.8391 -11.2364 -3.0638 -0.9179
# 4 -3.0243 0.4623 -11.2364 36.5134 -0.4148 2.6833
# 5 -2.1408 13.5340 -3.0638 -0.4148 35.5320 -4.1252
# 6 -7.1503 5.9553 -0.9179 2.6833 -4.1252 35.9718
#
#
#
# Elastic Compliance Matrix: (Units=1/GPa)
#
#
# Indices 1 2 3 4 5 6 
#
# 1 0.017893 -0.008887 -0.002533 0.000467 0.004887 0.005489
# 2 -0.008887 0.017525 -0.004135 -0.001914 -0.008237 -0.005575
# 3 -0.002533 -0.004135 0.009872 0.002871 0.002364 0.000490
# 4 0.000467 -0.001914 0.002871 0.028458 0.001162 -0.001506
# 5 0.004887 -0.008237 0.002364 0.001162 0.032494 0.006035
# 6 0.005489 -0.005575 0.000490 -0.001506 0.006035 0.030631
#
#
# Mechanical properties :
#
#
# Convention : Reuss Voigt Hill
#
# Bulk Modulus (GPa) = 70.52589 73.01614 71.77101
# Shear Modulus (GPa) = 28.95051 33.69909 31.32480
#
# Velocity S-wave (km/s) = 3.73232 4.02679 3.88235
# Velocity P-wave (km/s) = 7.24629 7.53349 7.39128
#
# Compressibility (1/GPa) = 0.01417919
#
# Stress axis : x y z
#
# Youngs Moduli (GPa) = 55.88820 57.06099 101.29903
#
# Poissons Ratio (x) = 0.50710 0.25660
# Poissons Ratio (y) = 0.49667 0.41890
# Poissons Ratio (z) = 0.14157 0.23596
#
# Static dielectric constant tensor:
#      x y z
#    x 3.858210 -0.118520 0.007510 
#    y -0.118520 3.918370 -0.078070 
#    z 0.007510 -0.078070 3.885750 
# 
# 
# High freq. dielectric constant tensor:
#      x y z
#    x 1.810490 -0.014090 -0.001380 
#    y -0.014090 1.821950 -0.003490 
#    z -0.001380 -0.003490 1.810490 
# 
# From -- ./inp_files/184383.got.cif
#   From: 2010.06.25/outbox.cif.g09.slc.cpg/sg2_93_cif.got.tgz:184383.got - 2010.06.27 13:26:56.
