data_PCOD8023636
_publ_section_title
;
Structure prediction by ZEFSAII (Michael W. Deem and Ramdas Pophale) SiO2 
 PCOD8023636
Probable space group: P -1
;
_chemical_formula_sum "Si O2"
_cell_formula_units_Z 14
_cell_length_a 8.620341
_cell_length_b 24.824149
_cell_length_c 8.796067
_cell_angle_alpha 141.575649
_cell_angle_beta 49.594753
_cell_angle_gamma 148.546038
_cell_volume 609.245786
_symmetry_space_group_name_H-M "P -1"
_symmetry_group_IT_number 2
_symmetry_cell_setting 'triclinic'
loop_
_space_group_symop_operation_xyz
x,y,z
-x,-y,-z
loop_
_atom_site_type_symbol
_atom_site_label
_atom_site_fract_x
_atom_site_fract_y
_atom_site_fract_z
Si Si1 0.775050 0.241704 0.030901
Si Si2 0.413338 0.389075 0.903694
Si Si3 0.416328 0.567021 0.767023
Si Si4 0.516612 0.125680 0.413994
Si Si5 0.367052 0.187045 0.927577
Si Si6 0.184551 0.636298 0.444275
Si Si7 0.747859 0.018179 0.038904
O O1 0.912057 0.351030 0.307320
O O2 0.668291 0.258392 0.985364
O O3 0.054481 0.266174 0.868032
O O4 0.495718 0.104570 0.974836
O O5 0.549004 0.346471 0.642387
O O6 0.500000 0.500000 0.000000
O O7 0.579806 0.443088 0.078122
O O8 0.500000 0.500000 0.500000
O O9 0.095581 0.496821 0.751161
O O10 0.636563 0.714121 0.907992
O O11 0.338910 0.111348 0.637170
O O12 0.712609 0.260842 0.514138
O O13 0.733771 0.115318 0.306679
O O14 0.296762 0.013401 0.182988
O O15 0.085532 0.088885 0.004452
#
# Coordination Sequence:
#
# PCOD8023636 Si02
#       7
#     2   2   2   2   2   2   2
#     4  11  27  45  66 104 139 177 224 283 335 399
#     4  12  27  43  68 100 136 177 225 280 336 397
#     4  12  25  44  73 100 139 179 229 275 337 408
#     4  10  23  41  73  99 132 175 235 275 336 402
#     4  12  25  43  71 102 136 181 228 276 339 401
#     4  11  24  46  68  99 140 181 222 275 343 400
#     4  10  24  45  71  98 138 177 225 283 339 396
#
# _framework density 22.979233000000001
#
# number of rings (size 3 to 8) (size 9 to 14) (size 15 to 20)
#    0.000    0.857    2.857    3.000    8.000    5.143 
#    0.000    0.000    0.000    0.000    0.000    0.000 
#    0.000    0.000    0.000    0.000    0.000    0.000 
#
# Total GULP energy -173591.784540 kJ/mol
# GULP energy per Si atom -12399.413181 kJ/mol
# Density = 2.292693 g / cm^3
# Si number density = 22.979233 Si / 1000 Ang^3
#
#
#
# Elastic Constant Matrix: (Units=GPa)
#
#
# Indices 1 2 3 4 5 6 
#
# 1 110.8202 41.7175 33.6541 -2.0926 -11.8628 6.9313
# 2 41.7175 112.3629 46.7974 -4.0518 -11.4143 10.5914
# 3 33.6541 46.7974 72.5680 5.5973 -33.4663 0.7622
# 4 -2.0926 -4.0518 5.5973 26.5201 5.9610 -5.9198
# 5 -11.8628 -11.4143 -33.4663 5.9610 32.8461 -5.5864
# 6 6.9313 10.5914 0.7622 -5.9198 -5.5864 45.2309
#
#
#
# Elastic Compliance Matrix: (Units=1/GPa)
#
#
# Indices 1 2 3 4 5 6 
#
# 1 0.011215 -0.002107 -0.005096 0.001918 -0.002424 -0.001188
# 2 -0.002107 0.015538 -0.015857 0.007775 -0.013559 -0.003706
# 3 -0.005096 -0.015857 0.051336 -0.023468 0.050366 0.006778
# 4 0.001918 0.007775 -0.023468 0.050929 -0.029538 0.001298
# 5 -0.002424 -0.013559 0.050366 -0.029538 0.083082 0.009093
# 6 -0.001188 -0.003706 0.006778 0.001298 0.009093 0.024337
#
#
# Mechanical properties :
#
#
# Convention : Reuss Voigt Hill
#
# Bulk Modulus (GPa) = 31.27976 60.00989 45.64483
# Shear Modulus (GPa) = 17.05244 32.49157 24.77201
#
# Velocity S-wave (km/s) = 2.72707 3.76434 3.28688
# Velocity P-wave (km/s) = 4.85362 6.71306 5.85759
#
# Compressibility (1/GPa) = 0.03196955
#
# Stress axis : x y z
#
# Youngs Moduli (GPa) = 89.16423 64.35643 19.47965
#
# Poissons Ratio (x) = 0.13558 0.09927
# Poissons Ratio (y) = 0.18784 0.30889
# Poissons Ratio (z) = 0.45438 1.02052
#
# Static dielectric constant tensor:
#      x y z
#    x 4.304620 0.139160 -0.207940 
#    y 0.139160 4.019450 -0.187180 
#    z -0.207940 -0.187180 4.417750 
# 
# 
# High freq. dielectric constant tensor:
#      x y z
#    x 1.913590 0.004470 -0.010590 
#    y 0.004470 1.906380 -0.007910 
#    z -0.010590 -0.007910 1.909190 
# 
# From -- ./inp_files/226605.got.cif
#   From: 2010.06.25/outbox.cif.g09.slc.cpg/sg2_114_cif.got.tgz:226605.got - 2010.06.27 13:26:56.
