data_PCOD8023146
_publ_section_title
;
Structure prediction by ZEFSAII (Michael W. Deem and Ramdas Pophale) SiO2 
 PCOD8023146
Probable space group: P -1
;
_chemical_formula_sum "Si O2"
_cell_formula_units_Z 14
_cell_length_a 10.570137
_cell_length_b 12.787238
_cell_length_c 11.643980
_cell_angle_alpha 114.721301
_cell_angle_beta 53.901334
_cell_angle_gamma 69.132573
_cell_volume 659.424528
_symmetry_space_group_name_H-M "P -1"
_symmetry_group_IT_number 2
_symmetry_cell_setting 'triclinic'
loop_
_space_group_symop_operation_xyz
x,y,z
-x,-y,-z
loop_
_atom_site_type_symbol
_atom_site_label
_atom_site_fract_x
_atom_site_fract_y
_atom_site_fract_z
Si Si1 0.417001 0.425537 0.553953
Si Si2 0.366568 0.314061 0.121094
Si Si3 0.765825 0.166102 0.456555
Si Si4 0.174548 0.223313 0.056040
Si Si5 0.704273 0.098348 0.066761
Si Si6 0.311768 0.970784 0.379194
Si Si7 0.781231 0.352577 0.717783
O O1 0.500000 0.500000 0.500000
O O2 0.501948 0.359201 0.610561
O O3 0.090938 0.606785 0.804239
O O4 0.575147 0.233263 0.309406
O O5 0.160514 0.332365 0.211212
O O6 0.210147 0.529095 0.294039
O O7 0.475494 0.231088 0.152297
O O8 0.616212 0.161959 0.824247
O O9 0.834636 0.226513 0.534524
O O10 0.701254 0.086915 0.519913
O O11 0.034226 0.984223 0.150799
O O12 0.186619 0.094401 0.052974
O O13 0.447177 0.078355 0.765460
O O14 0.021905 0.205449 0.615912
O O15 0.500000 0.500000 0.000000
#
# Coordination Sequence:
#
# PCOD8023146 Si02
#       7
#     2   2   2   2   2   2   2
#     4  12  27  45  69 100 135 182 232 265 332 418
#     4  10  23  40  70 100 131 172 223 284 333 384
#     4  12  23  45  69 100 138 178 226 275 333 406
#     4  10  25  46  65 101 137 175 228 278 340 395
#     4  12  24  45  71  95 140 180 222 278 335 400
#     4  10  24  44  65 102 135 168 226 284 340 380
#     4  12  21  41  71 104 137 171 221 284 340 392
#
# _framework density 21.230633000000001
#
# number of rings (size 3 to 8) (size 9 to 14) (size 15 to 20)
#    0.857    0.000    4.286    3.000    2.000    1.143 
#    0.000    0.714    0.000    0.000    0.000    0.000 
#    0.000    0.000    0.000    0.000    0.000    0.000 
#
# Total GULP energy -173636.674289 kJ/mol
# GULP energy per Si atom -12402.619592 kJ/mol
# Density = 2.118231 g / cm^3
# Si number density = 21.230633 Si / 1000 Ang^3
#
#
#
# Elastic Constant Matrix: (Units=GPa)
#
#
# Indices 1 2 3 4 5 6 
#
# 1 79.5257 35.3198 25.6484 7.2763 -27.0207 -12.1809
# 2 35.3198 125.1978 33.5970 7.6926 -12.4788 -21.9722
# 3 25.6484 33.5970 95.3614 3.9836 -29.1061 -6.7241
# 4 7.2763 7.6926 3.9836 36.1476 -4.3764 -8.6746
# 5 -27.0207 -12.4788 -29.1061 -4.3764 32.8386 11.6246
# 6 -12.1809 -21.9722 -6.7241 -8.6746 11.6246 30.9522
#
#
#
# Elastic Compliance Matrix: (Units=1/GPa)
#
#
# Indices 1 2 3 4 5 6 
#
# 1 0.019362 -0.004360 0.001020 -0.001569 0.015507 -0.001518
# 2 -0.004360 0.010983 -0.003827 0.000059 -0.005377 0.007286
# 3 0.001020 -0.003827 0.015829 -0.000431 0.014996 -0.004629
# 4 -0.001569 0.000059 -0.000431 0.029848 -0.000457 0.007868
# 5 0.015507 -0.005377 0.014996 -0.000457 0.060530 -0.017318
# 6 -0.001518 0.007286 -0.004629 0.007868 -0.017318 0.044586
#
#
# Mechanical properties :
#
#
# Convention : Reuss Voigt Hill
#
# Bulk Modulus (GPa) = 31.40638 54.35727 42.88183
# Shear Modulus (GPa) = 24.26178 33.68897 28.97538
#
# Velocity S-wave (km/s) = 3.38416 3.98780 3.69832
# Velocity P-wave (km/s) = 5.48590 6.84560 6.20312
#
# Compressibility (1/GPa) = 0.03184066
#
# Stress axis : x y z
#
# Youngs Moduli (GPa) = 51.64731 91.04634 63.17512
#
# Poissons Ratio (x) = 0.39699 -0.06445
# Poissons Ratio (y) = 0.22520 0.24176
# Poissons Ratio (z) = -0.05269 0.34841
#
# Static dielectric constant tensor:
#      x y z
#    x 3.792770 -0.026390 -0.052410 
#    y -0.026390 3.824160 0.083600 
#    z -0.052410 0.083600 3.835410 
# 
# 
# High freq. dielectric constant tensor:
#      x y z
#    x 1.823160 -0.000270 -0.011970 
#    y -0.000270 1.841950 0.009390 
#    z -0.011970 0.009390 1.831050 
# 
# From -- ./inp_files/421558.got.cif
#   From: 2010.06.25/outbox.cif.g09.slc.cpg/sg2_211_cif.got.tgz:421558.got - 2010.06.27 13:26:56.
