data_PCOD8023851
_publ_section_title
;
Structure prediction by ZEFSAII (Michael W. Deem and Ramdas Pophale) SiO2 
 PCOD8023851
Probable space group: P -1
;
_chemical_formula_sum "Si O2"
_cell_formula_units_Z 14
_cell_length_a 10.695986
_cell_length_b 15.955559
_cell_length_c 8.599694
_cell_angle_alpha 117.606778
_cell_angle_beta 124.770307
_cell_angle_gamma 30.351088
_cell_volume 607.713160
_symmetry_space_group_name_H-M "P -1"
_symmetry_group_IT_number 2
_symmetry_cell_setting 'triclinic'
loop_
_space_group_symop_operation_xyz
x,y,z
-x,-y,-z
loop_
_atom_site_type_symbol
_atom_site_label
_atom_site_fract_x
_atom_site_fract_y
_atom_site_fract_z
Si Si1 0.699142 0.802097 0.799835
Si Si2 0.033140 0.517979 0.361948
Si Si3 0.839144 0.130672 0.776787
Si Si4 0.872613 0.870143 0.203339
Si Si5 0.942027 0.158971 0.187292
Si Si6 0.233586 0.609548 0.493957
Si Si7 0.477565 0.157467 0.611771
O O1 0.878541 0.615927 0.796632
O O2 0.653207 0.840942 0.615050
O O3 0.414937 0.937389 0.800570
O O4 0.859593 0.808260 0.990916
O O5 0.239440 0.497831 0.457426
O O6 0.000000 0.500000 0.500000
O O7 0.732089 0.713528 0.285700
O O8 0.561900 0.213631 0.629685
O O9 0.921220 0.149212 0.700490
O O10 0.808938 0.218130 0.975220
O O11 0.074637 0.934225 0.815842
O O12 0.976185 0.761255 0.333659
O O13 0.777075 0.322145 0.300424
O O14 0.259188 0.025373 0.285045
O O15 0.500000 0.500000 0.500000
#
# Coordination Sequence:
#
# PCOD8023851 Si02
#       7
#     2   2   2   2   2   2   2
#     4  10  23  42  66  98 136 177 220 273 338 400
#     4  10  25  43  66  99 132 180 222 276 339 394
#     4   9  21  40  72  98 130 176 231 272 332 394
#     4  11  24  43  68 103 134 180 220 280 337 402
#     4   9  21  42  65 104 129 181 225 275 322 415
#     4  12  28  43  68 103 139 175 226 279 341 393
#     4   9  19  41  70  92 132 177 221 270 330 395
#
# _framework density 23.037185000000001
#
# number of rings (size 3 to 8) (size 9 to 14) (size 15 to 20)
#    0.857    1.143    1.429    0.000   10.000    5.714 
#    0.000    1.429    0.000    0.000    0.000    0.000 
#    0.000    0.000    0.000    0.000    0.000    0.000 
#
# Total GULP energy -173485.801880 kJ/mol
# GULP energy per Si atom -12391.842991 kJ/mol
# Density = 2.298475 g / cm^3
# Si number density = 23.037185 Si / 1000 Ang^3
#
#
#
# Elastic Constant Matrix: (Units=GPa)
#
#
# Indices 1 2 3 4 5 6 
#
# 1 132.3188 31.2062 -1.1987 13.0718 9.2905 -2.3304
# 2 31.2062 89.4426 21.4967 40.9584 1.7521 -14.6019
# 3 -1.1987 21.4967 77.6478 19.5576 9.1560 3.5872
# 4 13.0718 40.9584 19.5576 40.4204 5.7775 -4.1906
# 5 9.2905 1.7521 9.1560 5.7775 19.2056 -4.3983
# 6 -2.3304 -14.6019 3.5872 -4.1906 -4.3983 32.1412
#
#
#
# Elastic Compliance Matrix: (Units=1/GPa)
#
#
# Indices 1 2 3 4 5 6 
#
# 1 0.008821 -0.004301 0.001773 0.001225 -0.005573 -0.002115
# 2 -0.004301 0.025640 -0.002914 -0.023648 0.010539 0.010021
# 3 0.001773 -0.002914 0.016055 -0.004747 -0.007891 -0.004686
# 4 0.001225 -0.023648 -0.004747 0.051925 -0.012967 -0.005129
# 5 -0.005573 0.010539 -0.007891 -0.012967 0.064299 0.012373
# 6 -0.002115 0.010021 -0.004686 -0.005129 0.012373 0.037059
#
#
# Mechanical properties :
#
#
# Convention : Reuss Voigt Hill
#
# Bulk Modulus (GPa) = 25.23161 44.71306 34.97234
# Shear Modulus (GPa) = 21.94016 34.88044 28.41030
#
# Velocity S-wave (km/s) = 3.08941 3.89536 3.51556
# Velocity P-wave (km/s) = 4.86850 6.29944 5.62962
#
# Compressibility (1/GPa) = 0.03963282
#
# Stress axis : x y z
#
# Youngs Moduli (GPa) = 113.36727 39.00218 62.28414
#
# Poissons Ratio (x) = 0.16773 -0.11044
# Poissons Ratio (y) = 0.48755 0.18150
# Poissons Ratio (z) = -0.20102 0.11366
#
# Static dielectric constant tensor:
#      x y z
#    x 3.966900 -0.091220 0.141700 
#    y -0.091220 4.413940 0.192450 
#    z 0.141700 0.192450 3.986390 
# 
# 
# High freq. dielectric constant tensor:
#      x y z
#    x 1.905090 -0.001440 0.011360 
#    y -0.001440 1.905080 0.015300 
#    z 0.011360 0.015300 1.894300 
# 
# From -- ./inp_files/208443.got.cif
#   From: 2010.06.25/outbox.cif.g09.slc.cpg/sg2_105_cif.got.tgz:208443.got - 2010.06.27 13:26:56.
