data_PCOD8023841
_publ_section_title
;
Structure prediction by ZEFSAII (Michael W. Deem and Ramdas Pophale) SiO2 
 PCOD8023841
Probable space group: P -1
;
_chemical_formula_sum "Si O2"
_cell_formula_units_Z 16
_cell_length_a 9.283192
_cell_length_b 9.151361
_cell_length_c 14.043171
_cell_angle_alpha 111.012380
_cell_angle_beta 42.377935
_cell_angle_gamma 105.729095
_cell_volume 750.609801
_symmetry_space_group_name_H-M "P -1"
_symmetry_group_IT_number 2
_symmetry_cell_setting 'triclinic'
loop_
_space_group_symop_operation_xyz
x,y,z
-x,-y,-z
loop_
_atom_site_type_symbol
_atom_site_label
_atom_site_fract_x
_atom_site_fract_y
_atom_site_fract_z
Si Si1 0.301506 0.435413 0.023880
Si Si2 0.311584 0.901588 0.794220
Si Si3 0.120944 0.107056 0.093253
Si Si4 0.599991 0.409356 0.711049
Si Si5 0.402070 0.914517 0.437104
Si Si6 0.917981 0.319075 0.703245
Si Si7 0.689474 0.711614 0.619458
Si Si8 0.909826 0.977944 0.695892
O O1 0.255730 0.260465 0.039065
O O2 0.104999 0.549948 0.171536
O O3 0.500000 0.500000 0.000000
O O4 0.368101 0.437732 0.880354
O O5 0.447838 0.745733 0.711562
O O6 0.128588 0.859924 0.797019
O O7 0.467801 0.035118 0.708197
O O8 0.202542 0.960901 0.957963
O O9 0.155555 0.061670 0.174356
O O10 0.577583 0.273838 0.610083
O O11 0.772980 0.355595 0.691323
O O12 0.689349 0.564741 0.655104
O O13 0.159834 0.962797 0.551860
O O14 0.500000 0.000000 0.500000
O O15 0.165193 0.322221 0.551609
O O16 0.842799 0.153890 0.745160
O O17 0.781231 0.862815 0.663436
#
# Coordination Sequence:
#
# PCOD8023841 Si02
#       8
#     2   2   2   2   2   2   2   2
#     4  10  23  42  66  96 133 177 216 270 335 392
#     4  11  25  46  67  96 136 178 223 278 334 401
#     4  11  25  46  68  95 137 178 221 276 339 403
#     4  11  24  44  66  96 142 175 217 280 337 393
#     4  12  23  44  70  97 134 179 225 274 340 396
#     4  11  23  40  67 103 136 170 220 283 334 389
#     4  12  25  42  70 101 133 177 228 280 334 394
#     4  12  24  40  72 101 130 176 230 279 329 401
#
# _framework density 21.316001
#
# number of rings (size 3 to 8) (size 9 to 14) (size 15 to 20)
#    0.000    0.750    5.000    3.000    5.250    0.500 
#    2.250    1.875    0.000    0.000    0.000    0.000 
#    0.000    0.000    0.000    0.000    0.000    0.000 
#
# Total GULP energy -198451.790222 kJ/mol
# GULP energy per Si atom -12403.236889 kJ/mol
# Density = 2.126749 g / cm^3
# Si number density = 21.316001 Si / 1000 Ang^3
#
#
#
# Elastic Constant Matrix: (Units=GPa)
#
#
# Indices 1 2 3 4 5 6 
#
# 1 58.1157 22.1118 24.1089 9.5401 -9.8241 -6.4654
# 2 22.1118 123.6332 30.3704 0.8393 -2.1688 -13.0855
# 3 24.1089 30.3704 115.0733 10.4663 -0.0466 -5.6416
# 4 9.5401 0.8393 10.4663 44.8502 0.3551 2.7847
# 5 -9.8241 -2.1688 -0.0466 0.3551 25.7028 0.3290
# 6 -6.4654 -13.0855 -5.6416 2.7847 0.3290 24.8989
#
#
#
# Elastic Compliance Matrix: (Units=1/GPa)
#
#
# Indices 1 2 3 4 5 6 
#
# 1 0.022093 -0.002524 -0.003383 -0.004176 0.008232 0.004002
# 2 -0.002524 0.009379 -0.001810 0.000549 -0.000233 0.003805
# 3 -0.003383 -0.001810 0.010055 -0.001622 -0.001414 0.000649
# 4 -0.004176 0.000549 -0.001622 0.023804 -0.001833 -0.003801
# 5 0.008232 -0.000233 -0.001414 -0.001833 0.042039 0.001344
# 6 0.004002 0.003805 0.000649 -0.003801 0.001344 0.043756
#
#
# Mechanical properties :
#
#
# Convention : Reuss Voigt Hill
#
# Bulk Modulus (GPa) = 38.32368 50.00047 44.16208
# Shear Modulus (GPa) = 28.52926 33.77244 31.15085
#
# Velocity S-wave (km/s) = 3.66238 3.98473 3.82695
# Velocity P-wave (km/s) = 5.99182 6.68420 6.34746
#
# Compressibility (1/GPa) = 0.02609353
#
# Stress axis : x y z
#
# Youngs Moduli (GPa) = 45.26277 106.61576 99.44872
#
# Poissons Ratio (x) = 0.26909 0.33646
# Poissons Ratio (y) = 0.11424 0.18002
# Poissons Ratio (z) = 0.15313 0.19299
#
# Static dielectric constant tensor:
#      x y z
#    x 11.325000 1.377000 1.312260 
#    y 1.377000 4.187620 0.441860 
#    z 1.312260 0.441860 4.812990 
# 
# 
# High freq. dielectric constant tensor:
#      x y z
#    x 1.812960 -0.000310 0.001800 
#    y -0.000310 1.842100 0.000310 
#    z 0.001800 0.000310 1.860340 
# 
# From -- ./inp_files/188456.got.cif
#   From: 2010.06.25/outbox.cif.g09.slc.cpg/sg2_95_cif.got.tgz:188456.got - 2010.06.27 13:26:56.
