data_PCOD8023036
_publ_section_title
;
Structure prediction by ZEFSAII (Michael W. Deem and Ramdas Pophale) SiO2 
 PCOD8023036
Probable space group: P -1
;
_chemical_formula_sum "Si O2"
_cell_formula_units_Z 14
_cell_length_a 12.986920
_cell_length_b 11.262732
_cell_length_c 18.242633
_cell_angle_alpha 147.509121
_cell_angle_beta 153.562512
_cell_angle_gamma 48.647266
_cell_volume 586.131733
_symmetry_space_group_name_H-M "P -1"
_symmetry_group_IT_number 2
_symmetry_cell_setting 'triclinic'
loop_
_space_group_symop_operation_xyz
x,y,z
-x,-y,-z
loop_
_atom_site_type_symbol
_atom_site_label
_atom_site_fract_x
_atom_site_fract_y
_atom_site_fract_z
Si Si1 0.470613 0.379617 0.257813
Si Si2 0.635009 0.165247 0.536401
Si Si3 0.962350 0.674880 0.647760
Si Si4 0.075217 0.910243 0.074892
Si Si5 0.201978 0.413879 0.756943
Si Si6 0.991953 0.051394 0.313667
Si Si7 0.805164 0.374169 0.601299
O O1 0.352785 0.578878 0.293820
O O2 0.700197 0.467574 0.393891
O O3 0.572129 0.329292 0.374456
O O4 0.289114 0.140279 0.976826
O O5 0.706089 0.181609 0.503420
O O6 0.365912 0.952663 0.271072
O O7 0.826165 0.085012 0.662774
O O8 0.179347 0.629157 0.806272
O O9 0.982817 0.704973 0.588360
O O10 0.970943 0.940297 0.810261
O O11 0.894372 0.636145 0.832120
O O12 0.000000 0.000000 0.000000
O O13 0.067766 0.153648 0.497024
O O14 0.054251 0.374465 0.719513
O O15 0.500000 0.500000 0.000000
#
# Coordination Sequence:
#
# PCOD8023036 Si02
#       7
#     2   2   2   2   2   2   2
#     4  10  23  40  65  98 128 163 212 265 328 382
#     4  11  24  40  66 101 130 165 218 263 321 388
#     4  10  24  44  67  95 131 168 212 269 323 380
#     4  11  20  40  72  99 126 169 211 265 329 370
#     4  11  25  45  68  94 124 173 228 264 312 385
#     4  12  26  40  64  93 136 176 206 262 327 379
#     4  11  23  41  68  96 129 167 218 271 312 380
#
# _framework density 23.885414000000001
#
# number of rings (size 3 to 8) (size 9 to 14) (size 15 to 20)
#    0.000    1.143    4.286    3.000    2.000    7.429 
#    0.000    2.857    0.000    0.000    0.000    0.000 
#    0.000    0.000    0.000    0.000    0.000    0.000 
#
# Total GULP energy -173567.303733 kJ/mol
# GULP energy per Si atom -12397.664552 kJ/mol
# Density = 2.383105 g / cm^3
# Si number density = 23.885414 Si / 1000 Ang^3
#
#
#
# Elastic Constant Matrix: (Units=GPa)
#
#
# Indices 1 2 3 4 5 6 
#
# 1 50.1714 14.7985 21.1523 -9.2714 5.7508 -0.3643
# 2 14.7985 115.2126 44.5423 -21.2633 13.3512 4.5482
# 3 21.1523 44.5423 172.0038 -8.2061 -11.8525 -9.6470
# 4 -9.2714 -21.2633 -8.2061 29.0667 -10.3192 4.9318
# 5 5.7508 13.3512 -11.8525 -10.3192 17.7396 -6.1132
# 6 -0.3643 4.5482 -9.6470 4.9318 -6.1132 27.4568
#
#
#
# Elastic Compliance Matrix: (Units=1/GPa)
#
#
# Indices 1 2 3 4 5 6 
#
# 1 0.023095 0.000366 -0.003582 0.004028 -0.009109 -0.003764
# 2 0.000366 0.013055 -0.004447 0.005266 -0.012412 -0.007429
# 3 -0.003582 -0.004447 0.008803 0.001854 0.013708 0.006501
# 4 0.004028 0.005266 0.001854 0.048915 0.023112 -0.003808
# 5 -0.009109 -0.012412 0.013708 0.023112 0.099824 0.024826
# 6 -0.003764 -0.007429 0.006501 -0.003808 0.024826 0.046097
#
#
# Mechanical properties :
#
#
# Convention : Reuss Voigt Hill
#
# Bulk Modulus (GPa) = 33.75077 55.37490 44.56283
# Shear Modulus (GPa) = 18.86858 31.97892 25.42375
#
# Velocity S-wave (km/s) = 2.81368 3.66300 3.26606
# Velocity P-wave (km/s) = 4.97158 6.41279 5.73762
#
# Compressibility (1/GPa) = 0.02962896
#
# Stress axis : x y z
#
# Youngs Moduli (GPa) = 43.29961 76.59801 113.59197
#
# Poissons Ratio (x) = -0.02802 0.40683
# Poissons Ratio (y) = -0.01584 0.50509
# Poissons Ratio (z) = 0.15508 0.34060
#
# Static dielectric constant tensor:
#      x y z
#    x 4.189270 0.091190 0.340820 
#    y 0.091190 4.139040 -0.497690 
#    z 0.340820 -0.497690 3.630540 
# 
# 
# High freq. dielectric constant tensor:
#      x y z
#    x 1.947710 -0.009160 -0.000220 
#    y -0.009160 1.951530 0.000410 
#    z -0.000220 0.000410 1.949280 
# 
# From -- ./inp_files/273632.got.cif
#   From: 2010.06.25/outbox.cif.g09.slc.cpg/sg2_137_cif.got.tgz:273632.got - 2010.06.27 13:26:56.
