data_PCOD8023882
_publ_section_title
;
Structure prediction by ZEFSAII (Michael W. Deem and Ramdas Pophale) SiO2 
 PCOD8023882
Probable space group: P -1
;
_chemical_formula_sum "Si O2"
_cell_formula_units_Z 14
_cell_length_a 8.562879
_cell_length_b 9.222379
_cell_length_c 11.364698
_cell_angle_alpha 95.063979
_cell_angle_beta 111.706152
_cell_angle_gamma 50.302480
_cell_volume 627.681283
_symmetry_space_group_name_H-M "P -1"
_symmetry_group_IT_number 2
_symmetry_cell_setting 'triclinic'
loop_
_space_group_symop_operation_xyz
x,y,z
-x,-y,-z
loop_
_atom_site_type_symbol
_atom_site_label
_atom_site_fract_x
_atom_site_fract_y
_atom_site_fract_z
Si Si1 0.619972 0.241654 0.785867
Si Si2 0.939014 0.747842 0.321481
Si Si3 0.407501 0.396160 0.492820
Si Si4 0.007060 0.959119 0.723350
Si Si5 0.330042 0.003254 0.526914
Si Si6 0.386060 0.206209 0.930179
Si Si7 0.492973 0.411164 0.107462
O O1 0.467072 0.302195 0.632650
O O2 0.534358 0.199098 0.870179
O O3 0.622768 0.416831 0.817525
O O4 0.869409 0.042557 0.813726
O O5 0.851154 0.708982 0.180912
O O6 0.142663 0.539404 0.414761
O O7 0.016743 0.866616 0.324362
O O8 0.735748 0.871835 0.365907
O O9 0.500000 0.500000 0.500000
O O10 0.533086 0.221619 0.420171
O O11 0.258292 0.770795 0.798467
O O12 0.897092 0.905550 0.600004
O O13 0.500000 0.000000 0.500000
O O14 0.355149 0.340777 0.037615
O O15 0.500000 0.000000 0.000000
O O16 0.500000 0.500000 0.000000
#
# Coordination Sequence:
#
# PCOD8023882 Si02
#       7
#     2   2   2   2   2   2   2
#     4  10  23  43  69  94 132 167 221 277 322 391
#     4  12  23  41  71  94 139 172 214 272 330 390
#     4  11  23  41  68 104 129 168 222 263 338 400
#     4  11  22  41  68  98 127 176 214 265 340 386
#     4  11  25  41  66 103 133 168 214 272 334 396
#     4  11  24  44  64  95 130 179 220 272 319 381
#     4  10  23  42  67  92 127 173 229 264 319 382
#
# _framework density 22.304313
#
# number of rings (size 3 to 8) (size 9 to 14) (size 15 to 20)
#    0.000    1.143    4.286    3.000    2.000    6.857 
#    0.000    2.143    0.000    0.000    0.000    0.000 
#    0.000    0.000    0.000    0.000    0.000    0.000 
#
# Total GULP energy -173547.272618 kJ/mol
# GULP energy per Si atom -12396.233758 kJ/mol
# Density = 2.225355 g / cm^3
# Si number density = 22.304313 Si / 1000 Ang^3
#
#
#
# Elastic Constant Matrix: (Units=GPa)
#
#
# Indices 1 2 3 4 5 6 
#
# 1 73.7576 7.5454 26.8155 -3.4900 9.9044 10.0666
# 2 7.5454 121.3109 45.3616 -0.7720 12.1735 -1.2723
# 3 26.8155 45.3616 99.4285 2.6292 23.1780 2.5791
# 4 -3.4900 -0.7720 2.6292 26.7916 12.1908 -0.7965
# 5 9.9044 12.1735 23.1780 12.1908 37.0199 5.8486
# 6 10.0666 -1.2723 2.5791 -0.7965 5.8486 36.7624
#
#
#
# Elastic Compliance Matrix: (Units=1/GPa)
#
#
# Indices 1 2 3 4 5 6 
#
# 1 0.015957 0.000768 -0.004050 0.003575 -0.002600 -0.003568
# 2 0.000768 0.010038 -0.004556 0.001416 -0.001228 0.000683
# 3 -0.004050 -0.004556 0.014871 0.001241 -0.007311 0.001098
# 4 0.003575 0.001416 0.001241 0.045868 -0.017746 0.002800
# 5 -0.002600 -0.001228 -0.007311 -0.017746 0.039398 -0.005470
# 6 -0.003568 0.000683 0.001098 0.002800 -0.005470 0.029056
#
#
# Mechanical properties :
#
#
# Convention : Reuss Voigt Hill
#
# Bulk Modulus (GPa) = 39.69596 50.43800 45.06698
# Shear Modulus (GPa) = 27.89238 34.43309 31.16273
#
# Velocity S-wave (km/s) = 3.54013 3.93337 3.74192
# Velocity P-wave (km/s) = 5.87759 6.57960 6.23848
#
# Compressibility (1/GPa) = 0.02519148
#
# Stress axis : x y z
#
# Youngs Moduli (GPa) = 62.66868 99.61687 67.24380
#
# Poissons Ratio (x) = -0.07651 0.27233
# Poissons Ratio (y) = -0.04814 0.30635
# Poissons Ratio (z) = 0.25380 0.45383
#
# Static dielectric constant tensor:
#      x y z
#    x 3.920250 0.188040 0.173460 
#    y 0.188040 4.136140 0.473660 
#    z 0.173460 0.473660 4.412150 
# 
# 
# High freq. dielectric constant tensor:
#      x y z
#    x 1.869490 0.012010 0.006820 
#    y 0.012010 1.891380 0.006620 
#    z 0.006820 0.006620 1.880320 
# 
# From -- ./inp_files/186312.got.cif
#   From: 2010.06.25/outbox.cif.g09.slc.cpg/sg2_94_cif.got.tgz:186312.got - 2010.06.27 13:26:56.
