data_PCOD8023829
_publ_section_title
;
Structure prediction by ZEFSAII (Michael W. Deem and Ramdas Pophale) SiO2 
 PCOD8023829
Probable space group: P -1
;
_chemical_formula_sum "Si O2"
_cell_formula_units_Z 14
_cell_length_a 7.761229
_cell_length_b 8.722362
_cell_length_c 14.782325
_cell_angle_alpha 128.171257
_cell_angle_beta 85.632782
_cell_angle_gamma 121.762100
_cell_volume 620.693056
_symmetry_space_group_name_H-M "P -1"
_symmetry_group_IT_number 2
_symmetry_cell_setting 'triclinic'
loop_
_space_group_symop_operation_xyz
x,y,z
-x,-y,-z
loop_
_atom_site_type_symbol
_atom_site_label
_atom_site_fract_x
_atom_site_fract_y
_atom_site_fract_z
Si Si1 0.513251 0.854554 0.023576
Si Si2 0.405256 0.038692 0.605079
Si Si3 0.747647 0.584893 0.022224
Si Si4 0.701376 0.597205 0.837665
Si Si5 0.562152 0.163591 0.284091
Si Si6 0.929858 0.651125 0.512900
Si Si7 0.143873 0.116651 0.240470
O O1 0.274959 0.623445 0.989584
O O2 0.635529 0.758645 0.940201
O O3 0.500000 0.000000 0.000000
O O4 0.643237 0.044484 0.171757
O O5 0.461995 0.940420 0.652387
O O6 0.145576 0.890079 0.545116
O O7 0.500000 0.000000 0.500000
O O8 0.502684 0.322288 0.715050
O O9 0.500000 0.500000 0.000000
O O10 0.822397 0.581381 0.914392
O O11 0.912270 0.849384 0.157657
O O12 0.852729 0.745522 0.799477
O O13 0.737451 0.462577 0.381624
O O14 0.336775 0.091409 0.226433
O O15 0.829084 0.728380 0.617615
O O16 0.000000 0.500000 0.500000
#
# Coordination Sequence:
#
# PCOD8023829 Si02
#       7
#     2   2   2   2   2   2   2
#     4  11  22  44  67  99 143 174 224 280 345 400
#     4  11  24  49  71 100 132 183 236 282 339 412
#     4  10  23  42  66  94 136 178 226 275 330 407
#     4  11  22  41  71  99 134 183 231 273 337 413
#     4  11  24  45  66 101 142 177 225 287 341 402
#     4  10  23  42  71  93 136 180 229 284 335 405
#     4  12  24  44  69 103 136 181 229 287 344 396
#
# _framework density 22.555434000000002
#
# number of rings (size 3 to 8) (size 9 to 14) (size 15 to 20)
#    0.000    1.143    2.857    4.286    6.000    0.571 
#    5.143    1.429    0.000    0.000    0.000    0.000 
#    0.000    0.000    0.000    0.000    0.000    0.000 
#
# Total GULP energy -173480.674212 kJ/mol
# GULP energy per Si atom -12391.476729 kJ/mol
# Density = 2.250410 g / cm^3
# Si number density = 22.555434 Si / 1000 Ang^3
#
#
#
# Elastic Constant Matrix: (Units=GPa)
#
#
# Indices 1 2 3 4 5 6 
#
# 1 64.2435 23.0141 36.6506 6.7061 -0.5766 8.0796
# 2 23.0141 165.7304 62.6101 3.6176 5.8488 1.1721
# 3 36.6506 62.6101 189.3300 22.3418 -15.3412 18.7499
# 4 6.7061 3.6176 22.3418 49.0861 8.3959 2.6148
# 5 -0.5766 5.8488 -15.3412 8.3959 39.4964 -1.3149
# 6 8.0796 1.1721 18.7499 2.6148 -1.3149 27.0014
#
#
#
# Elastic Compliance Matrix: (Units=1/GPa)
#
#
# Indices 1 2 3 4 5 6 
#
# 1 0.018107 -0.001471 -0.002602 -0.000919 -0.000449 -0.003480
# 2 -0.001471 0.007269 -0.002612 0.001156 -0.002301 0.001714
# 3 -0.002602 -0.002612 0.007773 -0.003457 0.003970 -0.003977
# 4 -0.000919 0.001156 -0.003457 0.023082 -0.006431 0.000077
# 5 -0.000449 -0.002301 0.003970 -0.006431 0.028545 -0.000510
# 6 -0.003480 0.001714 -0.003977 0.000077 -0.000510 0.040732
#
#
# Mechanical properties :
#
#
# Convention : Reuss Voigt Hill
#
# Bulk Modulus (GPa) = 50.55856 73.76151 62.16003
# Shear Modulus (GPa) = 34.37162 42.91872 38.64517
#
# Velocity S-wave (km/s) = 3.90792 4.36685 4.14374
# Velocity P-wave (km/s) = 6.54418 7.62884 7.10723
#
# Compressibility (1/GPa) = 0.01977904
#
# Stress axis : x y z
#
# Youngs Moduli (GPa) = 55.22819 137.57822 128.65648
#
# Poissons Ratio (x) = 0.20236 0.33477
# Poissons Ratio (y) = 0.08123 0.33599
# Poissons Ratio (z) = 0.14370 0.35929
#
# Static dielectric constant tensor:
#      x y z
#    x 3.840230 0.163380 0.365050 
#    y 0.163380 4.312850 -0.237980 
#    z 0.365050 -0.237980 5.127120 
# 
# 
# High freq. dielectric constant tensor:
#      x y z
#    x 1.853400 0.004720 -0.011100 
#    y 0.004720 1.904480 0.009380 
#    z -0.011100 0.009380 1.914000 
# 
# From -- ./inp_files/493891.got.cif
#   From: 2010.06.25/outbox.cif.g09.slc.cpg/sg2_247_cif.got.tgz:493891.got - 2010.06.27 13:26:56.
