data_PCOD8023236
_publ_section_title
;
Structure prediction by ZEFSAII (Michael W. Deem and Ramdas Pophale) SiO2 
 PCOD8023236
Probable space group: P -1
;
_chemical_formula_sum "Si O2"
_cell_formula_units_Z 14
_cell_length_a 16.050112
_cell_length_b 7.674332
_cell_length_c 17.548555
_cell_angle_alpha 57.548895
_cell_angle_beta 23.644592
_cell_angle_gamma 49.970702
_cell_volume 653.991539
_symmetry_space_group_name_H-M "P -1"
_symmetry_group_IT_number 2
_symmetry_cell_setting 'triclinic'
loop_
_space_group_symop_operation_xyz
x,y,z
-x,-y,-z
loop_
_atom_site_type_symbol
_atom_site_label
_atom_site_fract_x
_atom_site_fract_y
_atom_site_fract_z
Si Si1 0.257679 0.862211 0.969901
Si Si2 0.566896 0.660920 0.484643
Si Si3 0.898586 0.467515 0.761987
Si Si4 0.132687 0.632420 0.822315
Si Si5 0.516654 0.182486 0.047011
Si Si6 0.815735 0.956727 0.714576
Si Si7 0.611475 0.865853 0.554660
O O1 0.189260 0.651178 0.071124
O O2 0.394915 0.856749 0.932720
O O3 0.409543 0.842069 0.774285
O O4 0.023883 0.096149 0.109155
O O5 0.365657 0.581233 0.687942
O O6 0.792285 0.454513 0.306661
O O7 0.652459 0.733784 0.471248
O O8 0.459610 0.867409 0.463346
O O9 0.693611 0.554399 0.848351
O O10 0.930568 0.689709 0.711689
O O11 0.144988 0.267089 0.571945
O O12 0.000000 0.500000 0.000000
O O13 0.405624 0.005130 0.162440
O O14 0.724460 0.128705 0.823540
O O15 0.000000 0.000000 0.500000
#
# Coordination Sequence:
#
# PCOD8023236 Si02
#       7
#     2   2   2   2   2   2   2
#     4  12  24  41  65  97 128 169 212 255 328 366
#     4  10  24  45  62  93 128 162 223 263 310 383
#     4  10  23  41  63  94 130 164 209 262 306 386
#     4  11  23  44  64  90 127 169 207 268 317 371
#     4   9  23  41  63  94 132 163 214 255 307 391
#     4   9  21  43  62  89 128 170 207 257 314 364
#     4  11  24  41  67  94 125 170 210 267 320 367
#
# _framework density 21.407005000000002
#
# number of rings (size 3 to 8) (size 9 to 14) (size 15 to 20)
#    0.857    0.857    2.857    0.429    4.000    3.429 
#    2.571    0.000    0.000    0.000    0.000    0.000 
#    0.000    0.000    0.000    0.000    0.000    0.000 
#
# Total GULP energy -173486.446069 kJ/mol
# GULP energy per Si atom -12391.889005 kJ/mol
# Density = 2.135828 g / cm^3
# Si number density = 21.407005 Si / 1000 Ang^3
#
#
#
# Elastic Constant Matrix: (Units=GPa)
#
#
# Indices 1 2 3 4 5 6 
#
# 1 41.8088 8.2871 21.1285 0.7551 5.6486 -3.6874
# 2 8.2871 92.4769 43.1291 -13.7000 1.5295 -5.5774
# 3 21.1285 43.1291 151.6032 -9.2253 -2.0660 -6.9782
# 4 0.7551 -13.7000 -9.2253 44.6860 2.5280 -7.3700
# 5 5.6486 1.5295 -2.0660 2.5280 22.0413 3.1015
# 6 -3.6874 -5.5774 -6.9782 -7.3700 3.1015 22.4011
#
#
#
# Elastic Compliance Matrix: (Units=1/GPa)
#
#
# Indices 1 2 3 4 5 6 
#
# 1 0.027268 -0.000397 -0.003607 -0.000172 -0.007884 0.004301
# 2 -0.000397 0.013283 -0.003322 0.004153 -0.002153 0.003872
# 3 -0.003607 -0.003322 0.008171 0.000828 0.001662 0.001167
# 4 -0.000172 0.004153 0.000828 0.025798 -0.004587 0.010386
# 5 -0.007884 -0.002153 0.001662 -0.004587 0.049585 -0.009690
# 6 0.004301 0.003872 0.001167 0.010386 -0.009690 0.051435
#
#
# Mechanical properties :
#
#
# Convention : Reuss Voigt Hill
#
# Bulk Modulus (GPa) = 29.35202 47.88649 38.61926
# Shear Modulus (GPa) = 24.80814 32.04863 28.42838
#
# Velocity S-wave (km/s) = 3.40792 3.87345 3.64812
# Velocity P-wave (km/s) = 5.40615 6.51329 5.98537
#
# Compressibility (1/GPa) = 0.03406920
#
# Stress axis : x y z
#
# Youngs Moduli (GPa) = 36.67343 75.28578 122.38951
#
# Poissons Ratio (x) = 0.02988 0.44149
# Poissons Ratio (y) = 0.01455 0.40656
# Poissons Ratio (z) = 0.13229 0.25009
#
# Static dielectric constant tensor:
#      x y z
#    x 3.488950 -0.031370 -0.168620 
#    y -0.031370 4.055630 0.108220 
#    z -0.168620 0.108220 3.943390 
# 
# 
# High freq. dielectric constant tensor:
#      x y z
#    x 1.806920 0.004420 -0.016510 
#    y 0.004420 1.846940 0.004550 
#    z -0.016510 0.004550 1.853650 
# 
# From -- ./inp_files/575377.got.cif
#   From: 2010.06.25/outbox.cif.g09.slc.cpg/sg2_288_cif.got.tgz:575377.got - 2010.06.27 13:26:56.
