data_PCOD8023610
_publ_section_title
;
Structure prediction by ZEFSAII (Michael W. Deem and Ramdas Pophale) SiO2 
 PCOD8023610
Probable space group: P -1
;
_chemical_formula_sum "Si O2"
_cell_formula_units_Z 16
_cell_length_a 22.400698
_cell_length_b 6.274076
_cell_length_c 17.503627
_cell_angle_alpha 117.804559
_cell_angle_beta 160.923165
_cell_angle_gamma 70.050121
_cell_volume 667.617629
_symmetry_space_group_name_H-M "P -1"
_symmetry_group_IT_number 2
_symmetry_cell_setting 'triclinic'
loop_
_space_group_symop_operation_xyz
x,y,z
-x,-y,-z
loop_
_atom_site_type_symbol
_atom_site_label
_atom_site_fract_x
_atom_site_fract_y
_atom_site_fract_z
Si Si1 0.796043 0.770201 0.704976
Si Si2 0.684599 0.714020 0.726467
Si Si3 0.819355 0.229833 0.244662
Si Si4 0.357724 0.110653 0.889943
Si Si5 0.837186 0.268004 0.056717
Si Si6 0.448385 0.628183 0.160100
Si Si7 0.067768 0.092963 0.415238
Si Si8 0.990952 0.409616 0.823579
O O1 0.665086 0.744247 0.617458
O O2 0.660492 0.809948 0.478448
O O3 0.831820 0.503800 0.687742
O O4 0.000000 0.000000 0.000000
O O5 0.500000 0.500000 0.500000
O O6 0.874745 0.637045 0.955682
O O7 0.703402 0.970290 0.838365
O O8 0.000000 0.500000 0.500000
O O9 0.871138 0.026469 0.217937
O O10 0.790564 0.121149 0.277882
O O11 0.614216 0.248110 0.969789
O O12 0.246416 0.221573 0.710139
O O13 0.466041 0.351973 0.115445
O O14 0.500000 0.000000 0.000000
O O15 0.880074 0.372202 0.041005
O O16 0.041729 0.283578 0.348899
O O17 0.721424 0.415704 0.989294
O O18 0.105433 0.846454 0.385140
#
# Coordination Sequence:
#
# PCOD8023610 Si02
#       8
#     2   2   2   2   2   2   2   2
#     4  12  26  47  71 102 143 187 228 287 354 409
#     4  11  25  45  71 101 135 184 237 288 348 407
#     4  11  24  46  75 102 137 186 235 283 340 414
#     4  12  26  45  69 106 145 182 226 286 351 415
#     4  10  23  43  70 105 132 180 237 284 337 414
#     4  11  26  45  70 104 141 183 233 286 343 417
#     4  10  23  41  72 102 137 182 230 278 344 412
#     4  11  23  43  69 101 140 179 227 288 343 413
#
# _framework density 23.965814999999999
#
# number of rings (size 3 to 8) (size 9 to 14) (size 15 to 20)
#    0.000    1.000    2.500    3.000    5.250    4.500 
#    2.250    0.000    0.000    0.000    0.000    0.000 
#    0.000    0.000    0.000    0.000    0.000    0.000 
#
# Total GULP energy -198346.459413 kJ/mol
# GULP energy per Si atom -12396.653713 kJ/mol
# Density = 2.391127 g / cm^3
# Si number density = 23.965815 Si / 1000 Ang^3
#
#
#
# Elastic Constant Matrix: (Units=GPa)
#
#
# Indices 1 2 3 4 5 6 
#
# 1 112.7008 33.6580 20.8312 6.8237 -9.3904 -23.1641
# 2 33.6580 79.7681 35.3798 -9.9588 -13.5034 -20.8504
# 3 20.8312 35.3798 125.9429 -11.5021 -26.6911 1.3523
# 4 6.8237 -9.9588 -11.5021 33.7508 5.3745 5.7437
# 5 -9.3904 -13.5034 -26.6911 5.3745 31.4548 -3.1823
# 6 -23.1641 -20.8504 1.3523 5.7437 -3.1823 42.6395
#
#
#
# Elastic Compliance Matrix: (Units=1/GPa)
#
#
# Indices 1 2 3 4 5 6 
#
# 1 0.011715 -0.003175 -0.000988 -0.005053 0.002739 0.005728
# 2 -0.003175 0.018456 -0.003585 0.002955 0.004170 0.007327
# 3 -0.000988 -0.003585 0.010748 0.002155 0.006673 -0.002423
# 4 -0.005053 0.002955 0.002155 0.034111 -0.004880 -0.006328
# 5 0.002739 0.004170 0.006673 -0.004880 0.041611 0.007078
# 6 0.005728 0.007327 -0.002423 -0.006328 0.007078 0.031605
#
#
# Mechanical properties :
#
#
# Convention : Reuss Voigt Hill
#
# Bulk Modulus (GPa) = 39.33430 55.34997 47.34213
# Shear Modulus (GPa) = 29.03336 36.80521 32.91929
#
# Velocity S-wave (km/s) = 3.48436 3.92310 3.71022
# Velocity P-wave (km/s) = 5.71279 6.60806 6.17667
#
# Compressibility (1/GPa) = 0.02542310
#
# Stress axis : x y z
#
# Youngs Moduli (GPa) = 85.35716 54.18355 93.04485
#
# Poissons Ratio (x) = 0.17202 0.09197
# Poissons Ratio (y) = 0.27099 0.33352
# Poissons Ratio (z) = 0.08437 0.19422
#
# Static dielectric constant tensor:
#      x y z
#    x 4.836480 -0.291500 -0.594280 
#    y -0.291500 4.606160 -0.233650 
#    z -0.594280 -0.233650 4.283890 
# 
# 
# High freq. dielectric constant tensor:
#      x y z
#    x 1.959400 -0.018350 -0.025590 
#    y -0.018350 1.953500 -0.020190 
#    z -0.025590 -0.020190 1.934650 
# 
# From -- ./inp_files/578767.got.cif
#   From: 2010.06.25/outbox.cif.g09.slc.cpg/sg2_290_cif.got.tgz:578767.got - 2010.06.27 13:26:56.
