data_PCOD8023241
_publ_section_title
;
Structure prediction by ZEFSAII (Michael W. Deem and Ramdas Pophale) SiO2 
 PCOD8023241
Probable space group: P -1
;
_chemical_formula_sum "Si O2"
_cell_formula_units_Z 16
_cell_length_a 8.528514
_cell_length_b 17.719383
_cell_length_c 8.665787
_cell_angle_alpha 57.240533
_cell_angle_beta 50.320963
_cell_angle_gamma 91.248864
_cell_volume 697.889068
_symmetry_space_group_name_H-M "P -1"
_symmetry_group_IT_number 2
_symmetry_cell_setting 'triclinic'
loop_
_space_group_symop_operation_xyz
x,y,z
-x,-y,-z
loop_
_atom_site_type_symbol
_atom_site_label
_atom_site_fract_x
_atom_site_fract_y
_atom_site_fract_z
Si Si1 0.619196 0.221535 0.777889
Si Si2 0.091464 0.346123 0.169265
Si Si3 0.346352 0.133858 0.490439
Si Si4 0.634601 0.450327 0.052523
Si Si5 0.531047 0.329981 0.968017
Si Si6 0.128289 0.793103 0.816617
Si Si7 0.698097 0.769397 0.304295
Si Si8 0.772815 0.993367 0.574945
O O1 0.882098 0.250965 0.518525
O O2 0.455396 0.220793 0.743915
O O3 0.678268 0.318024 0.751960
O O4 0.480875 0.104627 0.079006
O O5 0.985206 0.316221 0.094843
O O6 0.356797 0.364922 0.974367
O O7 0.142444 0.459820 0.076550
O O8 0.327792 0.211404 0.297230
O O9 0.636137 0.185652 0.269089
O O10 0.224371 0.131712 0.732593
O O11 0.219061 0.020039 0.603190
O O12 0.719833 0.410920 0.894902
O O13 0.455971 0.345644 0.385323
O O14 0.500000 0.500000 0.000000
O O15 0.202669 0.893682 0.543133
O O16 0.937687 0.780178 0.077614
O O17 0.000000 0.000000 0.500000
#
# Coordination Sequence:
#
# PCOD8023241 Si02
#       8
#     2   2   2   2   2   2   2   2
#     4  11  22  41  68  95 123 173 214 257 327 375
#     4  11  22  41  65  93 131 167 215 263 314 377
#     4  10  23  41  63  95 127 162 216 264 311 380
#     4   9  22  41  64  95 128 170 214 260 318 378
#     4   9  20  43  63  91 134 163 212 269 308 376
#     4  12  23  41  66  96 131 168 213 268 312 376
#     4  11  22  43  66  94 132 168 210 265 320 371
#     4  11  23  44  67  93 131 168 210 263 321 378
#
# _framework density 22.926278
#
# number of rings (size 3 to 8) (size 9 to 14) (size 15 to 20)
#    0.000    1.500    3.750    1.125    0.000    8.500 
#    0.000    0.000    0.000    0.000    0.000    0.000 
#    0.000    0.000    0.000    0.000    0.000    0.000 
#
# Total GULP energy -198249.514136 kJ/mol
# GULP energy per Si atom -12390.594634 kJ/mol
# Density = 2.287410 g / cm^3
# Si number density = 22.926278 Si / 1000 Ang^3
#
#
#
# Elastic Constant Matrix: (Units=GPa)
#
#
# Indices 1 2 3 4 5 6 
#
# 1 68.9461 28.6360 6.3381 6.8624 0.6163 25.6788
# 2 28.6360 106.2032 26.0401 22.5392 -5.2410 41.5951
# 3 6.3381 26.0401 83.5564 17.3279 2.9723 5.6334
# 4 6.8624 22.5392 17.3279 35.6198 -2.0221 4.2838
# 5 0.6163 -5.2410 2.9723 -2.0221 35.1822 -1.5084
# 6 25.6788 41.5951 5.6334 4.2838 -1.5084 41.2563
#
#
#
# Elastic Compliance Matrix: (Units=1/GPa)
#
#
# Indices 1 2 3 4 5 6 
#
# 1 0.019099 -0.000222 -0.000126 -0.002155 -0.000972 -0.011459
# 2 -0.000222 0.018988 -0.003065 -0.008252 0.001860 -0.017663
# 3 -0.000126 -0.003065 0.013947 -0.005134 -0.001854 0.001729
# 4 -0.002155 -0.008252 -0.005134 0.035488 0.001571 0.006735
# 5 -0.000972 0.001860 -0.001854 0.001571 0.028959 -0.000121
# 6 -0.011459 -0.017663 0.001729 0.006735 -0.000121 0.048239
#
#
# Mechanical properties :
#
#
# Convention : Reuss Voigt Hill
#
# Bulk Modulus (GPa) = 22.11936 42.30376 32.21156
# Shear Modulus (GPa) = 26.79352 35.59108 31.19230
#
# Velocity S-wave (km/s) = 3.42231 3.94434 3.69256
# Velocity P-wave (km/s) = 5.02844 6.26386 5.67984
#
# Compressibility (1/GPa) = 0.04520927
#
# Stress axis : x y z
#
# Youngs Moduli (GPa) = 52.35985 52.66559 71.70137
#
# Poissons Ratio (x) = 0.01167 0.00900
# Poissons Ratio (y) = 0.01160 0.21975
# Poissons Ratio (z) = 0.00657 0.16141
#
# Static dielectric constant tensor:
#      x y z
#    x 3.996850 0.331360 0.119210 
#    y 0.331360 4.973230 -0.037090 
#    z 0.119210 -0.037090 3.980090 
# 
# 
# High freq. dielectric constant tensor:
#      x y z
#    x 1.897530 0.018040 0.008160 
#    y 0.018040 1.929540 0.006020 
#    z 0.008160 0.006020 1.879890 
# 
# From -- ./inp_files/214225.got.cif
#   From: 2010.06.25/outbox.cif.g09.slc.cpg/sg2_108_cif.got.tgz:214225.got - 2010.06.27 13:26:56.
