data_PCOD8023806
_publ_section_title
;
Structure prediction by ZEFSAII (Michael W. Deem and Ramdas Pophale) SiO2 
 PCOD8023806
Probable space group: P -1
;
_chemical_formula_sum "Si O2"
_cell_formula_units_Z 16
_cell_length_a 11.835122
_cell_length_b 6.518056
_cell_length_c 14.061114
_cell_angle_alpha 94.159645
_cell_angle_beta 67.693845
_cell_angle_gamma 54.973514
_cell_volume 759.019023
_symmetry_space_group_name_H-M "P -1"
_symmetry_group_IT_number 2
_symmetry_cell_setting 'triclinic'
loop_
_space_group_symop_operation_xyz
x,y,z
-x,-y,-z
loop_
_atom_site_type_symbol
_atom_site_label
_atom_site_fract_x
_atom_site_fract_y
_atom_site_fract_z
Si Si1 0.669724 0.704178 0.930226
Si Si2 0.107622 0.225903 0.249516
Si Si3 0.206588 0.298333 0.555694
Si Si4 0.193807 0.609160 0.730783
Si Si5 0.622541 0.670717 0.147883
Si Si6 0.634715 0.212825 0.400459
Si Si7 0.638822 0.372891 0.788924
Si Si8 0.583332 0.769028 0.672498
O O1 0.796352 0.705825 0.835191
O O2 0.649331 0.504423 0.882264
O O3 0.725372 0.608716 0.018441
O O4 0.500000 0.000000 0.000000
O O5 0.988434 0.472129 0.370702
O O6 0.999422 0.213336 0.208319
O O7 0.219682 0.950292 0.264079
O O8 0.280643 0.376090 0.613156
O O9 0.268967 0.284498 0.430626
O O10 0.266192 0.005263 0.554280
O O11 0.252739 0.477530 0.810932
O O12 0.238789 0.795508 0.702458
O O13 0.532896 0.552170 0.157096
O O14 0.487920 0.995255 0.219243
O O15 0.500000 0.500000 0.500000
O O16 0.557033 0.132113 0.352640
O O17 0.655148 0.490104 0.692214
#
# Coordination Sequence:
#
# PCOD8023806 Si02
#       8
#     2   2   2   2   2   2   2   2
#     4  12  25  46  72  95 133 182 229 287 333 394
#     4  10  25  47  66  97 143 180 215 280 351 395
#     4  10  24  41  65 101 147 171 213 284 339 401
#     4  10  23  42  66 101 136 172 217 277 342 394
#     4  12  24  44  71 104 128 176 238 282 328 398
#     4  12  20  38  70 100 142 183 219 269 337 405
#     4  12  25  43  70  98 133 178 234 270 336 410
#     4  12  22  39  70 103 134 177 226 277 328 406
#
# _framework density 21.079841999999999
#
# number of rings (size 3 to 8) (size 9 to 14) (size 15 to 20)
#    0.750    0.000    6.250    1.500    1.750    1.000 
#    0.000    3.125    0.000    0.000    0.000    0.000 
#    0.000    0.000    0.000    0.000    0.000    0.000 
#
# Total GULP energy -198397.966110 kJ/mol
# GULP energy per Si atom -12399.872882 kJ/mol
# Density = 2.103186 g / cm^3
# Si number density = 21.079842 Si / 1000 Ang^3
#
#
#
# Elastic Constant Matrix: (Units=GPa)
#
#
# Indices 1 2 3 4 5 6 
#
# 1 77.1251 11.4607 15.9022 -1.4112 -13.1893 3.0360
# 2 11.4607 110.2223 27.7816 -18.2051 -6.0937 -5.7454
# 3 15.9022 27.7816 80.0636 -13.7504 -7.8421 8.5668
# 4 -1.4112 -18.2051 -13.7504 37.6924 1.7412 4.6055
# 5 -13.1893 -6.0937 -7.8421 1.7412 34.3451 -4.1028
# 6 3.0360 -5.7454 8.5668 4.6055 -4.1028 33.0467
#
#
#
# Elastic Compliance Matrix: (Units=1/GPa)
#
#
# Indices 1 2 3 4 5 6 
#
# 1 0.014373 -0.000816 -0.002226 -0.000875 0.004892 -0.000156
# 2 -0.000816 0.010719 -0.003078 0.003692 0.000979 0.002343
# 3 -0.002226 -0.003078 0.015431 0.004586 0.001316 -0.004807
# 4 -0.000875 0.003692 0.004586 0.030578 -0.000760 -0.004822
# 5 0.004892 0.000979 0.001316 -0.000760 0.031920 0.003448
# 6 -0.000156 0.002343 -0.004807 -0.004822 0.003448 0.033028
#
#
# Mechanical properties :
#
#
# Convention : Reuss Voigt Hill
#
# Bulk Modulus (GPa) = 35.35644 41.96666 38.66155
# Shear Modulus (GPa) = 31.70229 35.16794 33.43511
#
# Velocity S-wave (km/s) = 3.88224 4.08894 3.98693
# Velocity P-wave (km/s) = 6.07493 6.49956 6.29083
#
# Compressibility (1/GPa) = 0.02828339
#
# Stress axis : x y z
#
# Youngs Moduli (GPa) = 69.57545 93.28906 64.80396
#
# Poissons Ratio (x) = 0.07608 0.14426
# Poissons Ratio (y) = 0.05674 0.19949
# Poissons Ratio (z) = 0.15488 0.28718
#
# Static dielectric constant tensor:
#      x y z
#    x 3.826490 0.129150 0.063450 
#    y 0.129150 3.812560 -0.135010 
#    z 0.063450 -0.135010 3.925320 
# 
# 
# High freq. dielectric constant tensor:
#      x y z
#    x 1.823820 0.007300 0.004970 
#    y 0.007300 1.831940 -0.015860 
#    z 0.004970 -0.015860 1.818840 
# 
# From -- ./inp_files/510364.got.cif
#   From: 2010.06.25/outbox.cif.g09.slc.cpg/sg2_256_cif.got.tgz:510364.got - 2010.06.27 13:26:56.
