data_PCOD8023976
_publ_section_title
;
Structure prediction by ZEFSAII (Michael W. Deem and Ramdas Pophale) SiO2 
 PCOD8023976
Probable space group: P -1
;
_chemical_formula_sum "Si O2"
_cell_formula_units_Z 16
_cell_length_a 9.516018
_cell_length_b 17.620912
_cell_length_c 11.924280
_cell_angle_alpha 151.262401
_cell_angle_beta 51.218792
_cell_angle_gamma 127.155645
_cell_volume 741.362507
_symmetry_space_group_name_H-M "P -1"
_symmetry_group_IT_number 2
_symmetry_cell_setting 'triclinic'
loop_
_space_group_symop_operation_xyz
x,y,z
-x,-y,-z
loop_
_atom_site_type_symbol
_atom_site_label
_atom_site_fract_x
_atom_site_fract_y
_atom_site_fract_z
Si Si1 0.328540 0.874408 0.442560
Si Si2 0.913729 0.655661 0.781644
Si Si3 0.770248 0.146192 0.980371
Si Si4 0.472407 0.428849 0.040473
Si Si5 0.250506 0.417918 0.739507
Si Si6 0.808118 0.925018 0.037444
Si Si7 0.890455 0.261509 0.825970
Si Si8 0.629849 0.838503 0.786678
O O1 0.403122 0.709625 0.204516
O O2 0.185661 0.861170 0.393793
O O3 0.500000 0.000000 0.500000
O O4 0.238731 0.938319 0.679035
O O5 0.000000 0.500000 0.500000
O O6 0.744875 0.611833 0.892576
O O7 0.822224 0.749199 0.850606
O O8 0.072850 0.776043 0.914661
O O9 0.850991 0.166591 0.839939
O O10 0.705308 0.962581 0.810867
O O11 0.586612 0.224161 0.190027
O O12 0.500000 0.500000 0.000000
O O13 0.556154 0.553621 0.255512
O O14 0.268927 0.312748 0.483570
O O15 0.102429 0.326634 0.781910
O O16 0.207855 0.582733 0.923563
O O17 0.668147 0.907551 0.981575
O O18 0.000000 0.000000 0.000000
#
# Coordination Sequence:
#
# PCOD8023976 Si02
#       8
#     2   2   2   2   2   2   2   2
#     4  11  23  44  70 100 133 180 235 273 334 411
#     4  12  27  45  66 104 139 177 229 281 345 404
#     4  11  25  44  64 103 134 174 223 276 341 395
#     4  11  25  43  69 100 136 181 224 283 341 397
#     4  10  23  43  65  99 127 178 225 267 340 397
#     4  12  25  45  71 100 136 184 228 278 339 405
#     4  10  23  42  68  96 134 171 220 280 333 397
#     4  11  25  44  69  98 135 179 225 273 336 404
#
# _framework density 21.581883999999999
#
# number of rings (size 3 to 8) (size 9 to 14) (size 15 to 20)
#    0.000    1.000    2.500    3.000    5.250    4.000 
#    0.000    0.000    0.000    0.000    0.000    0.000 
#    0.000    0.000    0.000    0.000    0.000    0.000 
#
# Total GULP energy -198292.364593 kJ/mol
# GULP energy per Si atom -12393.272787 kJ/mol
# Density = 2.153276 g / cm^3
# Si number density = 21.581884 Si / 1000 Ang^3
#
#
#
# Elastic Constant Matrix: (Units=GPa)
#
#
# Indices 1 2 3 4 5 6 
#
# 1 100.3034 40.2292 26.6545 -5.9385 8.4451 6.8103
# 2 40.2292 127.9585 22.7689 -10.6410 5.3168 4.6007
# 3 26.6545 22.7689 122.7330 -17.7465 6.0047 -5.7458
# 4 -5.9385 -10.6410 -17.7465 28.9319 3.3914 0.9058
# 5 8.4451 5.3168 6.0047 3.3914 31.6401 -2.4174
# 6 6.8103 4.6007 -5.7458 0.9058 -2.4174 47.5656
#
#
#
# Elastic Compliance Matrix: (Units=1/GPa)
#
#
# Indices 1 2 3 4 5 6 
#
# 1 0.012155 -0.003271 -0.001927 0.000461 -0.002515 -0.001793
# 2 -0.003271 0.009217 -0.000630 0.002451 -0.000864 -0.000590
# 3 -0.001927 -0.000630 0.009611 0.005425 -0.001685 0.001309
# 4 0.000461 0.002451 0.005425 0.039597 -0.005862 -0.000700
# 5 -0.002515 -0.000864 -0.001685 -0.005862 0.033527 0.002056
# 6 -0.001793 -0.000590 0.001309 -0.000700 0.002056 0.021613
#
#
# Mechanical properties :
#
#
# Convention : Reuss Voigt Hill
#
# Bulk Modulus (GPa) = 51.74527 58.92223 55.33375
# Shear Modulus (GPa) = 34.76605 39.05033 36.90819
#
# Velocity S-wave (km/s) = 4.01794 4.25832 4.13988
# Velocity P-wave (km/s) = 6.74933 7.17905 6.96750
#
# Compressibility (1/GPa) = 0.01932544
#
# Stress axis : x y z
#
# Youngs Moduli (GPa) = 82.27324 108.50020 104.04393
#
# Poissons Ratio (x) = 0.35492 0.20051
# Poissons Ratio (y) = 0.26913 0.06558
# Poissons Ratio (z) = 0.15855 0.06839
#
# Static dielectric constant tensor:
#      x y z
#    x 3.779110 0.109090 0.027210 
#    y 0.109090 3.950720 0.041230 
#    z 0.027210 0.041230 3.759510 
# 
# 
# High freq. dielectric constant tensor:
#      x y z
#    x 1.855370 0.013380 0.000170 
#    y 0.013380 1.863450 -0.001850 
#    z 0.000170 -0.001850 1.850570 
# 
# From -- ./inp_files/403507.got.cif
#   From: 2010.06.25/outbox.cif.g09.slc.cpg/sg2_202_cif.got.tgz:403507.got - 2010.06.27 13:26:56.
