data_PCOD8023314
_publ_section_title
;
Structure prediction by ZEFSAII (Michael W. Deem and Ramdas Pophale) SiO2 
 PCOD8023314
Probable space group: P -1
;
_chemical_formula_sum "Si O2"
_cell_formula_units_Z 14
_cell_length_a 8.664910
_cell_length_b 11.462822
_cell_length_c 6.596740
_cell_angle_alpha 101.306891
_cell_angle_beta 88.170119
_cell_angle_gamma 79.623788
_cell_volume 630.454720
_symmetry_space_group_name_H-M "P -1"
_symmetry_group_IT_number 2
_symmetry_cell_setting 'triclinic'
loop_
_space_group_symop_operation_xyz
x,y,z
-x,-y,-z
loop_
_atom_site_type_symbol
_atom_site_label
_atom_site_fract_x
_atom_site_fract_y
_atom_site_fract_z
Si Si1 0.937608 0.878978 0.923035
Si Si2 0.846822 0.669564 0.042436
Si Si3 0.607716 0.962275 0.780956
Si Si4 0.257384 0.713375 0.732347
Si Si5 0.444735 0.814757 0.436131
Si Si6 0.482848 0.361160 0.978330
Si Si7 0.096131 0.510580 0.696264
O O1 0.789712 0.910338 0.793465
O O2 0.082607 0.785902 0.797764
O O3 0.869115 0.810701 0.093132
O O4 0.000000 0.000000 0.000000
O O5 0.687176 0.650475 0.925457
O O6 0.843253 0.622504 0.257425
O O7 0.993757 0.592745 0.895239
O O8 0.552233 0.856386 0.619999
O O9 0.610572 0.078168 0.682162
O O10 0.500000 0.000000 0.000000
O O11 0.302664 0.772450 0.544465
O O12 0.245130 0.572448 0.654742
O O13 0.379627 0.716149 0.913901
O O14 0.523798 0.698441 0.263508
O O15 0.500000 0.500000 0.000000
O O16 0.000000 0.500000 0.500000
#
# Coordination Sequence:
#
# PCOD8023314 Si02
#       7
#     2   2   2   2   2   2   2
#     4  11  23  42  72  98 138 180 222 288 350 410
#     4  10  23  43  64  94 134 178 227 283 342 398
#     4  11  24  48  72 105 139 181 234 286 353 418
#     4  11  25  43  63 105 134 176 237 281 343 417
#     4  11  25  42  73 101 139 183 232 292 348 415
#     4  12  25  44  70  99 141 190 235 288 343 413
#     4  10  23  41  65  92 132 178 223 281 343 407
#
# _framework density 22.206194
#
# number of rings (size 3 to 8) (size 9 to 14) (size 15 to 20)
#    0.000    1.143    1.429    4.286    2.000    6.857 
#    0.000    2.857    0.000    0.000    0.000    0.000 
#    0.000    0.000    0.000    0.000    0.000    0.000 
#
# Total GULP energy -173442.318400 kJ/mol
# GULP energy per Si atom -12388.737029 kJ/mol
# Density = 2.215565 g / cm^3
# Si number density = 22.206194 Si / 1000 Ang^3
#
#
#
# Elastic Constant Matrix: (Units=GPa)
#
#
# Indices 1 2 3 4 5 6 
#
# 1 126.6493 70.9513 32.3990 -30.4939 12.0374 13.1640
# 2 70.9513 167.6943 65.0258 -19.3677 6.4069 41.9634
# 3 32.3990 65.0258 105.6429 -17.4778 17.7704 13.9061
# 4 -30.4939 -19.3677 -17.4778 37.2739 4.5509 -2.3017
# 5 12.0374 6.4069 17.7704 4.5509 33.1966 -6.1036
# 6 13.1640 41.9634 13.9061 -2.3017 -6.1036 57.4817
#
#
#
# Elastic Compliance Matrix: (Units=1/GPa)
#
#
# Indices 1 2 3 4 5 6 
#
# 1 0.013077 -0.004745 0.001542 0.009680 -0.006007 -0.000154
# 2 -0.004745 0.011223 -0.005075 -0.000950 0.001340 -0.005774
# 3 0.001542 -0.005075 0.014743 0.006526 -0.008524 -0.000859
# 4 0.009680 -0.000950 0.006526 0.038680 -0.012655 -0.002897
# 5 -0.006007 0.001340 -0.008524 -0.012655 0.039471 0.006144
# 6 -0.000154 -0.005774 -0.000859 -0.002897 0.006144 0.022392
#
#
# Mechanical properties :
#
#
# Convention : Reuss Voigt Hill
#
# Bulk Modulus (GPa) = 44.46880 81.85983 63.16431
# Shear Modulus (GPa) = 30.55530 41.03111 35.79321
#
# Velocity S-wave (km/s) = 3.71345 4.30319 4.01915
# Velocity P-wave (km/s) = 6.20122 7.85070 7.07420
#
# Compressibility (1/GPa) = 0.02248768
#
# Stress axis : x y z
#
# Youngs Moduli (GPa) = 76.46932 89.10457 67.82711
#
# Poissons Ratio (x) = 0.42279 -0.10461
# Poissons Ratio (y) = 0.36284 0.34424
# Poissons Ratio (z) = -0.11794 0.45223
#
# Static dielectric constant tensor:
#      x y z
#    x 4.405490 0.874870 -0.236380 
#    y 0.874870 6.181350 -0.904560 
#    z -0.236380 -0.904560 4.199540 
# 
# 
# High freq. dielectric constant tensor:
#      x y z
#    x 1.892140 0.013630 0.002250 
#    y 0.013630 1.901560 -0.018410 
#    z 0.002250 -0.018410 1.848820 
# 
# From -- ./inp_files/28283.got.cif
#   From: 2010.06.25/outbox.cif.g09.slc.cpg/sg2_15_cif.got.tgz:28283.got - 2010.06.27 13:26:56.
