data_PCOD8023001
_publ_section_title
;
Structure prediction by ZEFSAII (Michael W. Deem and Ramdas Pophale) SiO2 
 PCOD8023001
Probable space group: P -1
;
_chemical_formula_sum "Si O2"
_cell_formula_units_Z 14
_cell_length_a 8.471983
_cell_length_b 13.739208
_cell_length_c 14.297174
_cell_angle_alpha 25.657362
_cell_angle_beta 125.845799
_cell_angle_gamma 110.163135
_cell_volume 498.235653
_symmetry_space_group_name_H-M "P -1"
_symmetry_group_IT_number 2
_symmetry_cell_setting 'triclinic'
loop_
_space_group_symop_operation_xyz
x,y,z
-x,-y,-z
loop_
_atom_site_type_symbol
_atom_site_label
_atom_site_fract_x
_atom_site_fract_y
_atom_site_fract_z
Si Si1 0.004837 0.611087 0.624025
Si Si2 0.222560 0.930044 0.435031
Si Si3 0.054237 0.250309 0.796368
Si Si4 0.433730 0.579962 0.514715
Si Si5 0.568583 0.987199 0.396644
Si Si6 0.141340 0.511911 0.150316
Si Si7 0.533877 0.067784 0.101507
O O1 0.063492 0.345888 0.821355
O O2 0.031188 0.539154 0.805498
O O3 0.748333 0.848306 0.306646
O O4 0.188016 0.696139 0.591065
O O5 0.386984 0.846850 0.654656
O O6 0.331129 0.003373 0.323252
O O7 0.969657 0.175112 0.167793
O O8 0.844311 0.194091 0.764468
O O9 0.000000 0.500000 0.500000
O O10 0.318073 0.015742 0.063535
O O11 0.500000 0.500000 0.500000
O O12 0.616637 0.641263 0.572100
O O13 0.457082 0.341181 0.789978
O O14 0.778802 0.672986 0.754527
O O15 0.578230 0.092684 0.206007
#
# Coordination Sequence:
#
# PCOD8023001 Si02
#       7
#     2   2   2   2   2   2   2
#     4  11  23  42  70  98 131 179 224 271 336 392
#     4  11  24  46  70  98 136 173 222 282 327 406
#     4  10  23  40  64  96 136 174 218 275 328 386
#     4  11  22  42  68  96 136 176 220 271 330 392
#     4  10  25  45  67 102 130 175 226 268 350 389
#     4  11  23  45  66 100 136 173 221 280 323 402
#     4  10  23  43  67  98 135 169 226 277 317 407
#
# _framework density 28.099153000000001
#
# number of rings (size 3 to 8) (size 9 to 14) (size 15 to 20)
#    0.000    1.429    2.857    1.286    4.000    4.571 
#    2.571    5.000    0.000    0.000    0.000    0.000 
#    0.000    0.000    0.000    0.000    0.000    0.000 
#
# Total GULP energy -173492.050787 kJ/mol
# GULP energy per Si atom -12392.289342 kJ/mol
# Density = 2.803520 g / cm^3
# Si number density = 28.099153 Si / 1000 Ang^3
#
#
#
# Elastic Constant Matrix: (Units=GPa)
#
#
# Indices 1 2 3 4 5 6 
#
# 1 127.1815 39.1125 27.5924 15.1457 7.7763 11.1251
# 2 39.1125 81.1061 -18.5623 -1.1314 -1.7679 9.8802
# 3 27.5924 -18.5623 76.9338 -2.4346 18.7349 -5.5215
# 4 15.1457 -1.1314 -2.4346 20.1035 -16.0849 2.2186
# 5 7.7763 -1.7679 18.7349 -16.0849 47.2723 3.6201
# 6 11.1251 9.8802 -5.5215 2.2186 3.6201 56.5868
#
#
#
# Elastic Compliance Matrix: (Units=1/GPa)
#
#
# Indices 1 2 3 4 5 6 
#
# 1 0.014278 -0.008591 -0.006403 -0.016438 -0.005655 -0.000926
# 2 -0.008591 0.018482 0.006999 0.011104 0.003223 -0.001497
# 3 -0.006403 0.006999 0.018468 0.003161 -0.005085 0.002040
# 4 -0.016438 0.011104 0.003161 0.089750 0.032712 -0.004010
# 5 -0.005655 0.003223 -0.005085 0.032712 0.035619 -0.003509
# 6 -0.000926 -0.001497 0.002040 -0.004010 -0.003509 0.018696
#
#
# Mechanical properties :
#
#
# Convention : Reuss Voigt Hill
#
# Bulk Modulus (GPa) = 28.37786 42.38962 35.38374
# Shear Modulus (GPa) = 22.41858 40.59777 31.50818
#
# Velocity S-wave (km/s) = 2.82767 3.80518 3.35225
# Velocity P-wave (km/s) = 4.55873 5.86723 5.25387
#
# Compressibility (1/GPa) = 0.03523874
#
# Stress axis : x y z
#
# Youngs Moduli (GPa) = 70.03667 54.10750 54.14708
#
# Poissons Ratio (x) = 0.46483 0.34672
# Poissons Ratio (y) = 0.60167 -0.37899
# Poissons Ratio (z) = 0.44846 -0.37872
#
# Static dielectric constant tensor:
#      x y z
#    x 10.716280 -8.832090 5.606510 
#    y -8.832090 20.390400 -8.895430 
#    z 5.606510 -8.895430 10.703350 
# 
# 
# High freq. dielectric constant tensor:
#      x y z
#    x 2.155900 0.007220 0.008230 
#    y 0.007220 2.117270 -0.006660 
#    z 0.008230 -0.006660 2.170870 
# 
# From -- ./inp_files/312685.got.cif
#   From: 2010.06.25/outbox.cif.g09.slc.cpg/sg2_157_cif.got.tgz:312685.got - 2010.06.27 13:26:56.
