data_PCOD8023426
_publ_section_title
;
Structure prediction by ZEFSAII (Michael W. Deem and Ramdas Pophale) SiO2 
 PCOD8023426
Probable space group: P -1
;
_chemical_formula_sum "Si O2"
_cell_formula_units_Z 16
_cell_length_a 8.490736
_cell_length_b 27.871454
_cell_length_c 11.604875
_cell_angle_alpha 146.230553
_cell_angle_beta 55.836675
_cell_angle_gamma 146.148773
_cell_volume 773.255125
_symmetry_space_group_name_H-M "P -1"
_symmetry_group_IT_number 2
_symmetry_cell_setting 'triclinic'
loop_
_space_group_symop_operation_xyz
x,y,z
-x,-y,-z
loop_
_atom_site_type_symbol
_atom_site_label
_atom_site_fract_x
_atom_site_fract_y
_atom_site_fract_z
Si Si1 0.590919 0.748857 0.827011
Si Si2 0.613142 0.444724 0.873211
Si Si3 0.877444 0.720413 0.077924
Si Si4 0.757278 0.987661 0.584599
Si Si5 0.295344 0.009221 0.122489
Si Si6 0.240337 0.731848 0.126150
Si Si7 0.592697 0.271099 0.386019
Si Si8 0.267635 0.460155 0.427372
O O1 0.529094 0.778820 0.794814
O O2 0.425479 0.598126 0.577488
O O3 0.453536 0.748262 0.992397
O O4 0.951450 0.863836 0.931202
O O5 0.445695 0.359306 0.892391
O O6 0.523910 0.341319 0.606987
O O7 0.500000 0.500000 0.000000
O O8 0.989236 0.583274 0.002636
O O9 0.066995 0.739647 0.136226
O O10 0.804918 0.632875 0.827733
O O11 0.091370 0.872347 0.247099
O O12 0.444860 0.856290 0.381710
O O13 0.668982 0.962777 0.702499
O O14 0.000000 0.000000 0.500000
O O15 0.406594 0.133737 0.259539
O O16 0.500000 0.000000 0.000000
O O17 0.956749 0.378925 0.457993
O O18 0.500000 0.500000 0.500000
#
# Coordination Sequence:
#
# PCOD8023426 Si02
#       8
#     2   2   2   2   2   2   2   2
#     4  12  23  45  73 101 137 182 235 276 346 418
#     4  10  23  41  67 106 133 166 232 290 339 398
#     4  11  24  45  68 102 136 180 232 284 340 415
#     4  12  25  45  68  95 142 183 226 279 349 415
#     4  12  28  46  66 105 142 181 233 292 350 406
#     4  11  23  43  72 100 133 183 227 283 339 414
#     4  12  24  46  72 101 140 186 235 288 341 418
#     4  12  25  43  73 104 141 183 226 285 357 414
#
# _framework density 20.691746999999999
#
# number of rings (size 3 to 8) (size 9 to 14) (size 15 to 20)
#    0.000    0.500    3.750    5.625    0.000    4.000 
#    0.000    1.875    0.000    0.000    0.000    0.000 
#    0.000    0.000    0.000    0.000    0.000    0.000 
#
# Total GULP energy -198432.437982 kJ/mol
# GULP energy per Si atom -12402.027374 kJ/mol
# Density = 2.064465 g / cm^3
# Si number density = 20.691747 Si / 1000 Ang^3
#
#
#
# Elastic Constant Matrix: (Units=GPa)
#
#
# Indices 1 2 3 4 5 6 
#
# 1 -395.7705 -459.6595 -490.0759 70.3170 113.9555 356.9404
# 2 -459.6595 -374.8939 -482.7321 82.3144 105.8970 375.1037
# 3 -490.0759 -482.7321 -430.5745 85.6657 115.9272 386.5733
# 4 70.3170 82.3144 85.6657 29.5540 -12.5530 -65.2957
# 5 113.9555 105.8970 115.9272 -12.5530 10.8411 -75.3649
# 6 356.9404 375.1037 386.5733 -65.2957 -75.3649 -229.4124
#
#
#
# Elastic Compliance Matrix: (Units=1/GPa)
#
#
# Indices 1 2 3 4 5 6 
#
# 1 0.012771 -0.004453 -0.003029 0.005094 -0.003197 0.007086
# 2 -0.004453 0.009021 -0.003791 -0.000783 0.002995 0.000673
# 3 -0.003029 -0.003791 0.008690 0.000417 0.000471 0.003458
# 4 0.005094 -0.000783 0.000417 0.025011 -0.006030 0.002210
# 5 -0.003197 0.002995 0.000471 -0.006030 0.030905 -0.007720
# 6 0.007086 0.000673 0.003458 0.002210 -0.007720 0.015501
#
#
# Mechanical properties :
#
#
# Convention : Reuss Voigt Hill
#
# Bulk Modulus (GPa) = 126.00061 -451.79710 -162.89824
# Shear Modulus (GPa) = 39.34219 -22.38821 8.47699
#
# Velocity S-wave (km/s) = 4.36517 -3.29293 2.02625
# Velocity P-wave (km/s) = 9.29692 15.27345 8.56871
#
# Compressibility (1/GPa) = 0.00793647
#
# Stress axis : x y z
#
# Youngs Moduli (GPa) = 78.30296 110.85007 115.07499
#
# Poissons Ratio (x) = 0.49356 0.34857
# Poissons Ratio (y) = 0.34865 0.43627
# Poissons Ratio (z) = 0.23718 0.42026
#
# Static dielectric constant tensor:
#      x y z
#    x 3.778210 -0.058180 -0.246610 
#    y -0.058180 4.423960 0.164160 
#    z -0.246610 0.164160 3.717100 
# 
# 
# High freq. dielectric constant tensor:
#      x y z
#    x 1.809620 0.001060 -0.005090 
#    y 0.001060 1.833600 0.001570 
#    z -0.005090 0.001570 1.826220 
# 
# From -- ./inp_files/207759.got.cif
#   From: 2010.06.25/outbox.cif.g09.slc.cpg/sg2_104_cif.got.tgz:207759.got - 2010.06.27 13:26:56.
