data_PCOD8023643
_publ_section_title
;
Structure prediction by ZEFSAII (Michael W. Deem and Ramdas Pophale) SiO2 
 PCOD8023643
Probable space group: P -1
;
_chemical_formula_sum "Si O2"
_cell_formula_units_Z 16
_cell_length_a 16.873202
_cell_length_b 11.394299
_cell_length_c 8.212649
_cell_angle_alpha 138.296651
_cell_angle_beta 136.588787
_cell_angle_gamma 44.133512
_cell_volume 666.678431
_symmetry_space_group_name_H-M "P -1"
_symmetry_group_IT_number 2
_symmetry_cell_setting 'triclinic'
loop_
_space_group_symop_operation_xyz
x,y,z
-x,-y,-z
loop_
_atom_site_type_symbol
_atom_site_label
_atom_site_fract_x
_atom_site_fract_y
_atom_site_fract_z
Si Si1 0.160054 0.142937 0.061203
Si Si2 0.020739 0.031733 0.251861
Si Si3 0.919359 0.458549 0.480875
Si Si4 0.520891 0.179938 0.279993
Si Si5 0.397135 0.502452 0.628318
Si Si6 0.253794 0.874354 0.647086
Si Si7 0.644172 0.562469 0.136709
Si Si8 0.392628 0.035271 0.505304
O O1 0.108493 0.372199 0.250020
O O2 0.267197 0.040018 0.242362
O O3 0.216126 0.077864 0.895677
O O4 0.060048 0.046877 0.834975
O O5 0.995601 0.255716 0.471743
O O6 0.159531 0.902908 0.386736
O O7 0.000000 0.000000 0.000000
O O8 0.792446 0.439010 0.201148
O O9 0.000000 0.500000 0.500000
O O10 0.398050 0.369508 0.334427
O O11 0.609012 0.216196 0.317833
O O12 0.583206 0.129524 0.499112
O O13 0.500000 0.000000 0.000000
O O14 0.276700 0.702832 0.634860
O O15 0.375315 0.412237 0.670743
O O16 0.539525 0.498587 0.837311
O O17 0.624961 0.763343 0.229632
O O18 0.500000 0.000000 0.500000
#
# Coordination Sequence:
#
# PCOD8023643 Si02
#       8
#     2   2   2   2   2   2   2   2
#     4  11  25  47  73 106 146 188 250 300 368 437
#     4  12  26  50  75 103 145 196 252 302 362 442
#     4  11  25  45  76 110 137 197 249 301 363 434
#     4  12  26  42  67 108 151 187 236 296 369 440
#     4  11  24  46  71 111 142 196 235 301 372 434
#     4  12  28  46  71 107 148 188 241 306 368 438
#     4  10  23  41  78 102 143 183 250 295 362 441
#     4  11  21  42  73 103 142 188 235 297 362 436
#
# _framework density 23.999576999999999
#
# number of rings (size 3 to 8) (size 9 to 14) (size 15 to 20)
#    0.000    0.750    2.500    4.500    8.750    0.500 
#    4.500    0.000    0.000    0.000    0.000    0.000 
#    0.000    0.000    0.000    0.000    0.000    0.000 
#
# Total GULP energy -198217.146230 kJ/mol
# GULP energy per Si atom -12388.571639 kJ/mol
# Density = 2.394495 g / cm^3
# Si number density = 23.999577 Si / 1000 Ang^3
#
#
#
# Elastic Constant Matrix: (Units=GPa)
#
#
# Indices 1 2 3 4 5 6 
#
# 1 75.0495 19.2684 15.5741 11.3396 -3.6912 -12.4698
# 2 19.2684 126.8466 41.9579 12.9127 -2.1678 -3.8324
# 3 15.5741 41.9579 95.0011 16.3030 -9.4012 -11.3328
# 4 11.3396 12.9127 16.3030 32.2892 -10.6569 0.4963
# 5 -3.6912 -2.1678 -9.4012 -10.6569 46.5809 4.2141
# 6 -12.4698 -3.8324 -11.3328 0.4963 4.2141 36.3051
#
#
#
# Elastic Compliance Matrix: (Units=1/GPa)
#
#
# Indices 1 2 3 4 5 6 
#
# 1 0.015362 -0.001551 -0.000454 -0.004790 -0.000503 0.005095
# 2 -0.001551 0.009513 -0.003826 -0.001568 -0.000756 -0.000614
# 3 -0.000454 -0.003826 0.013677 -0.004912 0.001092 0.003650
# 4 -0.004790 -0.001568 -0.004912 0.038398 0.007773 -0.004771
# 5 -0.000503 -0.000756 0.001092 0.007773 0.023642 -0.002762
# 6 0.005095 -0.000614 0.003650 -0.004771 -0.002762 0.030755
#
#
# Mechanical properties :
#
#
# Convention : Reuss Voigt Hill
#
# Bulk Modulus (GPa) = 37.18646 50.05535 43.62090
# Shear Modulus (GPa) = 32.90108 37.70817 35.30462
#
# Velocity S-wave (km/s) = 3.70659 3.96814 3.83959
# Velocity P-wave (km/s) = 5.81779 6.47278 6.15400
#
# Compressibility (1/GPa) = 0.02689151
#
# Stress axis : x y z
#
# Youngs Moduli (GPa) = 65.09397 105.12138 73.11669
#
# Poissons Ratio (x) = 0.16300 0.03316
# Poissons Ratio (y) = 0.10093 0.27975
# Poissons Ratio (z) = 0.02952 0.40221
#
# Static dielectric constant tensor:
#      x y z
#    x 2.533930 -0.846940 0.204500 
#    y -0.846940 4.272500 0.147730 
#    z 0.204500 0.147730 4.268760 
# 
# 
# High freq. dielectric constant tensor:
#      x y z
#    x 1.954020 -0.001880 0.000420 
#    y -0.001880 1.963290 0.011680 
#    z 0.000420 0.011680 1.941890 
# 
# From -- ./inp_files/333965.got.cif
#   From: 2010.06.25/outbox.cif.g09.slc.cpg/sg2_167_cif.got.tgz:333965.got - 2010.06.27 13:26:56.
