data_PCOD8023879
_publ_section_title
;
Structure prediction by ZEFSAII (Michael W. Deem and Ramdas Pophale) SiO2 
 PCOD8023879
Probable space group: P -1
;
_chemical_formula_sum "Si O2"
_cell_formula_units_Z 16
_cell_length_a 18.311443
_cell_length_b 12.381370
_cell_length_c 21.339026
_cell_angle_alpha 142.718077
_cell_angle_beta 19.193290
_cell_angle_gamma 150.297325
_cell_volume 779.018074
_symmetry_space_group_name_H-M "P -1"
_symmetry_group_IT_number 2
_symmetry_cell_setting 'triclinic'
loop_
_space_group_symop_operation_xyz
x,y,z
-x,-y,-z
loop_
_atom_site_type_symbol
_atom_site_label
_atom_site_fract_x
_atom_site_fract_y
_atom_site_fract_z
Si Si1 0.969054 0.797922 0.363911
Si Si2 0.720086 0.752466 0.421192
Si Si3 0.760247 0.132454 0.010844
Si Si4 0.364862 0.913818 0.767098
Si Si5 0.112434 0.471103 0.092354
Si Si6 0.278466 0.578614 0.276332
Si Si7 0.544392 0.754149 0.776385
Si Si8 0.599946 0.380150 0.944089
O O1 0.881063 0.877704 0.412784
O O2 0.747417 0.709765 0.558352
O O3 0.980663 0.599593 0.241450
O O4 0.272196 0.998073 0.231244
O O5 0.500000 0.500000 0.500000
O O6 0.593753 0.871485 0.548728
O O7 0.926195 0.770763 0.211374
O O8 0.748491 0.173045 0.111811
O O9 0.676790 0.269414 0.103420
O O10 0.557876 0.878512 0.037025
O O11 0.114094 0.782532 0.860425
O O12 0.489977 0.168876 0.776328
O O13 0.176210 0.485549 0.120908
O O14 0.389795 0.577382 0.875893
O O15 0.236171 0.549215 0.221944
O O16 0.000000 0.500000 0.500000
O O17 0.377584 0.433034 0.151992
#
# Coordination Sequence:
#
# PCOD8023879 Si02
#       8
#     2   2   2   2   2   2   2   2
#     4  11  22  35  53  87 125 164 207 235 282 354
#     4  12  22  34  56  84 127 167 200 238 290 354
#     4  11  21  38  60  85 123 167 205 241 294 355
#     4  11  25  38  61  92 121 162 203 250 305 354
#     4  12  23  39  60  92 129 157 198 247 300 353
#     4  10  23  47  68  88 113 151 206 258 310 363
#     4  11  22  35  59  86 127 168 201 239 288 357
#     4  10  23  42  67  89 112 157 204 253 303 361
#
# _framework density 20.538675999999999
#
# number of rings (size 3 to 8) (size 9 to 14) (size 15 to 20)
#    0.000    1.000    5.000    1.875    1.750    2.500 
#    0.000    0.625    0.000    0.000    0.000    0.000 
#    0.000    0.000    0.000    0.000    0.000    0.000 
#
# Total GULP energy -198485.604614 kJ/mol
# GULP energy per Si atom -12405.350288 kJ/mol
# Density = 2.049193 g / cm^3
# Si number density = 20.538676 Si / 1000 Ang^3
#
#
#
# Elastic Constant Matrix: (Units=GPa)
#
#
# Indices 1 2 3 4 5 6 
#
# 1 95.0631 20.9545 35.6953 -15.3143 -3.6180 17.1317
# 2 20.9545 44.9004 14.1336 -5.9473 2.3803 13.9672
# 3 35.6953 14.1336 124.5269 -10.4830 11.3690 9.9441
# 4 -15.3143 -5.9473 -10.4830 19.8641 -1.5944 -2.8958
# 5 -3.6180 2.3803 11.3690 -1.5944 24.4988 -0.1990
# 6 17.1317 13.9672 9.9441 -2.8958 -0.1990 29.7427
#
#
#
# Elastic Compliance Matrix: (Units=1/GPa)
#
#
# Indices 1 2 3 4 5 6 
#
# 1 0.014923 -0.003526 -0.003182 0.008401 0.004529 -0.005028
# 2 -0.003526 0.028059 -0.000785 0.003509 -0.002740 -0.010560
# 3 -0.003182 -0.000785 0.009700 0.001918 -0.004778 -0.000887
# 4 0.008401 0.003509 0.001918 0.058991 0.003838 -0.001358
# 5 0.004529 -0.002740 -0.004778 0.003838 0.044228 0.000945
# 6 -0.005028 -0.010560 -0.000887 -0.001358 0.000945 0.041647
#
#
# Mechanical properties :
#
#
# Convention : Reuss Voigt Hill
#
# Bulk Modulus (GPa) = 26.52854 45.11746 35.82300
# Shear Modulus (GPa) = 22.21222 27.73490 24.97356
#
# Velocity S-wave (km/s) = 3.29216 3.67873 3.49080
# Velocity P-wave (km/s) = 5.23407 6.32920 5.80751
#
# Compressibility (1/GPa) = 0.03769525
#
# Stress axis : x y z
#
# Youngs Moduli (GPa) = 67.00938 35.63898 103.09126
#
# Poissons Ratio (x) = 0.12567 0.32807
# Poissons Ratio (y) = 0.23629 0.08094
# Poissons Ratio (z) = 0.21325 0.02798
#
# Static dielectric constant tensor:
#      x y z
#    x 3.737020 0.134890 0.067800 
#    y 0.134890 3.606870 0.064670 
#    z 0.067800 0.064670 3.812980 
# 
# 
# High freq. dielectric constant tensor:
#      x y z
#    x 1.797610 0.017950 0.004310 
#    y 0.017950 1.790400 0.004390 
#    z 0.004310 0.004390 1.814550 
# 
# From -- ./inp_files/272560.got.cif
#   From: 2010.06.25/outbox.cif.g09.slc.cpg/sg2_137_cif.got.tgz:272560.got - 2010.06.27 13:26:56.
