data_PCOD8023226
_publ_section_title
;
Structure prediction by ZEFSAII (Michael W. Deem and Ramdas Pophale) SiO2 
 PCOD8023226
Probable space group: P -1
;
_chemical_formula_sum "Si O2"
_cell_formula_units_Z 14
_cell_length_a 9.077956
_cell_length_b 16.885899
_cell_length_c 22.959519
_cell_angle_alpha 159.732469
_cell_angle_beta 145.853410
_cell_angle_gamma 43.355420
_cell_volume 662.005523
_symmetry_space_group_name_H-M "P -1"
_symmetry_group_IT_number 2
_symmetry_cell_setting 'triclinic'
loop_
_space_group_symop_operation_xyz
x,y,z
-x,-y,-z
loop_
_atom_site_type_symbol
_atom_site_label
_atom_site_fract_x
_atom_site_fract_y
_atom_site_fract_z
Si Si1 0.959199 0.113292 0.431182
Si Si2 0.195858 0.550854 0.300589
Si Si3 0.296854 0.896378 0.778493
Si Si4 0.123471 0.040514 0.942738
Si Si5 0.984735 0.370371 0.828109
Si Si6 0.447253 0.718927 0.285387
Si Si7 0.213678 0.429850 0.479456
O O1 0.788269 0.257058 0.511430
O O2 0.798277 0.013513 0.250838
O O3 0.247760 0.303562 0.641984
O O4 0.976115 0.882294 0.313365
O O5 0.495502 0.531188 0.366959
O O6 0.043161 0.626665 0.248157
O O7 0.046782 0.289972 0.095765
O O8 0.237252 0.609392 0.556904
O O9 0.138943 0.985965 0.841197
O O10 0.615412 0.992186 0.959676
O O11 0.881824 0.844341 0.758721
O O12 0.703990 0.398880 0.786069
O O13 0.241832 0.590420 0.078694
O O14 0.500000 0.000000 0.500000
O O15 0.000000 0.500000 0.500000
#
# Coordination Sequence:
#
# PCOD8023226 Si02
#       7
#     2   2   2   2   2   2   2
#     4  11  24  40  61  95 131 161 198 262 309 359
#     4  11  24  38  63  95 127 161 206 253 310 365
#     4   9  20  38  60  87 121 159 210 253 299 367
#     4   9  20  37  62  88 118 165 206 252 303 362
#     4  10  23  41  63  90 127 165 207 246 303 379
#     4   9  22  40  60  90 117 163 210 250 297 357
#     4   9  20  39  61  90 117 163 208 250 304 361
#
# _framework density 21.147860000000001
#
# number of rings (size 3 to 8) (size 9 to 14) (size 15 to 20)
#    0.000    2.286    0.000    1.286   10.000    6.286 
#    0.000    1.429    0.000    0.000    0.000    0.000 
#    0.000    0.000    0.000    0.000    0.000    0.000 
#
# Total GULP energy -173455.469386 kJ/mol
# GULP energy per Si atom -12389.676385 kJ/mol
# Density = 2.109973 g / cm^3
# Si number density = 21.147860 Si / 1000 Ang^3
#
#
#
# Elastic Constant Matrix: (Units=GPa)
#
#
# Indices 1 2 3 4 5 6 
#
# 1 44.6736 22.8533 24.0323 -13.1893 -10.1841 -9.2390
# 2 22.8533 96.6001 36.2752 -0.0803 -3.6256 1.0708
# 3 24.0323 36.2752 119.6472 8.7393 6.6359 1.0503
# 4 -13.1893 -0.0803 8.7393 34.7786 4.2873 -6.6390
# 5 -10.1841 -3.6256 6.6359 4.2873 27.2814 2.9062
# 6 -9.2390 1.0708 1.0503 -6.6390 2.9062 19.2660
#
#
#
# Elastic Compliance Matrix: (Units=1/GPa)
#
#
# Indices 1 2 3 4 5 6 
#
# 1 0.048453 -0.007466 -0.010276 0.025360 0.012297 0.031095
# 2 -0.007466 0.013019 -0.002187 -0.003360 0.000581 -0.005430
# 3 -0.010276 -0.002187 0.011992 -0.007696 -0.005051 -0.007350
# 4 0.025360 -0.003360 -0.007696 0.045630 0.000698 0.028386
# 5 0.012297 0.000581 -0.005051 0.000698 0.042444 -0.000022
# 6 0.031095 -0.005430 -0.007350 0.028386 -0.000022 0.077304
#
#
# Mechanical properties :
#
#
# Convention : Reuss Voigt Hill
#
# Bulk Modulus (GPa) = 29.75643 47.47137 38.61390
# Shear Modulus (GPa) = 17.24730 28.11589 22.68159
#
# Velocity S-wave (km/s) = 2.85889 3.65017 3.27849
# Velocity P-wave (km/s) = 4.99989 6.34517 5.71227
#
# Compressibility (1/GPa) = 0.03360618
#
# Stress axis : x y z
#
# Youngs Moduli (GPa) = 20.63843 76.81337 83.39139
#
# Poissons Ratio (x) = 0.57350 0.85693
# Poissons Ratio (y) = 0.15409 0.18234
# Poissons Ratio (z) = 0.21208 0.16795
#
# Static dielectric constant tensor:
#      x y z
#    x 3.645690 -0.109300 0.330400 
#    y -0.109300 3.769570 0.158410 
#    z 0.330400 0.158410 4.343220 
# 
# 
# High freq. dielectric constant tensor:
#      x y z
#    x 1.796970 -0.002290 0.008790 
#    y -0.002290 1.823400 0.007990 
#    z 0.008790 0.007990 1.844650 
# 
# From -- ./inp_files/291623.got.cif
#   From: 2010.06.25/outbox.cif.g09.slc.cpg/sg2_146_cif.got.tgz:291623.got - 2010.06.27 13:26:56.
