data_PCOD8023353
_publ_section_title
;
Structure prediction by ZEFSAII (Michael W. Deem and Ramdas Pophale) SiO2 
 PCOD8023353
Probable space group: P -1
;
_chemical_formula_sum "Si O2"
_cell_formula_units_Z 14
_cell_length_a 5.088043
_cell_length_b 7.983002
_cell_length_c 18.485257
_cell_angle_alpha 77.627638
_cell_angle_beta 93.353932
_cell_angle_gamma 59.436141
_cell_volume 618.855220
_symmetry_space_group_name_H-M "P -1"
_symmetry_group_IT_number 2
_symmetry_cell_setting 'triclinic'
loop_
_space_group_symop_operation_xyz
x,y,z
-x,-y,-z
loop_
_atom_site_type_symbol
_atom_site_label
_atom_site_fract_x
_atom_site_fract_y
_atom_site_fract_z
Si Si1 0.424498 0.270944 0.836992
Si Si2 0.369125 0.361468 0.516955
Si Si3 0.239743 0.499816 0.949678
Si Si4 0.272296 0.005177 0.352586
Si Si5 0.729806 0.511831 0.769542
Si Si6 0.387794 0.790467 0.616436
Si Si7 0.773237 0.844449 0.813618
O O1 0.372479 0.300008 0.920043
O O2 0.647170 0.354753 0.814401
O O3 0.100943 0.401501 0.776230
O O4 0.556669 0.036442 0.843490
O O5 0.500000 0.500000 0.500000
O O6 0.497514 0.217729 0.462469
O O7 0.000000 0.500000 0.500000
O O8 0.520800 0.233877 0.604655
O O9 0.087395 0.695891 0.876579
O O10 0.500000 0.500000 0.000000
O O11 0.000000 0.500000 0.000000
O O12 0.531192 0.061249 0.357512
O O13 0.143537 0.063810 0.263100
O O14 0.981243 0.119422 0.392705
O O15 0.576572 0.575795 0.681411
O O16 0.621722 0.711999 0.800221
#
# Coordination Sequence:
#
# PCOD8023353 Si02
#       7
#     2   2   2   2   2   2   2
#     4  11  24  42  70 100 135 178 221 277 340 399
#     4  12  26  40  63  98 135 171 222 280 329 390
#     4  11  24  44  67  98 137 171 219 275 336 410
#     4  11  24  43  67  93 128 177 226 271 332 406
#     4  10  23  41  66 100 137 175 228 282 331 398
#     4  11  22  42  66  88 133 180 222 273 340 382
#     4  10  25  44  71 100 135 176 230 275 341 403
#
# _framework density 22.622416999999999
#
# number of rings (size 3 to 8) (size 9 to 14) (size 15 to 20)
#    0.000    1.143    0.000    6.857    4.000    8.000 
#    0.000    0.000    0.000    0.000    0.000    0.000 
#    0.000    0.000    0.000    0.000    0.000    0.000 
#
# Total GULP energy -173511.599992 kJ/mol
# GULP energy per Si atom -12393.685714 kJ/mol
# Density = 2.257093 g / cm^3
# Si number density = 22.622417 Si / 1000 Ang^3
#
#
#
# Elastic Constant Matrix: (Units=GPa)
#
#
# Indices 1 2 3 4 5 6 
#
# 1 126.9454 30.2392 34.2846 -9.8077 1.8591 -9.8603
# 2 30.2392 125.4384 45.1644 5.2806 7.2126 -2.1886
# 3 34.2846 45.1644 135.8216 -17.8645 2.0487 -11.3496
# 4 -9.8077 5.2806 -17.8645 38.8516 -9.0795 -1.4659
# 5 1.8591 7.2126 2.0487 -9.0795 35.0631 -2.7716
# 6 -9.8603 -2.1886 -11.3496 -1.4659 -2.7716 36.8099
#
#
#
# Elastic Compliance Matrix: (Units=1/GPa)
#
#
# Indices 1 2 3 4 5 6 
#
# 1 0.008956 -0.001822 -0.001204 0.002197 0.000702 0.002060
# 2 -0.001822 0.009982 -0.003474 -0.004151 -0.002936 -0.001352
# 3 -0.001204 -0.003474 0.009707 0.005150 0.001766 0.002802
# 4 0.002197 -0.004151 0.005150 0.031447 0.008884 0.003851
# 5 0.000702 -0.002936 0.001766 0.008884 0.031544 0.003287
# 6 0.002060 -0.001352 0.002802 0.003851 0.003287 0.028903
#
#
# Mechanical properties :
#
#
# Convention : Reuss Voigt Hill
#
# Bulk Modulus (GPa) = 63.92412 67.50910 65.71661
# Shear Modulus (GPa) = 36.03485 40.71275 38.37380
#
# Velocity S-wave (km/s) = 3.99542 4.24685 4.12305
# Velocity P-wave (km/s) = 7.04293 7.34534 7.19573
#
# Compressibility (1/GPa) = 0.01564355
#
# Stress axis : x y z
#
# Youngs Moduli (GPa) = 111.65495 100.17886 103.02196
#
# Poissons Ratio (x) = 0.18256 0.12407
# Poissons Ratio (y) = 0.20347 0.35790
# Poissons Ratio (z) = 0.13447 0.34803
#
# Static dielectric constant tensor:
#      x y z
#    x 3.928410 -0.003720 -0.071340 
#    y -0.003720 4.035150 -0.176740 
#    z -0.071340 -0.176740 3.644930 
# 
# 
# High freq. dielectric constant tensor:
#      x y z
#    x 1.898510 0.000470 0.003210 
#    y 0.000470 1.882000 -0.006280 
#    z 0.003210 -0.006280 1.899880 
# 
# From -- ./inp_files/548034.got.cif
#   From: 2010.06.25/outbox.cif.g09.slc.cpg/sg2_275_cif.got.tgz:548034.got - 2010.06.27 13:26:56.
