data_PCOD8023104
_publ_section_title
;
Structure prediction by ZEFSAII (Michael W. Deem and Ramdas Pophale) SiO2 
 PCOD8023104
Probable space group: P -1
;
_chemical_formula_sum "Si O2"
_cell_formula_units_Z 16
_cell_length_a 12.256877
_cell_length_b 14.693082
_cell_length_c 9.162614
_cell_angle_alpha 151.145556
_cell_angle_beta 105.539054
_cell_angle_gamma 67.123258
_cell_volume 723.838929
_symmetry_space_group_name_H-M "P -1"
_symmetry_group_IT_number 2
_symmetry_cell_setting 'triclinic'
loop_
_space_group_symop_operation_xyz
x,y,z
-x,-y,-z
loop_
_atom_site_type_symbol
_atom_site_label
_atom_site_fract_x
_atom_site_fract_y
_atom_site_fract_z
Si Si1 0.639591 0.993246 0.749565
Si Si2 0.412537 0.589313 0.827641
Si Si3 0.353022 0.338062 0.940329
Si Si4 0.837189 0.359357 0.098676
Si Si5 0.204225 0.210469 0.228478
Si Si6 0.991630 0.973399 0.130249
Si Si7 0.909402 0.382692 0.839641
Si Si8 0.591367 0.779527 0.878712
O O1 0.626789 0.867049 0.427529
O O2 0.760517 0.874467 0.713729
O O3 0.637483 0.211596 0.008394
O O4 0.527001 0.027718 0.867574
O O5 0.306666 0.594280 0.911936
O O6 0.439564 0.397722 0.463874
O O7 0.535365 0.582304 0.943718
O O8 0.227611 0.498092 0.078293
O O9 0.348631 0.300785 0.057694
O O10 0.853837 0.550581 0.452558
O O11 0.884535 0.168975 0.955236
O O12 0.912797 0.319652 0.921245
O O13 0.318612 0.139644 0.065169
O O14 0.108240 0.125008 0.004247
O O15 0.956046 0.188488 0.487766
O O16 0.000000 0.000000 0.000000
O O17 0.000000 0.500000 0.000000
#
# Coordination Sequence:
#
# PCOD8023104 Si02
#       8
#     2   2   2   2   2   2   2   2
#     4  11  21  42  65 100 140 178 223 276 341 402
#     4  10  23  41  74  99 140 172 231 283 336 404
#     4  11  24  42  70  98 135 183 223 271 347 396
#     4  11  25  49  67 103 139 176 225 289 338 402
#     4  11  24  42  69 101 135 177 226 282 336 411
#     4  12  28  45  75  98 131 185 229 283 345 405
#     4  12  29  47  70 100 140 180 230 281 336 413
#     4  10  23  40  68 104 138 176 222 289 330 409
#
# _framework density 22.104365999999999
#
# number of rings (size 3 to 8) (size 9 to 14) (size 15 to 20)
#    0.000    1.000    1.250    5.625   10.500    2.500 
#    0.000    0.000    0.000    0.000    0.000    0.000 
#    0.000    0.000    0.000    0.000    0.000    0.000 
#
# Total GULP energy -198427.340781 kJ/mol
# GULP energy per Si atom -12401.708799 kJ/mol
# Density = 2.205406 g / cm^3
# Si number density = 22.104366 Si / 1000 Ang^3
#
#
#
# Elastic Constant Matrix: (Units=GPa)
#
#
# Indices 1 2 3 4 5 6 
#
# 1 132.3028 38.8214 51.7052 1.4068 11.0467 -2.9044
# 2 38.8214 81.8709 27.8186 -0.1023 -14.4933 -7.9544
# 3 51.7052 27.8186 137.9423 5.3241 -9.3384 -2.9556
# 4 1.4068 -0.1023 5.3241 35.0843 -1.1919 -7.0632
# 5 11.0467 -14.4933 -9.3384 -1.1919 33.6482 -3.3660
# 6 -2.9044 -7.9544 -2.9556 -7.0632 -3.3660 35.5081
#
#
#
# Elastic Compliance Matrix: (Units=1/GPa)
#
#
# Indices 1 2 3 4 5 6 
#
# 1 0.011127 -0.005464 -0.003565 -0.000441 -0.007149 -0.001376
# 2 -0.005464 0.017185 -0.000739 0.001623 0.009505 0.004565
# 3 -0.003565 -0.000739 0.009010 -0.001031 0.003357 0.000406
# 4 -0.000441 0.001623 -0.001031 0.030054 0.002266 0.006435
# 5 -0.007149 0.009505 0.003357 0.002266 0.037758 0.005854
# 6 -0.001376 0.004565 0.000406 0.006435 0.005854 0.030941
#
#
# Mechanical properties :
#
#
# Convention : Reuss Voigt Hill
#
# Bulk Modulus (GPa) = 56.22641 65.42293 60.82467
# Shear Modulus (GPa) = 30.95209 36.43283 33.69246
#
# Velocity S-wave (km/s) = 3.74608 4.06423 3.90839
# Velocity P-wave (km/s) = 6.64852 7.18926 6.92417
#
# Compressibility (1/GPa) = 0.01778524
#
# Stress axis : x y z
#
# Youngs Moduli (GPa) = 89.87551 58.19122 110.98274
#
# Poissons Ratio (x) = 0.31798 0.39566
# Poissons Ratio (y) = 0.49112 0.08198
# Poissons Ratio (z) = 0.32041 0.04299
#
# Static dielectric constant tensor:
#      x y z
#    x 4.325650 0.099850 -0.039860 
#    y 0.099850 4.085130 0.049780 
#    z -0.039860 0.049780 4.094630 
# 
# 
# High freq. dielectric constant tensor:
#      x y z
#    x 1.882940 0.001580 -0.005060 
#    y 0.001580 1.867900 0.003620 
#    z -0.005060 0.003620 1.879130 
# 
# From -- ./inp_files/274901.got.cif
#   From: 2010.06.25/outbox.cif.g09.slc.cpg/sg2_138_cif.got.tgz:274901.got - 2010.06.27 13:26:56.
