data_PCOD8023010
_publ_section_title
;
Structure prediction by ZEFSAII (Michael W. Deem and Ramdas Pophale) SiO2 
 PCOD8023010
Probable space group: P -1
;
_chemical_formula_sum "Si O2"
_cell_formula_units_Z 14
_cell_length_a 14.184306
_cell_length_b 17.361010
_cell_length_c 8.506080
_cell_angle_alpha 54.610755
_cell_angle_beta 126.358597
_cell_angle_gamma 158.017709
_cell_volume 628.421911
_symmetry_space_group_name_H-M "P -1"
_symmetry_group_IT_number 2
_symmetry_cell_setting 'triclinic'
loop_
_space_group_symop_operation_xyz
x,y,z
-x,-y,-z
loop_
_atom_site_type_symbol
_atom_site_label
_atom_site_fract_x
_atom_site_fract_y
_atom_site_fract_z
Si Si1 0.820736 0.686443 0.244935
Si Si2 0.671847 0.157753 0.339046
Si Si3 0.753802 0.445235 0.590442
Si Si4 0.453186 0.734932 0.060048
Si Si5 0.966768 0.082460 0.319392
Si Si6 0.720746 0.993869 0.476813
Si Si7 0.637456 0.512270 0.935050
O O1 0.725635 0.538605 0.449557
O O2 0.656307 0.664615 0.121278
O O3 0.120033 0.920426 0.308326
O O4 0.794003 0.620906 0.124091
O O5 0.665977 0.066277 0.319456
O O6 0.971490 0.391059 0.399162
O O7 0.500000 0.000000 0.500000
O O8 0.557801 0.170235 0.139597
O O9 0.707386 0.378535 0.802311
O O10 0.546090 0.253225 0.491867
O O11 0.346032 0.578375 0.021187
O O12 0.751489 0.929544 0.153175
O O13 0.888578 0.089166 0.380622
O O14 0.233653 0.314686 0.248128
O O15 0.000000 0.000000 0.500000
#
# Coordination Sequence:
#
# PCOD8023010 Si02
#       7
#     2   2   2   2   2   2   2
#     4  10  23  40  65 101 133 177 218 277 340 397
#     4  11  26  43  68 101 133 177 230 281 334 393
#     4  10  23  44  70  93 133 177 220 277 341 395
#     4  11  25  43  69 100 133 180 230 269 335 404
#     4  11  24  42  70 104 134 178 221 274 337 407
#     4  10  23  44  67  92 138 175 222 276 332 395
#     4  11  23  40  67  98 140 173 225 278 333 400
#
# _framework density 22.278027000000002
#
# number of rings (size 3 to 8) (size 9 to 14) (size 15 to 20)
#    0.000    1.429    0.000    4.714    6.000    5.714 
#    0.000    3.571    0.000    0.000    0.000    0.000 
#    0.000    0.000    0.000    0.000    0.000    0.000 
#
# Total GULP energy -173591.110045 kJ/mol
# GULP energy per Si atom -12399.365003 kJ/mol
# Density = 2.222732 g / cm^3
# Si number density = 22.278027 Si / 1000 Ang^3
#
#
#
# Elastic Constant Matrix: (Units=GPa)
#
#
# Indices 1 2 3 4 5 6 
#
# 1 133.0769 58.0776 64.8750 -0.6757 4.8352 -12.1428
# 2 58.0776 140.6734 47.3116 21.1843 -1.7233 -2.1680
# 3 64.8750 47.3116 136.4047 -0.0727 9.5122 -3.6614
# 4 -0.6757 21.1843 -0.0727 37.9497 -7.2738 -1.1930
# 5 4.8352 -1.7233 9.5122 -7.2738 31.2293 2.1170
# 6 -12.1428 -2.1680 -3.6614 -1.1930 2.1170 33.8289
#
#
#
# Elastic Compliance Matrix: (Units=1/GPa)
#
#
# Indices 1 2 3 4 5 6 
#
# 1 0.011429 -0.003650 -0.004042 0.002258 -0.000454 0.003539
# 2 -0.003650 0.010064 -0.001817 -0.005637 0.000435 -0.001088
# 3 -0.004042 -0.001817 0.010043 0.000492 -0.002398 -0.000313
# 4 0.002258 -0.005637 0.000492 0.030780 0.006277 0.001195
# 5 -0.000454 0.000435 -0.002398 0.006277 0.034466 -0.002330
# 6 0.003539 -0.001088 -0.000313 0.001195 -0.002330 0.030915
#
#
# Mechanical properties :
#
#
# Convention : Reuss Voigt Hill
#
# Bulk Modulus (GPa) = 79.88724 83.40924 81.64824
# Shear Modulus (GPa) = 33.13744 36.59430 34.86587
#
# Velocity S-wave (km/s) = 3.86093 4.05732 3.96034
# Velocity P-wave (km/s) = 7.47079 7.71171 7.59221
#
# Compressibility (1/GPa) = 0.01251764
#
# Stress axis : x y z
#
# Youngs Moduli (GPa) = 87.49998 99.36100 99.57425
#
# Poissons Ratio (x) = 0.36267 0.40244
# Poissons Ratio (y) = 0.31938 0.18096
# Poissons Ratio (z) = 0.35364 0.18057
#
# Static dielectric constant tensor:
#      x y z
#    x 3.866500 -0.122940 -0.007550 
#    y -0.122940 4.231340 0.106330 
#    z -0.007550 0.106330 3.990640 
# 
# 
# High freq. dielectric constant tensor:
#      x y z
#    x 1.878900 -0.002660 0.004490 
#    y -0.002660 1.889340 0.001030 
#    z 0.004490 0.001030 1.874350 
# 
# From -- ./inp_files/318017.got.cif
#   From: 2010.06.25/outbox.cif.g09.slc.cpg/sg2_160_cif.got.tgz:318017.got - 2010.06.27 13:26:56.
