data_PCOD8023778
_publ_section_title
;
Structure prediction by ZEFSAII (Michael W. Deem and Ramdas Pophale) SiO2 
 PCOD8023778
Probable space group: P -1
;
_chemical_formula_sum "Si O2"
_cell_formula_units_Z 16
_cell_length_a 7.196086
_cell_length_b 17.203294
_cell_length_c 8.519219
_cell_angle_alpha 45.859947
_cell_angle_beta 90.662038
_cell_angle_gamma 97.439583
_cell_volume 745.892045
_symmetry_space_group_name_H-M "P -1"
_symmetry_group_IT_number 2
_symmetry_cell_setting 'triclinic'
loop_
_space_group_symop_operation_xyz
x,y,z
-x,-y,-z
loop_
_atom_site_type_symbol
_atom_site_label
_atom_site_fract_x
_atom_site_fract_y
_atom_site_fract_z
Si Si1 0.959438 0.840257 0.624962
Si Si2 0.603488 0.096945 0.969017
Si Si3 0.686449 0.749982 0.220907
Si Si4 0.791008 0.627260 0.087761
Si Si5 0.291134 0.979803 0.598659
Si Si6 0.039192 0.784357 0.366483
Si Si7 0.043988 0.472850 0.219354
Si Si8 0.557270 0.526019 0.646040
O O1 0.157663 0.875144 0.667966
O O2 0.011563 0.851725 0.427731
O O3 0.805743 0.913133 0.575978
O O4 0.867405 0.713804 0.831635
O O5 0.452008 0.166172 0.941688
O O6 0.755775 0.174336 0.758804
O O7 0.702848 0.044382 0.184280
O O8 0.500000 0.000000 0.000000
O O9 0.753620 0.692248 0.150572
O O10 0.581318 0.658687 0.471612
O O11 0.877289 0.814292 0.208473
O O12 0.940304 0.546390 0.231579
O O13 0.603141 0.543991 0.148229
O O14 0.500000 0.000000 0.500000
O O15 0.026897 0.655064 0.572810
O O16 0.256533 0.509838 0.229662
O O17 0.000000 0.500000 0.000000
O O18 0.500000 0.500000 0.500000
#
# Coordination Sequence:
#
# PCOD8023778 Si02
#       8
#     2   2   2   2   2   2   2   2
#     4  11  24  42  64  97 129 172 214 272 334 383
#     4  12  25  43  68  96 126 174 221 271 326 389
#     4  10  23  42  65  96 127 172 219 264 329 385
#     4  11  22  41  68  96 132 173 216 274 327 400
#     4  11  25  44  66  94 130 169 224 274 328 391
#     4  11  24  44  65  94 136 168 215 271 325 395
#     4  11  23  43  65 102 136 175 219 270 338 397
#     4   9  22  40  64  97 134 172 218 268 328 397
#
# _framework density 21.450824000000001
#
# number of rings (size 3 to 8) (size 9 to 14) (size 15 to 20)
#    0.000    1.250    1.250    3.750    0.000   14.000 
#    4.500    0.000    0.000    0.000    0.000    0.000 
#    0.000    0.000    0.000    0.000    0.000    0.000 
#
# Total GULP energy -198343.512259 kJ/mol
# GULP energy per Si atom -12396.469516 kJ/mol
# Density = 2.140200 g / cm^3
# Si number density = 21.450824 Si / 1000 Ang^3
#
#
#
# Elastic Constant Matrix: (Units=GPa)
#
#
# Indices 1 2 3 4 5 6 
#
# 1 153.5707 50.7232 52.3367 -5.1290 -1.4131 14.0181
# 2 50.7232 85.3892 19.0727 5.5491 -1.1199 4.3844
# 3 52.3367 19.0727 81.0801 -3.0106 -11.1516 13.6898
# 4 -5.1290 5.5491 -3.0106 36.8119 4.0698 1.2388
# 5 -1.4131 -1.1199 -11.1516 4.0698 33.0231 5.9439
# 6 14.0181 4.3844 13.6898 1.2388 5.9439 35.3201
#
#
#
# Elastic Compliance Matrix: (Units=1/GPa)
#
#
# Indices 1 2 3 4 5 6 
#
# 1 0.010094 -0.004896 -0.005314 0.001921 -0.001559 -0.001144
# 2 -0.004896 0.014906 -0.000444 -0.003027 0.000466 0.000292
# 3 -0.005314 -0.000444 0.017807 0.000229 0.006803 -0.005890
# 4 0.001921 -0.003027 0.000229 0.028300 -0.003265 -0.000918
# 5 -0.001559 0.000466 0.006803 -0.003265 0.034323 -0.007737
# 6 -0.001144 0.000292 -0.005890 -0.000918 -0.007737 0.032347
#
#
# Mechanical properties :
#
#
# Convention : Reuss Voigt Hill
#
# Bulk Modulus (GPa) = 46.51221 62.70059 54.60640
# Shear Modulus (GPa) = 30.07511 34.22487 32.14999
#
# Velocity S-wave (km/s) = 3.74846 3.99871 3.87560
# Velocity P-wave (km/s) = 6.36120 7.11428 6.74825
#
# Compressibility (1/GPa) = 0.02149973
#
# Stress axis : x y z
#
# Youngs Moduli (GPa) = 99.07065 67.08650 56.15860
#
# Poissons Ratio (x) = 0.32843 0.29842
# Poissons Ratio (y) = 0.48501 0.02493
# Poissons Ratio (z) = 0.52646 0.02978
#
# Static dielectric constant tensor:
#      x y z
#    x 4.196370 0.173530 -0.064780 
#    y 0.173530 3.886200 -0.198050 
#    z -0.064780 -0.198050 4.138640 
# 
# 
# High freq. dielectric constant tensor:
#      x y z
#    x 1.855540 0.006920 -0.003130 
#    y 0.006920 1.846080 -0.008440 
#    z -0.003130 -0.008440 1.844640 
# 
# From -- ./inp_files/138573.got.cif
#   From: 2010.06.25/outbox.cif.g09.slc.cpg/sg2_70_cif.got.tgz:138573.got - 2010.06.27 13:26:56.
