data_PCOD8023691
_publ_section_title
;
Structure prediction by ZEFSAII (Michael W. Deem and Ramdas Pophale) SiO2 
 PCOD8023691
Probable space group: P -1
;
_chemical_formula_sum "Si O2"
_cell_formula_units_Z 16
_cell_length_a 17.622459
_cell_length_b 20.134801
_cell_length_c 5.489800
_cell_angle_alpha 105.914549
_cell_angle_beta 75.680095
_cell_angle_gamma 159.105378
_cell_volume 667.875734
_symmetry_space_group_name_H-M "P -1"
_symmetry_group_IT_number 2
_symmetry_cell_setting 'triclinic'
loop_
_space_group_symop_operation_xyz
x,y,z
-x,-y,-z
loop_
_atom_site_type_symbol
_atom_site_label
_atom_site_fract_x
_atom_site_fract_y
_atom_site_fract_z
Si Si1 0.694572 0.984964 0.562931
Si Si2 0.976345 0.135969 0.873874
Si Si3 0.247169 0.663765 0.716832
Si Si4 0.445865 0.513600 0.861273
Si Si5 0.963282 0.556587 0.845791
Si Si6 0.220395 0.155490 0.377900
Si Si7 0.501016 0.310622 0.702534
Si Si8 0.969356 0.691489 0.702715
O O1 0.502116 0.868799 0.723681
O O2 0.603622 0.850032 0.316306
O O3 0.837643 0.065579 0.728547
O O4 0.838999 0.161372 0.493017
O O5 0.207258 0.304656 0.742191
O O6 0.022805 0.220197 0.156560
O O7 0.847652 0.960983 0.877367
O O8 0.161581 0.566018 0.427129
O O9 0.176117 0.685161 0.826131
O O10 0.166319 0.555688 0.911430
O O11 0.635483 0.664187 0.662731
O O12 0.500000 0.500000 0.000000
O O13 0.459278 0.606152 0.017712
O O14 0.018336 0.682707 0.889236
O O15 0.355937 0.233571 0.559860
O O16 0.000000 0.000000 0.500000
O O17 0.733551 0.483599 0.572595
#
# Coordination Sequence:
#
# PCOD8023691 Si02
#       8
#     2   2   2   2   2   2   2   2
#     4  11  23  40  68  98 129 173 226 280 337 408
#     4  10  25  40  61  96 130 166 222 280 341 408
#     4  10  23  44  70 100 141 187 228 279 345 409
#     4  11  24  42  64  90 127 170 217 274 337 405
#     4  10  23  44  70 100 141 187 228 279 345 409
#     4  11  24  42  64  90 127 170 217 274 337 405
#     4  10  23  42  63  92 132 170 212 272 343 398
#     4  11  23  40  68  98 129 173 226 280 337 408
#
# _framework density 23.956551000000001
#
# number of rings (size 3 to 8) (size 9 to 14) (size 15 to 20)
#    0.000    1.500    1.250    2.250    3.500   12.500 
#    0.000    0.625    0.000    0.000    0.000    0.000 
#    0.000    0.000    0.000    0.000    0.000    0.000 
#
# Total GULP energy -198233.604147 kJ/mol
# GULP energy per Si atom -12389.600259 kJ/mol
# Density = 2.390203 g / cm^3
# Si number density = 23.956551 Si / 1000 Ang^3
#
#
#
# Elastic Constant Matrix: (Units=GPa)
#
#
# Indices 1 2 3 4 5 6 
#
# 1 114.4491 58.0180 1.6723 -18.3943 20.4010 24.1735
# 2 58.0180 165.2819 8.4558 -22.5143 22.0328 24.7686
# 3 1.6723 8.4558 41.4629 -10.9837 14.2029 14.6049
# 4 -18.3943 -22.5143 -10.9837 42.3603 -6.6881 -2.4539
# 5 20.4010 22.0328 14.2029 -6.6881 30.0158 0.5219
# 6 24.1735 24.7686 14.6049 -2.4539 0.5219 43.5663
#
#
#
# Elastic Compliance Matrix: (Units=1/GPa)
#
#
# Indices 1 2 3 4 5 6 
#
# 1 0.014252 -0.001927 0.008056 0.005020 -0.010808 -0.009101
# 2 -0.001927 0.008376 0.002527 0.003193 -0.005248 -0.004297
# 3 0.008056 0.002527 0.040898 0.010571 -0.024001 -0.018734
# 4 0.005020 0.003193 0.010571 0.029197 -0.004140 -0.006450
# 5 -0.010808 -0.005248 -0.024001 -0.004140 0.054668 0.016138
# 6 -0.009101 -0.004297 -0.018734 -0.006450 0.016138 0.036170
#
#
# Mechanical properties :
#
#
# Convention : Reuss Voigt Hill
#
# Bulk Modulus (GPa) = 12.37050 50.83179 31.60114
# Shear Modulus (GPa) = 25.88053 40.05833 32.96943
#
# Velocity S-wave (km/s) = 3.29037 4.09360 3.71377
# Velocity P-wave (km/s) = 4.42836 6.60362 5.62219
#
# Compressibility (1/GPa) = 0.08083750
#
# Stress axis : x y z
#
# Youngs Moduli (GPa) = 70.16561 119.39230 24.45091
#
# Poissons Ratio (x) = 0.23002 -0.19697
# Poissons Ratio (y) = 0.13518 -0.06178
# Poissons Ratio (z) = -0.56523 -0.30167
#
# Static dielectric constant tensor:
#      x y z
#    x 4.567540 -0.145440 -0.329060 
#    y -0.145440 5.032590 0.059500 
#    z -0.329060 0.059500 4.110670 
# 
# 
# High freq. dielectric constant tensor:
#      x y z
#    x 1.961110 0.006570 -0.012130 
#    y 0.006570 1.968600 -0.001450 
#    z -0.012130 -0.001450 1.925290 
# 
# From -- ./inp_files/48086.got.cif
#   From: 2010.06.25/outbox.cif.g09.slc.cpg/sg2_25_cif.got.tgz:48086.got - 2010.06.27 13:26:56.
