data_PCOD8023040
_publ_section_title
;
Structure prediction by ZEFSAII (Michael W. Deem and Ramdas Pophale) SiO2 
 PCOD8023040
Probable space group: P -1
;
_chemical_formula_sum "Si O2"
_cell_formula_units_Z 12
_cell_length_a 16.514908
_cell_length_b 9.628856
_cell_length_c 13.544262
_cell_angle_alpha 142.937761
_cell_angle_beta 24.111620
_cell_angle_gamma 135.573079
_cell_volume 529.392957
_symmetry_space_group_name_H-M "P -1"
_symmetry_group_IT_number 2
_symmetry_cell_setting 'triclinic'
loop_
_space_group_symop_operation_xyz
x,y,z
-x,-y,-z
loop_
_atom_site_type_symbol
_atom_site_label
_atom_site_fract_x
_atom_site_fract_y
_atom_site_fract_z
Si Si1 0.240503 0.439931 0.282346
Si Si2 0.420299 0.627431 0.002141
Si Si3 0.562060 0.641791 0.368372
Si Si4 0.823661 0.363114 0.073160
Si Si5 0.941159 0.072261 0.406301
Si Si6 0.161522 0.961292 0.714531
O O1 0.318315 0.450704 0.089888
O O2 0.227205 0.692838 0.488673
O O3 0.033864 0.321237 0.442342
O O4 0.387752 0.288313 0.105158
O O5 0.280887 0.861659 0.268280
O O6 0.480892 0.494111 0.760246
O O7 0.730458 0.491548 0.155214
O O8 0.352040 0.676597 0.676519
O O9 0.647619 0.890216 0.391806
O O10 0.000000 0.500000 0.000000
O O11 0.929001 0.115966 0.781261
O O12 0.931250 0.965566 0.246814
O O13 0.000000 0.000000 0.000000
#
# Coordination Sequence:
#
# PCOD8023040 Si02
#       6
#     2   2   2   2   2   2
#     4  10  23  40  65  98 140 171 204 272 345 392
#     4  10  23  41  64  99 133 166 218 264 335 397
#     4  11  25  44  70  99 130 176 229 269 326 393
#     4  11  26  46  68  93 133 181 225 277 321 381
#     4  11  23  42  67  93 137 172 217 273 329 391
#     4  11  22  40  71 104 135 168 219 274 337 398
#
# _framework density 22.667470999999999
#
# number of rings (size 3 to 8) (size 9 to 14) (size 15 to 20)
#    0.000    1.333    1.667    4.000    9.333    2.667 
#    0.000    1.667    0.000    0.000    0.000    0.000 
#    0.000    0.000    0.000    0.000    0.000    0.000 
#
# Total GULP energy -148765.306307 kJ/mol
# GULP energy per Si atom -12397.108859 kJ/mol
# Density = 2.261588 g / cm^3
# Si number density = 22.667471 Si / 1000 Ang^3
#
#
#
# Elastic Constant Matrix: (Units=GPa)
#
#
# Indices 1 2 3 4 5 6 
#
# 1 74.8098 2.8336 22.2692 -2.6764 -5.6197 7.8590
# 2 2.8336 68.5175 17.2937 -4.3287 3.5253 9.3542
# 3 22.2692 17.2937 91.3540 6.8007 -6.1199 -3.7900
# 4 -2.6764 -4.3287 6.8007 36.3153 -1.5769 -10.2604
# 5 -5.6197 3.5253 -6.1199 -1.5769 41.7134 3.1382
# 6 7.8590 9.3542 -3.7900 -10.2604 3.1382 21.6328
#
#
#
# Elastic Compliance Matrix: (Units=1/GPa)
#
#
# Indices 1 2 3 4 5 6 
#
# 1 0.015463 0.001303 -0.004196 0.000152 0.001899 -0.007120
# 2 0.001303 0.016716 -0.003932 0.000521 -0.001195 -0.007970
# 3 -0.004196 -0.003932 0.013127 -0.001931 0.001287 0.004421
# 4 0.000152 0.000521 -0.001931 0.032098 -0.000194 0.014633
# 5 0.001899 -0.001195 0.001287 -0.000194 0.024785 -0.003635
# 6 -0.007120 -0.007970 0.004421 0.014633 -0.003635 0.060502
#
#
# Mechanical properties :
#
#
# Convention : Reuss Voigt Hill
#
# Bulk Modulus (GPa) = 31.58772 35.49716 33.54244
# Shear Modulus (GPa) = 26.75379 32.75126 29.75253
#
# Velocity S-wave (km/s) = 3.43924 3.80525 3.62686
# Velocity P-wave (km/s) = 5.45313 5.91613 5.68934
#
# Compressibility (1/GPa) = 0.03165787
#
# Stress axis : x y z
#
# Youngs Moduli (GPa) = 64.67141 59.82405 76.17986
#
# Poissons Ratio (x) = -0.07797 0.31961
# Poissons Ratio (y) = -0.08429 0.29950
# Poissons Ratio (z) = 0.27133 0.23520
#
# Static dielectric constant tensor:
#      x y z
#    x 4.218650 -0.009120 -0.252990 
#    y -0.009120 3.999080 -0.010040 
#    z -0.252990 -0.010040 4.483680 
# 
# 
# High freq. dielectric constant tensor:
#      x y z
#    x 1.898380 0.012400 -0.019500 
#    y 0.012400 1.880330 0.004620 
#    z -0.019500 0.004620 1.902710 
# 
# From -- ./inp_files/262643.got.cif
#   From: 2010.06.25/outbox.cif.g09.slc.cpg/sg2_132_cif.got.tgz:262643.got - 2010.06.27 13:26:56.
