data_PCOD8023156
_publ_section_title
;
Structure prediction by ZEFSAII (Michael W. Deem and Ramdas Pophale) SiO2 
 PCOD8023156
Probable space group: P -1
;
_chemical_formula_sum "Si O2"
_cell_formula_units_Z 16
_cell_length_a 20.125529
_cell_length_b 11.383994
_cell_length_c 8.145595
_cell_angle_alpha 92.839089
_cell_angle_beta 61.006163
_cell_angle_gamma 145.459233
_cell_volume 656.187562
_symmetry_space_group_name_H-M "P -1"
_symmetry_group_IT_number 2
_symmetry_cell_setting 'triclinic'
loop_
_space_group_symop_operation_xyz
x,y,z
-x,-y,-z
loop_
_atom_site_type_symbol
_atom_site_label
_atom_site_fract_x
_atom_site_fract_y
_atom_site_fract_z
Si Si1 0.598707 0.211233 0.250597
Si Si2 0.834566 0.376507 0.798008
Si Si3 0.079168 0.680476 0.069986
Si Si4 0.925105 0.664994 0.432068
Si Si5 0.595880 0.631662 0.637122
Si Si6 0.477789 0.281504 0.508504
Si Si7 0.456164 0.775760 0.033093
Si Si8 0.729132 0.739429 0.807969
O O1 0.616823 0.370747 0.303712
O O2 0.500000 0.000000 0.500000
O O3 0.789583 0.411287 0.995959
O O4 0.502403 0.089613 0.173952
O O5 0.966439 0.462722 0.724047
O O6 0.958468 0.616506 0.530882
O O7 0.643373 0.044655 0.934783
O O8 0.985354 0.678169 0.195930
O O9 0.000000 0.500000 0.000000
O O10 0.305705 0.999288 0.809685
O O11 0.710386 0.403619 0.667044
O O12 0.066724 0.974633 0.325792
O O13 0.610586 0.560269 0.465619
O O14 0.616590 0.791549 0.545344
O O15 0.753698 0.820019 0.595923
O O16 0.393276 0.336995 0.951370
O O17 0.382451 0.541101 0.064080
#
# Coordination Sequence:
#
# PCOD8023156 Si02
#       8
#     2   2   2   2   2   2   2   2
#     4  11  22  39  69  99 136 173 232 277 335 402
#     4  11  26  45  69  99 135 186 233 273 344 415
#     4  12  27  41  67 100 141 178 219 293 349 401
#     4  11  25  44  66 102 138 174 233 284 341 404
#     4  10  23  40  70  97 131 185 227 281 339 418
#     4  11  22  43  65  99 137 174 232 277 345 408
#     4  11  25  45  73  97 136 189 230 281 337 413
#     4  11  22  42  69  98 134 178 235 281 337 401
#
# _framework density 24.383272000000002
#
# number of rings (size 3 to 8) (size 9 to 14) (size 15 to 20)
#    0.000    1.000    3.750    3.000    7.000    0.000 
#    0.000    0.000    0.000    2.250    0.000    0.000 
#    0.000    0.000    0.000    0.000    0.000    0.000 
#
# Total GULP energy -198228.038066 kJ/mol
# GULP energy per Si atom -12389.252379 kJ/mol
# Density = 2.432777 g / cm^3
# Si number density = 24.383272 Si / 1000 Ang^3
#
#
#
# Elastic Constant Matrix: (Units=GPa)
#
#
# Indices 1 2 3 4 5 6 
#
# 1 84.2675 24.5764 0.3179 9.2444 8.9262 -8.9985
# 2 24.5764 115.0079 28.1679 8.9915 -12.5419 -15.9320
# 3 0.3179 28.1679 66.7630 21.7038 -8.5590 -7.5541
# 4 9.2444 8.9915 21.7038 35.6178 -11.2327 -4.5655
# 5 8.9262 -12.5419 -8.5590 -11.2327 39.1044 10.0708
# 6 -8.9985 -15.9320 -7.5541 -4.5655 10.0708 38.4071
#
#
#
# Elastic Compliance Matrix: (Units=1/GPa)
#
#
# Indices 1 2 3 4 5 6 
#
# 1 0.014689 -0.003628 0.003098 -0.006411 -0.006584 0.003510
# 2 -0.003628 0.011135 -0.004771 0.002419 0.003482 0.002205
# 3 0.003098 -0.004771 0.021116 -0.012786 -0.001763 0.001842
# 4 -0.006411 0.002419 -0.012786 0.040343 0.011336 -0.001190
# 5 -0.006584 0.003482 -0.001763 0.011336 0.033063 -0.007767
# 6 0.003510 0.002205 0.001842 -0.001190 -0.007767 0.030031
#
#
# Mechanical properties :
#
#
# Convention : Reuss Voigt Hill
#
# Bulk Modulus (GPa) = 27.52014 41.35142 34.43578
# Shear Modulus (GPa) = 28.88640 36.82428 32.85534
#
# Velocity S-wave (km/s) = 3.44565 3.89038 3.67475
# Velocity P-wave (km/s) = 5.20970 6.09720 5.67084
#
# Compressibility (1/GPa) = 0.03633702
#
# Stress axis : x y z
#
# Youngs Moduli (GPa) = 68.07810 89.80667 47.35809
#
# Poissons Ratio (x) = 0.32584 -0.14672
# Poissons Ratio (y) = 0.24701 0.22595
# Poissons Ratio (z) = -0.21091 0.42848
#
# Static dielectric constant tensor:
#      x y z
#    x 4.536840 -0.366410 0.210870 
#    y -0.366410 4.551350 0.191130 
#    z 0.210870 0.191130 4.564940 
# 
# 
# High freq. dielectric constant tensor:
#      x y z
#    x 1.965910 -0.019050 0.006870 
#    y -0.019050 1.958000 0.031410 
#    z 0.006870 0.031410 1.965640 
# 
# From -- ./inp_files/353572.got.cif
#   From: 2010.06.25/outbox.cif.g09.slc.cpg/sg2_177_cif.got.tgz:353572.got - 2010.06.27 13:26:56.
