data_PCOD8023668
_publ_section_title
;
Structure prediction by ZEFSAII (Michael W. Deem and Ramdas Pophale) SiO2 
 PCOD8023668
Probable space group: P -1
;
_chemical_formula_sum "Si O2"
_cell_formula_units_Z 16
_cell_length_a 15.696862
_cell_length_b 12.045216
_cell_length_c 15.468215
_cell_angle_alpha 139.953620
_cell_angle_beta 36.137692
_cell_angle_gamma 151.388775
_cell_volume 809.185360
_symmetry_space_group_name_H-M "P -1"
_symmetry_group_IT_number 2
_symmetry_cell_setting 'triclinic'
loop_
_space_group_symop_operation_xyz
x,y,z
-x,-y,-z
loop_
_atom_site_type_symbol
_atom_site_label
_atom_site_fract_x
_atom_site_fract_y
_atom_site_fract_z
Si Si1 0.051791 0.106419 0.740602
Si Si2 0.632088 0.815418 0.347360
Si Si3 0.822951 0.183469 0.086859
Si Si4 0.913575 0.115164 0.152360
Si Si5 0.972498 0.470687 0.606695
Si Si6 0.235772 0.486158 0.675439
Si Si7 0.436676 0.018416 0.345366
Si Si8 0.205363 0.376858 0.443048
O O1 0.184018 0.124294 0.716381
O O2 0.201937 0.330612 0.689198
O O3 0.926428 0.869188 0.646003
O O4 0.892352 0.109076 0.912066
O O5 0.440090 0.534396 0.328923
O O6 0.700433 0.920937 0.257742
O O7 0.570759 0.942191 0.522631
O O8 0.919771 0.212677 0.114426
O O9 0.885367 0.432471 0.162269
O O10 0.583898 0.980560 0.178091
O O11 0.049578 0.347930 0.239850
O O12 0.000000 0.000000 0.000000
O O13 0.782076 0.208370 0.640871
O O14 0.000000 0.500000 0.500000
O O15 0.158236 0.529248 0.534839
O O16 0.163278 0.338377 0.557394
O O17 0.472048 0.730786 0.623777
#
# Coordination Sequence:
#
# PCOD8023668 Si02
#       8
#     2   2   2   2   2   2   2   2
#     4  12  22  44  66  96 134 164 223 262 322 374
#     4  11  23  41  64  97 128 169 213 269 319 380
#     4  10  23  42  62  92 129 172 208 263 330 380
#     4  12  23  40  64  92 131 169 209 271 329 377
#     4  12  22  40  66  94 132 171 214 264 320 390
#     4   9  22  43  67  90 131 177 206 269 316 382
#     4   9  21  40  62  97 120 171 214 251 326 375
#     4  11  24  40  66 101 124 168 224 262 318 383
#
# _framework density 19.772971999999999
#
# number of rings (size 3 to 8) (size 9 to 14) (size 15 to 20)
#    0.750    0.500    5.000    0.750    1.750    4.000 
#    2.250    1.250    0.000    3.000    0.000    0.000 
#    0.000    0.000    0.000    0.000    0.000    0.000 
#
# Total GULP energy -198222.863616 kJ/mol
# GULP energy per Si atom -12388.928976 kJ/mol
# Density = 1.972797 g / cm^3
# Si number density = 19.772972 Si / 1000 Ang^3
#
#
#
# Elastic Constant Matrix: (Units=GPa)
#
#
# Indices 1 2 3 4 5 6 
#
# 1 56.9069 28.1534 13.1235 4.0366 7.2263 -1.7914
# 2 28.1534 117.9415 47.5251 7.9561 -0.8270 6.4071
# 3 13.1235 47.5251 118.5148 3.8114 5.8266 2.1805
# 4 4.0366 7.9561 3.8114 33.0797 -1.3509 0.5013
# 5 7.2263 -0.8270 5.8266 -1.3509 21.9487 -6.0297
# 6 -1.7914 6.4071 2.1805 0.5013 -6.0297 30.3390
#
#
#
# Elastic Compliance Matrix: (Units=1/GPa)
#
#
# Indices 1 2 3 4 5 6 
#
# 1 0.021092 -0.005051 0.000070 -0.001667 -0.006996 0.000944
# 2 -0.005051 0.011573 -0.004123 -0.001558 0.002573 -0.001909
# 3 0.000070 -0.004123 0.010252 -0.000316 -0.003046 -0.000462
# 4 -0.001667 -0.001558 -0.000316 0.030945 0.002547 0.000248
# 5 -0.006996 0.002573 -0.003046 0.002547 0.051526 0.009461
# 6 0.000944 -0.001909 -0.000462 0.000248 0.009461 0.035329
#
#
# Mechanical properties :
#
#
# Convention : Reuss Voigt Hill
#
# Bulk Modulus (GPa) = 40.47119 52.32970 46.40045
# Shear Modulus (GPa) = 26.71537 30.71090 28.71313
#
# Velocity S-wave (km/s) = 3.67973 3.94531 3.81483
# Velocity P-wave (km/s) = 6.21017 6.87580 6.55145
#
# Compressibility (1/GPa) = 0.02470893
#
# Stress axis : x y z
#
# Youngs Moduli (GPa) = 47.41234 86.41160 97.54557
#
# Poissons Ratio (x) = 0.43645 -0.00684
# Poissons Ratio (y) = 0.23947 0.40214
# Poissons Ratio (z) = -0.00332 0.35624
#
# Static dielectric constant tensor:
#      x y z
#    x 3.173200 0.039720 0.256660 
#    y 0.039720 3.612800 -0.169210 
#    z 0.256660 -0.169210 3.492430 
# 
# 
# High freq. dielectric constant tensor:
#      x y z
#    x 1.756070 -0.007890 0.002980 
#    y -0.007890 1.767200 -0.003210 
#    z 0.002980 -0.003210 1.776660 
# 
# From -- ./inp_files/532022.got.cif
#   From: 2010.06.25/outbox.cif.g09.slc.cpg/sg2_267_cif.got.tgz:532022.got - 2010.06.27 13:26:56.
