data_PCOD8023923
_publ_section_title
;
Structure prediction by ZEFSAII (Michael W. Deem and Ramdas Pophale) SiO2 
 PCOD8023923
Probable space group: P -1
;
_chemical_formula_sum "Si O2"
_cell_formula_units_Z 16
_cell_length_a 8.633359
_cell_length_b 8.488848
_cell_length_c 15.231267
_cell_angle_alpha 65.179893
_cell_angle_beta 73.014743
_cell_angle_gamma 117.621021
_cell_volume 714.585533
_symmetry_space_group_name_H-M "P -1"
_symmetry_group_IT_number 2
_symmetry_cell_setting 'triclinic'
loop_
_space_group_symop_operation_xyz
x,y,z
-x,-y,-z
loop_
_atom_site_type_symbol
_atom_site_label
_atom_site_fract_x
_atom_site_fract_y
_atom_site_fract_z
Si Si1 0.474019 0.282667 0.032529
Si Si2 0.328396 0.677079 0.612618
Si Si3 0.482830 0.783792 0.156464
Si Si4 0.344796 0.326918 0.346654
Si Si5 0.319760 0.997570 0.647640
Si Si6 0.886957 0.209250 0.747651
Si Si7 0.240741 0.760958 0.900961
Si Si8 0.015727 0.065638 0.617670
O O1 0.600030 0.280839 0.091532
O O2 0.219737 0.040884 0.133212
O O3 0.500000 0.500000 0.000000
O O4 0.561231 0.283374 0.923257
O O5 0.494590 0.714243 0.646728
O O6 0.266195 0.827121 0.616505
O O7 0.105250 0.409079 0.718076
O O8 0.437431 0.753506 0.478275
O O9 0.487387 0.604562 0.248062
O O10 0.281312 0.752372 0.233738
O O11 0.712484 0.052534 0.077380
O O12 0.163961 0.225445 0.474338
O O13 0.215076 0.190273 0.310812
O O14 0.311770 0.892728 0.765415
O O15 0.142764 0.024522 0.671120
O O16 0.959563 0.208472 0.638113
O O17 0.000000 0.500000 0.000000
#
# Coordination Sequence:
#
# PCOD8023923 Si02
#       8
#     2   2   2   2   2   2   2   2
#     4  11  27  49  69  97 134 179 226 284 333 397
#     4  10  24  41  69  99 135 176 219 279 329 404
#     4  11  26  46  67  98 139 173 225 283 333 398
#     4  10  23  42  67  99 134 178 223 273 329 406
#     4  10  24  44  66  97 142 173 221 273 339 392
#     4  11  24  42  70  96 132 178 220 279 339 393
#     4  11  27  43  71  97 131 182 224 274 336 399
#     4  10  23  42  67  98 136 177 219 271 342 396
#
# _framework density 22.390602000000001
#
# number of rings (size 3 to 8) (size 9 to 14) (size 15 to 20)
#    0.000    1.500    0.000    3.000   15.750    2.500 
#    0.000    1.250    0.000    0.000    0.000    0.000 
#    0.000    0.000    0.000    0.000    0.000    0.000 
#
# Total GULP energy -198313.653622 kJ/mol
# GULP energy per Si atom -12394.603351 kJ/mol
# Density = 2.233964 g / cm^3
# Si number density = 22.390602 Si / 1000 Ang^3
#
#
#
# Elastic Constant Matrix: (Units=GPa)
#
#
# Indices 1 2 3 4 5 6 
#
# 1 84.8250 48.4743 51.0013 1.2031 3.4638 1.9650
# 2 48.4743 114.8395 39.9757 -15.9545 -8.6478 0.1803
# 3 51.0013 39.9757 90.4087 -17.0516 10.2848 15.4914
# 4 1.2031 -15.9545 -17.0516 51.1798 -0.4871 -3.5880
# 5 3.4638 -8.6478 10.2848 -0.4871 41.0065 0.8379
# 6 1.9650 0.1803 15.4914 -3.5880 0.8379 31.8350
#
#
#
# Elastic Compliance Matrix: (Units=1/GPa)
#
#
# Indices 1 2 3 4 5 6 
#
# 1 0.022345 -0.006306 -0.011526 -0.006084 -0.000472 0.003592
# 2 -0.006306 0.012921 -0.002201 0.003598 0.003818 0.001692
# 3 -0.011526 -0.002201 0.021785 0.006163 -0.004696 -0.009059
# 4 -0.006084 0.003598 0.006163 0.022852 0.000000 -0.000068
# 5 -0.000472 0.003818 -0.004696 0.000000 0.026377 0.001599
# 6 0.003592 0.001692 -0.009059 -0.000068 0.001599 0.035539
#
#
# Mechanical properties :
#
#
# Convention : Reuss Voigt Hill
#
# Bulk Modulus (GPa) = 58.88050 63.21955 61.05003
# Shear Modulus (GPa) = 26.65984 34.84572 30.75278
#
# Velocity S-wave (km/s) = 3.45435 3.94923 3.71005
# Velocity P-wave (km/s) = 6.50109 7.00653 6.75853
#
# Compressibility (1/GPa) = 0.01698355
#
# Stress axis : x y z
#
# Youngs Moduli (GPa) = 44.75209 77.39571 45.90240
#
# Poissons Ratio (x) = 0.48807 0.52909
# Poissons Ratio (y) = 0.28222 0.10105
# Poissons Ratio (z) = 0.51583 0.17038
#
# Static dielectric constant tensor:
#      x y z
#    x 3.871500 -0.044790 -0.036810 
#    y -0.044790 4.267350 -0.210240 
#    z -0.036810 -0.210240 4.187900 
# 
# 
# High freq. dielectric constant tensor:
#      x y z
#    x 1.874480 -0.009730 0.001230 
#    y -0.009730 1.889120 -0.010040 
#    z 0.001230 -0.010040 1.887010 
# 
# From -- ./inp_files/281520.got.cif
#   From: 2010.06.25/outbox.cif.g09.slc.cpg/sg2_141_cif.got.tgz:281520.got - 2010.06.27 13:26:56.
