data_PCOD8023759
_publ_section_title
;
Structure prediction by ZEFSAII (Michael W. Deem and Ramdas Pophale) SiO2 
 PCOD8023759
Probable space group: P -1
;
_chemical_formula_sum "Si O2"
_cell_formula_units_Z 14
_cell_length_a 18.943447
_cell_length_b 14.397814
_cell_length_c 8.568057
_cell_angle_alpha 71.840220
_cell_angle_beta 117.313299
_cell_angle_gamma 161.077160
_cell_volume 609.587463
_symmetry_space_group_name_H-M "P -1"
_symmetry_group_IT_number 2
_symmetry_cell_setting 'triclinic'
loop_
_space_group_symop_operation_xyz
x,y,z
-x,-y,-z
loop_
_atom_site_type_symbol
_atom_site_label
_atom_site_fract_x
_atom_site_fract_y
_atom_site_fract_z
Si Si1 0.254617 0.825404 0.441013
Si Si2 0.359335 0.163568 0.394086
Si Si3 0.949085 0.849937 0.637603
Si Si4 0.668241 0.180001 0.788853
Si Si5 0.826065 0.222424 0.169866
Si Si6 0.361131 0.199551 0.721313
Si Si7 0.715793 0.750637 0.957375
O O1 0.392890 0.967021 0.338528
O O2 0.976716 0.442957 0.360515
O O3 0.199539 0.876105 0.376981
O O4 0.454237 0.015253 0.671628
O O5 0.654920 0.476191 0.519350
O O6 0.313348 0.166381 0.508245
O O7 0.273886 0.134906 0.183898
O O8 0.000000 0.000000 0.500000
O O9 0.123104 0.963786 0.699409
O O10 0.016489 0.954251 0.833480
O O11 0.957334 0.560689 0.850414
O O12 0.656642 0.108803 0.977794
O O13 0.635078 0.912447 0.188246
O O14 0.635892 0.567895 0.857540
O O15 0.500000 0.500000 0.000000
#
# Coordination Sequence:
#
# PCOD8023759 Si02
#       7
#     2   2   2   2   2   2   2
#     4   9  19  34  59  88 120 162 201 248 310 357
#     4  12  24  42  65  94 132 161 209 266 306 376
#     4  11  24  43  66  89 123 169 208 257 317 370
#     4   8  17  34  58  89 116 162 212 244 293 380
#     4   9  18  35  59  86 126 160 197 259 302 359
#     4  11  24  42  63  98 129 160 214 258 311 378
#     4  10  23  42  65  92 120 167 211 255 314 375
#
# _framework density 22.966353999999999
#
# number of rings (size 3 to 8) (size 9 to 14) (size 15 to 20)
#    0.857    1.143    2.857    1.286    4.000    2.286 
#    0.000    0.714    0.000    0.000    0.000    0.000 
#    0.000    0.000    0.000    0.000    0.000    0.000 
#
# Total GULP energy -173533.764507 kJ/mol
# GULP energy per Si atom -12395.268893 kJ/mol
# Density = 2.291408 g / cm^3
# Si number density = 22.966354 Si / 1000 Ang^3
#
#
#
# Elastic Constant Matrix: (Units=GPa)
#
#
# Indices 1 2 3 4 5 6 
#
# 1 59.3446 32.0923 34.3201 1.2521 -2.2109 -26.5936
# 2 32.0923 46.6389 23.7415 -14.2926 8.8093 -23.6143
# 3 34.3201 23.7415 156.5557 -15.7908 19.5828 -22.3621
# 4 1.2521 -14.2926 -15.7908 29.7255 -5.0278 5.7216
# 5 -2.2109 8.8093 19.5828 -5.0278 30.3294 -1.5009
# 6 -26.5936 -23.6143 -22.3621 5.7216 -1.5009 38.3343
#
#
#
# Elastic Compliance Matrix: (Units=1/GPa)
#
#
# Indices 1 2 3 4 5 6 
#
# 1 0.041663 -0.027719 -0.006845 -0.018668 0.012964 0.011129
# 2 -0.027719 0.055771 0.004008 0.024874 -0.016035 0.013123
# 3 -0.006845 0.004008 0.008899 0.005506 -0.006406 0.001840
# 4 -0.018668 0.024874 0.005506 0.048980 -0.004114 -0.001888
# 5 0.012964 -0.016035 -0.006406 -0.004114 0.041910 -0.002366
# 6 0.011129 0.013123 0.001840 -0.001888 -0.002366 0.043153
#
#
# Mechanical properties :
#
#
# Convention : Reuss Voigt Hill
#
# Bulk Modulus (GPa) = 22.11309 49.20522 35.65916
# Shear Modulus (GPa) = 15.79474 31.17018 23.48246
#
# Velocity S-wave (km/s) = 2.62531 3.68803 3.20108
# Velocity P-wave (km/s) = 4.34040 6.29340 5.40583
#
# Compressibility (1/GPa) = 0.04522209
#
# Stress axis : x y z
#
# Youngs Moduli (GPa) = 24.00220 17.93061 112.36593
#
# Poissons Ratio (x) = 0.49702 0.76911
# Poissons Ratio (y) = 0.66531 -0.45037
# Poissons Ratio (z) = 0.16429 -0.07187
#
# Static dielectric constant tensor:
#      x y z
#    x 7.612930 3.836780 1.915100 
#    y 3.836780 8.066410 2.453960 
#    z 1.915100 2.453960 5.926920 
# 
# 
# High freq. dielectric constant tensor:
#      x y z
#    x 1.886360 -0.004590 -0.007060 
#    y -0.004590 1.893300 -0.007770 
#    z -0.007060 -0.007770 1.917340 
# 
# From -- ./inp_files/347566.got.cif
#   From: 2010.06.25/outbox.cif.g09.slc.cpg/sg2_174_cif.got.tgz:347566.got - 2010.06.27 13:26:56.
