data_PCOD8023222
_publ_section_title
;
Structure prediction by ZEFSAII (Michael W. Deem and Ramdas Pophale) SiO2 
 PCOD8023222
Probable space group: P -1
;
_chemical_formula_sum "Si O2"
_cell_formula_units_Z 14
_cell_length_a 17.319521
_cell_length_b 10.427054
_cell_length_c 11.273389
_cell_angle_alpha 41.330013
_cell_angle_beta 149.148170
_cell_angle_gamma 139.100754
_cell_volume 651.249931
_symmetry_space_group_name_H-M "P -1"
_symmetry_group_IT_number 2
_symmetry_cell_setting 'triclinic'
loop_
_space_group_symop_operation_xyz
x,y,z
-x,-y,-z
loop_
_atom_site_type_symbol
_atom_site_label
_atom_site_fract_x
_atom_site_fract_y
_atom_site_fract_z
Si Si1 0.340207 0.817423 0.932135
Si Si2 0.364350 0.410450 0.180036
Si Si3 0.943123 0.181663 0.580855
Si Si4 0.851706 0.390164 0.534293
Si Si5 0.672019 0.410198 0.689612
Si Si6 0.427069 0.757552 0.565897
Si Si7 0.085462 0.249725 0.088955
O O1 0.336776 0.627927 0.971782
O O2 0.323910 0.753084 0.091886
O O3 0.189573 0.885341 0.650943
O O4 0.500000 0.000000 0.000000
O O5 0.500497 0.446896 0.435847
O O6 0.422750 0.327998 0.193919
O O7 0.200665 0.251463 0.126575
O O8 0.859595 0.235631 0.548811
O O9 0.093138 0.374900 0.603105
O O10 0.999755 0.986125 0.819373
O O11 0.670100 0.333182 0.380109
O O12 0.958799 0.358245 0.807019
O O13 0.693215 0.315070 0.655436
O O14 0.812599 0.622968 0.754480
O O15 0.500000 0.000000 0.500000
#
# Coordination Sequence:
#
# PCOD8023222 Si02
#       7
#     2   2   2   2   2   2   2
#     4  11  19  35  65  97 122 157 211 263 304 359
#     4   9  19  37  62  93 118 158 208 251 301 371
#     4  11  23  38  66  92 126 159 213 257 310 362
#     4  11  24  42  60  93 126 168 206 255 308 379
#     4   9  20  37  64  90 121 158 210 250 308 361
#     4  10  23  41  63  86 127 170 204 250 322 374
#     4  11  19  41  67  91 120 163 212 258 304 365
#
# _framework density 21.497123999999999
#
# number of rings (size 3 to 8) (size 9 to 14) (size 15 to 20)
#    0.857    0.857    2.857    4.714    2.000    0.571 
#    0.000    2.857    0.000    0.000    0.000    0.000 
#    0.000    0.000    0.000    0.000    0.000    0.000 
#
# Total GULP energy -173513.692597 kJ/mol
# GULP energy per Si atom -12393.835186 kJ/mol
# Density = 2.144820 g / cm^3
# Si number density = 21.497124 Si / 1000 Ang^3
#
#
#
# Elastic Constant Matrix: (Units=GPa)
#
#
# Indices 1 2 3 4 5 6 
#
# 1 102.2282 39.4253 -2.6484 -11.8800 9.7153 11.2122
# 2 39.4253 129.1268 5.1391 -30.6630 -2.6117 16.5185
# 3 -2.6484 5.1391 45.2089 -14.1228 1.6233 5.2432
# 4 -11.8800 -30.6630 -14.1228 33.6988 5.0145 -1.2210
# 5 9.7153 -2.6117 1.6233 5.0145 15.0630 -0.4396
# 6 11.2122 16.5185 5.2432 -1.2210 -0.4396 26.1594
#
#
#
# Elastic Compliance Matrix: (Units=1/GPa)
#
#
# Indices 1 2 3 4 5 6 
#
# 1 0.013030 -0.002475 0.003666 0.005367 -0.011152 -0.004694
# 2 -0.002475 0.011762 0.002638 0.010766 -0.000420 -0.006400
# 3 0.003666 0.002638 0.028726 0.017054 -0.010925 -0.008383
# 4 0.005367 0.010766 0.017054 0.051224 -0.020791 -0.010475
# 5 -0.011152 -0.000420 -0.010925 -0.020791 0.081829 0.007639
# 6 -0.004694 -0.006400 -0.008383 -0.010475 0.007639 0.045600
#
#
# Mechanical properties :
#
#
# Convention : Reuss Voigt Hill
#
# Bulk Modulus (GPa) = 16.34589 40.04400 28.19494
# Shear Modulus (GPa) = 20.41617 30.62742 25.52179
#
# Velocity S-wave (km/s) = 3.08509 3.77864 3.44934
# Velocity P-wave (km/s) = 4.50673 6.14049 5.38592
#
# Compressibility (1/GPa) = 0.06117747
#
# Stress axis : x y z
#
# Youngs Moduli (GPa) = 76.74713 85.02242 34.81127
#
# Poissons Ratio (x) = 0.21041 -0.12762
# Poissons Ratio (y) = 0.18993 -0.09185
# Poissons Ratio (z) = -0.28137 -0.22433
#
# Static dielectric constant tensor:
#      x y z
#    x 3.661460 0.038360 -0.055840 
#    y 0.038360 3.819890 0.036990 
#    z -0.055840 0.036990 3.863350 
# 
# 
# High freq. dielectric constant tensor:
#      x y z
#    x 1.817300 0.001460 -0.009480 
#    y 0.001460 1.847480 0.005170 
#    z -0.009480 0.005170 1.840090 
# 
# From -- ./inp_files/463529.got.cif
#   From: 2010.06.25/outbox.cif.g09.slc.cpg/sg2_232_cif.got.tgz:463529.got - 2010.06.27 13:26:56.
