data_PCOD8023711
_publ_section_title
;
Structure prediction by ZEFSAII (Michael W. Deem and Ramdas Pophale) SiO2 
 PCOD8023711
Probable space group: P -1
;
_chemical_formula_sum "Si O2"
_cell_formula_units_Z 14
_cell_length_a 8.821215
_cell_length_b 9.419424
_cell_length_c 8.496324
_cell_angle_alpha 66.023404
_cell_angle_beta 75.868327
_cell_angle_gamma 97.334771
_cell_volume 604.674494
_symmetry_space_group_name_H-M "P -1"
_symmetry_group_IT_number 2
_symmetry_cell_setting 'triclinic'
loop_
_space_group_symop_operation_xyz
x,y,z
-x,-y,-z
loop_
_atom_site_type_symbol
_atom_site_label
_atom_site_fract_x
_atom_site_fract_y
_atom_site_fract_z
Si Si1 0.325764 0.177028 0.768237
Si Si2 0.786737 0.181111 0.980290
Si Si3 0.889476 0.705102 0.997515
Si Si4 0.710050 0.250035 0.635006
Si Si5 0.670575 0.468208 0.958325
Si Si6 0.805187 0.609327 0.536793
Si Si7 0.952503 0.164983 0.426102
O O1 0.518271 0.224349 0.707196
O O2 0.284220 0.282680 0.590764
O O3 0.242318 0.207480 0.940304
O O4 0.253335 0.986853 0.839595
O O5 0.760705 0.156306 0.812719
O O6 0.663062 0.281402 0.026947
O O7 0.973360 0.287473 0.907855
O O8 0.786041 0.527860 0.054107
O O9 0.989578 0.779157 0.786377
O O10 0.798183 0.442420 0.524119
O O11 0.762780 0.163690 0.503954
O O12 0.728029 0.571613 0.743391
O O13 0.500000 0.500000 0.000000
O O14 0.980044 0.720218 0.491081
O O15 0.000000 0.000000 0.500000
#
# Coordination Sequence:
#
# PCOD8023711 Si02
#       7
#     2   2   2   2   2   2   2
#     4  12  24  42  67  95 125 166 215 265 311 371
#     4  11  23  41  65  94 125 169 213 257 314 380
#     4  11  23  40  65  95 128 166 209 259 316 377
#     4  11  24  43  65  92 127 171 213 257 314 379
#     4  10  23  43  65  94 131 167 208 261 317 373
#     4  10  23  42  64  91 127 169 210 254 315 386
#     4  11  23  41  64  95 129 164 209 265 318 372
#
# _framework density 23.152953
#
# number of rings (size 3 to 8) (size 9 to 14) (size 15 to 20)
#    0.000    1.143    0.000    6.429    0.000    6.857 
#    0.000    2.143    0.000    0.000    0.000    0.000 
#    0.000    0.000    0.000    0.000    0.000    0.000 
#
# Total GULP energy -173441.064356 kJ/mol
# GULP energy per Si atom -12388.647454 kJ/mol
# Density = 2.310026 g / cm^3
# Si number density = 23.152953 Si / 1000 Ang^3
#
#
#
# Elastic Constant Matrix: (Units=GPa)
#
#
# Indices 1 2 3 4 5 6 
#
# 1 106.0196 43.7603 52.4213 18.2538 -7.3684 -21.1705
# 2 43.7603 130.0711 49.0594 -4.1752 -13.7096 -21.6239
# 3 52.4213 49.0594 65.4826 10.4946 6.3492 -14.3486
# 4 18.2538 -4.1752 10.4946 44.7260 -14.1226 -3.7886
# 5 -7.3684 -13.7096 6.3492 -14.1226 41.8998 9.6152
# 6 -21.1705 -21.6239 -14.3486 -3.7886 9.6152 40.7031
#
#
#
# Elastic Compliance Matrix: (Units=1/GPa)
#
#
# Indices 1 2 3 4 5 6 
#
# 1 0.017172 -0.000151 -0.012780 -0.002723 0.003225 0.003331
# 2 -0.000151 0.013337 -0.011301 0.006592 0.007863 0.001780
# 3 -0.012780 -0.011301 0.037737 -0.009327 -0.015603 0.003470
# 4 -0.002723 0.006592 -0.009327 0.030473 0.013732 -0.001610
# 5 0.003225 0.007863 -0.015603 0.013732 0.035552 -0.006766
# 6 0.003331 0.001780 0.003470 -0.001610 -0.006766 0.029918
#
#
# Mechanical properties :
#
#
# Convention : Reuss Voigt Hill
#
# Bulk Modulus (GPa) = 50.54917 65.78394 58.16655
# Shear Modulus (GPa) = 22.80555 35.88793 29.34674
#
# Velocity S-wave (km/s) = 3.14187 3.94132 3.56408
# Velocity P-wave (km/s) = 5.91962 7.01331 6.48954
#
# Compressibility (1/GPa) = 0.01978272
#
# Stress axis : x y z
#
# Youngs Moduli (GPa) = 58.23587 74.97768 26.49948
#
# Poissons Ratio (x) = 0.01128 0.33867
# Poissons Ratio (y) = 0.00876 0.29946
# Poissons Ratio (z) = 0.74426 0.84730
#
# Static dielectric constant tensor:
#      x y z
#    x 4.315970 0.089750 -0.038170 
#    y 0.089750 4.324380 0.088430 
#    z -0.038170 0.088430 4.233620 
# 
# 
# High freq. dielectric constant tensor:
#      x y z
#    x 1.922400 -0.008230 -0.004840 
#    y -0.008230 1.919700 0.008710 
#    z -0.004840 0.008710 1.916700 
# 
# From -- ./inp_files/157248.got.cif
#   From: 2010.06.25/outbox.cif.g09.slc.cpg/sg2_79_cif.got.tgz:157248.got - 2010.06.27 13:26:56.
