data_PCOD8023215
_publ_section_title
;
Structure prediction by ZEFSAII (Michael W. Deem and Ramdas Pophale) SiO2 
 PCOD8023215
Probable space group: P -1
;
_chemical_formula_sum "Si O2"
_cell_formula_units_Z 14
_cell_length_a 15.018725
_cell_length_b 8.461007
_cell_length_c 8.835529
_cell_angle_alpha 67.337570
_cell_angle_beta 39.293424
_cell_angle_gamma 84.526942
_cell_volume 615.357808
_symmetry_space_group_name_H-M "P -1"
_symmetry_group_IT_number 2
_symmetry_cell_setting 'triclinic'
loop_
_space_group_symop_operation_xyz
x,y,z
-x,-y,-z
loop_
_atom_site_type_symbol
_atom_site_label
_atom_site_fract_x
_atom_site_fract_y
_atom_site_fract_z
Si Si1 0.495641 0.201044 0.432836
Si Si2 0.877439 0.705699 0.061193
Si Si3 0.389649 0.656097 0.450575
Si Si4 0.170562 0.110831 0.212469
Si Si5 0.248954 0.214995 0.528628
Si Si6 0.207473 0.882687 0.490702
Si Si7 0.360438 0.437782 0.019627
O O1 0.505702 0.271911 0.566575
O O2 0.345431 0.194605 0.551511
O O3 0.500000 0.000000 0.500000
O O4 0.628930 0.353330 0.105831
O O5 0.765786 0.502284 0.246761
O O6 0.886329 0.748325 0.215134
O O7 0.809349 0.844051 0.008892
O O8 0.042785 0.724391 0.772958
O O9 0.344046 0.818750 0.378520
O O10 0.486739 0.588796 0.229709
O O11 0.216657 0.301964 0.172030
O O12 0.252769 0.979527 0.228830
O O13 0.000000 0.000000 0.500000
O O14 0.340151 0.391879 0.242226
O O15 0.191616 0.034502 0.571214
#
# Coordination Sequence:
#
# PCOD8023215 Si02
#       7
#     2   2   2   2   2   2   2
#     4  12  23  41  63  94 129 162 214 267 316 379
#     4  11  21  41  67  88 128 174 214 257 317 377
#     4  12  23  40  64  94 128 167 214 263 320 378
#     4   9  20  39  64  92 126 165 213 257 312 379
#     4  11  23  41  63  93 129 167 210 262 319 378
#     4  10  23  41  62  96 126 168 216 263 313 377
#     4  11  23  42  65  94 130 169 211 260 325 377
#
# _framework density 22.750990000000002
#
# number of rings (size 3 to 8) (size 9 to 14) (size 15 to 20)
#    0.000    1.143    4.286    2.571    0.000    2.286 
#    2.571    0.000    0.000    0.857    0.000    0.000 
#    0.000    0.000    0.000    0.000    0.000    0.000 
#
# Total GULP energy -173441.384412 kJ/mol
# GULP energy per Si atom -12388.670315 kJ/mol
# Density = 2.269921 g / cm^3
# Si number density = 22.750990 Si / 1000 Ang^3
#
#
#
# Elastic Constant Matrix: (Units=GPa)
#
#
# Indices 1 2 3 4 5 6 
#
# 1 105.7154 20.1343 37.4650 -2.0022 17.9862 -10.9849
# 2 20.1343 85.2857 37.9650 -21.9511 12.2485 -2.6421
# 3 37.4650 37.9650 92.1184 -18.0333 20.4330 -7.4804
# 4 -2.0022 -21.9511 -18.0333 33.3635 7.8852 6.2689
# 5 17.9862 12.2485 20.4330 7.8852 51.1282 -12.3432
# 6 -10.9849 -2.6421 -7.4804 6.2689 -12.3432 30.4376
#
#
#
# Elastic Compliance Matrix: (Units=1/GPa)
#
#
# Indices 1 2 3 4 5 6 
#
# 1 0.011677 -0.001387 -0.004317 -0.002985 -0.000786 0.003329
# 2 -0.001387 0.017087 -0.003530 0.011205 -0.004935 -0.004194
# 3 -0.004317 -0.003530 0.016914 0.008377 -0.006153 -0.001928
# 4 -0.002985 0.011205 0.008377 0.048156 -0.015887 -0.014407
# 5 -0.000786 -0.004935 -0.006153 -0.015887 0.029021 0.012816
# 6 0.003329 -0.004194 -0.001928 -0.014407 0.012816 0.041382
#
#
# Mechanical properties :
#
#
# Convention : Reuss Voigt Hill
#
# Bulk Modulus (GPa) = 36.75197 52.69423 44.72310
# Shear Modulus (GPa) = 26.07221 35.48955 30.78088
#
# Velocity S-wave (km/s) = 3.38891 3.95386 3.68223
# Velocity P-wave (km/s) = 5.61266 6.63744 6.14644
#
# Compressibility (1/GPa) = 0.02720943
#
# Stress axis : x y z
#
# Youngs Moduli (GPa) = 85.64186 58.52308 59.12166
#
# Poissons Ratio (x) = 0.08118 0.25522
# Poissons Ratio (y) = 0.11880 0.20872
# Poissons Ratio (z) = 0.36970 0.20661
#
# Static dielectric constant tensor:
#      x y z
#    x 5.558500 0.078950 1.061880 
#    y 0.078950 4.057350 -0.424470 
#    z 1.061880 -0.424470 4.834790 
# 
# 
# High freq. dielectric constant tensor:
#      x y z
#    x 1.915040 0.010880 0.011520 
#    y 0.010880 1.860440 -0.036300 
#    z 0.011520 -0.036300 1.912490 
# 
# From -- ./inp_files/171174.got.cif
#   From: 2010.06.25/outbox.cif.g09.slc.cpg/sg2_86_cif.got.tgz:171174.got - 2010.06.27 13:26:56.
