data_PCOD8023475
_publ_section_title
;
Structure prediction by ZEFSAII (Michael W. Deem and Ramdas Pophale) SiO2 
 PCOD8023475
Probable space group: P -1
;
_chemical_formula_sum "Si O2"
_cell_formula_units_Z 16
_cell_length_a 8.702366
_cell_length_b 12.539766
_cell_length_c 8.889731
_cell_angle_alpha 68.695540
_cell_angle_beta 121.588841
_cell_angle_gamma 124.085998
_cell_volume 681.033086
_symmetry_space_group_name_H-M "P -1"
_symmetry_group_IT_number 2
_symmetry_cell_setting 'triclinic'
loop_
_space_group_symop_operation_xyz
x,y,z
-x,-y,-z
loop_
_atom_site_type_symbol
_atom_site_label
_atom_site_fract_x
_atom_site_fract_y
_atom_site_fract_z
Si Si1 0.310659 0.872782 0.033802
Si Si2 0.023511 0.299721 0.586683
Si Si3 0.225230 0.584785 0.143813
Si Si4 0.330759 0.663177 0.479043
Si Si5 0.467802 0.500141 0.806105
Si Si6 0.862028 0.050679 0.818876
Si Si7 0.954186 0.153147 0.349475
Si Si8 0.300923 0.084402 0.485273
O O1 0.327680 0.740417 0.093172
O O2 0.266498 0.904892 0.161782
O O3 0.103540 0.835952 0.855293
O O4 0.500000 0.000000 0.000000
O O5 0.849432 0.339847 0.511819
O O6 0.001233 0.170403 0.722333
O O7 0.025318 0.284426 0.414736
O O8 0.235320 0.408316 0.696490
O O9 0.225506 0.565019 0.335196
O O10 0.374117 0.536957 0.171605
O O11 0.000000 0.500000 0.000000
O O12 0.488202 0.633608 0.676667
O O13 0.470997 0.808119 0.412332
O O14 0.500000 0.500000 0.000000
O O15 0.710293 0.936236 0.689970
O O16 0.000000 0.000000 0.000000
O O17 0.143065 0.125281 0.455548
O O18 0.749050 0.046479 0.383294
#
# Coordination Sequence:
#
# PCOD8023475 Si02
#       8
#     2   2   2   2   2   2   2   2
#     4  12  27  43  75 108 148 184 250 297 369 430
#     4  11  26  46  70 104 147 189 246 299 370 438
#     4  12  29  50  76 107 150 195 248 304 373 445
#     4  12  26  48  75 104 146 194 249 302 367 444
#     4  12  30  47  75 103 143 192 251 306 372 435
#     4  11  24  43  72 104 148 190 237 303 370 441
#     4  10  23  41  68 104 146 190 231 302 359 441
#     4  10  23  42  70 104 144 190 239 289 376 426
#
# _framework density 23.493721000000001
#
# number of rings (size 3 to 8) (size 9 to 14) (size 15 to 20)
#    0.000    0.750    2.500    3.000   10.500    1.000 
#    0.000    0.000    0.000    0.000    0.000    0.000 
#    0.000    0.000    0.000    0.000    0.000    0.000 
#
# Total GULP energy -198333.572225 kJ/mol
# GULP energy per Si atom -12395.848264 kJ/mol
# Density = 2.344025 g / cm^3
# Si number density = 23.493721 Si / 1000 Ang^3
#
#
#
# Elastic Constant Matrix: (Units=GPa)
#
#
# Indices 1 2 3 4 5 6 
#
# 1 127.2831 36.4173 34.4522 22.0655 4.0639 -26.9947
# 2 36.4173 101.6877 19.5492 14.0928 6.4192 -9.2443
# 3 34.4522 19.5492 127.8318 22.1156 -6.6644 -21.7397
# 4 22.0655 14.0928 22.1156 41.9242 -12.5508 2.7516
# 5 4.0639 6.4192 -6.6644 -12.5508 43.8929 5.2366
# 6 -26.9947 -9.2443 -21.7397 2.7516 5.2366 42.0951
#
#
#
# Elastic Compliance Matrix: (Units=1/GPa)
#
#
# Indices 1 2 3 4 5 6 
#
# 1 0.011469 -0.002185 -0.000533 -0.006589 -0.003600 0.007478
# 2 -0.002185 0.011471 -0.000485 -0.003344 -0.002674 0.001419
# 3 -0.000533 -0.000485 0.009759 -0.005174 -0.000472 0.004989
# 4 -0.006589 -0.003344 -0.005174 0.035461 0.011816 -0.011420
# 5 -0.003600 -0.002674 -0.000472 0.011816 0.027692 -0.007357
# 6 0.007478 0.001419 0.004989 -0.011420 -0.007357 0.033101
#
#
# Mechanical properties :
#
#
# Convention : Reuss Voigt Hill
#
# Bulk Modulus (GPa) = 38.03083 59.73777 48.88430
# Shear Modulus (GPa) = 34.69261 43.34137 39.01699
#
# Velocity S-wave (km/s) = 3.84692 4.29978 4.07964
# Velocity P-wave (km/s) = 5.99621 7.08048 6.56078
#
# Compressibility (1/GPa) = 0.02629446
#
# Stress axis : x y z
#
# Youngs Moduli (GPa) = 87.19086 87.17688 102.46493
#
# Poissons Ratio (x) = 0.19045 0.05459
# Poissons Ratio (y) = 0.19048 0.04970
# Poissons Ratio (z) = 0.04646 0.04228
#
# Static dielectric constant tensor:
#      x y z
#    x 4.157850 -0.110400 -0.029850 
#    y -0.110400 5.673330 -1.708620 
#    z -0.029850 -1.708620 7.589480 
# 
# 
# High freq. dielectric constant tensor:
#      x y z
#    x 1.931450 -0.008730 -0.000790 
#    y -0.008730 1.939090 0.004930 
#    z -0.000790 0.004930 1.950150 
# 
# From -- ./inp_files/186964.got.cif
#   From: 2010.06.25/outbox.cif.g09.slc.cpg/sg2_94_cif.got.tgz:186964.got - 2010.06.27 13:26:56.
