data_PCOD8023089
_publ_section_title
;
Structure prediction by ZEFSAII (Michael W. Deem and Ramdas Pophale) SiO2 
 PCOD8023089
Probable space group: P -1
;
_chemical_formula_sum "Si O2"
_cell_formula_units_Z 12
_cell_length_a 8.860102
_cell_length_b 13.307978
_cell_length_c 9.080176
_cell_angle_alpha 68.115894
_cell_angle_beta 43.131428
_cell_angle_gamma 42.801238
_cell_volume 465.829753
_symmetry_space_group_name_H-M "P -1"
_symmetry_group_IT_number 2
_symmetry_cell_setting 'triclinic'
loop_
_space_group_symop_operation_xyz
x,y,z
-x,-y,-z
loop_
_atom_site_type_symbol
_atom_site_label
_atom_site_fract_x
_atom_site_fract_y
_atom_site_fract_z
Si Si1 0.603194 0.736277 0.356468
Si Si2 0.159494 0.059120 0.876469
Si Si3 0.192627 0.495127 0.240040
Si Si4 0.655802 0.368387 0.226838
Si Si5 0.189473 0.089705 0.513245
Si Si6 0.531713 0.646533 0.174831
O O1 0.535056 0.642060 0.522887
O O2 0.658119 0.696919 0.164389
O O3 0.934977 0.660340 0.239790
O O4 0.318128 0.921765 0.487315
O O5 0.129984 0.132793 0.703727
O O6 0.539771 0.919332 0.727286
O O7 0.992522 0.188357 0.052771
O O8 0.000000 0.000000 0.000000
O O9 0.464570 0.461940 0.157132
O O10 0.000000 0.500000 0.500000
O O11 0.371879 0.357922 0.060985
O O12 0.690599 0.476087 0.209507
O O13 0.854553 0.225272 0.594075
#
# Coordination Sequence:
#
# PCOD8023089 Si02
#       6
#     2   2   2   2   2   2
#     4  11  24  44  67 102 146 184 225 284 354 415
#     4  11  23  43  70 101 137 180 236 293 335 409
#     4  10  23  40  67  98 131 183 236 284 336 404
#     4  11  23  42  67  99 137 183 238 281 337 411
#     4  11  25  41  72 101 138 185 230 284 354 405
#     4  12  24  43  68 104 144 182 229 289 349 416
#
# _framework density 25.760486
#
# number of rings (size 3 to 8) (size 9 to 14) (size 15 to 20)
#    0.000    1.000    3.333    3.000    4.667    1.333 
#    0.000    0.833    0.000    0.000    0.000    0.000 
#    0.000    0.000    0.000    0.000    0.000    0.000 
#
# Total GULP energy -148697.251760 kJ/mol
# GULP energy per Si atom -12391.437647 kJ/mol
# Density = 2.570185 g / cm^3
# Si number density = 25.760486 Si / 1000 Ang^3
#
#
#
# Elastic Constant Matrix: (Units=GPa)
#
#
# Indices 1 2 3 4 5 6 
#
# 1 104.9193 31.7189 49.8910 16.7821 -4.3069 3.8100
# 2 31.7189 98.0598 33.8067 26.5203 -8.1335 11.4932
# 3 49.8910 33.8067 117.1008 24.1571 -5.7102 -3.2164
# 4 16.7821 26.5203 24.1571 42.7884 0.9451 -0.6724
# 5 -4.3069 -8.1335 -5.7102 0.9451 50.5391 10.0537
# 6 3.8100 11.4932 -3.2164 -0.6724 10.0537 30.4274
#
#
#
# Elastic Compliance Matrix: (Units=1/GPa)
#
#
# Indices 1 2 3 4 5 6 
#
# 1 0.012554 -0.001942 -0.004558 -0.001183 0.000570 -0.001535
# 2 -0.001942 0.014542 -0.001866 -0.007380 0.003444 -0.006748
# 3 -0.004558 -0.001866 0.011866 -0.003723 0.000251 0.002364
# 4 -0.001183 -0.007380 -0.003723 0.030647 -0.003128 0.004253
# 5 0.000570 0.003444 0.000251 -0.003128 0.022218 -0.008756
# 6 -0.001535 -0.006748 0.002364 0.004253 -0.008756 0.038843
#
#
# Mechanical properties :
#
#
# Convention : Reuss Voigt Hill
#
# Bulk Modulus (GPa) = 44.98551 61.21258 53.09905
# Shear Modulus (GPa) = 32.29720 38.39522 35.34621
#
# Velocity S-wave (km/s) = 3.54467 3.86485 3.70822
# Velocity P-wave (km/s) = 5.85268 6.61286 6.24435
#
# Compressibility (1/GPa) = 0.02222938
#
# Stress axis : x y z
#
# Youngs Moduli (GPa) = 79.65441 68.76723 84.27734
#
# Poissons Ratio (x) = 0.13356 0.38416
# Poissons Ratio (y) = 0.15471 0.15723
# Poissons Ratio (z) = 0.36309 0.12829
#
# Static dielectric constant tensor:
#      x y z
#    x 4.855610 -0.091400 -0.233870 
#    y -0.091400 4.315760 0.215320 
#    z -0.233870 0.215320 5.074020 
# 
# 
# High freq. dielectric constant tensor:
#      x y z
#    x 2.024720 0.010270 -0.014890 
#    y 0.010270 2.006790 0.017320 
#    z -0.014890 0.017320 2.054490 
# 
# From -- ./inp_files/186280.got.cif
#   From: 2010.06.25/outbox.cif.g09.slc.cpg/sg2_94_cif.got.tgz:186280.got - 2010.06.27 13:26:56.
