data_PCOD8023808
_publ_section_title
;
Structure prediction by ZEFSAII (Michael W. Deem and Ramdas Pophale) SiO2 
 PCOD8023808
Probable space group: P -1
;
_chemical_formula_sum "Si O2"
_cell_formula_units_Z 16
_cell_length_a 11.208159
_cell_length_b 11.710468
_cell_length_c 6.333498
_cell_angle_alpha 116.581922
_cell_angle_beta 71.736194
_cell_angle_gamma 106.783537
_cell_volume 695.087660
_symmetry_space_group_name_H-M "P -1"
_symmetry_group_IT_number 2
_symmetry_cell_setting 'triclinic'
loop_
_space_group_symop_operation_xyz
x,y,z
-x,-y,-z
loop_
_atom_site_type_symbol
_atom_site_label
_atom_site_fract_x
_atom_site_fract_y
_atom_site_fract_z
Si Si1 0.120284 0.285398 0.475032
Si Si2 0.753988 0.920986 0.011248
Si Si3 0.900629 0.383158 0.853640
Si Si4 0.728763 0.169481 0.034451
Si Si5 0.526677 0.103875 0.759693
Si Si6 0.277096 0.251917 0.745438
Si Si7 0.552935 0.289471 0.545895
Si Si8 0.733345 0.525106 0.760306
O O1 0.158442 0.159812 0.239732
O O2 0.167178 0.289104 0.693549
O O3 0.173612 0.417279 0.432158
O O4 0.970224 0.288814 0.588799
O O5 0.600940 0.894775 0.027916
O O6 0.768426 0.886854 0.224550
O O7 0.803115 0.071604 0.044576
O O8 0.801660 0.438136 0.805473
O O9 0.828542 0.293156 0.004016
O O10 0.000000 0.500000 0.000000
O O11 0.626035 0.215757 0.279702
O O12 0.647512 0.087596 0.823810
O O13 0.566292 0.242095 0.739050
O O14 0.500000 0.000000 0.500000
O O15 0.403587 0.257363 0.536936
O O16 0.313402 0.357903 0.996404
O O17 0.610283 0.441840 0.646065
#
# Coordination Sequence:
#
# PCOD8023808 Si02
#       8
#     2   2   2   2   2   2   2   2
#     4  11  24  43  70  91 137 185 221 288 329 388
#     4  10  24  40  67 101 133 175 222 270 347 405
#     4  12  25  47  71  95 136 182 238 282 324 394
#     4  12  25  42  69 104 134 182 226 272 343 403
#     4  11  22  41  67 101 139 174 219 277 336 410
#     4  10  23  42  66 101 139 173 217 283 342 406
#     4  11  23  39  69 103 137 174 218 283 343 408
#     4  11  23  45  67 101 129 178 237 275 343 398
#
# _framework density 23.018681000000001
#
# number of rings (size 3 to 8) (size 9 to 14) (size 15 to 20)
#    0.000    1.000    3.750    2.625    3.500    1.000 
#    0.000    0.625    0.000    0.000    0.000    0.000 
#    0.000    0.000    0.000    0.000    0.000    0.000 
#
# Total GULP energy -198310.806009 kJ/mol
# GULP energy per Si atom -12394.425376 kJ/mol
# Density = 2.296629 g / cm^3
# Si number density = 23.018681 Si / 1000 Ang^3
#
#
#
# Elastic Constant Matrix: (Units=GPa)
#
#
# Indices 1 2 3 4 5 6 
#
# 1 57.7106 41.3288 24.2060 -12.9142 -15.7738 -4.5484
# 2 41.3288 138.1312 29.9791 -21.5485 -0.8264 -17.6174
# 3 24.2060 29.9791 83.0074 -2.9159 -16.7635 -3.4242
# 4 -12.9142 -21.5485 -2.9159 31.7938 0.7241 1.1457
# 5 -15.7738 -0.8264 -16.7635 0.7241 40.3417 3.9295
# 6 -4.5484 -17.6174 -3.4242 1.1457 3.9295 23.5373
#
#
#
# Elastic Compliance Matrix: (Units=1/GPa)
#
#
# Indices 1 2 3 4 5 6 
#
# 1 0.027291 -0.006637 -0.003586 0.006123 0.009134 -0.002039
# 2 -0.006637 0.011424 -0.002578 0.004641 -0.004234 0.007374
# 3 -0.003586 -0.002578 0.014895 -0.001907 0.004883 -0.001178
# 4 0.006123 0.004641 -0.001907 0.036804 0.000797 0.002455
# 5 0.009134 -0.004234 0.004883 0.000797 0.030861 -0.005885
# 6 -0.002039 0.007374 -0.001178 0.002455 -0.005885 0.048303
#
#
# Mechanical properties :
#
#
# Convention : Reuss Voigt Hill
#
# Bulk Modulus (GPa) = 35.70528 52.20855 43.95692
# Shear Modulus (GPa) = 24.44794 31.35690 27.90242
#
# Velocity S-wave (km/s) = 3.26251 3.69485 3.48539
# Velocity P-wave (km/s) = 5.45317 6.39787 5.94432
#
# Compressibility (1/GPa) = 0.02800706
#
# Stress axis : x y z
#
# Youngs Moduli (GPa) = 36.64184 87.53375 67.13854
#
# Poissons Ratio (x) = 0.58100 0.24074
# Poissons Ratio (y) = 0.24321 0.17310
# Poissons Ratio (z) = 0.13139 0.22569
#
# Static dielectric constant tensor:
#      x y z
#    x 3.941290 -0.153220 -0.159010 
#    y -0.153220 4.458490 -0.240960 
#    z -0.159010 -0.240960 4.115030 
# 
# 
# High freq. dielectric constant tensor:
#      x y z
#    x 1.890380 -0.018070 -0.017180 
#    y -0.018070 1.919750 -0.015110 
#    z -0.017180 -0.015110 1.912680 
# 
# From -- ./inp_files/71714.got.cif
#   From: 2010.06.25/outbox.cif.g09.slc.cpg/sg2_36_cif.got.tgz:71714.got - 2010.06.27 13:26:56.
