data_PCOD8023054
_publ_section_title
;
Structure prediction by ZEFSAII (Michael W. Deem and Ramdas Pophale) SiO2 
 PCOD8023054
Probable space group: P -1
;
_chemical_formula_sum "Si O2"
_cell_formula_units_Z 16
_cell_length_a 15.946342
_cell_length_b 18.229645
_cell_length_c 5.285539
_cell_angle_alpha 74.385774
_cell_angle_beta 80.718936
_cell_angle_gamma 29.196019
_cell_volume 712.902458
_symmetry_space_group_name_H-M "P -1"
_symmetry_group_IT_number 2
_symmetry_cell_setting 'triclinic'
loop_
_space_group_symop_operation_xyz
x,y,z
-x,-y,-z
loop_
_atom_site_type_symbol
_atom_site_label
_atom_site_fract_x
_atom_site_fract_y
_atom_site_fract_z
Si Si1 0.015409 0.398270 0.076256
Si Si2 0.548975 0.172022 0.517049
Si Si3 0.636124 0.422750 0.207044
Si Si4 0.408600 0.040080 0.259447
Si Si5 0.291890 0.732165 0.275976
Si Si6 0.160456 0.523377 0.413810
Si Si7 0.734030 0.080701 0.000772
Si Si8 0.890112 0.271723 0.873480
O O1 0.211017 0.220604 0.198725
O O2 0.892363 0.466872 0.297945
O O3 0.000000 0.500000 0.000000
O O4 0.965601 0.403932 0.820539
O O5 0.347869 0.345715 0.406968
O O6 0.601323 0.170975 0.753931
O O7 0.583608 0.056414 0.642557
O O8 0.654994 0.122967 0.273186
O O9 0.505073 0.570983 0.317479
O O10 0.736149 0.270035 0.416296
O O11 0.500000 0.500000 0.000000
O O12 0.789668 0.361028 0.107258
O O13 0.500000 0.000000 0.500000
O O14 0.500000 0.000000 0.000000
O O15 0.208843 0.875475 0.086318
O O16 0.200588 0.734696 0.168918
O O17 0.153727 0.619692 0.368251
O O18 0.903661 0.896682 0.043499
#
# Coordination Sequence:
#
# PCOD8023054 Si02
#       8
#     2   2   2   2   2   2   2   2
#     4  12  25  46  72 103 134 173 221 266 329 399
#     4  12  27  46  66 102 135 176 223 272 337 391
#     4   9  21  39  64  92 126 168 231 269 333 388
#     4  12  24  45  75 102 139 175 214 271 334 398
#     4  10  23  40  66  91 130 179 226 273 333 393
#     4  12  26  44  71  98 135 176 221 277 321 392
#     4  12  27  43  66  96 139 175 222 280 332 392
#     4  11  25  41  65  95 131 173 226 274 335 388
#
# _framework density 22.443465
#
# number of rings (size 3 to 8) (size 9 to 14) (size 15 to 20)
#    0.000    0.750    0.000    6.750   12.250    0.500 
#    0.000    0.000    0.000    0.000    0.000    0.000 
#    0.000    0.000    0.000    0.000    0.000    0.000 
#
# Total GULP energy -198272.414299 kJ/mol
# GULP energy per Si atom -12392.025894 kJ/mol
# Density = 2.239238 g / cm^3
# Si number density = 22.443465 Si / 1000 Ang^3
#
#
#
# Elastic Constant Matrix: (Units=GPa)
#
#
# Indices 1 2 3 4 5 6 
#
# 1 117.1461 24.4003 42.7943 -6.4363 -20.2170 18.3582
# 2 24.4003 114.7400 23.0212 -21.8072 -13.7700 -8.5392
# 3 42.7943 23.0212 125.7543 4.5594 -18.2929 2.8982
# 4 -6.4363 -21.8072 4.5594 45.3229 1.5165 -6.8253
# 5 -20.2170 -13.7700 -18.2929 1.5165 55.0736 -5.0583
# 6 18.3582 -8.5392 2.8982 -6.8253 -5.0583 39.5054
#
#
#
# Elastic Compliance Matrix: (Units=1/GPa)
#
#
# Indices 1 2 3 4 5 6 
#
# 1 0.011218 -0.001860 -0.003051 0.000167 0.002168 -0.005085
# 2 -0.001860 0.011079 -0.001441 0.005844 0.001871 0.004614
# 3 -0.003051 -0.001441 0.009584 -0.002110 0.001786 0.000267
# 4 0.000167 0.005844 -0.002110 0.025980 0.000649 0.005912
# 5 0.002168 0.001871 0.001786 0.000649 0.020177 0.001961
# 6 -0.005085 0.004614 0.000267 0.005912 0.001961 0.029926
#
#
# Mechanical properties :
#
#
# Convention : Reuss Voigt Hill
#
# Bulk Modulus (GPa) = 52.14440 59.78577 55.96508
# Shear Modulus (GPa) = 39.35130 45.80869 42.58000
#
# Velocity S-wave (km/s) = 4.19185 4.52272 4.36042
# Velocity P-wave (km/s) = 6.83468 7.34640 7.09516
#
# Compressibility (1/GPa) = 0.01917752
#
# Stress axis : x y z
#
# Youngs Moduli (GPa) = 89.13902 90.26371 104.33980
#
# Poissons Ratio (x) = 0.16791 0.31829
# Poissons Ratio (y) = 0.16582 0.15036
# Poissons Ratio (z) = 0.27192 0.13008
#
# Static dielectric constant tensor:
#      x y z
#    x 4.165860 -0.178100 -0.246160 
#    y -0.178100 5.286510 0.595350 
#    z -0.246160 0.595350 4.722560 
# 
# 
# High freq. dielectric constant tensor:
#      x y z
#    x 1.888260 -0.005380 -0.010690 
#    y -0.005380 1.894760 0.000000 
#    z -0.010690 0.000000 1.906960 
# 
# From -- ./inp_files/37791.got.cif
#   From: 2010.06.25/outbox.cif.g09.slc.cpg/sg2_19_cif.got.tgz:37791.got - 2010.06.27 13:26:56.
