data_PCOD8023175
_publ_section_title
;
Structure prediction by ZEFSAII (Michael W. Deem and Ramdas Pophale) SiO2 
 PCOD8023175
Probable space group: P -1
;
_chemical_formula_sum "Si O2"
_cell_formula_units_Z 8
_cell_length_a 7.131895
_cell_length_b 15.978886
_cell_length_c 11.429118
_cell_angle_alpha 158.008064
_cell_angle_beta 124.221915
_cell_angle_gamma 55.484960
_cell_volume 398.985839
_symmetry_space_group_name_H-M "P -1"
_symmetry_group_IT_number 2
_symmetry_cell_setting 'triclinic'
loop_
_space_group_symop_operation_xyz
x,y,z
-x,-y,-z
loop_
_atom_site_type_symbol
_atom_site_label
_atom_site_fract_x
_atom_site_fract_y
_atom_site_fract_z
Si Si1 0.914102 0.354874 0.442876
Si Si2 0.373867 0.475127 0.803487
Si Si3 0.028883 0.800076 0.983558
Si Si4 0.341953 0.820184 0.670200
O O1 0.919674 0.176753 0.107128
O O2 0.718142 0.323629 0.425623
O O3 0.165954 0.328753 0.559266
O O4 0.861575 0.606756 0.693023
O O5 0.265090 0.725994 0.042635
O O6 0.550949 0.353979 0.614785
O O7 0.500000 0.500000 0.000000
O O8 0.891758 0.040605 0.286901
O O9 0.500000 0.000000 0.000000
#
# Coordination Sequence:
#
# PCOD8023175 Si02
#       4
#     2   2   2   2
#     4   9  20  41  58  91 120 138 209 246 265 363
#     4  10  23  41  56  87 126 151 189 244 293 341
#     4   9  20  40  59  89 117 148 200 242 278 351
#     4  12  21  36  69  86 111 162 193 237 299 332
#
# _framework density 20.050836
#
# number of rings (size 3 to 8) (size 9 to 14) (size 15 to 20)
#    1.500    0.500    2.500    0.750    0.000    6.000 
#    0.000    1.250    0.000    0.000    0.000    0.000 
#    0.000    0.000    0.000    0.000    0.000    0.000 
#
# Total GULP energy -99126.445713 kJ/mol
# GULP energy per Si atom -12390.805714 kJ/mol
# Density = 2.000520 g / cm^3
# Si number density = 20.050836 Si / 1000 Ang^3
#
#
#
# Elastic Constant Matrix: (Units=GPa)
#
#
# Indices 1 2 3 4 5 6 
#
# 1 140.3399 40.2917 39.6736 -3.5317 -14.4459 27.0586
# 2 40.2917 128.7571 41.6534 -15.0079 -17.3926 -2.0345
# 3 39.6736 41.6534 39.0997 -5.1734 -15.1019 4.5323
# 4 -3.5317 -15.0079 -5.1734 42.6120 -6.0360 -7.7396
# 5 -14.4459 -17.3926 -15.1019 -6.0360 27.5489 7.2112
# 6 27.0586 -2.0345 4.5323 -7.7396 7.2112 24.5173
#
#
#
# Elastic Compliance Matrix: (Units=1/GPa)
#
#
# Indices 1 2 3 4 5 6 
#
# 1 0.013441 -0.001153 -0.009081 -0.002519 0.004840 -0.015470
# 2 -0.001153 0.012746 -0.012661 0.003911 -0.000202 0.005964
# 3 -0.009081 -0.012661 0.057903 0.003616 0.021596 -0.006942
# 4 -0.002519 0.003911 0.003616 0.027706 0.006798 0.009183
# 5 0.004840 -0.000202 0.021596 0.006798 0.058421 -0.024388
# 6 -0.015470 0.005964 -0.006942 0.009183 -0.024388 0.069711
#
#
# Mechanical properties :
#
#
# Convention : Reuss Voigt Hill
#
# Bulk Modulus (GPa) = 26.10974 61.27047 43.69010
# Shear Modulus (GPa) = 16.75133 31.37418 24.06276
#
# Velocity S-wave (km/s) = 2.89354 3.95996 3.46799
# Velocity P-wave (km/s) = 4.92072 7.17860 6.15409
#
# Compressibility (1/GPa) = 0.03829988
#
# Stress axis : x y z
#
# Youngs Moduli (GPa) = 74.39781 78.45687 17.27039
#
# Poissons Ratio (x) = 0.09042 0.15684
# Poissons Ratio (y) = 0.08574 0.21866
# Poissons Ratio (z) = 0.67564 0.99334
#
# Static dielectric constant tensor:
#      x y z
#    x 3.616890 -0.105750 -0.171270 
#    y -0.105750 3.631370 0.219790 
#    z -0.171270 0.219790 3.330550 
# 
# 
# High freq. dielectric constant tensor:
#      x y z
#    x 1.783700 -0.002300 -0.012340 
#    y -0.002300 1.785010 0.021300 
#    z -0.012340 0.021300 1.742190 
# 
# From -- ./inp_files/15416.got.cif
#   From: 2010.06.25/outbox.cif.g09.slc.cpg/sg2_8_cif.got.tgz:15416.got - 2010.06.27 13:26:56.
