data_PCOD8023633
_publ_section_title
;
Structure prediction by ZEFSAII (Michael W. Deem and Ramdas Pophale) SiO2 
 PCOD8023633
Probable space group: P -1
;
_chemical_formula_sum "Si O2"
_cell_formula_units_Z 16
_cell_length_a 9.705440
_cell_length_b 13.530833
_cell_length_c 8.776885
_cell_angle_alpha 139.277048
_cell_angle_beta 108.857747
_cell_angle_gamma 63.632468
_cell_volume 673.553602
_symmetry_space_group_name_H-M "P -1"
_symmetry_group_IT_number 2
_symmetry_cell_setting 'triclinic'
loop_
_space_group_symop_operation_xyz
x,y,z
-x,-y,-z
loop_
_atom_site_type_symbol
_atom_site_label
_atom_site_fract_x
_atom_site_fract_y
_atom_site_fract_z
Si Si1 0.990238 0.117693 0.430953
Si Si2 0.291251 0.163782 0.567234
Si Si3 0.546881 0.953575 0.214933
Si Si4 0.669230 0.503145 0.031937
Si Si5 0.470101 0.236027 0.301519
Si Si6 0.145390 0.403873 0.339048
Si Si7 0.956823 0.227917 0.892735
Si Si8 0.286806 0.608576 0.417200
O O1 0.985018 0.163055 0.658080
O O2 0.826710 0.208570 0.403638
O O3 0.116969 0.186704 0.483460
O O4 0.036412 0.928691 0.188939
O O5 0.310880 0.121841 0.707148
O O6 0.396719 0.012421 0.335067
O O7 0.329962 0.321774 0.718062
O O8 0.569532 0.099095 0.292973
O O9 0.526601 0.820753 0.938263
O O10 0.791762 0.366561 0.016517
O O11 0.719789 0.476760 0.844313
O O12 0.500000 0.500000 0.000000
O O13 0.290531 0.293028 0.360953
O O14 0.541744 0.380670 0.488971
O O15 0.228227 0.515975 0.416967
O O16 0.000000 0.500000 0.500000
O O17 0.092041 0.295220 0.072728
#
# Coordination Sequence:
#
# PCOD8023633 Si02
#       8
#     2   2   2   2   2   2   2   2
#     4  10  23  41  73  97 136 173 231 288 341 408
#     4  11  23  42  69 104 137 176 237 284 344 409
#     4  10  25  40  72 100 135 181 230 287 343 400
#     4  11  24  41  72 105 141 175 226 290 348 412
#     4  11  25  46  70  98 141 182 232 280 349 413
#     4  12  28  46  69  98 142 186 226 283 343 415
#     4  10  24  43  66 102 135 178 224 283 348 403
#     4  11  25  45  71 102 136 184 229 283 350 410
#
# _framework density 23.754605000000002
#
# number of rings (size 3 to 8) (size 9 to 14) (size 15 to 20)
#    0.000    1.250    0.000    4.125   17.500    3.000 
#    0.000    1.250    0.000    0.000    0.000    0.000 
#    0.000    0.000    0.000    0.000    0.000    0.000 
#
# Total GULP energy -198374.482571 kJ/mol
# GULP energy per Si atom -12398.405161 kJ/mol
# Density = 2.370054 g / cm^3
# Si number density = 23.754605 Si / 1000 Ang^3
#
#
#
# Elastic Constant Matrix: (Units=GPa)
#
#
# Indices 1 2 3 4 5 6 
#
# 1 133.1293 28.4584 29.2598 14.1052 25.2325 -14.2083
# 2 28.4584 76.6201 24.0922 16.4143 9.4863 -9.0792
# 3 29.2598 24.0922 85.4468 11.3064 9.5421 -5.6423
# 4 14.1052 16.4143 11.3064 33.8895 3.8389 -2.7834
# 5 25.2325 9.4863 9.5421 3.8389 44.2884 2.5368
# 6 -14.2083 -9.0792 -5.6423 -2.7834 2.5368 38.4108
#
#
#
# Elastic Compliance Matrix: (Units=1/GPa)
#
#
# Indices 1 2 3 4 5 6 
#
# 1 0.009712 -0.001668 -0.001875 -0.001811 -0.004793 0.003108
# 2 -0.001668 0.016333 -0.002920 -0.005861 -0.001554 0.002492
# 3 -0.001875 -0.002920 0.013613 -0.002181 -0.001080 0.000529
# 4 -0.001811 -0.005861 -0.002181 0.033856 -0.000183 0.000090
# 5 -0.004793 -0.001554 -0.001080 -0.000183 0.026123 -0.004037
# 6 0.003108 0.002492 0.000529 0.000090 -0.004037 0.028124
#
#
# Mechanical properties :
#
#
# Convention : Reuss Voigt Hill
#
# Bulk Modulus (GPa) = 37.41056 50.97966 44.19511
# Shear Modulus (GPa) = 33.42299 37.54349 35.48324
#
# Velocity S-wave (km/s) = 3.75508 3.97983 3.86909
# Velocity P-wave (km/s) = 5.88080 6.52888 6.21330
#
# Compressibility (1/GPa) = 0.02673042
#
# Stress axis : x y z
#
# Youngs Moduli (GPa) = 102.96267 61.22745 73.45983
#
# Poissons Ratio (x) = 0.10213 0.13777
# Poissons Ratio (y) = 0.17175 0.21452
# Poissons Ratio (z) = 0.19310 0.17880
#
# Static dielectric constant tensor:
#      x y z
#    x 4.232020 -0.354300 -0.033770 
#    y -0.354300 4.565520 0.192500 
#    z -0.033770 0.192500 4.313310 
# 
# 
# High freq. dielectric constant tensor:
#      x y z
#    x 1.945350 -0.012910 -0.001070 
#    y -0.012910 1.944810 0.008960 
#    z -0.001070 0.008960 1.939170 
# 
# From -- ./inp_files/209528.got.cif
#   From: 2010.06.25/outbox.cif.g09.slc.cpg/sg2_105_cif.got.tgz:209528.got - 2010.06.27 13:26:56.
