data_PCOD8023779
_publ_section_title
;
Structure prediction by ZEFSAII (Michael W. Deem and Ramdas Pophale) SiO2 
 PCOD8023779
Probable space group: P -1
;
_chemical_formula_sum "Si O2"
_cell_formula_units_Z 16
_cell_length_a 12.148573
_cell_length_b 16.815479
_cell_length_c 6.777723
_cell_angle_alpha 59.014214
_cell_angle_beta 47.402717
_cell_angle_gamma 51.560650
_cell_volume 787.638790
_symmetry_space_group_name_H-M "P -1"
_symmetry_group_IT_number 2
_symmetry_cell_setting 'triclinic'
loop_
_space_group_symop_operation_xyz
x,y,z
-x,-y,-z
loop_
_atom_site_type_symbol
_atom_site_label
_atom_site_fract_x
_atom_site_fract_y
_atom_site_fract_z
Si Si1 0.174011 0.458557 0.457306
Si Si2 0.942747 0.786031 0.623020
Si Si3 0.614574 0.578536 0.125476
Si Si4 0.857090 0.961057 0.220034
Si Si5 0.428002 0.925375 0.274077
Si Si6 0.696825 0.708493 0.158314
Si Si7 0.849950 0.975484 0.766902
Si Si8 0.258126 0.588114 0.507056
O O1 0.196379 0.369875 0.700673
O O2 0.200986 0.547046 0.432849
O O3 0.000000 0.500000 0.500000
O O4 0.312108 0.408854 0.186525
O O5 0.933439 0.843998 0.354627
O O6 0.873822 0.870782 0.767785
O O7 0.131479 0.706698 0.537906
O O8 0.826277 0.726712 0.836199
O O9 0.592597 0.667982 0.194782
O O10 0.441328 0.579647 0.272689
O O11 0.740638 0.473437 0.215874
O O12 0.685581 0.031782 0.448054
O O13 0.808882 0.959487 0.057291
O O14 0.000000 0.000000 0.000000
O O15 0.568467 0.811957 0.289627
O O16 0.304911 0.923632 0.254472
O O17 0.500000 0.000000 0.000000
O O18 0.000000 0.000000 0.500000
#
# Coordination Sequence:
#
# PCOD8023779 Si02
#       8
#     2   2   2   2   2   2   2   2
#     4  11  23  42  67  96 133 169 217 269 328 402
#     4  11  23  41  63  93 131 166 227 264 327 397
#     4  10  23  42  66  93 133 166 215 275 330 391
#     4  11  23  41  65  92 128 175 219 266 327 390
#     4  11  23  45  63  95 137 166 220 282 317 390
#     4  11  24  42  64  98 130 175 216 271 335 386
#     4  11  23  42  65  91 131 174 216 270 329 384
#     4  10  23  42  65  96 128 169 215 273 329 391
#
# _framework density 20.313880000000001
#
# number of rings (size 3 to 8) (size 9 to 14) (size 15 to 20)
#    0.000    1.250    5.000    1.875    1.750    7.500 
#    0.000    0.000    0.000    0.000    0.000    0.000 
#    0.000    0.000    0.000    0.000    0.000    0.000 
#
# Total GULP energy -198298.675090 kJ/mol
# GULP energy per Si atom -12393.667193 kJ/mol
# Density = 2.026764 g / cm^3
# Si number density = 20.313880 Si / 1000 Ang^3
#
#
#
# Elastic Constant Matrix: (Units=GPa)
#
#
# Indices 1 2 3 4 5 6 
#
# 1 132.7718 38.6359 45.6552 -6.8204 3.5592 -9.4041
# 2 38.6359 110.8576 35.7025 -8.6441 2.4469 -19.7352
# 3 45.6552 35.7025 139.6938 -9.6040 8.4694 -3.9726
# 4 -6.8204 -8.6441 -9.6040 30.9356 1.7097 -2.3955
# 5 3.5592 2.4469 8.4694 1.7097 40.2549 -0.0251
# 6 -9.4041 -19.7352 -3.9726 -2.3955 -0.0251 30.3868
#
#
#
# Elastic Compliance Matrix: (Units=1/GPa)
#
#
# Indices 1 2 3 4 5 6 
#
# 1 0.009083 -0.002142 -0.002320 0.000787 -0.000217 0.001178
# 2 -0.002142 0.011858 -0.001924 0.002800 -0.000241 0.007007
# 3 -0.002320 -0.001924 0.008596 0.001650 -0.001557 -0.000715
# 4 0.000787 0.002800 0.001650 0.034292 -0.002040 0.004979
# 5 -0.000217 -0.000241 -0.001557 -0.002040 0.025289 -0.000567
# 6 0.001178 0.007007 -0.000715 0.004979 -0.000567 0.038123
#
#
# Mechanical properties :
#
#
# Convention : Reuss Voigt Hill
#
# Bulk Modulus (GPa) = 59.65335 69.25672 64.45503
# Shear Modulus (GPa) = 34.34022 37.87077 36.10550
#
# Velocity S-wave (km/s) = 4.11601 4.32242 4.22047
# Velocity P-wave (km/s) = 7.21237 7.68624 7.45307
#
# Compressibility (1/GPa) = 0.01676352
#
# Stress axis : x y z
#
# Youngs Moduli (GPa) = 110.10038 84.33130 116.33264
#
# Poissons Ratio (x) = 0.18067 0.26990
# Poissons Ratio (y) = 0.23588 0.22383
# Poissons Ratio (z) = 0.25544 0.16226
#
# Static dielectric constant tensor:
#      x y z
#    x 3.685440 -0.368470 0.061940 
#    y -0.368470 3.404440 -0.029760 
#    z 0.061940 -0.029760 3.861750 
# 
# 
# High freq. dielectric constant tensor:
#      x y z
#    x 1.804410 -0.007150 -0.006290 
#    y -0.007150 1.790020 -0.004450 
#    z -0.006290 -0.004450 1.804970 
# 
# From -- ./inp_files/81191.got.cif
#   From: 2010.06.25/outbox.cif.g09.slc.cpg/sg2_41_cif.got.tgz:81191.got - 2010.06.27 13:26:56.
