data_PCOD8023369
_publ_section_title
;
Structure prediction by ZEFSAII (Michael W. Deem and Ramdas Pophale) SiO2 
 PCOD8023369
Probable space group: P -1
;
_chemical_formula_sum "Si O2"
_cell_formula_units_Z 14
_cell_length_a 18.963537
_cell_length_b 8.975405
_cell_length_c 4.774260
_cell_angle_alpha 99.203896
_cell_angle_beta 63.835043
_cell_angle_gamma 130.340941
_cell_volume 546.469939
_symmetry_space_group_name_H-M "P -1"
_symmetry_group_IT_number 2
_symmetry_cell_setting 'triclinic'
loop_
_space_group_symop_operation_xyz
x,y,z
-x,-y,-z
loop_
_atom_site_type_symbol
_atom_site_label
_atom_site_fract_x
_atom_site_fract_y
_atom_site_fract_z
Si Si1 0.050007 0.439986 0.594498
Si Si2 0.528593 0.873011 0.792648
Si Si3 0.395307 0.447115 0.756805
Si Si4 0.107744 0.195191 0.265127
Si Si5 0.655016 0.928313 0.075834
Si Si6 0.218098 0.202681 0.581245
Si Si7 0.845329 0.180298 0.173321
O O1 0.106185 0.374435 0.317549
O O2 0.140236 0.636685 0.665425
O O3 0.000000 0.500000 0.500000
O O4 0.957232 0.258681 0.897342
O O5 0.425347 0.638679 0.927534
O O6 0.568767 0.907263 0.412695
O O7 0.628159 0.939516 0.810905
O O8 0.500000 0.000000 0.000000
O O9 0.500000 0.500000 0.500000
O O10 0.343014 0.254203 0.989597
O O11 0.326703 0.392978 0.583652
O O12 0.202712 0.246239 0.304239
O O13 0.126539 0.167087 0.907902
O O14 0.000000 0.000000 0.500000
O O15 0.769829 0.117797 0.024328
O O16 0.202540 0.000998 0.575561
#
# Coordination Sequence:
#
# PCOD8023369 Si02
#       7
#     2   2   2   2   2   2   2
#     4  11  25  41  66  90 133 174 214 272 323 384
#     4  11  23  40  65  94 131 162 205 273 327 375
#     4   9  22  44  68  96 130 169 220 264 317 390
#     4  12  25  43  66  96 136 168 219 271 323 384
#     4  10  23  41  66  90 124 172 213 259 317 393
#     4  11  25  43  70  98 128 178 217 268 328 382
#     4  10  24  41  63  94 126 170 224 259 322 391
#
# _framework density 25.618977999999998
#
# number of rings (size 3 to 8) (size 9 to 14) (size 15 to 20)
#    0.000    1.429    1.429    2.143    6.000   10.286 
#    0.000    0.000    0.000    0.000    0.000    0.000 
#    0.000    0.000    0.000    0.000    0.000    0.000 
#
# Total GULP energy -173591.877587 kJ/mol
# GULP energy per Si atom -12399.419828 kJ/mol
# Density = 2.556067 g / cm^3
# Si number density = 25.618978 Si / 1000 Ang^3
#
#
#
# Elastic Constant Matrix: (Units=GPa)
#
#
# Indices 1 2 3 4 5 6 
#
# 1 120.3930 45.5003 -6.7652 10.8984 0.9322 3.5121
# 2 45.5003 164.3667 1.8055 22.4364 -12.2075 11.0955
# 3 -6.7652 1.8055 30.4484 17.4687 -3.5243 -16.1646
# 4 10.8984 22.4364 17.4687 35.9895 -10.3298 -5.4612
# 5 0.9322 -12.2075 -3.5243 -10.3298 48.4453 13.9210
# 6 3.5121 11.0955 -16.1646 -5.4612 13.9210 45.9945
#
#
#
# Elastic Compliance Matrix: (Units=1/GPa)
#
#
# Indices 1 2 3 4 5 6 
#
# 1 0.009926 -0.002464 0.005716 -0.004503 -0.001898 0.001885
# 2 -0.002464 0.007617 0.000019 -0.003869 0.001914 -0.002681
# 3 0.005716 0.000019 0.061433 -0.030817 -0.007922 0.019888
# 4 -0.004503 -0.003869 -0.030817 0.048110 0.009016 -0.006570
# 5 -0.001898 0.001914 -0.007922 0.009016 0.025290 -0.009685
# 6 0.001885 -0.002681 0.019888 -0.006570 -0.009685 0.031385
#
#
# Mechanical properties :
#
#
# Convention : Reuss Voigt Hill
#
# Bulk Modulus (GPa) = 11.69370 44.03215 27.86293
# Shear Modulus (GPa) = 24.30424 44.39704 34.35064
#
# Velocity S-wave (km/s) = 3.08341 4.16742 3.66570
# Velocity P-wave (km/s) = 4.15342 6.35461 5.36806
#
# Compressibility (1/GPa) = 0.08551614
#
# Stress axis : x y z
#
# Youngs Moduli (GPa) = 100.74689 131.28293 16.27802
#
# Poissons Ratio (x) = 0.32349 -0.09304
# Poissons Ratio (y) = 0.24825 -0.00030
# Poissons Ratio (z) = -0.57585 -0.00243
#
# Static dielectric constant tensor:
#      x y z
#    x 4.061210 0.302430 -0.259060 
#    y 0.302430 5.538600 0.002840 
#    z -0.259060 0.002840 4.785030 
# 
# 
# High freq. dielectric constant tensor:
#      x y z
#    x 2.021350 0.016570 -0.014600 
#    y 0.016570 2.028280 0.012520 
#    z -0.014600 0.012520 2.033710 
# 
# From -- ./inp_files/49048.got.cif
#   From: 2010.06.25/outbox.cif.g09.slc.cpg/sg2_25_cif.got.tgz:49048.got - 2010.06.27 13:26:56.
