data_PCOD8023414
_publ_section_title
;
Structure prediction by ZEFSAII (Michael W. Deem and Ramdas Pophale) SiO2 
 PCOD8023414
Probable space group: P -1
;
_chemical_formula_sum "Si O2"
_cell_formula_units_Z 12
_cell_length_a 9.821861
_cell_length_b 11.133510
_cell_length_c 11.210329
_cell_angle_alpha 153.550576
_cell_angle_beta 92.943573
_cell_angle_gamma 81.854366
_cell_volume 532.518557
_symmetry_space_group_name_H-M "P -1"
_symmetry_group_IT_number 2
_symmetry_cell_setting 'triclinic'
loop_
_space_group_symop_operation_xyz
x,y,z
-x,-y,-z
loop_
_atom_site_type_symbol
_atom_site_label
_atom_site_fract_x
_atom_site_fract_y
_atom_site_fract_z
Si Si1 0.041168 0.784009 0.021685
Si Si2 0.403555 0.299776 0.274421
Si Si3 0.806126 0.291403 0.807660
Si Si4 0.349888 0.141901 0.662398
Si Si5 0.875258 0.661495 0.556536
Si Si6 0.243022 0.316982 0.050303
O O1 0.060274 0.760997 0.146018
O O2 0.097745 0.036835 0.196592
O O3 0.124993 0.506230 0.715252
O O4 0.875616 0.825391 0.024939
O O5 0.500000 0.500000 0.500000
O O6 0.277249 0.304149 0.363318
O O7 0.339324 0.399141 0.230637
O O8 0.500000 0.000000 0.000000
O O9 0.836368 0.405946 0.779541
O O10 0.758700 0.004403 0.540078
O O11 0.685699 0.530024 0.077008
O O12 0.500000 0.000000 0.500000
O O13 0.337973 0.106107 0.773850
O O14 0.000000 0.500000 0.500000
#
# Coordination Sequence:
#
# PCOD8023414 Si02
#       6
#     2   2   2   2   2   2
#     4  12  25  45  77 107 144 184 247 298 365 429
#     4  12  29  49  74 106 145 193 248 295 362 431
#     4  10  24  43  69 105 135 186 233 294 365 419
#     4  10  23  41  66  98 146 186 232 282 367 429
#     4  12  27  48  77 104 147 194 246 299 358 424
#     4  10  27  43  76  99 150 181 239 301 360 422
#
# _framework density 22.534426
#
# number of rings (size 3 to 8) (size 9 to 14) (size 15 to 20)
#    1.000    0.000    1.667    3.500    7.000    4.667 
#    0.000    0.000    0.000    0.000    0.000    0.000 
#    0.000    0.000    0.000    0.000    0.000    0.000 
#
# Total GULP energy -148747.096126 kJ/mol
# GULP energy per Si atom -12395.591344 kJ/mol
# Density = 2.248314 g / cm^3
# Si number density = 22.534426 Si / 1000 Ang^3
#
#
#
# Elastic Constant Matrix: (Units=GPa)
#
#
# Indices 1 2 3 4 5 6 
#
# 1 152.6988 57.2557 60.1900 -14.8490 11.1434 14.2670
# 2 57.2557 104.5680 39.3012 -16.8873 15.9960 -11.3212
# 3 60.1900 39.3012 146.0498 -13.2351 18.4958 7.2394
# 4 -14.8490 -16.8873 -13.2351 38.6314 -3.5044 4.6231
# 5 11.1434 15.9960 18.4958 -3.5044 44.5778 -12.2178
# 6 14.2670 -11.3212 7.2394 4.6231 -12.2178 41.5076
#
#
#
# Elastic Compliance Matrix: (Units=1/GPa)
#
#
# Indices 1 2 3 4 5 6 
#
# 1 0.009861 -0.004651 -0.002321 0.001434 -0.001012 -0.004711
# 2 -0.004651 0.013980 -0.001607 0.003043 -0.001611 0.004879
# 3 -0.002321 -0.001607 0.008859 0.001434 -0.003018 -0.002234
# 4 0.001434 0.003043 0.001434 0.028590 -0.000703 -0.003305
# 5 -0.001012 -0.001611 -0.003018 -0.000703 0.026760 0.008390
# 6 -0.004711 0.004879 -0.002234 -0.003305 0.008390 0.030269
#
#
# Mechanical properties :
#
#
# Convention : Reuss Voigt Hill
#
# Bulk Modulus (GPa) = 64.34286 79.64561 71.99424
# Shear Modulus (GPa) = 35.54755 41.38135 38.46445
#
# Velocity S-wave (km/s) = 3.97606 4.28993 4.13597
# Velocity P-wave (km/s) = 7.04938 7.74330 7.40448
#
# Compressibility (1/GPa) = 0.01554174
#
# Stress axis : x y z
#
# Youngs Moduli (GPa) = 101.41122 71.53231 112.88107
#
# Poissons Ratio (x) = 0.33267 0.26198
# Poissons Ratio (y) = 0.47163 0.18144
# Poissons Ratio (z) = 0.23536 0.11498
#
# Static dielectric constant tensor:
#      x y z
#    x 4.190690 -0.150650 0.261260 
#    y -0.150650 4.162430 -0.301770 
#    z 0.261260 -0.301770 4.441960 
# 
# 
# High freq. dielectric constant tensor:
#      x y z
#    x 1.882850 -0.001580 0.006190 
#    y -0.001580 1.882220 -0.013130 
#    z 0.006190 -0.013130 1.906960 
# 
# From -- ./inp_files/391784.got.cif
#   From: 2010.06.25/outbox.cif.g09.slc.cpg/sg2_196_cif.got.tgz:391784.got - 2010.06.27 13:26:56.
