data_PCOD8023464
_publ_section_title
;
Structure prediction by ZEFSAII (Michael W. Deem and Ramdas Pophale) SiO2 
 PCOD8023464
Probable space group: P -1
;
_chemical_formula_sum "Si O2"
_cell_formula_units_Z 14
_cell_length_a 22.113382
_cell_length_b 14.323592
_cell_length_c 13.576517
_cell_angle_alpha 35.226229
_cell_angle_beta 21.955060
_cell_angle_gamma 23.645055
_cell_volume 629.281404
_symmetry_space_group_name_H-M "P -1"
_symmetry_group_IT_number 2
_symmetry_cell_setting 'triclinic'
loop_
_space_group_symop_operation_xyz
x,y,z
-x,-y,-z
loop_
_atom_site_type_symbol
_atom_site_label
_atom_site_fract_x
_atom_site_fract_y
_atom_site_fract_z
Si Si1 0.673014 0.522530 0.712178
Si Si2 0.088322 0.808116 0.955371
Si Si3 0.106530 0.050348 0.571382
Si Si4 0.592178 0.371089 0.657797
Si Si5 0.911541 0.386555 0.261627
Si Si6 0.580265 0.133772 0.039525
Si Si7 0.180577 0.224800 0.488036
O O1 0.751031 0.516972 0.489821
O O2 0.532355 0.774057 0.759929
O O3 0.900171 0.311539 0.615799
O O4 0.500000 0.500000 0.000000
O O5 0.929746 0.766679 0.251233
O O6 0.368753 0.575326 0.750639
O O7 0.036424 0.920846 0.828726
O O8 0.000000 0.000000 0.000000
O O9 0.216715 0.070095 0.478525
O O10 0.285102 0.876739 0.363291
O O11 0.752386 0.415734 0.392083
O O12 0.525958 0.348598 0.885026
O O13 0.000000 0.500000 0.000000
O O14 0.138680 0.104867 0.177778
O O15 0.447623 0.088133 0.221557
O O16 0.000000 0.500000 0.500000
#
# Coordination Sequence:
#
# PCOD8023464 Si02
#       7
#     2   2   2   2   2   2   2
#     4  12  24  45  78  98 137 194 237 281 357 422
#     4  10  23  41  68 100 138 183 235 286 350 422
#     4  11  24  42  69 105 135 187 231 287 356 417
#     4  12  23  47  69  99 143 187 233 287 355 422
#     4  12  30  47  71 108 142 183 242 301 346 419
#     4  12  24  46  73 100 144 186 235 289 351 431
#     4  11  22  42  68 105 139 179 233 290 352 417
#
# _framework density 22.247599000000001
#
# number of rings (size 3 to 8) (size 9 to 14) (size 15 to 20)
#    0.000    0.571    5.714    2.571    4.000    2.286 
#    2.571    0.000    0.000    0.000    0.000    0.000 
#    0.000    0.000    0.000    0.000    0.000    0.000 
#
# Total GULP energy -173523.377163 kJ/mol
# GULP energy per Si atom -12394.526940 kJ/mol
# Density = 2.219696 g / cm^3
# Si number density = 22.247599 Si / 1000 Ang^3
#
#
#
# Elastic Constant Matrix: (Units=GPa)
#
#
# Indices 1 2 3 4 5 6 
#
# 1 76.3153 5.8063 29.7495 0.0893 6.6857 26.8258
# 2 5.8063 54.6795 11.4094 -2.2516 13.4673 18.2744
# 3 29.7495 11.4094 118.5512 -13.8408 -3.0857 12.0964
# 4 0.0893 -2.2516 -13.8408 43.9671 2.5517 8.1309
# 5 6.6857 13.4673 -3.0857 2.5517 42.7627 -0.6945
# 6 26.8258 18.2744 12.0964 8.1309 -0.6945 36.2420
#
#
#
# Elastic Compliance Matrix: (Units=1/GPa)
#
#
# Indices 1 2 3 4 5 6 
#
# 1 0.021040 0.006231 -0.003859 0.002768 -0.005990 -0.018163
# 2 0.006231 0.027068 -0.001940 0.004851 -0.010235 -0.018897
# 3 -0.003859 -0.001940 0.009998 0.002979 0.001756 -0.000137
# 4 0.002768 0.004851 0.002979 0.026244 -0.003498 -0.011444
# 5 -0.005990 -0.010235 0.001756 -0.003498 0.028048 0.010331
# 6 -0.018163 -0.018897 -0.000137 -0.011444 0.010331 0.053376
#
#
# Mechanical properties :
#
#
# Convention : Reuss Voigt Hill
#
# Bulk Modulus (GPa) = 16.95828 38.16404 27.56116
# Shear Modulus (GPa) = 27.09038 38.09975 32.59507
#
# Velocity S-wave (km/s) = 3.49331 4.14277 3.83182
# Velocity P-wave (km/s) = 4.88979 6.33047 5.65618
#
# Compressibility (1/GPa) = 0.05896824
#
# Stress axis : x y z
#
# Youngs Moduli (GPa) = 47.52898 36.94403 100.02235
#
# Poissons Ratio (x) = -0.23018 0.38598
# Poissons Ratio (y) = -0.29613 0.19408
# Poissons Ratio (z) = 0.18341 0.07169
#
# Static dielectric constant tensor:
#      x y z
#    x 0.626870 2.290860 -9.059860 
#    y 2.290860 2.343550 5.473620 
#    z -9.059860 5.473620 -20.025010 
# 
# 
# High freq. dielectric constant tensor:
#      x y z
#    x 1.874290 0.005380 0.006770 
#    y 0.005380 1.877860 0.004090 
#    z 0.006770 0.004090 1.882980 
# 
# From -- ./inp_files/243153.got.cif
#   From: 2010.06.25/outbox.cif.g09.slc.cpg/sg2_122_cif.got.tgz:243153.got - 2010.06.27 13:26:56.
