data_PCOD8023639
_publ_section_title
;
Structure prediction by ZEFSAII (Michael W. Deem and Ramdas Pophale) SiO2 
 PCOD8023639
Probable space group: P -1
;
_chemical_formula_sum "Si O2"
_cell_formula_units_Z 12
_cell_length_a 9.217223
_cell_length_b 9.147900
_cell_length_c 14.078826
_cell_angle_alpha 52.028164
_cell_angle_beta 41.005093
_cell_angle_gamma 44.349051
_cell_volume 537.011944
_symmetry_space_group_name_H-M "P -1"
_symmetry_group_IT_number 2
_symmetry_cell_setting 'triclinic'
loop_
_space_group_symop_operation_xyz
x,y,z
-x,-y,-z
loop_
_atom_site_type_symbol
_atom_site_label
_atom_site_fract_x
_atom_site_fract_y
_atom_site_fract_z
Si Si1 0.940415 0.100766 0.326685
Si Si2 0.113977 0.416126 0.079997
Si Si3 0.304302 0.685000 0.392309
Si Si4 0.975357 0.213782 0.883914
Si Si5 0.671430 0.231050 0.856498
Si Si6 0.404191 0.284614 0.592432
O O1 0.645347 0.166346 0.450049
O O2 0.964282 0.311428 0.249255
O O3 0.069321 0.923335 0.416027
O O4 0.088014 0.002022 0.193225
O O5 0.094277 0.613085 0.069590
O O6 0.408851 0.231365 0.006127
O O7 0.000000 0.500000 0.000000
O O8 0.389342 0.618174 0.267145
O O9 0.228391 0.518583 0.541221
O O10 0.523881 0.689009 0.345770
O O11 0.243094 0.161582 0.724141
O O12 0.754672 0.314544 0.873608
O O13 0.000000 0.000000 0.000000
#
# Coordination Sequence:
#
# PCOD8023639 Si02
#       6
#     2   2   2   2   2   2
#     4  10  23  41  75 100 128 176 227 285 327 392
#     4  12  23  44  74  97 135 179 230 281 328 403
#     4   9  22  41  70 103 128 173 233 278 330 389
#     4  12  28  43  65  98 141 183 219 276 344 408
#     4  10  24  44  63 105 137 173 222 271 348 400
#     4  11  21  44  68 102 134 174 230 280 331 399
#
# _framework density 22.345872
#
# number of rings (size 3 to 8) (size 9 to 14) (size 15 to 20)
#    1.000    0.333    0.000    6.500    2.333    1.333 
#    3.000    0.000    0.000    0.000    0.000    0.000 
#    0.000    0.000    0.000    0.000    0.000    0.000 
#
# Total GULP energy -148674.266992 kJ/mol
# GULP energy per Si atom -12389.522249 kJ/mol
# Density = 2.229501 g / cm^3
# Si number density = 22.345872 Si / 1000 Ang^3
#
#
#
# Elastic Constant Matrix: (Units=GPa)
#
#
# Indices 1 2 3 4 5 6 
#
# 1 115.0425 33.4401 39.6506 6.0509 -3.3538 -1.3772
# 2 33.4401 116.2107 56.4505 -13.6826 -2.4045 -4.9944
# 3 39.6506 56.4505 145.0603 1.1050 -29.9607 -7.4365
# 4 6.0509 -13.6826 1.1050 47.5743 3.5966 6.3204
# 5 -3.3538 -2.4045 -29.9607 3.5966 38.3458 1.9918
# 6 -1.3772 -4.9944 -7.4365 6.3204 1.9918 31.0310
#
#
#
# Elastic Compliance Matrix: (Units=1/GPa)
#
#
# Indices 1 2 3 4 5 6 
#
# 1 0.010096 -0.002130 -0.002058 -0.001800 -0.000691 0.000023
# 2 -0.002130 0.011988 -0.004858 0.004096 -0.003618 0.000069
# 3 -0.002058 -0.004858 0.011182 -0.002258 0.008374 0.001729
# 4 -0.001800 0.004096 -0.002258 0.023349 -0.003622 -0.004485
# 5 -0.000691 -0.003618 0.008374 -0.003622 0.032672 0.000034
# 6 0.000023 0.000069 0.001729 -0.004485 0.000034 0.033563
#
#
# Mechanical properties :
#
#
# Convention : Reuss Voigt Hill
#
# Bulk Modulus (GPa) = 65.90680 70.59956 68.25318
# Shear Modulus (GPa) = 34.24611 39.84170 37.04391
#
# Velocity S-wave (km/s) = 3.91902 4.22709 4.07597
# Velocity P-wave (km/s) = 7.07363 7.44896 7.26372
#
# Compressibility (1/GPa) = 0.01517294
#
# Stress axis : x y z
#
# Youngs Moduli (GPa) = 99.04950 83.41528 89.42760
#
# Poissons Ratio (x) = 0.17771 0.18408
# Poissons Ratio (y) = 0.21102 0.43442
# Poissons Ratio (z) = 0.20389 0.40522
#
# Static dielectric constant tensor:
#      x y z
#    x 3.896540 -0.106290 0.035330 
#    y -0.106290 3.863470 0.067030 
#    z 0.035330 0.067030 4.040470 
# 
# 
# High freq. dielectric constant tensor:
#      x y z
#    x 1.870290 -0.011780 0.009820 
#    y -0.011780 1.872420 0.009530 
#    z 0.009820 0.009530 1.889000 
# 
# From -- ./inp_files/489026.got.cif
#   From: 2010.06.25/outbox.cif.g09.slc.cpg/sg2_245_cif.got.tgz:489026.got - 2010.06.27 13:26:56.
