data_PCOD8023119
_publ_section_title
;
Structure prediction by ZEFSAII (Michael W. Deem and Ramdas Pophale) SiO2 
 PCOD8023119
Probable space group: P -1
;
_chemical_formula_sum "Si O2"
_cell_formula_units_Z 14
_cell_length_a 11.776900
_cell_length_b 8.812540
_cell_length_c 7.441251
_cell_angle_alpha 69.851441
_cell_angle_beta 56.458270
_cell_angle_gamma 64.400036
_cell_volume 574.729350
_symmetry_space_group_name_H-M "P -1"
_symmetry_group_IT_number 2
_symmetry_cell_setting 'triclinic'
loop_
_space_group_symop_operation_xyz
x,y,z
-x,-y,-z
loop_
_atom_site_type_symbol
_atom_site_label
_atom_site_fract_x
_atom_site_fract_y
_atom_site_fract_z
Si Si1 0.278817 0.065692 0.113710
Si Si2 0.314425 0.385011 0.562833
Si Si3 0.207960 0.717329 0.985385
Si Si4 0.602049 0.650694 0.094347
Si Si5 0.940278 0.692893 0.040084
Si Si6 0.282620 0.728779 0.307997
Si Si7 0.556025 0.129677 0.285853
O O1 0.354894 0.189774 0.091912
O O2 0.128687 0.178692 0.113857
O O3 0.393657 0.949391 0.919296
O O4 0.253338 0.922532 0.332189
O O5 0.405208 0.333689 0.688103
O O6 0.185383 0.302936 0.709243
O O7 0.245908 0.592446 0.526991
O O8 0.420675 0.306023 0.334620
O O9 0.273288 0.516193 0.995738
O O10 0.308707 0.819939 0.767917
O O11 0.188037 0.754471 0.199875
O O12 0.054874 0.768969 0.000718
O O13 0.451764 0.647377 0.147927
O O14 0.000000 0.500000 0.000000
O O15 0.500000 0.000000 0.500000
#
# Coordination Sequence:
#
# PCOD8023119 Si02
#       7
#     2   2   2   2   2   2   2
#     4  10  23  40  68  96 133 169 217 275 323 380
#     4  11  23  40  71  92 132 170 221 265 323 387
#     4  11  24  39  71  91 136 174 211 268 333 383
#     4  11  20  40  66  95 123 179 215 261 324 386
#     4  11  22  45  69  92 130 180 222 252 327 403
#     4  11  24  39  62 102 133 163 221 274 329 372
#     4  11  21  40  63 104 124 160 224 272 314 375
#
# _framework density 24.359293000000001
#
# number of rings (size 3 to 8) (size 9 to 14) (size 15 to 20)
#    0.000    1.143    7.143    1.286    2.000    2.857 
#    0.000    0.714    0.000    0.000    0.000    0.000 
#    0.000    0.000    0.000    0.000    0.000    0.000 
#
# Total GULP energy -173449.010936 kJ/mol
# GULP energy per Si atom -12389.215067 kJ/mol
# Density = 2.430385 g / cm^3
# Si number density = 24.359293 Si / 1000 Ang^3
#
#
#
# Elastic Constant Matrix: (Units=GPa)
#
#
# Indices 1 2 3 4 5 6 
#
# 1 118.6833 -1.9727 13.9766 -16.5003 -31.8292 1.0963
# 2 -1.9727 111.8481 17.6546 -36.6074 -5.7138 6.7109
# 3 13.9766 17.6546 36.2932 -22.1538 -20.0419 3.6822
# 4 -16.5003 -36.6074 -22.1538 51.4555 6.8607 -4.4047
# 5 -31.8292 -5.7138 -20.0419 6.8607 31.4509 -7.9033
# 6 1.0963 6.7109 3.6822 -4.4047 -7.9033 43.0423
#
#
#
# Elastic Compliance Matrix: (Units=1/GPa)
#
#
# Indices 1 2 3 4 5 6 
#
# 1 0.013276 0.002014 0.007688 0.006845 0.017879 0.002674
# 2 0.002014 0.012022 0.000055 0.008881 0.002163 -0.000624
# 3 0.007688 0.000055 0.063166 0.024258 0.043996 0.004953
# 4 0.006845 0.008881 0.024258 0.036417 0.016856 0.003188
# 5 0.017879 0.002163 0.043996 0.016856 0.077507 0.011400
# 6 0.002674 -0.000624 0.004953 0.003188 0.011400 0.025258
#
#
# Mechanical properties :
#
#
# Convention : Reuss Voigt Hill
#
# Bulk Modulus (GPa) = 9.26110 36.23795 22.74953
# Shear Modulus (GPa) = 20.48136 41.00083 30.74110
#
# Velocity S-wave (km/s) = 2.90281 4.10710 3.55630
# Velocity P-wave (km/s) = 3.87881 6.11553 5.12079
#
# Compressibility (1/GPa) = 0.10797848
#
# Stress axis : x y z
#
# Youngs Moduli (GPa) = 75.32519 83.18037 15.83118
#
# Poissons Ratio (x) = -0.16752 -0.12171
# Poissons Ratio (y) = -0.15170 -0.00087
# Poissons Ratio (z) = -0.57911 -0.00458
#
# Static dielectric constant tensor:
#      x y z
#    x 4.706660 0.216170 -0.229730 
#    y 0.216170 5.040490 -0.464590 
#    z -0.229730 -0.464590 4.306060 
# 
# 
# High freq. dielectric constant tensor:
#      x y z
#    x 1.963130 0.008100 -0.014960 
#    y 0.008100 1.991760 -0.026630 
#    z -0.014960 -0.026630 1.926630 
# 
# From -- ./inp_files/216316.got.cif
#   From: 2010.06.25/outbox.cif.g09.slc.cpg/sg2_109_cif.got.tgz:216316.got - 2010.06.27 13:26:56.
