data_PCOD8023635
_publ_section_title
;
Structure prediction by ZEFSAII (Michael W. Deem and Ramdas Pophale) SiO2 
 PCOD8023635
Probable space group: P -1
;
_chemical_formula_sum "Si O2"
_cell_formula_units_Z 16
_cell_length_a 10.311156
_cell_length_b 11.827692
_cell_length_c 17.399346
_cell_angle_alpha 138.514724
_cell_angle_beta 31.793625
_cell_angle_gamma 120.511217
_cell_volume 688.127647
_symmetry_space_group_name_H-M "P -1"
_symmetry_group_IT_number 2
_symmetry_cell_setting 'triclinic'
loop_
_space_group_symop_operation_xyz
x,y,z
-x,-y,-z
loop_
_atom_site_type_symbol
_atom_site_label
_atom_site_fract_x
_atom_site_fract_y
_atom_site_fract_z
Si Si1 0.017423 0.386598 0.680550
Si Si2 0.830414 0.203838 0.552969
Si Si3 0.637594 0.904339 0.459344
Si Si4 0.074485 0.704762 0.036474
Si Si5 0.747999 0.517983 0.033365
Si Si6 0.119901 0.209969 0.100250
Si Si7 0.597232 0.155831 0.308105
Si Si8 0.199492 0.064155 0.154266
O O1 0.335978 0.321888 0.495023
O O2 0.990213 0.234252 0.559793
O O3 0.873339 0.592062 0.823593
O O4 0.878316 0.373282 0.824907
O O5 0.548476 0.365099 0.779440
O O6 0.999951 0.189052 0.382129
O O7 0.779141 0.016726 0.493930
O O8 0.425964 0.865432 0.599255
O O9 0.867200 0.723152 0.221529
O O10 0.500000 0.000000 0.500000
O O11 0.940511 0.638783 0.999561
O O12 0.135618 0.882403 0.073092
O O13 0.308476 0.555694 0.891248
O O14 0.149904 0.186813 0.165288
O O15 0.847796 0.213050 0.201019
O O16 0.358520 0.037793 0.855234
O O17 0.500000 0.000000 0.000000
#
# Coordination Sequence:
#
# PCOD8023635 Si02
#       8
#     2   2   2   2   2   2   2   2
#     4  12  26  46  67 107 146 181 230 289 361 416
#     4  11  25  42  71 101 138 179 230 290 354 409
#     4  11  20  42  72  97 131 179 233 292 345 398
#     4  10  23  41  73  98 133 176 238 284 343 408
#     4  11  23  43  69 107 132 178 228 299 346 408
#     4  11  27  43  72  99 143 196 231 281 342 428
#     4  11  24  46  69 104 142 187 238 282 347 419
#     4  11  26  49  69 100 138 187 233 286 349 419
#
# _framework density 23.251498999999999
#
# number of rings (size 3 to 8) (size 9 to 14) (size 15 to 20)
#    0.000    1.000    2.500    3.750    5.250    1.000 
#    4.500    0.000    0.000    0.000    0.000    0.000 
#    0.000    0.000    0.000    0.000    0.000    0.000 
#
# Total GULP energy -198262.112034 kJ/mol
# GULP energy per Si atom -12391.382002 kJ/mol
# Density = 2.319858 g / cm^3
# Si number density = 23.251499 Si / 1000 Ang^3
#
#
#
# Elastic Constant Matrix: (Units=GPa)
#
#
# Indices 1 2 3 4 5 6 
#
# 1 116.5638 20.5180 19.5382 2.5007 5.3469 -2.8603
# 2 20.5180 64.3574 -6.0331 4.2001 5.0838 -7.0781
# 3 19.5382 -6.0331 100.0025 -1.2035 -0.1192 -0.1910
# 4 2.5007 4.2001 -1.2035 30.4643 -0.6343 2.9034
# 5 5.3469 5.0838 -0.1192 -0.6343 39.6223 6.4054
# 6 -2.8603 -7.0781 -0.1910 2.9034 6.4054 29.8553
#
#
#
# Elastic Compliance Matrix: (Units=1/GPa)
#
#
# Indices 1 2 3 4 5 6 
#
# 1 0.009530 -0.003074 -0.002054 -0.000501 -0.000975 0.000429
# 2 -0.003074 0.017567 0.001635 -0.002608 -0.002636 0.004700
# 3 -0.002054 0.001635 0.010504 0.000340 0.000071 0.000210
# 4 -0.000501 -0.002608 0.000340 0.033682 0.001636 -0.004291
# 5 -0.000975 -0.002636 0.000071 0.001636 0.026806 -0.006628
# 6 0.000429 0.004700 0.000210 -0.004291 -0.006628 0.036491
#
#
# Mechanical properties :
#
#
# Convention : Reuss Voigt Hill
#
# Bulk Modulus (GPa) = 32.66337 38.77444 35.71890
# Shear Modulus (GPa) = 32.94418 36.44840 34.69629
#
# Velocity S-wave (km/s) = 3.76821 3.96355 3.86711
# Velocity P-wave (km/s) = 5.74551 6.13666 5.94430
#
# Compressibility (1/GPa) = 0.03061533
#
# Stress axis : x y z
#
# Youngs Moduli (GPa) = 104.92770 56.92556 95.19973
#
# Poissons Ratio (x) = 0.17499 0.19553
# Poissons Ratio (y) = 0.32255 -0.15564
# Poissons Ratio (z) = 0.21551 -0.09306
#
# Static dielectric constant tensor:
#      x y z
#    x 4.700520 -0.227620 -0.418360 
#    y -0.227620 4.075350 0.328660 
#    z -0.418360 0.328660 5.091640 
# 
# 
# High freq. dielectric constant tensor:
#      x y z
#    x 1.933180 -0.008750 -0.000770 
#    y -0.008750 1.898380 0.009160 
#    z -0.000770 0.009160 1.933010 
# 
# From -- ./inp_files/500776.got.cif
#   From: 2010.06.25/outbox.cif.g09.slc.cpg/sg2_251_cif.got.tgz:500776.got - 2010.06.27 13:26:56.
