data_PCOD8023805
_publ_section_title
;
Structure prediction by ZEFSAII (Michael W. Deem and Ramdas Pophale) SiO2 
 PCOD8023805
Probable space group: P -1
;
_chemical_formula_sum "Si O2"
_cell_formula_units_Z 16
_cell_length_a 8.570307
_cell_length_b 10.682876
_cell_length_c 10.341263
_cell_angle_alpha 65.673666
_cell_angle_beta 74.697780
_cell_angle_gamma 60.579164
_cell_volume 749.210795
_symmetry_space_group_name_H-M "P -1"
_symmetry_group_IT_number 2
_symmetry_cell_setting 'triclinic'
loop_
_space_group_symop_operation_xyz
x,y,z
-x,-y,-z
loop_
_atom_site_type_symbol
_atom_site_label
_atom_site_fract_x
_atom_site_fract_y
_atom_site_fract_z
Si Si1 0.022347 0.667512 0.288722
Si Si2 0.614054 0.336371 0.481539
Si Si3 0.209924 0.791124 0.754333
Si Si4 0.730695 0.654863 0.538446
Si Si5 0.647260 0.943023 0.884187
Si Si6 0.524473 0.888527 0.663216
Si Si7 0.881949 0.099586 0.713629
Si Si8 0.015031 0.347857 0.995209
O O1 0.189546 0.525908 0.377725
O O2 0.049414 0.821183 0.224471
O O3 0.847866 0.701495 0.397099
O O4 0.992145 0.629653 0.166344
O O5 0.500000 0.500000 0.500000
O O6 0.709830 0.334112 0.324571
O O7 0.466689 0.273541 0.514438
O O8 0.782135 0.225205 0.574554
O O9 0.361679 0.841883 0.748820
O O10 0.140859 0.705118 0.911033
O O11 0.042201 0.949526 0.680215
O O12 0.704679 0.736598 0.649353
O O13 0.561137 0.959087 0.754780
O O14 0.788996 0.771864 0.953297
O O15 0.739482 0.055757 0.832160
O O16 0.500000 0.000000 0.000000
O O17 0.500000 0.000000 0.500000
O O18 0.000000 0.500000 0.000000
#
# Coordination Sequence:
#
# PCOD8023805 Si02
#       8
#     2   2   2   2   2   2   2   2
#     4  11  24  42  69  95 135 178 228 279 341 406
#     4  11  22  41  67 102 131 171 225 283 338 395
#     4  10  25  42  69  99 135 177 225 279 338 421
#     4  10  23  42  66 101 129 177 228 284 331 408
#     4  11  27  43  68 100 138 177 227 281 337 414
#     4  11  23  45  71  99 138 178 229 278 347 398
#     4  11  24  41  66  99 134 176 222 276 344 401
#     4  11  27  46  67  95 136 184 224 280 352 404
#
# _framework density 21.355806000000001
#
# number of rings (size 3 to 8) (size 9 to 14) (size 15 to 20)
#    0.000    1.250    1.250    3.375    8.750    4.000 
#    0.000    3.125    0.000    0.000    0.000    0.000 
#    0.000    0.000    0.000    0.000    0.000    0.000 
#
# Total GULP energy -198303.339828 kJ/mol
# GULP energy per Si atom -12393.958739 kJ/mol
# Density = 2.130720 g / cm^3
# Si number density = 21.355806 Si / 1000 Ang^3
#
#
#
# Elastic Constant Matrix: (Units=GPa)
#
#
# Indices 1 2 3 4 5 6 
#
# 1 110.8549 59.0455 68.5957 10.1488 -13.1941 4.8424
# 2 59.0455 127.0623 58.5640 20.9285 -15.4315 11.9612
# 3 68.5957 58.5640 111.8622 18.1787 -7.0598 3.7077
# 4 10.1488 20.9285 18.1787 39.4752 0.7655 -3.9712
# 5 -13.1941 -15.4315 -7.0598 0.7655 38.6541 3.6925
# 6 4.8424 11.9612 3.7077 -3.9712 3.6925 36.5411
#
#
#
# Elastic Compliance Matrix: (Units=1/GPa)
#
#
# Indices 1 2 3 4 5 6 
#
# 1 0.016143 -0.003711 -0.008022 0.001441 0.002555 -0.000212
# 2 -0.003711 0.012727 -0.003231 -0.004805 0.003725 -0.004245
# 3 -0.008022 -0.003231 0.016059 -0.003579 -0.001044 0.000208
# 4 0.001441 -0.004805 -0.003579 0.029752 -0.003176 0.005299
# 5 0.002555 0.003725 -0.001044 -0.003176 0.028549 -0.004682
# 6 -0.000212 -0.004245 0.000208 0.005299 -0.004682 0.029812
#
#
# Mechanical properties :
#
#
# Convention : Reuss Voigt Hill
#
# Bulk Modulus (GPa) = 66.66078 80.24330 73.45204
# Shear Modulus (GPa) = 29.76705 33.83905 31.80305
#
# Velocity S-wave (km/s) = 3.73750 3.98494 3.86320
# Velocity P-wave (km/s) = 7.06451 7.67001 7.37348
#
# Compressibility (1/GPa) = 0.01500132
#
# Stress axis : x y z
#
# Youngs Moduli (GPa) = 61.94672 78.57170 62.27014
#
# Poissons Ratio (x) = 0.29159 0.49953
# Poissons Ratio (y) = 0.22990 0.20118
# Poissons Ratio (z) = 0.49694 0.25385
#
# Static dielectric constant tensor:
#      x y z
#    x 4.116960 0.048560 -0.002230 
#    y 0.048560 4.441410 0.187990 
#    z -0.002230 0.187990 3.712360 
# 
# 
# High freq. dielectric constant tensor:
#      x y z
#    x 1.847000 -0.001990 -0.007860 
#    y -0.001990 1.860260 0.008140 
#    z -0.007860 0.008140 1.824880 
# 
# From -- ./inp_files/184935.got.cif
#   From: 2010.06.25/outbox.cif.g09.slc.cpg/sg2_93_cif.got.tgz:184935.got - 2010.06.27 13:26:56.
