data_PCOD8023166
_publ_section_title
;
Structure prediction by ZEFSAII (Michael W. Deem and Ramdas Pophale) SiO2 
 PCOD8023166
Probable space group: P -1
;
_chemical_formula_sum "Si O2"
_cell_formula_units_Z 16
_cell_length_a 16.385424
_cell_length_b 18.572026
_cell_length_c 8.648029
_cell_angle_alpha 137.361546
_cell_angle_beta 140.374639
_cell_angle_gamma 24.015237
_cell_volume 677.834503
_symmetry_space_group_name_H-M "P -1"
_symmetry_group_IT_number 2
_symmetry_cell_setting 'triclinic'
loop_
_space_group_symop_operation_xyz
x,y,z
-x,-y,-z
loop_
_atom_site_type_symbol
_atom_site_label
_atom_site_fract_x
_atom_site_fract_y
_atom_site_fract_z
Si Si1 0.463239 0.115558 0.910700
Si Si2 0.787084 0.737234 0.689748
Si Si3 0.279801 0.559382 0.624155
Si Si4 0.069261 0.337531 0.880554
Si Si5 0.186627 0.519805 0.738169
Si Si6 0.901232 0.097487 0.171403
Si Si7 0.473393 0.730097 0.930754
Si Si8 0.658188 0.180685 0.448354
O O1 0.273578 0.179441 0.820335
O O2 0.407118 0.237318 0.884636
O O3 0.575983 0.948593 0.713272
O O4 0.591460 0.099370 0.204891
O O5 0.728022 0.652043 0.467615
O O6 0.940635 0.670552 0.668309
O O7 0.896532 0.698923 0.947721
O O8 0.197726 0.597927 0.740637
O O9 0.261124 0.694992 0.765280
O O10 0.515318 0.347549 0.620852
O O11 0.126108 0.607620 0.353734
O O12 0.000000 0.500000 0.000000
O O13 0.340804 0.458505 0.005388
O O14 0.740487 0.114097 0.028563
O O15 0.095184 0.985552 0.399486
O O16 0.000000 0.000000 0.000000
O O17 0.383967 0.736120 0.650711
#
# Coordination Sequence:
#
# PCOD8023166 Si02
#       8
#     2   2   2   2   2   2   2   2
#     4  10  23  40  71  99 135 177 227 285 337 414
#     4  11  23  39  66 101 142 180 222 280 345 414
#     4  12  26  44  74 100 141 184 225 286 347 405
#     4  12  20  42  69 100 137 176 225 275 344 416
#     4  11  24  41  65 101 143 182 223 278 349 416
#     4  12  28  47  71 101 136 182 236 288 342 405
#     4  10  25  46  67  98 137 178 235 281 334 410
#     4  10  23  48  70 101 131 177 234 284 342 406
#
# _framework density 23.604581
#
# number of rings (size 3 to 8) (size 9 to 14) (size 15 to 20)
#    0.750    0.250    2.500    3.750    3.500    5.000 
#    0.000    0.000    0.000    0.000    0.000    0.000 
#    0.000    0.000    0.000    0.000    0.000    0.000 
#
# Total GULP energy -198241.082044 kJ/mol
# GULP energy per Si atom -12390.067628 kJ/mol
# Density = 2.355086 g / cm^3
# Si number density = 23.604581 Si / 1000 Ang^3
#
#
#
# Elastic Constant Matrix: (Units=GPa)
#
#
# Indices 1 2 3 4 5 6 
#
# 1 73.4477 9.1060 17.2693 -2.3293 -19.6877 -4.1946
# 2 9.1060 90.8206 17.5671 13.7748 0.8415 -6.6923
# 3 17.2693 17.5671 51.7166 3.5833 -8.4167 6.3776
# 4 -2.3293 13.7748 3.5833 43.3071 0.4619 -5.7524
# 5 -19.6877 0.8415 -8.4167 0.4619 34.3474 -3.6062
# 6 -4.1946 -6.6923 6.3776 -5.7524 -3.6062 35.9241
#
#
#
# Elastic Compliance Matrix: (Units=1/GPa)
#
#
# Indices 1 2 3 4 5 6 
#
# 1 0.017641 -0.000974 -0.004668 0.002074 0.009382 0.003981
# 2 -0.000974 0.012635 -0.004279 -0.003395 -0.001630 0.002292
# 3 -0.004668 -0.004279 0.023571 -0.001601 0.002647 -0.005517
# 4 0.002074 -0.003395 -0.001601 0.024934 0.000962 0.003983
# 5 0.009382 -0.001630 0.002647 0.000962 0.035593 0.004049
# 6 0.003981 0.002292 -0.005517 0.003983 0.004049 0.030752
#
#
# Mechanical properties :
#
#
# Convention : Reuss Voigt Hill
#
# Bulk Modulus (GPa) = 29.40752 33.76329 31.58541
# Shear Modulus (GPa) = 28.36027 34.18523 31.27275
#
# Velocity S-wave (km/s) = 3.46999 3.80971 3.64381
# Velocity P-wave (km/s) = 5.34227 5.80402 5.57792
#
# Compressibility (1/GPa) = 0.03400491
#
# Stress axis : x y z
#
# Youngs Moduli (GPa) = 56.68494 79.14445 42.42567
#
# Poissons Ratio (x) = 0.07709 0.19803
# Poissons Ratio (y) = 0.05521 0.18156
# Poissons Ratio (z) = 0.26459 0.33869
#
# Static dielectric constant tensor:
#      x y z
#    x 4.142120 -0.085870 -0.281940 
#    y -0.085870 4.351710 -0.021870 
#    z -0.281940 -0.021870 4.096570 
# 
# 
# High freq. dielectric constant tensor:
#      x y z
#    x 1.937350 -0.005460 -0.018950 
#    y -0.005460 1.932070 -0.009720 
#    z -0.018950 -0.009720 1.924910 
# 
# From -- ./inp_files/338159.got.cif
#   From: 2010.06.25/outbox.cif.g09.slc.cpg/sg2_170_cif.got.tgz:338159.got - 2010.06.27 13:26:56.
