data_PCOD8023677
_publ_section_title
;
Structure prediction by ZEFSAII (Michael W. Deem and Ramdas Pophale) SiO2 
 PCOD8023677
Probable space group: P -1
;
_chemical_formula_sum "Si O2"
_cell_formula_units_Z 14
_cell_length_a 12.321077
_cell_length_b 8.458007
_cell_length_c 10.577747
_cell_angle_alpha 137.639355
_cell_angle_beta 62.758402
_cell_angle_gamma 120.180748
_cell_volume 634.976967
_symmetry_space_group_name_H-M "P -1"
_symmetry_group_IT_number 2
_symmetry_cell_setting 'triclinic'
loop_
_space_group_symop_operation_xyz
x,y,z
-x,-y,-z
loop_
_atom_site_type_symbol
_atom_site_label
_atom_site_fract_x
_atom_site_fract_y
_atom_site_fract_z
Si Si1 0.952998 0.261373 0.469503
Si Si2 0.648407 0.241962 0.338722
Si Si3 0.261562 0.143768 0.793689
Si Si4 0.218329 0.245045 0.383330
Si Si5 0.757432 0.352486 0.817051
Si Si6 0.347549 0.894939 0.013607
Si Si7 0.366989 0.141990 0.480932
O O1 0.889049 0.330314 0.672461
O O2 0.000000 0.500000 0.500000
O O3 0.067319 0.156134 0.394523
O O4 0.866316 0.044059 0.301532
O O5 0.740584 0.465730 0.496072
O O6 0.506837 0.270482 0.434916
O O7 0.658208 0.989413 0.241169
O O8 0.690752 0.268899 0.186309
O O9 0.348535 0.255721 0.692978
O O10 0.240804 0.363914 0.021198
O O11 0.262349 0.185334 0.464272
O O12 0.288615 0.124219 0.169736
O O13 0.727059 0.267049 0.927287
O O14 0.651056 0.154099 0.673942
O O15 0.500000 0.000000 0.000000
#
# Coordination Sequence:
#
# PCOD8023677 Si02
#       7
#     2   2   2   2   2   2   2
#     4  11  25  48  67  98 137 179 233 273 333 394
#     4  12  23  40  69 102 135 180 218 272 350 395
#     4  11  25  41  70  99 137 179 222 280 336 394
#     4  11  24  43  72  92 135 180 224 280 326 398
#     4  10  24  44  67  98 137 175 225 279 328 400
#     4  11  24  44  67 105 135 172 225 275 336 406
#     4  10  23  42  63 102 133 173 225 272 341 401
#
# _framework density 22.048044000000001
#
# number of rings (size 3 to 8) (size 9 to 14) (size 15 to 20)
#    0.000    1.143    4.286    1.714    4.000    7.429 
#    0.000    4.286    0.000    0.000    0.000    0.000 
#    0.000    0.000    0.000    0.000    0.000    0.000 
#
# Total GULP energy -173482.641392 kJ/mol
# GULP energy per Si atom -12391.617242 kJ/mol
# Density = 2.199786 g / cm^3
# Si number density = 22.048044 Si / 1000 Ang^3
#
#
#
# Elastic Constant Matrix: (Units=GPa)
#
#
# Indices 1 2 3 4 5 6 
#
# 1 96.5724 25.4156 21.1044 -11.0762 -20.7702 7.5345
# 2 25.4156 87.3990 26.3226 -15.0756 -14.0640 9.4385
# 3 21.1044 26.3226 112.7385 4.2982 -21.4637 24.0026
# 4 -11.0762 -15.0756 4.2982 45.9818 3.9250 -5.0498
# 5 -20.7702 -14.0640 -21.4637 3.9250 28.9834 0.9714
# 6 7.5345 9.4385 24.0026 -5.0498 0.9714 23.3595
#
#
#
# Elastic Compliance Matrix: (Units=1/GPa)
#
#
# Indices 1 2 3 4 5 6 
#
# 1 0.013099 -0.001877 0.000465 0.001305 0.008780 -0.004028
# 2 -0.001877 0.014051 -0.001825 0.003730 0.003702 -0.002544
# 3 0.000465 -0.001825 0.015165 -0.004731 0.011873 -0.016512
# 4 0.001305 0.003730 -0.004731 0.025043 -0.004435 0.008531
# 5 0.008780 0.003702 0.011873 -0.004435 0.052643 -0.019675
# 6 -0.004028 -0.002544 -0.016512 0.008531 -0.019675 0.064765
#
#
# Mechanical properties :
#
#
# Convention : Reuss Voigt Hill
#
# Bulk Modulus (GPa) = 27.89954 49.15501 38.52728
# Shear Modulus (GPa) = 24.60796 34.58942 29.59869
#
# Velocity S-wave (km/s) = 3.34444 3.96513 3.66794
# Velocity P-wave (km/s) = 5.25311 6.58072 5.95404
#
# Compressibility (1/GPa) = 0.03584288
#
# Stress axis : x y z
#
# Youngs Moduli (GPa) = 76.34012 71.16923 65.94027
#
# Poissons Ratio (x) = 0.13355 -0.03068
# Poissons Ratio (y) = 0.14326 0.12035
# Poissons Ratio (z) = -0.03552 0.12989
#
# Static dielectric constant tensor:
#      x y z
#    x 3.755010 0.080540 -0.063170 
#    y 0.080540 4.024090 0.043660 
#    z -0.063170 0.043660 4.450810 
# 
# 
# High freq. dielectric constant tensor:
#      x y z
#    x 1.848910 0.002280 -0.002970 
#    y 0.002280 1.872260 -0.000470 
#    z -0.002970 -0.000470 1.884540 
# 
# From -- ./inp_files/260940.got.cif
#   From: 2010.06.25/outbox.cif.g09.slc.cpg/sg2_131_cif.got.tgz:260940.got - 2010.06.27 13:26:56.
