data_PCOD8023378
_publ_section_title
;
Structure prediction by ZEFSAII (Michael W. Deem and Ramdas Pophale) SiO2 
 PCOD8023378
Probable space group: P -1
;
_chemical_formula_sum "Si O2"
_cell_formula_units_Z 16
_cell_length_a 8.281926
_cell_length_b 22.284092
_cell_length_c 6.546796
_cell_angle_alpha 133.952196
_cell_angle_beta 96.088156
_cell_angle_gamma 61.911790
_cell_volume 719.560803
_symmetry_space_group_name_H-M "P -1"
_symmetry_group_IT_number 2
_symmetry_cell_setting 'triclinic'
loop_
_space_group_symop_operation_xyz
x,y,z
-x,-y,-z
loop_
_atom_site_type_symbol
_atom_site_label
_atom_site_fract_x
_atom_site_fract_y
_atom_site_fract_z
Si Si1 0.069854 0.194446 0.343559
Si Si2 0.883463 0.946270 0.657809
Si Si3 0.694304 0.108715 0.324118
Si Si4 0.713854 0.420724 0.259008
Si Si5 0.654306 0.294312 0.625611
Si Si6 0.669174 0.982861 0.333975
Si Si7 0.740579 0.551446 0.251067
Si Si8 0.981838 0.383668 0.575317
O O1 0.118504 0.147433 0.467981
O O2 0.847184 0.224381 0.345943
O O3 0.062030 0.296052 0.550008
O O4 0.239932 0.112454 0.026626
O O5 0.850556 0.955042 0.434189
O O6 0.085898 0.934930 0.684767
O O7 0.706350 0.048288 0.980698
O O8 0.577902 0.227680 0.549310
O O9 0.592522 0.084240 0.433225
O O10 0.500000 0.500000 0.500000
O O11 0.783329 0.479251 0.274173
O O12 0.873440 0.366549 0.334441
O O13 0.710348 0.339028 0.926658
O O14 0.491106 0.377454 0.650821
O O15 0.500000 0.000000 0.500000
O O16 0.833173 0.614631 0.470125
O O17 0.828385 0.490182 0.908753
#
# Coordination Sequence:
#
# PCOD8023378 Si02
#       8
#     2   2   2   2   2   2   2   2
#     4  10  23  41  66  93 123 173 214 258 318 386
#     4   9  20  42  63  90 123 160 210 263 310 372
#     4   9  21  40  63  92 121 164 209 261 312 374
#     4  12  23  42  66  96 130 173 220 265 314 377
#     4  11  22  43  68  95 127 173 220 264 313 381
#     4  11  24  41  64  95 131 164 205 263 326 379
#     4  11  24  44  63  94 135 167 211 274 323 373
#     4  11  24  42  66  95 133 171 210 266 328 379
#
# _framework density 22.235783999999999
#
# number of rings (size 3 to 8) (size 9 to 14) (size 15 to 20)
#    0.000    1.500    2.500    2.625    3.500    4.000 
#    4.500    0.000    0.000    0.000    0.000    0.000 
#    0.000    0.000    0.000    0.000    0.000    0.000 
#
# Total GULP energy -198303.319832 kJ/mol
# GULP energy per Si atom -12393.957489 kJ/mol
# Density = 2.218517 g / cm^3
# Si number density = 22.235784 Si / 1000 Ang^3
#
#
#
# Elastic Constant Matrix: (Units=GPa)
#
#
# Indices 1 2 3 4 5 6 
#
# 1 77.9212 15.2912 22.2406 8.1603 -9.8687 16.2125
# 2 15.2912 76.8929 25.6614 18.4731 12.8569 29.2566
# 3 22.2406 25.6614 45.8826 9.6646 -4.2694 1.7383
# 4 8.1603 18.4731 9.6646 33.9174 3.8342 6.9664
# 5 -9.8687 12.8569 -4.2694 3.8342 35.1429 -0.0629
# 6 16.2125 29.2566 1.7383 6.9664 -0.0629 43.0801
#
#
#
# Elastic Compliance Matrix: (Units=1/GPa)
#
#
# Indices 1 2 3 4 5 6 
#
# 1 0.016890 0.002032 -0.008410 -0.001667 0.003147 -0.007123
# 2 0.002032 0.028146 -0.015719 -0.006354 -0.010976 -0.018234
# 3 -0.008410 -0.015719 0.035582 -0.003121 0.008076 0.012921
# 4 -0.001667 -0.006354 -0.003121 0.034603 -0.002299 -0.000531
# 5 0.003147 -0.010976 0.008076 -0.002299 0.034598 0.006366
# 6 -0.007123 -0.018234 0.012921 -0.000531 0.006366 0.037850
#
#
# Mechanical properties :
#
#
# Convention : Reuss Voigt Hill
#
# Bulk Modulus (GPa) = 27.45362 36.34258 31.89810
# Shear Modulus (GPa) = 20.49144 31.59500 26.04322
#
# Velocity S-wave (km/s) = 3.03900 3.77358 3.42604
# Velocity P-wave (km/s) = 4.96865 5.94695 5.47967
#
# Compressibility (1/GPa) = 0.03642507
#
# Stress axis : x y z
#
# Youngs Moduli (GPa) = 59.20582 35.52878 28.10406
#
# Poissons Ratio (x) = -0.07220 0.23636
# Poissons Ratio (y) = -0.12032 0.44177
# Poissons Ratio (z) = 0.49792 0.55848
#
# Static dielectric constant tensor:
#      x y z
#    x 3.984790 0.170000 -0.010310 
#    y 0.170000 4.200800 -0.008060 
#    z -0.010310 -0.008060 3.992040 
# 
# 
# High freq. dielectric constant tensor:
#      x y z
#    x 1.875600 0.012550 -0.004050 
#    y 0.012550 1.883530 0.005780 
#    z -0.004050 0.005780 1.856950 
# 
# From -- ./inp_files/53969.got.cif
#   From: 2010.06.25/outbox.cif.g09.slc.cpg/sg2_27_cif.got.tgz:53969.got - 2010.06.27 13:26:56.
