data_PCOD8023912
_publ_section_title
;
Structure prediction by ZEFSAII (Michael W. Deem and Ramdas Pophale) SiO2 
 PCOD8023912
Probable space group: P -1
;
_chemical_formula_sum "Si O2"
_cell_formula_units_Z 16
_cell_length_a 15.172120
_cell_length_b 9.043943
_cell_length_c 12.053770
_cell_angle_alpha 50.499897
_cell_angle_beta 69.478112
_cell_angle_gamma 110.385669
_cell_volume 731.902485
_symmetry_space_group_name_H-M "P -1"
_symmetry_group_IT_number 2
_symmetry_cell_setting 'triclinic'
loop_
_space_group_symop_operation_xyz
x,y,z
-x,-y,-z
loop_
_atom_site_type_symbol
_atom_site_label
_atom_site_fract_x
_atom_site_fract_y
_atom_site_fract_z
Si Si1 0.009788 0.357301 0.875486
Si Si2 0.120630 0.958158 0.556940
Si Si3 0.843165 0.780704 0.801155
Si Si4 0.575287 0.575971 0.241350
Si Si5 0.278815 0.536284 0.630146
Si Si6 0.738316 0.756272 0.413323
Si Si7 0.521171 0.172019 0.305599
Si Si8 0.897436 0.180752 0.760561
O O1 0.097273 0.693937 0.704855
O O2 0.125872 0.366242 0.841423
O O3 0.965362 0.269347 0.809630
O O4 0.860145 0.101664 0.141705
O O5 0.957118 0.797700 0.707725
O O6 0.194037 0.128723 0.324494
O O7 0.227990 0.212619 0.486234
O O8 0.906140 0.995012 0.778392
O O9 0.689822 0.415760 0.066816
O O10 0.655739 0.542658 0.296991
O O11 0.438516 0.460099 0.422655
O O12 0.499645 0.356333 0.269497
O O13 0.714619 0.942545 0.967079
O O14 0.244344 0.418229 0.574943
O O15 0.397158 0.906404 0.395509
O O16 0.500000 0.000000 0.500000
O O17 0.000000 0.500000 0.500000
#
# Coordination Sequence:
#
# PCOD8023912 Si02
#       8
#     2   2   2   2   2   2   2   2
#     4  12  25  40  69  99 129 172 222 270 322 389
#     4  11  25  42  65  95 136 173 217 264 332 380
#     4  10  23  45  67  96 130 176 213 273 319 396
#     4  10  23  42  67  97 131 170 213 272 331 380
#     4  11  23  41  65  99 131 170 214 273 327 380
#     4  12  25  41  66 101 137 162 221 277 320 387
#     4   9  21  38  67  91 126 168 219 256 324 379
#     4  11  22  44  69  95 130 174 217 265 329 392
#
# _framework density 21.860834000000001
#
# number of rings (size 3 to 8) (size 9 to 14) (size 15 to 20)
#    0.000    1.250    2.500    2.625    8.750    0.000 
#    2.250    2.500    0.000    0.000    0.000    0.000 
#    0.000    0.000    0.000    0.000    0.000    0.000 
#
# Total GULP energy -198341.118515 kJ/mol
# GULP energy per Si atom -12396.319907 kJ/mol
# Density = 2.181108 g / cm^3
# Si number density = 21.860834 Si / 1000 Ang^3
#
#
#
# Elastic Constant Matrix: (Units=GPa)
#
#
# Indices 1 2 3 4 5 6 
#
# 1 73.5137 17.6467 42.5616 7.4040 -14.0297 -8.2140
# 2 17.6467 128.9698 31.0891 -11.2040 0.5562 8.9267
# 3 42.5616 31.0891 156.3970 -10.5533 -19.6145 -4.4786
# 4 7.4040 -11.2040 -10.5533 39.7856 -0.2587 -0.2471
# 5 -14.0297 0.5562 -19.6145 -0.2587 25.3794 8.4028
# 6 -8.2140 8.9267 -4.4786 -0.2471 8.4028 32.1320
#
#
#
# Elastic Compliance Matrix: (Units=1/GPa)
#
#
# Indices 1 2 3 4 5 6 
#
# 1 0.018530 -0.002237 -0.004096 -0.005106 0.006024 0.003173
# 2 -0.002237 0.008774 -0.001223 0.002536 -0.001425 -0.002788
# 3 -0.004096 -0.001223 0.008488 0.002695 0.004582 -0.000702
# 4 -0.005106 0.002536 0.002695 0.027505 -0.000048 -0.001410
# 5 0.006024 -0.001425 0.004582 -0.000048 0.049760 -0.010439
# 6 0.003173 -0.002788 -0.000702 -0.001410 -0.010439 0.035328
#
#
# Mechanical properties :
#
#
# Convention : Reuss Voigt Hill
#
# Bulk Modulus (GPa) = 48.35587 60.16394 54.25990
# Shear Modulus (GPa) = 29.34420 37.29826 33.32123
#
# Velocity S-wave (km/s) = 3.66774 4.13506 3.90839
# Velocity P-wave (km/s) = 6.33280 7.09784 6.72621
#
# Compressibility (1/GPa) = 0.02068001
#
# Stress axis : x y z
#
# Youngs Moduli (GPa) = 53.96687 113.97258 117.81030
#
# Poissons Ratio (x) = 0.25498 0.48257
# Poissons Ratio (y) = 0.12073 0.14405
# Poissons Ratio (z) = 0.22106 0.13936
#
# Static dielectric constant tensor:
#      x y z
#    x 3.922150 -0.224480 0.151210 
#    y -0.224480 4.966500 -0.613710 
#    z 0.151210 -0.613710 4.673580 
# 
# 
# High freq. dielectric constant tensor:
#      x y z
#    x 1.829600 0.002410 -0.018220 
#    y 0.002410 1.879190 -0.003350 
#    z -0.018220 -0.003350 1.864520 
# 
# From -- ./inp_files/306550.got.cif
#   From: 2010.06.25/outbox.cif.g09.slc.cpg/sg2_154_cif.got.tgz:306550.got - 2010.06.27 13:26:56.
