data_PCOD8023553
_publ_section_title
;
Structure prediction by ZEFSAII (Michael W. Deem and Ramdas Pophale) SiO2 
 PCOD8023553
Probable space group: P -1
;
_chemical_formula_sum "Si O2"
_cell_formula_units_Z 16
_cell_length_a 19.538464
_cell_length_b 11.404537
_cell_length_c 11.301720
_cell_angle_alpha 44.043600
_cell_angle_beta 147.526370
_cell_angle_gamma 148.937022
_cell_volume 697.599404
_symmetry_space_group_name_H-M "P -1"
_symmetry_group_IT_number 2
_symmetry_cell_setting 'triclinic'
loop_
_space_group_symop_operation_xyz
x,y,z
-x,-y,-z
loop_
_atom_site_type_symbol
_atom_site_label
_atom_site_fract_x
_atom_site_fract_y
_atom_site_fract_z
Si Si1 0.607795 0.496390 0.313011
Si Si2 0.051866 0.704620 0.269697
Si Si3 0.273243 0.979145 0.171363
Si Si4 0.111197 0.115574 0.698590
Si Si5 0.909283 0.217765 0.456922
Si Si6 0.399386 0.266979 0.662884
Si Si7 0.732608 0.540300 0.812557
Si Si8 0.190932 0.595582 0.199838
O O1 0.688738 0.658377 0.198874
O O2 0.544172 0.584660 0.245193
O O3 0.773031 0.540225 0.572696
O O4 0.448913 0.236032 0.246264
O O5 0.209371 0.870730 0.288095
O O6 0.116405 0.791361 0.433095
O O7 0.974734 0.448420 0.327752
O O8 0.899451 0.701780 0.022176
O O9 0.314994 0.851623 0.246172
O O10 0.119635 0.946634 0.905047
O O11 0.041853 0.190812 0.634030
O O12 0.000000 0.000000 0.500000
O O13 0.723344 0.999848 0.291421
O O14 0.567798 0.343652 0.791472
O O15 0.293449 0.300811 0.399640
O O16 0.761409 0.409272 0.860764
O O17 0.000000 0.500000 0.000000
#
# Coordination Sequence:
#
# PCOD8023553 Si02
#       8
#     2   2   2   2   2   2   2   2
#     4  11  25  45  69 106 142 180 233 293 350 410
#     4  11  26  45  70 102 139 184 235 282 355 413
#     4  12  26  44  73 104 139 186 234 292 347 417
#     4  12  25  45  72 103 142 184 234 290 351 419
#     4  11  26  46  69 101 142 184 228 296 343 414
#     4  10  23  44  69 102 137 182 232 288 348 408
#     4  10  23  41  70 102 136 183 235 282 343 421
#     4  11  22  42  69 104 139 185 233 281 348 419
#
# _framework density 22.935798999999999
#
# number of rings (size 3 to 8) (size 9 to 14) (size 15 to 20)
#    0.000    1.000    2.500    3.000    8.750    1.500 
#    2.250    0.000    0.000    0.000    0.000    0.000 
#    0.000    0.000    0.000    0.000    0.000    0.000 
#
# Total GULP energy -198406.685805 kJ/mol
# GULP energy per Si atom -12400.417863 kJ/mol
# Density = 2.288360 g / cm^3
# Si number density = 22.935799 Si / 1000 Ang^3
#
#
#
# Elastic Constant Matrix: (Units=GPa)
#
#
# Indices 1 2 3 4 5 6 
#
# 1 133.3899 52.2641 25.4203 -5.9911 18.4914 4.1108
# 2 52.2641 130.5701 -3.2956 5.7082 -1.2428 4.0117
# 3 25.4203 -3.2956 45.5882 -0.6438 0.6799 1.9125
# 4 -5.9911 5.7082 -0.6438 30.9733 4.2810 0.0928
# 5 18.4914 -1.2428 0.6799 4.2810 36.1875 0.2279
# 6 4.1108 4.0117 1.9125 0.0928 0.2279 40.5189
#
#
#
# Elastic Compliance Matrix: (Units=1/GPa)
#
#
# Indices 1 2 3 4 5 6 
#
# 1 0.011948 -0.005185 -0.006867 0.004042 -0.006631 -0.000347
# 2 -0.005185 0.010016 0.003547 -0.003231 0.003313 -0.000644
# 3 -0.006867 0.003547 0.025981 -0.001906 0.003374 -0.000895
# 4 0.004042 -0.003231 -0.001906 0.034483 -0.006219 -0.000044
# 5 -0.006631 0.003313 0.003374 -0.006219 0.031808 0.000021
# 6 -0.000347 -0.000644 -0.000895 -0.000044 0.000021 0.024821
#
#
# Mechanical properties :
#
#
# Convention : Reuss Voigt Hill
#
# Bulk Modulus (GPa) = 32.32399 50.92508 41.62454
# Shear Modulus (GPa) = 30.05167 37.21322 33.63245
#
# Velocity S-wave (km/s) = 3.62367 4.03239 3.83348
# Velocity P-wave (km/s) = 5.62421 6.62810 6.14669
#
# Compressibility (1/GPa) = 0.03093677
#
# Stress axis : x y z
#
# Youngs Moduli (GPa) = 83.69293 99.83690 38.48917
#
# Poissons Ratio (x) = 0.51767 0.26430
# Poissons Ratio (y) = 0.43396 -0.13653
# Poissons Ratio (z) = 0.57471 -0.35416
#
# Static dielectric constant tensor:
#      x y z
#    x 4.239130 -0.022430 0.009830 
#    y -0.022430 4.185670 -0.142950 
#    z 0.009830 -0.142950 4.131260 
# 
# 
# High freq. dielectric constant tensor:
#      x y z
#    x 1.914130 -0.000510 0.002780 
#    y -0.000510 1.915680 -0.002990 
#    z 0.002780 -0.002990 1.898270 
# 
# From -- ./inp_files/471152.got.cif
#   From: 2010.06.25/outbox.cif.g09.slc.cpg/sg2_236_cif.got.tgz:471152.got - 2010.06.27 13:26:56.
