data_PCOD8023645
_publ_section_title
;
Structure prediction by ZEFSAII (Michael W. Deem and Ramdas Pophale) SiO2 
 PCOD8023645
Probable space group: P -1
;
_chemical_formula_sum "Si O2"
_cell_formula_units_Z 16
_cell_length_a 10.213827
_cell_length_b 18.514928
_cell_length_c 6.888072
_cell_angle_alpha 127.776855
_cell_angle_beta 85.244361
_cell_angle_gamma 60.982509
_cell_volume 752.004713
_symmetry_space_group_name_H-M "P -1"
_symmetry_group_IT_number 2
_symmetry_cell_setting 'triclinic'
loop_
_space_group_symop_operation_xyz
x,y,z
-x,-y,-z
loop_
_atom_site_type_symbol
_atom_site_label
_atom_site_fract_x
_atom_site_fract_y
_atom_site_fract_z
Si Si1 0.261882 0.174132 0.214220
Si Si2 0.387169 0.753008 0.382086
Si Si3 0.011019 0.387970 0.321924
Si Si4 0.483288 0.911262 0.639190
Si Si5 0.855648 0.798100 0.321285
Si Si6 0.079001 0.863516 0.307039
Si Si7 0.629426 0.527559 0.726257
Si Si8 0.622159 0.323532 0.333275
O O1 0.187361 0.280236 0.243927
O O2 0.443736 0.129436 0.213329
O O3 0.116129 0.224557 0.486684
O O4 0.308408 0.058669 0.902524
O O5 0.423870 0.839963 0.458192
O O6 0.205802 0.805031 0.385262
O O7 0.371328 0.750595 0.611933
O O8 0.557658 0.612040 0.065406
O O9 0.000000 0.500000 0.500000
O O10 0.841485 0.432096 0.531880
O O11 0.023178 0.335557 0.021825
O O12 0.643955 0.878426 0.432479
O O13 0.913834 0.872248 0.374068
O O14 0.189192 0.774182 0.962209
O O15 0.000000 0.000000 0.500000
O O16 0.581556 0.444036 0.614379
O O17 0.539126 0.621140 0.705761
#
# Coordination Sequence:
#
# PCOD8023645 Si02
#       8
#     2   2   2   2   2   2   2   2
#     4   9  24  44  65  93 134 167 222 263 338 390
#     4  11  24  42  70  94 130 176 219 272 333 390
#     4  12  25  40  69  99 130 174 219 274 330 387
#     4   9  22  47  66  98 126 173 222 268 332 392
#     4  10  23  45  66  95 136 171 211 278 328 385
#     4  11  26  42  64 105 132 167 223 271 330 398
#     4  10  23  42  58  97 129 168 227 256 328 392
#     4  10  23  42  65  88 133 178 211 269 327 397
#
# _framework density 21.276464000000001
#
# number of rings (size 3 to 8) (size 9 to 14) (size 15 to 20)
#    0.750    1.000    1.250    1.125    7.000    2.500 
#    2.250    0.000    0.000    0.000    0.000    0.000 
#    0.000    0.000    0.000    0.000    0.000    0.000 
#
# Total GULP energy -198362.864089 kJ/mol
# GULP energy per Si atom -12397.679006 kJ/mol
# Density = 2.122804 g / cm^3
# Si number density = 21.276464 Si / 1000 Ang^3
#
#
#
# Elastic Constant Matrix: (Units=GPa)
#
#
# Indices 1 2 3 4 5 6 
#
# 1 100.1410 33.4292 36.5889 1.5926 -0.7279 24.7375
# 2 33.4292 109.4617 47.7022 11.9002 -0.1418 11.8868
# 3 36.5889 47.7022 108.7373 8.9954 3.0542 15.6065
# 4 1.5926 11.9002 8.9954 34.4299 7.5889 3.6087
# 5 -0.7279 -0.1418 3.0542 7.5889 29.1296 8.5498
# 6 24.7375 11.8868 15.6065 3.6087 8.5498 30.6376
#
#
#
# Elastic Compliance Matrix: (Units=1/GPa)
#
#
# Indices 1 2 3 4 5 6 
#
# 1 0.014227 -0.002243 -0.002495 0.001118 0.003373 -0.010419
# 2 -0.002243 0.012095 -0.004215 -0.003228 0.001513 -0.000776
# 3 -0.002495 -0.004215 0.012348 -0.001331 -0.000329 -0.002391
# 4 0.001118 -0.003228 -0.001331 0.032298 -0.008112 -0.000513
# 5 0.003373 0.001513 -0.000329 -0.008112 0.040531 -0.013498
# 6 -0.010419 -0.000776 -0.002391 -0.000513 -0.013498 0.046398
#
#
# Mechanical properties :
#
#
# Convention : Reuss Voigt Hill
#
# Bulk Modulus (GPa) = 48.16353 61.53115 54.84734
# Shear Modulus (GPa) = 27.36374 32.21407 29.78891
#
# Velocity S-wave (km/s) = 3.59012 3.89533 3.74583
# Velocity P-wave (km/s) = 6.31438 7.01527 6.67403
#
# Compressibility (1/GPa) = 0.02076260
#
# Stress axis : x y z
#
# Youngs Moduli (GPa) = 70.28996 82.68046 80.98698
#
# Poissons Ratio (x) = 0.18548 0.20205
# Poissons Ratio (y) = 0.15768 0.34137
# Poissons Ratio (z) = 0.17537 0.34851
#
# Static dielectric constant tensor:
#      x y z
#    x 3.481030 -0.061980 0.046950 
#    y -0.061980 3.629850 0.111660 
#    z 0.046950 0.111660 3.957510 
# 
# 
# High freq. dielectric constant tensor:
#      x y z
#    x 1.823140 0.002130 0.005320 
#    y 0.002130 1.822550 0.008550 
#    z 0.005320 0.008550 1.847070 
# 
# From -- ./inp_files/79960.got.cif
#   From: 2010.06.25/outbox.cif.g09.slc.cpg/sg2_40_cif.got.tgz:79960.got - 2010.06.27 13:26:56.
