data_PCOD8023465
_publ_section_title
;
Structure prediction by ZEFSAII (Michael W. Deem and Ramdas Pophale) SiO2 
 PCOD8023465
Probable space group: P -1
;
_chemical_formula_sum "Si O2"
_cell_formula_units_Z 16
_cell_length_a 15.118092
_cell_length_b 5.692983
_cell_length_c 18.260252
_cell_angle_alpha 101.495160
_cell_angle_beta 27.600981
_cell_angle_gamma 109.868894
_cell_volume 665.807111
_symmetry_space_group_name_H-M "P -1"
_symmetry_group_IT_number 2
_symmetry_cell_setting 'triclinic'
loop_
_space_group_symop_operation_xyz
x,y,z
-x,-y,-z
loop_
_atom_site_type_symbol
_atom_site_label
_atom_site_fract_x
_atom_site_fract_y
_atom_site_fract_z
Si Si1 0.706286 0.236572 0.648139
Si Si2 0.044568 0.052753 0.098192
Si Si3 0.098405 0.203490 0.530165
Si Si4 0.316009 0.583575 0.957576
Si Si5 0.643678 0.144057 0.199621
Si Si6 0.627218 0.004202 0.835381
Si Si7 0.684142 0.206452 0.336945
Si Si8 0.089835 0.317042 0.706669
O O1 0.833951 0.537185 0.554782
O O2 0.825293 0.031441 0.558605
O O3 0.536747 0.129595 0.702139
O O4 0.609740 0.211268 0.799794
O O5 0.886048 0.134794 0.172376
O O6 0.246825 0.279670 0.992931
O O7 0.924229 0.933926 0.253323
O O8 0.128979 0.870036 0.977043
O O9 0.168099 0.301580 0.567088
O O10 0.857174 0.062108 0.694062
O O11 0.370256 0.651812 0.836753
O O12 0.524206 0.716777 0.858320
O O13 0.134304 0.665392 0.127781
O O14 0.616334 0.244543 0.306567
O O15 0.500000 0.000000 0.000000
O O16 0.739534 0.456903 0.361227
O O17 0.500000 0.000000 0.500000
#
# Coordination Sequence:
#
# PCOD8023465 Si02
#       8
#     2   2   2   2   2   2   2   2
#     4  11  28  48  73 107 149 192 242 295 371 427
#     4  10  23  42  69  96 140 178 243 295 358 422
#     4  12  26  49  73 105 153 194 234 304 365 427
#     4   9  21  43  67 101 136 177 242 291 358 425
#     4  10  23  43  69  97 136 191 234 297 355 433
#     4  11  23  47  76 109 140 191 246 295 357 436
#     4  11  24  42  65 102 138 182 242 293 366 428
#     4  10  23  41  68 100 139 184 238 292 354 425
#
# _framework density 24.030984
#
# number of rings (size 3 to 8) (size 9 to 14) (size 15 to 20)
#    0.000    1.500    1.250    1.875    8.750    6.000 
#    4.500    3.125    0.000    0.000    0.000    0.000 
#    0.000    0.000    0.000    0.000    0.000    0.000 
#
# Total GULP energy -198243.963058 kJ/mol
# GULP energy per Si atom -12390.247691 kJ/mol
# Density = 2.397629 g / cm^3
# Si number density = 24.030984 Si / 1000 Ang^3
#
#
#
# Elastic Constant Matrix: (Units=GPa)
#
#
# Indices 1 2 3 4 5 6 
#
# 1 134.3822 56.1752 49.5094 -11.4538 25.0880 24.6597
# 2 56.1752 125.7094 55.7216 -27.4001 11.7111 -2.3024
# 3 49.5094 55.7216 105.1761 -26.9671 18.2056 8.7776
# 4 -11.4538 -27.4001 -26.9671 42.0997 1.7438 -5.4783
# 5 25.0880 11.7111 18.2056 1.7438 52.5463 -3.2482
# 6 24.6597 -2.3024 8.7776 -5.4783 -3.2482 33.2368
#
#
#
# Elastic Compliance Matrix: (Units=1/GPa)
#
#
# Indices 1 2 3 4 5 6 
#
# 1 0.012979 -0.005000 -0.002387 -0.002381 -0.004807 -0.010207
# 2 -0.005000 0.013163 -0.003948 0.005502 0.001051 0.006674
# 3 -0.002387 -0.003948 0.015122 0.006381 -0.003542 -0.001790
# 4 -0.002381 0.005502 0.006381 0.031598 -0.003017 0.005376
# 5 -0.004807 0.001051 -0.003542 -0.003017 0.022809 0.006307
# 6 -0.010207 0.006674 -0.001790 0.005376 0.006307 0.040098
#
#
# Mechanical properties :
#
#
# Convention : Reuss Voigt Hill
#
# Bulk Modulus (GPa) = 53.78307 76.45333 65.11820
# Shear Modulus (GPa) = 30.37002 39.16734 34.76868
#
# Velocity S-wave (km/s) = 3.55883 4.04154 3.80784
# Velocity P-wave (km/s) = 6.27028 7.32546 6.81831
#
# Compressibility (1/GPa) = 0.01859321
#
# Stress axis : x y z
#
# Youngs Moduli (GPa) = 77.05030 75.97228 66.12940
#
# Poissons Ratio (x) = 0.37984 0.15786
# Poissons Ratio (y) = 0.38523 0.26109
# Poissons Ratio (z) = 0.18393 0.29995
#
# Static dielectric constant tensor:
#      x y z
#    x 4.605330 0.121860 -0.016630 
#    y 0.121860 4.300280 -0.183460 
#    z -0.016630 -0.183460 4.566780 
# 
# 
# High freq. dielectric constant tensor:
#      x y z
#    x 1.958530 0.007280 -0.002900 
#    y 0.007280 1.939290 -0.014960 
#    z -0.002900 -0.014960 1.968660 
# 
# From -- ./inp_files/52522.got.cif
#   From: 2010.06.25/outbox.cif.g09.slc.cpg/sg2_27_cif.got.tgz:52522.got - 2010.06.27 13:26:56.
