data_PCOD8023816
_publ_section_title
;
Structure prediction by ZEFSAII (Michael W. Deem and Ramdas Pophale) SiO2 
 PCOD8023816
Probable space group: P -1
;
_chemical_formula_sum "Si O2"
_cell_formula_units_Z 14
_cell_length_a 13.742436
_cell_length_b 9.135645
_cell_length_c 7.366193
_cell_angle_alpha 95.534340
_cell_angle_beta 139.245422
_cell_angle_gamma 74.300288
_cell_volume 572.469489
_symmetry_space_group_name_H-M "P -1"
_symmetry_group_IT_number 2
_symmetry_cell_setting 'triclinic'
loop_
_space_group_symop_operation_xyz
x,y,z
-x,-y,-z
loop_
_atom_site_type_symbol
_atom_site_label
_atom_site_fract_x
_atom_site_fract_y
_atom_site_fract_z
Si Si1 0.188182 0.061659 0.395721
Si Si2 0.352428 0.715865 0.584252
Si Si3 0.245031 0.564857 0.736681
Si Si4 0.672442 0.766358 0.111395
Si Si5 0.352093 0.150623 0.317631
Si Si6 0.914282 0.142659 0.269796
Si Si7 0.586964 0.312430 0.736649
O O1 0.304917 0.100400 0.711885
O O2 0.212736 0.130982 0.243073
O O3 0.009853 0.137635 0.218017
O O4 0.217911 0.879607 0.399329
O O5 0.288784 0.601674 0.601010
O O6 0.393505 0.635099 0.435938
O O7 0.496309 0.761097 0.882248
O O8 0.213021 0.400685 0.681328
O O9 0.093659 0.699146 0.613331
O O10 0.396715 0.556451 0.083162
O O11 0.715965 0.799239 0.971806
O O12 0.421767 0.279570 0.521308
O O13 0.500000 0.000000 0.500000
O O14 0.733801 0.154341 0.968051
O O15 0.000000 0.000000 0.500000
#
# Coordination Sequence:
#
# PCOD8023816 Si02
#       7
#     2   2   2   2   2   2   2
#     4  12  23  40  66  97 127 162 219 254 318 373
#     4  11  21  38  69  95 121 167 216 264 317 365
#     4  10  23  43  61  96 128 172 207 258 325 369
#     4  11  25  39  66  96 133 163 207 272 315 374
#     4  11  23  40  65  99 125 164 209 267 319 361
#     4  10  23  42  66  91 128 175 207 263 307 379
#     4   9  22  41  63  92 126 160 221 252 311 376
#
# _framework density 24.455449999999999
#
# number of rings (size 3 to 8) (size 9 to 14) (size 15 to 20)
#    0.857    0.571    4.286    1.714    4.000    4.571 
#    2.571    0.714    0.000    0.000    0.000    0.000 
#    0.000    0.000    0.000    0.000    0.000    0.000 
#
# Total GULP energy -173562.669288 kJ/mol
# GULP energy per Si atom -12397.333521 kJ/mol
# Density = 2.439979 g / cm^3
# Si number density = 24.455450 Si / 1000 Ang^3
#
#
#
# Elastic Constant Matrix: (Units=GPa)
#
#
# Indices 1 2 3 4 5 6 
#
# 1 159.7582 37.4434 8.2823 -20.7946 -15.6246 22.9993
# 2 37.4434 77.1312 2.0748 -5.5726 -22.5247 10.9605
# 3 8.2823 2.0748 35.6794 -6.1932 -16.7117 17.0948
# 4 -20.7946 -5.5726 -6.1932 32.1264 0.2079 -10.5326
# 5 -15.6246 -22.5247 -16.7117 0.2079 38.0623 -10.0976
# 6 22.9993 10.9605 17.0948 -10.5326 -10.0976 35.2173
#
#
#
# Elastic Compliance Matrix: (Units=1/GPa)
#
#
# Indices 1 2 3 4 5 6 
#
# 1 0.007951 -0.002781 0.001175 0.003759 0.001204 -0.003428
# 2 -0.002781 0.018153 0.006990 0.001504 0.011759 -0.003405
# 3 0.001175 0.006990 0.046331 0.004796 0.020097 -0.018235
# 4 0.003759 0.001504 0.004796 0.037233 0.006382 0.007715
# 5 0.001204 0.011759 0.020097 0.006382 0.042485 -0.000111
# 6 -0.003428 -0.003405 -0.018235 0.007715 -0.000111 0.042821
#
#
# Mechanical properties :
#
#
# Convention : Reuss Voigt Hill
#
# Bulk Modulus (GPa) = 12.01885 40.90775 26.46330
# Shear Modulus (GPa) = 23.59151 36.06576 29.82864
#
# Velocity S-wave (km/s) = 3.10929 3.84442 3.49623
# Velocity P-wave (km/s) = 4.22084 6.03903 5.20986
#
# Compressibility (1/GPa) = 0.08320265
#
# Stress axis : x y z
#
# Youngs Moduli (GPa) = 125.77254 55.08588 21.58397
#
# Poissons Ratio (x) = 0.15320 -0.02536
# Poissons Ratio (y) = 0.34979 -0.15088
# Poissons Ratio (z) = -0.14775 -0.38506
#
# Static dielectric constant tensor:
#      x y z
#    x 4.491330 -0.000360 -0.100700 
#    y -0.000360 4.427960 -0.052210 
#    z -0.100700 -0.052210 4.144110 
# 
# 
# High freq. dielectric constant tensor:
#      x y z
#    x 1.973950 -0.005630 -0.016870 
#    y -0.005630 1.973300 -0.007710 
#    z -0.016870 -0.007710 1.948950 
# 
# From -- ./inp_files/290477.got.cif
#   From: 2010.06.25/outbox.cif.g09.slc.cpg/sg2_146_cif.got.tgz:290477.got - 2010.06.27 13:26:56.
