data_PCOD8023730
_publ_section_title
;
Structure prediction by ZEFSAII (Michael W. Deem and Ramdas Pophale) SiO2 
 PCOD8023730
Probable space group: P -1
;
_chemical_formula_sum "Si O2"
_cell_formula_units_Z 12
_cell_length_a 9.048116
_cell_length_b 5.145608
_cell_length_c 13.316839
_cell_angle_alpha 98.216804
_cell_angle_beta 124.631341
_cell_angle_gamma 79.652582
_cell_volume 501.220820
_symmetry_space_group_name_H-M "P -1"
_symmetry_group_IT_number 2
_symmetry_cell_setting 'triclinic'
loop_
_space_group_symop_operation_xyz
x,y,z
-x,-y,-z
loop_
_atom_site_type_symbol
_atom_site_label
_atom_site_fract_x
_atom_site_fract_y
_atom_site_fract_z
Si Si1 0.630947 0.842985 0.324095
Si Si2 0.973154 0.771621 0.337449
Si Si3 0.892735 0.755548 0.927086
Si Si4 0.071420 0.755100 0.806648
Si Si5 0.619149 0.373395 0.447852
Si Si6 0.393832 0.925377 0.051878
O O1 0.840659 0.882157 0.383143
O O2 0.619077 0.594883 0.376153
O O3 0.530647 0.779530 0.178283
O O4 0.541157 0.113721 0.358305
O O5 0.902557 0.491486 0.270750
O O6 0.179975 0.727960 0.444767
O O7 0.949809 0.968541 0.244931
O O8 0.890489 0.727523 0.802777
O O9 0.699407 0.812580 0.910476
O O10 0.000000 0.500000 0.000000
O O11 0.000000 0.000000 0.000000
O O12 0.245497 0.740427 0.947162
O O13 0.500000 0.500000 0.500000
O O14 0.500000 0.000000 0.000000
#
# Coordination Sequence:
#
# PCOD8023730 Si02
#       6
#     2   2   2   2   2   2
#     4  12  27  48  75 108 146 192 236 303 361 428
#     4  12  25  47  77 100 148 190 246 290 368 422
#     4  10  23  42  64  96 144 189 231 275 347 423
#     4  11  24  44  73 108 142 198 228 297 362 437
#     4  12  29  50  77 105 141 191 253 304 352 418
#     4  11  25  46  73 112 152 183 241 291 364 438
#
# _framework density 23.941541999999998
#
# number of rings (size 3 to 8) (size 9 to 14) (size 15 to 20)
#    0.000    0.667    1.667    5.500    4.667    4.667 
#    0.000    0.000    0.000    0.000    0.000    0.000 
#    0.000    0.000    0.000    0.000    0.000    0.000 
#
# Total GULP energy -148762.566340 kJ/mol
# GULP energy per Si atom -12396.880528 kJ/mol
# Density = 2.388705 g / cm^3
# Si number density = 23.941542 Si / 1000 Ang^3
#
#
#
# Elastic Constant Matrix: (Units=GPa)
#
#
# Indices 1 2 3 4 5 6 
#
# 1 131.3141 26.4542 44.8970 -17.7163 -24.2918 -24.2406
# 2 26.4542 113.5633 35.1210 -7.0941 -5.9283 7.0674
# 3 44.8970 35.1210 130.7280 -14.5925 -3.8405 7.6735
# 4 -17.7163 -7.0941 -14.5925 43.1059 5.7908 -7.9049
# 5 -24.2918 -5.9283 -3.8405 5.7908 42.6173 -0.3893
# 6 -24.2406 7.0674 7.6735 -7.9049 -0.3893 42.2875
#
#
#
# Elastic Compliance Matrix: (Units=1/GPa)
#
#
# Indices 1 2 3 4 5 6 
#
# 1 0.012672 -0.001766 -0.003731 0.004509 0.006112 0.009135
# 2 -0.001766 0.009965 -0.001949 -0.000207 0.000211 -0.002361
# 3 -0.003731 -0.001949 0.009720 0.001041 -0.001694 -0.003398
# 4 0.004509 -0.000207 0.001041 0.026862 -0.000947 0.007443
# 5 0.006112 0.000211 -0.001694 -0.000947 0.026989 0.003847
# 6 0.009135 -0.002361 -0.003398 0.007443 0.003847 0.031322
#
#
# Mechanical properties :
#
#
# Convention : Reuss Voigt Hill
#
# Bulk Modulus (GPa) = 57.25607 65.39441 61.32524
# Shear Modulus (GPa) = 36.16794 43.54435 39.85614
#
# Velocity S-wave (km/s) = 3.89096 4.26934 4.08453
# Velocity P-wave (km/s) = 6.64477 7.18864 6.92205
#
# Compressibility (1/GPa) = 0.01746540
#
# Stress axis : x y z
#
# Youngs Moduli (GPa) = 78.91369 100.35385 102.87712
#
# Poissons Ratio (x) = 0.17721 0.38384
# Poissons Ratio (y) = 0.13935 0.20050
# Poissons Ratio (z) = 0.29443 0.19559
#
# Static dielectric constant tensor:
#      x y z
#    x 5.229490 -0.719170 -0.217920 
#    y -0.719170 4.772710 0.260860 
#    z -0.217920 0.260860 4.746120 
# 
# 
# High freq. dielectric constant tensor:
#      x y z
#    x 1.964240 -0.013450 -0.014990 
#    y -0.013450 1.957450 0.000050 
#    z -0.014990 0.000050 1.952700 
# 
# From -- ./inp_files/131364.got.cif
#   From: 2010.06.25/outbox.cif.g09.slc.cpg/sg2_66_cif.got.tgz:131364.got - 2010.06.27 13:26:56.
