data_PCOD8023199
_publ_section_title
;
Structure prediction by ZEFSAII (Michael W. Deem and Ramdas Pophale) SiO2 
 PCOD8023199
Probable space group: P -1
;
_chemical_formula_sum "Si O2"
_cell_formula_units_Z 16
_cell_length_a 6.750412
_cell_length_b 10.173818
_cell_length_c 11.570564
_cell_angle_alpha 90.509832
_cell_angle_beta 98.713267
_cell_angle_gamma 69.038522
_cell_volume 732.601041
_symmetry_space_group_name_H-M "P -1"
_symmetry_group_IT_number 2
_symmetry_cell_setting 'triclinic'
loop_
_space_group_symop_operation_xyz
x,y,z
-x,-y,-z
loop_
_atom_site_type_symbol
_atom_site_label
_atom_site_fract_x
_atom_site_fract_y
_atom_site_fract_z
Si Si1 0.003128 0.627742 0.246374
Si Si2 0.426987 0.689396 0.281679
Si Si3 0.599361 0.797015 0.094698
Si Si4 0.156541 0.301764 0.306903
Si Si5 0.665717 0.077857 0.543059
Si Si6 0.790139 0.624033 0.446672
Si Si7 0.485104 0.889326 0.834919
Si Si8 0.121593 0.860637 0.655947
O O1 0.208269 0.668517 0.266802
O O2 0.080651 0.458253 0.247142
O O3 0.855158 0.705938 0.125809
O O4 0.867978 0.701243 0.349546
O O5 0.477838 0.710609 0.153756
O O6 0.444797 0.816688 0.362605
O O7 0.617173 0.566060 0.367482
O O8 0.525872 0.953496 0.141407
O O9 0.534982 0.799113 0.956141
O O10 0.287581 0.285684 0.441409
O O11 0.320784 0.187262 0.236856
O O12 0.934495 0.275458 0.312199
O O13 0.723340 0.160070 0.441336
O O14 0.500000 0.000000 0.500000
O O15 0.889773 0.977161 0.614869
O O16 0.000000 0.500000 0.500000
O O17 0.250802 0.898184 0.772360
#
# Coordination Sequence:
#
# PCOD8023199 Si02
#       8
#     2   2   2   2   2   2   2   2
#     4  10  23  41  62  89 126 164 199 247 307 368
#     4  11  20  37  62  85 119 166 202 241 308 366
#     4  10  24  44  61  87 120 157 208 261 303 353
#     4  11  23  39  61  93 126 159 203 249 300 367
#     4  11  22  37  61  94 127 158 199 250 305 366
#     4   9  20  36  56  87 123 154 193 241 291 358
#     4  11  24  42  65  88 118 158 209 260 301 356
#     4  11  22  37  61  92 124 157 196 250 307 359
#
# _framework density 21.839988999999999
#
# number of rings (size 3 to 8) (size 9 to 14) (size 15 to 20)
#    0.000    1.500    0.000    5.250    0.000   10.500 
#    0.000    6.250    0.000    0.000    0.000    0.000 
#    0.000    0.000    0.000    0.000    0.000    0.000 
#
# Total GULP energy -198213.953656 kJ/mol
# GULP energy per Si atom -12388.372104 kJ/mol
# Density = 2.179028 g / cm^3
# Si number density = 21.839989 Si / 1000 Ang^3
#
#
#
# Elastic Constant Matrix: (Units=GPa)
#
#
# Indices 1 2 3 4 5 6 
#
# 1 160.6182 27.3704 64.4072 -1.9819 16.1078 0.4045
# 2 27.3704 62.8862 19.6838 -2.5768 2.0368 -3.2952
# 3 64.4072 19.6838 134.3209 -12.7981 12.1594 -2.5116
# 4 -1.9819 -2.5768 -12.7981 26.6654 -9.1284 4.3831
# 5 16.1078 2.0368 12.1594 -9.1284 31.8535 0.0238
# 6 0.4045 -3.2952 -2.5116 4.3831 0.0238 28.0009
#
#
#
# Elastic Compliance Matrix: (Units=1/GPa)
#
#
# Indices 1 2 3 4 5 6 
#
# 1 0.008414 -0.002546 -0.003593 -0.002459 -0.003425 -0.000356
# 2 -0.002546 0.017523 -0.001311 0.000887 0.000921 0.001842
# 3 -0.003593 -0.001311 0.009811 0.004058 -0.000682 0.000143
# 4 -0.002459 0.000887 0.004058 0.044682 0.012447 -0.006501
# 5 -0.003425 0.000921 -0.000682 0.012447 0.036896 -0.001883
# 6 -0.000356 0.001842 0.000143 -0.006501 -0.001883 0.036967
#
#
# Mechanical properties :
#
#
# Convention : Reuss Voigt Hill
#
# Bulk Modulus (GPa) = 47.96538 64.52757 56.24648
# Shear Modulus (GPa) = 28.38598 33.72821 31.05710
#
# Velocity S-wave (km/s) = 3.60908 3.93406 3.77507
# Velocity P-wave (km/s) = 6.27512 7.08841 6.69413
#
# Compressibility (1/GPa) = 0.02084837
#
# Stress axis : x y z
#
# Youngs Moduli (GPa) = 118.84251 57.06629 101.92975
#
# Poissons Ratio (x) = 0.14531 0.36618
# Poissons Ratio (y) = 0.30261 0.13367
# Poissons Ratio (z) = 0.42694 0.07483
#
# Static dielectric constant tensor:
#      x y z
#    x 4.207900 -0.249810 0.047400 
#    y -0.249810 3.978000 -0.023610 
#    z 0.047400 -0.023610 4.836650 
# 
# 
# High freq. dielectric constant tensor:
#      x y z
#    x 1.878620 -0.017910 0.005600 
#    y -0.017910 1.849660 -0.017540 
#    z 0.005600 -0.017540 1.858680 
# 
# From -- ./inp_files/364570.got.cif
#   From: 2010.06.25/outbox.cif.g09.slc.cpg/sg2_183_cif.got.tgz:364570.got - 2010.06.27 13:26:56.
