data_PCOD8023783
_publ_section_title
;
Structure prediction by ZEFSAII (Michael W. Deem and Ramdas Pophale) SiO2 
 PCOD8023783
Probable space group: P -1
;
_chemical_formula_sum "Si O2"
_cell_formula_units_Z 16
_cell_length_a 20.346232
_cell_length_b 10.596920
_cell_length_c 9.158026
_cell_angle_alpha 110.656507
_cell_angle_beta 70.428414
_cell_angle_gamma 47.023256
_cell_volume 732.209032
_symmetry_space_group_name_H-M "P -1"
_symmetry_group_IT_number 2
_symmetry_cell_setting 'triclinic'
loop_
_space_group_symop_operation_xyz
x,y,z
-x,-y,-z
loop_
_atom_site_type_symbol
_atom_site_label
_atom_site_fract_x
_atom_site_fract_y
_atom_site_fract_z
Si Si1 0.338496 0.728489 0.637077
Si Si2 0.082864 0.160317 0.253995
Si Si3 0.209804 0.169456 0.352406
Si Si4 0.328445 0.235129 0.658918
Si Si5 0.504662 0.200887 0.168216
Si Si6 0.803292 0.820952 0.294405
Si Si7 0.561245 0.830169 0.082317
Si Si8 0.147495 0.761524 0.179550
O O1 0.500000 0.500000 0.500000
O O2 0.364516 0.524682 0.497021
O O3 0.296000 0.883134 0.584569
O O4 0.190136 0.009694 0.973023
O O5 0.118870 0.193315 0.378145
O O6 0.896220 0.511594 0.480485
O O7 0.114743 0.953623 0.194415
O O8 0.245102 0.094840 0.465986
O O9 0.380025 0.885839 0.021279
O O10 0.267559 0.192064 0.734055
O O11 0.500000 0.000000 0.500000
O O12 0.371654 0.150682 0.418326
O O13 0.172147 0.602652 0.972135
O O14 0.601807 0.920598 0.082966
O O15 0.417749 0.268322 0.133007
O O16 0.000000 0.500000 0.000000
O O17 0.684238 0.531034 0.971946
O O18 0.000000 0.000000 0.500000
#
# Coordination Sequence:
#
# PCOD8023783 Si02
#       8
#     2   2   2   2   2   2   2   2
#     4  12  27  41  69 105 139 182 234 296 345 419
#     4  11  25  44  67 101 137 183 232 285 359 418
#     4  11  24  45  70  96 142 184 231 292 350 421
#     4  10  24  43  70  97 137 185 229 286 349 419
#     4  11  23  41  67  97 133 174 234 288 343 407
#     4  12  27  47  73 105 145 189 238 287 362 416
#     4  10  23  42  65  96 133 180 226 286 350 410
#     4  11  25  41  68  96 134 179 234 281 347 419
#
# _framework density 21.851686000000001
#
# number of rings (size 3 to 8) (size 9 to 14) (size 15 to 20)
#    0.000    1.000    3.750    1.500   10.500    0.500 
#    0.000    0.625    0.000    0.000    0.000    0.000 
#    0.000    0.000    0.000    0.000    0.000    0.000 
#
# Total GULP energy -198299.025450 kJ/mol
# GULP energy per Si atom -12393.689091 kJ/mol
# Density = 2.180195 g / cm^3
# Si number density = 21.851686 Si / 1000 Ang^3
#
#
#
# Elastic Constant Matrix: (Units=GPa)
#
#
# Indices 1 2 3 4 5 6 
#
# 1 96.4431 35.9910 26.3034 7.7083 10.9676 10.3405
# 2 35.9910 139.2263 21.2282 9.4503 13.2491 9.0784
# 3 26.3034 21.2282 109.6404 1.7180 12.8389 3.6893
# 4 7.7083 9.4503 1.7180 32.8981 8.2165 1.7862
# 5 10.9676 13.2491 12.8389 8.2165 41.2946 1.1921
# 6 10.3405 9.0784 3.6893 1.7862 1.1921 33.1230
#
#
#
# Elastic Compliance Matrix: (Units=1/GPa)
#
#
# Indices 1 2 3 4 5 6 
#
# 1 0.012490 -0.002459 -0.002232 -0.001591 -0.001436 -0.002839
# 2 -0.002459 0.008248 -0.000773 -0.001320 -0.001453 -0.001283
# 3 -0.002232 -0.000773 0.010086 0.000841 -0.002458 -0.000172
# 4 -0.001591 -0.001320 0.000841 0.032617 -0.005883 -0.000782
# 5 -0.001436 -0.001453 -0.002458 -0.005883 0.026985 0.000466
# 6 -0.002839 -0.001283 -0.000172 -0.000782 0.000466 0.031473
#
#
# Mechanical properties :
#
#
# Convention : Reuss Voigt Hill
#
# Bulk Modulus (GPa) = 50.25925 56.92835 53.59380
# Shear Modulus (GPa) = 35.85322 38.91561 37.38442
#
# Velocity S-wave (km/s) = 4.05502 4.22465 4.14070
# Velocity P-wave (km/s) = 6.70629 7.06439 6.88767
#
# Compressibility (1/GPa) = 0.01989683
#
# Stress axis : x y z
#
# Youngs Moduli (GPa) = 80.06475 121.24788 99.14559
#
# Poissons Ratio (x) = 0.29811 0.22127
# Poissons Ratio (y) = 0.19685 0.07664
# Poissons Ratio (z) = 0.17868 0.09372
#
# Static dielectric constant tensor:
#      x y z
#    x 4.424190 0.261620 0.001980 
#    y 0.261620 4.061800 -0.218720 
#    z 0.001980 -0.218720 4.771680 
# 
# 
# High freq. dielectric constant tensor:
#      x y z
#    x 1.854050 0.007930 0.015710 
#    y 0.007930 1.860160 -0.009690 
#    z 0.015710 -0.009690 1.874740 
# 
# From -- ./inp_files/343641.got.cif
#   From: 2010.06.25/outbox.cif.g09.slc.cpg/sg2_172_cif.got.tgz:343641.got - 2010.06.27 13:26:56.
