data_PCOD8023738
_publ_section_title
;
Structure prediction by ZEFSAII (Michael W. Deem and Ramdas Pophale) SiO2 
 PCOD8023738
Probable space group: P -1
;
_chemical_formula_sum "Si O2"
_cell_formula_units_Z 16
_cell_length_a 14.208880
_cell_length_b 6.827494
_cell_length_c 13.474052
_cell_angle_alpha 97.099039
_cell_angle_beta 43.526404
_cell_angle_gamma 71.474174
_cell_volume 717.285442
_symmetry_space_group_name_H-M "P -1"
_symmetry_group_IT_number 2
_symmetry_cell_setting 'triclinic'
loop_
_space_group_symop_operation_xyz
x,y,z
-x,-y,-z
loop_
_atom_site_type_symbol
_atom_site_label
_atom_site_fract_x
_atom_site_fract_y
_atom_site_fract_z
Si Si1 0.368039 0.452903 0.289129
Si Si2 0.841877 0.024897 0.574262
Si Si3 0.301702 0.177426 0.185729
Si Si4 0.133233 0.398380 0.981123
Si Si5 0.423882 0.270778 0.614480
Si Si6 0.996099 0.132817 0.766858
Si Si7 0.294728 0.641889 0.567152
Si Si8 0.242548 0.014460 0.033872
O O1 0.332773 0.700191 0.289140
O O2 0.262242 0.415348 0.286740
O O3 0.284976 0.520885 0.466424
O O4 0.560515 0.215867 0.139380
O O5 0.773019 0.912605 0.686606
O O6 0.906592 0.894049 0.409898
O O7 0.000000 0.000000 0.500000
O O8 0.212553 0.216445 0.149871
O O9 0.500000 0.000000 0.000000
O O10 0.313652 0.318335 0.798165
O O11 0.167533 0.158861 0.995503
O O12 0.000000 0.500000 0.000000
O O13 0.066719 0.609872 0.124561
O O14 0.306090 0.469719 0.633248
O O15 0.556842 0.323245 0.547724
O O16 0.500000 0.000000 0.500000
O O17 0.123349 0.913299 0.732065
O O18 0.842793 0.111082 0.867834
#
# Coordination Sequence:
#
# PCOD8023738 Si02
#       8
#     2   2   2   2   2   2   2   2
#     4  10  24  42  69  98 140 176 228 284 342 416
#     4  11  24  45  70 101 135 184 228 279 346 410
#     4  10  24  42  68 103 137 180 228 282 342 411
#     4  12  27  43  68 100 134 179 228 286 347 408
#     4  11  23  42  70  94 133 178 233 284 345 412
#     4  11  25  43  67  95 138 175 226 285 342 410
#     4  10  23  42  64  99 129 178 227 283 346 408
#     4  11  24  43  65  98 134 180 226 280 347 404
#
# _framework density 22.306322000000002
#
# number of rings (size 3 to 8) (size 9 to 14) (size 15 to 20)
#    0.000    1.250    1.250    3.000    1.750   17.500 
#    0.000    0.000    0.000    0.000    0.000    0.000 
#    0.000    0.000    0.000    0.000    0.000    0.000 
#
# Total GULP energy -198269.662581 kJ/mol
# GULP energy per Si atom -12391.853911 kJ/mol
# Density = 2.225555 g / cm^3
# Si number density = 22.306322 Si / 1000 Ang^3
#
#
#
# Elastic Constant Matrix: (Units=GPa)
#
#
# Indices 1 2 3 4 5 6 
#
# 1 77.5895 15.7364 22.8920 7.9100 11.6540 -1.2813
# 2 15.7364 75.3325 63.5438 -1.2698 4.3263 -10.0060
# 3 22.8920 63.5438 113.3958 0.6383 11.1111 0.9485
# 4 7.9100 -1.2698 0.6383 45.7723 1.8109 -1.7808
# 5 11.6540 4.3263 11.1111 1.8109 33.1634 4.9301
# 6 -1.2813 -10.0060 0.9485 -1.7808 4.9301 39.6711
#
#
#
# Elastic Compliance Matrix: (Units=1/GPa)
#
#
# Indices 1 2 3 4 5 6 
#
# 1 0.014570 -0.001198 -0.001840 -0.002330 -0.004316 0.000644
# 2 -0.001198 0.027258 -0.015180 0.001422 0.000808 0.007163
# 3 -0.001840 -0.015180 0.018006 -0.000399 -0.002791 -0.003990
# 4 -0.002330 0.001422 -0.000399 0.022375 -0.000660 0.001379
# 5 -0.004316 0.000808 -0.002791 -0.000660 0.033133 -0.004016
# 6 0.000644 0.007163 -0.003990 0.001379 -0.004016 0.027691
#
#
# Mechanical properties :
#
#
# Convention : Reuss Voigt Hill
#
# Bulk Modulus (GPa) = 42.73610 52.29582 47.51596
# Shear Modulus (GPa) = 26.69976 34.66440 30.68208
#
# Velocity S-wave (km/s) = 3.46346 3.94638 3.71278
# Velocity P-wave (km/s) = 5.93249 6.65286 6.30297
#
# Compressibility (1/GPa) = 0.02339942
#
# Stress axis : x y z
#
# Youngs Moduli (GPa) = 68.63203 36.68631 55.53827
#
# Poissons Ratio (x) = 0.04394 0.10217
# Poissons Ratio (y) = 0.08220 0.84307
# Poissons Ratio (z) = 0.12626 0.55690
#
# Static dielectric constant tensor:
#      x y z
#    x 4.457390 0.070220 0.275300 
#    y 0.070220 4.168740 0.209260 
#    z 0.275300 0.209260 4.248630 
# 
# 
# High freq. dielectric constant tensor:
#      x y z
#    x 1.888800 -0.002520 0.005480 
#    y -0.002520 1.880950 0.002850 
#    z 0.005480 0.002850 1.887770 
# 
# From -- ./inp_files/39337.got.cif
#   From: 2010.06.25/outbox.cif.g09.slc.cpg/sg2_20_cif.got.tgz:39337.got - 2010.06.27 13:26:56.
