data_PCOD8023460
_publ_section_title
;
Structure prediction by ZEFSAII (Michael W. Deem and Ramdas Pophale) SiO2 
 PCOD8023460
Probable space group: P -1
;
_chemical_formula_sum "Si O2"
_cell_formula_units_Z 16
_cell_length_a 9.094789
_cell_length_b 9.067264
_cell_length_c 10.999757
_cell_angle_alpha 53.649119
_cell_angle_beta 97.049089
_cell_angle_gamma 98.724132
_cell_volume 721.508517
_symmetry_space_group_name_H-M "P -1"
_symmetry_group_IT_number 2
_symmetry_cell_setting 'triclinic'
loop_
_space_group_symop_operation_xyz
x,y,z
-x,-y,-z
loop_
_atom_site_type_symbol
_atom_site_label
_atom_site_fract_x
_atom_site_fract_y
_atom_site_fract_z
Si Si1 0.355203 0.287268 0.765562
Si Si2 0.597097 0.070428 0.196936
Si Si3 0.645168 0.418313 0.869178
Si Si4 0.703023 0.796706 0.801142
Si Si5 0.822083 0.381712 0.474535
Si Si6 0.108138 0.168971 0.973453
Si Si7 0.327762 0.947274 0.525003
Si Si8 0.910042 0.435733 0.710591
O O1 0.494468 0.406155 0.782471
O O2 0.250658 0.423479 0.621925
O O3 0.263741 0.173365 0.916636
O O4 0.411025 0.136190 0.754513
O O5 0.430253 0.106142 0.197845
O O6 0.706353 0.075574 0.323626
O O7 0.665678 0.224451 0.032485
O O8 0.645513 0.580797 0.889091
O O9 0.778656 0.486508 0.758515
O O10 0.750400 0.889667 0.629831
O O11 0.852255 0.830836 0.880192
O O12 0.713630 0.243355 0.454152
O O13 0.838752 0.312937 0.649556
O O14 0.987684 0.394709 0.424607
O O15 0.024926 0.345886 0.852040
O O16 0.000000 0.000000 0.000000
O O17 0.500000 0.000000 0.500000
#
# Coordination Sequence:
#
# PCOD8023460 Si02
#       8
#     2   2   2   2   2   2   2   2
#     4  11  24  40  74 100 130 177 229 281 336 395
#     4  11  24  41  68 106 139 170 222 289 335 394
#     4  12  25  43  72 102 134 177 230 283 333 402
#     4  11  25  43  69  99 141 178 222 278 341 394
#     4  10  23  48  68  97 140 177 219 286 336 408
#     4  11  23  42  67  96 136 181 225 274 337 400
#     4  10  23  41  67  98 135 177 219 272 342 393
#     4  10  25  42  71  95 134 179 229 269 344 394
#
# _framework density 22.17576
#
# number of rings (size 3 to 8) (size 9 to 14) (size 15 to 20)
#    0.000    1.250    1.250    3.750   10.500    1.000 
#    2.250    0.625    0.000    0.000    0.000    0.000 
#    0.000    0.000    0.000    0.000    0.000    0.000 
#
# Total GULP energy -198343.522552 kJ/mol
# GULP energy per Si atom -12396.470159 kJ/mol
# Density = 2.212529 g / cm^3
# Si number density = 22.175760 Si / 1000 Ang^3
#
#
#
# Elastic Constant Matrix: (Units=GPa)
#
#
# Indices 1 2 3 4 5 6 
#
# 1 114.0551 50.0934 32.0069 9.1428 -2.2885 7.4635
# 2 50.0934 141.5439 33.5973 4.0547 14.0229 28.2456
# 3 32.0069 33.5973 123.5384 22.6833 16.5087 12.2908
# 4 9.1428 4.0547 22.6833 39.2701 10.0603 6.5397
# 5 -2.2885 14.0229 16.5087 10.0603 30.4867 8.6609
# 6 7.4635 28.2456 12.2908 6.5397 8.6609 25.9697
#
#
#
# Elastic Compliance Matrix: (Units=1/GPa)
#
#
# Indices 1 2 3 4 5 6 
#
# 1 0.011365 -0.004164 -0.002095 -0.002336 0.004271 0.001418
# 2 -0.004164 0.010991 -0.001051 0.002851 -0.002895 -0.010013
# 3 -0.002095 -0.001051 0.010272 -0.004278 -0.003585 -0.000844
# 4 -0.002336 0.002851 -0.004278 0.031132 -0.007844 -0.005628
# 5 0.004271 -0.002895 -0.003585 -0.007844 0.041308 -0.008182
# 6 0.001418 -0.010013 -0.000844 -0.005628 -0.008182 0.053534
#
#
# Mechanical properties :
#
#
# Convention : Reuss Voigt Hill
#
# Bulk Modulus (GPa) = 55.52927 67.83695 61.68311
# Shear Modulus (GPa) = 27.89812 36.70795 32.30304
#
# Velocity S-wave (km/s) = 3.55074 4.07297 3.82079
# Velocity P-wave (km/s) = 6.47343 7.26470 6.88045
#
# Compressibility (1/GPa) = 0.01800852
#
# Stress axis : x y z
#
# Youngs Moduli (GPa) = 87.99303 90.98135 97.35574
#
# Poissons Ratio (x) = 0.37884 0.20394
# Poissons Ratio (y) = 0.36640 0.10229
# Poissons Ratio (z) = 0.18433 0.09559
#
# Static dielectric constant tensor:
#      x y z
#    x 4.046960 0.260170 -0.033470 
#    y 0.260170 3.986740 0.238070 
#    z -0.033470 0.238070 3.210830 
# 
# 
# High freq. dielectric constant tensor:
#      x y z
#    x 1.862150 0.015900 0.005890 
#    y 0.015900 1.868100 0.011720 
#    z 0.005890 0.011720 1.887610 
# 
# From -- ./inp_files/381077.got.cif
#   From: 2010.06.25/outbox.cif.g09.slc.cpg/sg2_191_cif.got.tgz:381077.got - 2010.06.27 13:26:56.
