data_PCOD8023505
_publ_section_title
;
Structure prediction by ZEFSAII (Michael W. Deem and Ramdas Pophale) SiO2 
 PCOD8023505
Probable space group: P -1
;
_chemical_formula_sum "Si O2"
_cell_formula_units_Z 14
_cell_length_a 12.769084
_cell_length_b 12.057329
_cell_length_c 7.849126
_cell_angle_alpha 79.668727
_cell_angle_beta 76.744061
_cell_angle_gamma 28.692353
_cell_volume 564.115226
_symmetry_space_group_name_H-M "P -1"
_symmetry_group_IT_number 2
_symmetry_cell_setting 'triclinic'
loop_
_space_group_symop_operation_xyz
x,y,z
-x,-y,-z
loop_
_atom_site_type_symbol
_atom_site_label
_atom_site_fract_x
_atom_site_fract_y
_atom_site_fract_z
Si Si1 0.843412 0.186825 0.362932
Si Si2 0.960265 0.666677 0.938802
Si Si3 0.666255 0.937306 0.647857
Si Si4 0.624892 0.009255 0.266363
Si Si5 0.260276 0.790767 0.128348
Si Si6 0.385869 0.390701 0.752198
Si Si7 0.480021 0.645817 0.751779
O O1 0.720190 0.417603 0.386248
O O2 0.658304 0.258231 0.393511
O O3 0.000000 0.000000 0.500000
O O4 0.007132 0.058782 0.176264
O O5 0.193261 0.516389 0.909062
O O6 0.861335 0.777602 0.754803
O O7 0.801356 0.861920 0.090239
O O8 0.000000 0.500000 0.000000
O O9 0.551816 0.923293 0.737996
O O10 0.482562 0.202962 0.652571
O O11 0.747143 0.865366 0.439645
O O12 0.486936 0.251660 0.267348
O O13 0.428031 0.727282 0.165577
O O14 0.294861 0.633104 0.241295
O O15 0.311253 0.743644 0.923759
#
# Coordination Sequence:
#
# PCOD8023505 Si02
#       7
#     2   2   2   2   2   2   2
#     4  11  25  41  69 103 135 179 225 282 347 409
#     4  12  26  47  73 104 140 187 233 286 351 412
#     4  11  26  47  70 106 144 183 235 288 342 425
#     4  11  25  46  71 104 144 185 231 286 354 409
#     4  10  23  44  68  98 136 178 235 282 342 414
#     4  11  24  44  74  98 140 187 230 284 346 412
#     4  10  23  41  68  98 134 183 224 287 344 410
#
# _framework density 24.817623999999999
#
# number of rings (size 3 to 8) (size 9 to 14) (size 15 to 20)
#    0.000    1.143    1.429    3.429    8.000    4.000 
#    0.000    0.000    0.000    0.000    0.000    0.000 
#    0.000    0.000    0.000    0.000    0.000    0.000 
#
# Total GULP energy -173588.362366 kJ/mol
# GULP energy per Si atom -12399.168740 kJ/mol
# Density = 2.476114 g / cm^3
# Si number density = 24.817624 Si / 1000 Ang^3
#
#
#
# Elastic Constant Matrix: (Units=GPa)
#
#
# Indices 1 2 3 4 5 6 
#
# 1 135.1841 57.3161 -3.0737 1.7175 -1.5606 30.7410
# 2 57.3161 103.7804 5.9773 -13.9081 2.8741 18.9358
# 3 -3.0737 5.9773 74.3775 -8.3073 10.2382 -7.9244
# 4 1.7175 -13.9081 -8.3073 33.0760 -2.4702 -9.5195
# 5 -1.5606 2.8741 10.2382 -2.4702 27.1710 -1.4068
# 6 30.7410 18.9358 -7.9244 -9.5195 -1.4068 40.1250
#
#
#
# Elastic Compliance Matrix: (Units=1/GPa)
#
#
# Indices 1 2 3 4 5 6 
#
# 1 0.011594 -0.005723 -0.000532 -0.005260 0.000605 -0.007513
# 2 -0.005723 0.013789 -0.000679 0.005564 -0.001076 -0.000974
# 3 -0.000532 -0.000679 0.015164 0.004504 -0.005024 0.004615
# 4 -0.005260 0.005564 0.004504 0.037302 0.001383 0.011191
# 5 0.000605 -0.001076 -0.005024 0.001383 0.039010 0.000748
# 6 -0.007513 -0.000974 0.004615 0.011191 0.000748 0.034731
#
#
# Mechanical properties :
#
#
# Convention : Reuss Voigt Hill
#
# Bulk Modulus (GPa) = 37.48357 48.19793 42.84075
# Shear Modulus (GPa) = 28.67782 36.94923 32.81352
#
# Velocity S-wave (km/s) = 3.40302 3.86272 3.64013
# Velocity P-wave (km/s) = 5.52965 6.27353 5.91330
#
# Compressibility (1/GPa) = 0.02667835
#
# Stress axis : x y z
#
# Youngs Moduli (GPa) = 86.25017 72.52200 65.94647
#
# Poissons Ratio (x) = 0.41507 0.03509
# Poissons Ratio (y) = 0.49364 0.04477
# Poissons Ratio (z) = 0.04589 0.04923
#
# Static dielectric constant tensor:
#      x y z
#    x 4.514580 0.006140 -0.193950 
#    y 0.006140 5.207510 0.526970 
#    z -0.193950 0.526970 4.876670 
# 
# 
# High freq. dielectric constant tensor:
#      x y z
#    x 1.991850 0.014040 -0.002890 
#    y 0.014040 1.987980 0.000950 
#    z -0.002890 0.000950 1.999400 
# 
# From -- ./inp_files/229717.got.cif
#   From: 2010.06.25/outbox.cif.g09.slc.cpg/sg2_115_cif.got.tgz:229717.got - 2010.06.27 13:26:56.
