data_PCOD8023888
_publ_section_title
;
Structure prediction by ZEFSAII (Michael W. Deem and Ramdas Pophale) SiO2 
 PCOD8023888
Probable space group: P -1
;
_chemical_formula_sum "Si O2"
_cell_formula_units_Z 16
_cell_length_a 17.488743
_cell_length_b 6.390913
_cell_length_c 10.917958
_cell_angle_alpha 47.262967
_cell_angle_beta 50.460764
_cell_angle_gamma 65.978635
_cell_volume 690.525507
_symmetry_space_group_name_H-M "P -1"
_symmetry_group_IT_number 2
_symmetry_cell_setting 'triclinic'
loop_
_space_group_symop_operation_xyz
x,y,z
-x,-y,-z
loop_
_atom_site_type_symbol
_atom_site_label
_atom_site_fract_x
_atom_site_fract_y
_atom_site_fract_z
Si Si1 0.800040 0.468824 0.648118
Si Si2 0.881412 0.291239 0.006402
Si Si3 0.389295 0.271607 0.274361
Si Si4 0.091518 0.057135 0.295148
Si Si5 0.468822 0.190594 0.698536
Si Si6 0.554747 0.638116 0.077337
Si Si7 0.033212 0.091546 0.744402
Si Si8 0.302962 0.817095 0.903313
O O1 0.719733 0.666860 0.583883
O O2 0.897451 0.672115 0.490441
O O3 0.827709 0.180073 0.661575
O O4 0.752776 0.371194 0.862175
O O5 0.858203 0.625121 0.883273
O O6 0.982239 0.246170 0.847618
O O7 0.783286 0.105935 0.134730
O O8 0.903940 0.176158 0.166020
O O9 0.452625 0.549957 0.145975
O O10 0.444301 0.995083 0.374957
O O11 0.380082 0.225186 0.154480
O O12 0.000000 0.000000 0.500000
O O13 0.054175 0.017618 0.210766
O O14 0.500000 0.500000 0.500000
O O15 0.464500 0.162751 0.863826
O O16 0.360458 0.095913 0.792266
O O17 0.613650 0.367183 0.174396
#
# Coordination Sequence:
#
# PCOD8023888 Si02
#       8
#     2   2   2   2   2   2   2   2
#     4  11  22  43  66  96 135 172 227 270 324 395
#     4  11  24  43  67  95 136 177 216 277 334 390
#     4   9  21  42  64  96 128 169 216 274 326 382
#     4  12  23  42  70  97 131 180 227 269 327 398
#     4  11  24  42  67  99 134 173 215 270 340 401
#     4   9  20  41  66  90 126 167 218 271 319 392
#     4  11  24  44  64  98 141 170 217 282 334 386
#     4  10  23  42  67  94 128 177 223 270 330 389
#
# _framework density 23.170759
#
# number of rings (size 3 to 8) (size 9 to 14) (size 15 to 20)
#    0.000    1.500    2.500    2.625    1.750    4.000 
#    4.500    0.000    0.000    0.000    0.000    0.000 
#    0.000    0.000    0.000    0.000    0.000    0.000 
#
# Total GULP energy -198214.501000 kJ/mol
# GULP energy per Si atom -12388.406313 kJ/mol
# Density = 2.311802 g / cm^3
# Si number density = 23.170759 Si / 1000 Ang^3
#
#
#
# Elastic Constant Matrix: (Units=GPa)
#
#
# Indices 1 2 3 4 5 6 
#
# 1 96.3329 43.3665 41.7207 -6.1593 -21.4776 -10.0474
# 2 43.3665 125.4679 34.1846 -9.7034 -9.6197 -19.4128
# 3 41.7207 34.1846 80.1426 -21.0224 -6.5045 -1.4850
# 4 -6.1593 -9.7034 -21.0224 32.2218 0.4681 -6.6209
# 5 -21.4776 -9.6197 -6.5045 0.4681 29.0078 0.8585
# 6 -10.0474 -19.4128 -1.4850 -6.6209 0.8585 39.5113
#
#
#
# Elastic Compliance Matrix: (Units=1/GPa)
#
#
# Indices 1 2 3 4 5 6 
#
# 1 0.017284 -0.003030 -0.007418 -0.002175 0.010104 0.002043
# 2 -0.003030 0.010558 -0.002245 0.002087 0.000582 0.004669
# 3 -0.007418 -0.002245 0.019994 0.010903 -0.001918 -0.000369
# 4 -0.002175 0.002087 0.010903 0.039903 0.000659 0.007554
# 5 0.010104 0.000582 -0.001918 0.000659 0.041648 0.001989
# 6 0.002043 0.004669 -0.000369 0.007554 0.001989 0.029332
#
#
# Mechanical properties :
#
#
# Convention : Reuss Voigt Hill
#
# Bulk Modulus (GPa) = 44.54310 60.05414 52.29862
# Shear Modulus (GPa) = 26.09764 32.32630 29.21197
#
# Velocity S-wave (km/s) = 3.35971 3.73920 3.55452
# Velocity P-wave (km/s) = 5.85796 6.67956 6.28221
#
# Compressibility (1/GPa) = 0.02245016
#
# Stress axis : x y z
#
# Youngs Moduli (GPa) = 57.85634 94.71847 50.01435
#
# Poissons Ratio (x) = 0.28704 0.37100
# Poissons Ratio (y) = 0.17533 0.11226
# Poissons Ratio (z) = 0.42917 0.21261
#
# Static dielectric constant tensor:
#      x y z
#    x 4.511790 -0.371960 -0.098520 
#    y -0.371960 4.462800 0.095520 
#    z -0.098520 0.095520 3.894690 
# 
# 
# High freq. dielectric constant tensor:
#      x y z
#    x 1.916370 -0.017890 -0.006240 
#    y -0.017890 1.914630 -0.000820 
#    z -0.006240 -0.000820 1.896870 
# 
# From -- ./inp_files/459392.got.cif
#   From: 2010.06.25/outbox.cif.g09.slc.cpg/sg2_230_cif.got.tgz:459392.got - 2010.06.27 13:26:56.
