data_PCOD8023487
_publ_section_title
;
Structure prediction by ZEFSAII (Michael W. Deem and Ramdas Pophale) SiO2 
 PCOD8023487
Probable space group: P -1
;
_chemical_formula_sum "Si O2"
_cell_formula_units_Z 16
_cell_length_a 7.866252
_cell_length_b 14.111097
_cell_length_c 9.717335
_cell_angle_alpha 136.925290
_cell_angle_beta 78.467598
_cell_angle_gamma 94.742311
_cell_volume 718.542776
_symmetry_space_group_name_H-M "P -1"
_symmetry_group_IT_number 2
_symmetry_cell_setting 'triclinic'
loop_
_space_group_symop_operation_xyz
x,y,z
-x,-y,-z
loop_
_atom_site_type_symbol
_atom_site_label
_atom_site_fract_x
_atom_site_fract_y
_atom_site_fract_z
Si Si1 0.981130 0.336314 0.345048
Si Si2 0.252579 0.199148 0.949051
Si Si3 0.506593 0.590083 0.801503
Si Si4 0.785217 0.791719 0.338876
Si Si5 0.096559 0.747700 0.430175
Si Si6 0.694169 0.484892 0.015138
Si Si7 0.421418 0.902010 0.634819
Si Si8 0.396422 0.695317 0.646431
O O1 0.992156 0.290569 0.453289
O O2 0.802414 0.296512 0.265470
O O3 0.000000 0.500000 0.500000
O O4 0.121323 0.238153 0.134732
O O5 0.164263 0.171243 0.786838
O O6 0.379801 0.066448 0.835585
O O7 0.361526 0.331755 0.042807
O O8 0.508192 0.666823 0.735327
O O9 0.576953 0.428780 0.601227
O O10 0.323623 0.592780 0.915681
O O11 0.600599 0.877863 0.495287
O O12 0.943873 0.830778 0.452033
O O13 0.768885 0.629198 0.188907
O O14 0.167228 0.603858 0.194721
O O15 0.257339 0.841587 0.521592
O O16 0.500000 0.500000 0.000000
O O17 0.448226 0.833879 0.710001
#
# Coordination Sequence:
#
# PCOD8023487 Si02
#       8
#     2   2   2   2   2   2   2   2
#     4  11  23  42  65  96 136 168 221 285 322 401
#     4  12  26  42  70 100 132 177 228 270 344 399
#     4  11  22  40  69 100 127 178 223 273 335 397
#     4  12  25  43  70 101 132 182 222 278 336 398
#     4  11  26  42  69  99 136 179 224 271 344 392
#     4  12  20  41  70  98 137 170 223 283 330 391
#     4  11  25  49  65  96 143 176 219 286 329 403
#     4  10  23  41  68  94 135 176 215 278 344 380
#
# _framework density 22.267289999999999
#
# number of rings (size 3 to 8) (size 9 to 14) (size 15 to 20)
#    0.000    0.750    5.000    2.250    5.250    3.000 
#    2.250    0.000    0.000    0.000    0.000    0.000 
#    0.000    0.000    0.000    0.000    0.000    0.000 
#
# Total GULP energy -198404.069829 kJ/mol
# GULP energy per Si atom -12400.254364 kJ/mol
# Density = 2.221661 g / cm^3
# Si number density = 22.267290 Si / 1000 Ang^3
#
#
#
# Elastic Constant Matrix: (Units=GPa)
#
#
# Indices 1 2 3 4 5 6 
#
# 1 93.7912 21.4195 43.9338 -8.6619 -18.3175 -9.2567
# 2 21.4195 82.1470 39.0462 -23.0160 -15.5518 -12.4397
# 3 43.9338 39.0462 119.5473 -17.8544 -40.8378 -0.3451
# 4 -8.6619 -23.0160 -17.8544 31.6472 2.7894 1.3039
# 5 -18.3175 -15.5518 -40.8378 2.7894 36.9889 -6.8781
# 6 -9.2567 -12.4397 -0.3451 1.3039 -6.8781 28.7707
#
#
#
# Elastic Compliance Matrix: (Units=1/GPa)
#
#
# Indices 1 2 3 4 5 6 
#
# 1 0.013680 -0.000077 -0.003557 0.001144 0.003688 0.005155
# 2 -0.000077 0.019143 -0.002303 0.011667 0.006298 0.009201
# 3 -0.003557 -0.002303 0.016431 0.005212 0.015292 0.001476
# 4 0.001144 0.011667 0.005212 0.042299 0.009103 0.005734
# 5 0.003688 0.006298 0.015292 0.009103 0.050642 0.015787
# 6 0.005155 0.009201 0.001476 0.005734 0.015787 0.043927
#
#
# Mechanical properties :
#
#
# Convention : Reuss Voigt Hill
#
# Bulk Modulus (GPa) = 26.75257 56.03161 41.39209
# Shear Modulus (GPa) = 23.75782 32.22043 27.98913
#
# Velocity S-wave (km/s) = 3.26995 3.80805 3.54921
# Velocity P-wave (km/s) = 5.12807 6.67479 5.95189
#
# Compressibility (1/GPa) = 0.03737958
#
# Stress axis : x y z
#
# Youngs Moduli (GPa) = 73.09736 52.23841 60.86020
#
# Poissons Ratio (x) = 0.00402 0.21647
# Poissons Ratio (y) = 0.00563 0.14019
# Poissons Ratio (z) = 0.26000 0.12033
#
# Static dielectric constant tensor:
#      x y z
#    x 4.001800 0.024380 -0.033970 
#    y 0.024380 4.032460 -0.183880 
#    z -0.033970 -0.183880 4.088900 
# 
# 
# High freq. dielectric constant tensor:
#      x y z
#    x 1.869840 0.000490 -0.005280 
#    y 0.000490 1.883880 -0.017020 
#    z -0.005280 -0.017020 1.876270 
# 
# From -- ./inp_files/209194.got.cif
#   From: 2010.06.25/outbox.cif.g09.slc.cpg/sg2_105_cif.got.tgz:209194.got - 2010.06.27 13:26:56.
