data_PCOD8023370
_publ_section_title
;
Structure prediction by ZEFSAII (Michael W. Deem and Ramdas Pophale) SiO2 
 PCOD8023370
Probable space group: P -1
;
_chemical_formula_sum "Si O2"
_cell_formula_units_Z 14
_cell_length_a 15.269840
_cell_length_b 11.036126
_cell_length_c 7.916138
_cell_angle_alpha 141.254177
_cell_angle_beta 127.448218
_cell_angle_gamma 51.447389
_cell_volume 632.342612
_symmetry_space_group_name_H-M "P -1"
_symmetry_group_IT_number 2
_symmetry_cell_setting 'triclinic'
loop_
_space_group_symop_operation_xyz
x,y,z
-x,-y,-z
loop_
_atom_site_type_symbol
_atom_site_label
_atom_site_fract_x
_atom_site_fract_y
_atom_site_fract_z
Si Si1 0.934268 0.322130 0.091956
Si Si2 0.673193 0.370712 0.519047
Si Si3 0.162281 0.389409 0.408769
Si Si4 0.474316 0.525587 0.231917
Si Si5 0.882268 0.024504 0.485955
Si Si6 0.163724 0.398691 0.032721
Si Si7 0.423834 0.227248 0.622008
O O1 0.861459 0.425430 0.283407
O O2 0.915429 0.455377 0.041466
O O3 0.072828 0.265489 0.224917
O O4 0.894234 0.123009 0.790256
O O5 0.602666 0.385433 0.279982
O O6 0.593114 0.344453 0.550202
O O7 0.783852 0.175392 0.420977
O O8 0.708038 0.578994 0.815461
O O9 0.295927 0.246046 0.418458
O O10 0.131137 0.469390 0.266720
O O11 0.489933 0.692160 0.303294
O O12 0.403280 0.375781 0.921382
O O13 0.845075 0.824173 0.252891
O O14 0.000000 0.000000 0.500000
O O15 0.500000 0.000000 0.500000
#
# Coordination Sequence:
#
# PCOD8023370 Si02
#       7
#     2   2   2   2   2   2   2
#     4  10  24  43  66  97 137 167 216 272 329 403
#     4  10  23  41  66  90 128 171 214 268 327 387
#     4  11  22  43  67  96 131 177 214 266 337 387
#     4  10  23  43  62  92 125 172 219 265 324 383
#     4  11  23  38  67 101 128 165 219 269 328 396
#     4  11  22  42  69  94 132 175 213 271 331 391
#     4  11  24  40  65  93 132 168 219 273 317 386
#
# _framework density 22.139897999999999
#
# number of rings (size 3 to 8) (size 9 to 14) (size 15 to 20)
#    0.000    1.429    2.857    2.143    4.000    2.286 
#    0.000   10.000    0.000    0.000    0.000    0.000 
#    0.000    0.000    0.000    0.000    0.000    0.000 
#
# Total GULP energy -173437.970110 kJ/mol
# GULP energy per Si atom -12388.426436 kJ/mol
# Density = 2.208951 g / cm^3
# Si number density = 22.139898 Si / 1000 Ang^3
#
#
#
# Elastic Constant Matrix: (Units=GPa)
#
#
# Indices 1 2 3 4 5 6 
#
# 1 77.9006 40.7789 40.0115 7.3085 0.4579 -4.7748
# 2 40.7789 69.1287 52.7349 8.0200 -4.7815 -1.7270
# 3 40.0115 52.7349 134.8976 -4.1041 4.8338 14.2863
# 4 7.3085 8.0200 -4.1041 29.2263 3.4977 1.2668
# 5 0.4579 -4.7815 4.8338 3.4977 41.1502 -4.8368
# 6 -4.7748 -1.7270 14.2863 1.2668 -4.8368 28.6387
#
#
#
# Elastic Compliance Matrix: (Units=1/GPa)
#
#
# Indices 1 2 3 4 5 6 
#
# 1 0.019490 -0.008888 -0.002840 -0.002998 -0.000163 0.004235
# 2 -0.008888 0.028596 -0.009682 -0.007980 0.005994 0.006438
# 3 -0.002840 -0.009682 0.013295 0.006111 -0.004193 -0.008668
# 4 -0.002998 -0.007980 0.006111 0.038989 -0.005716 -0.006720
# 5 -0.000163 0.005994 -0.004193 -0.005716 0.026825 0.007209
# 6 0.004235 0.006438 -0.008668 -0.006720 0.007209 0.041851
#
#
# Mechanical properties :
#
#
# Convention : Reuss Voigt Hill
#
# Bulk Modulus (GPa) = 53.87940 60.99751 57.43846
# Shear Modulus (GPa) = 22.93011 29.69646 26.31329
#
# Velocity S-wave (km/s) = 3.22171 3.66636 3.45120
# Velocity P-wave (km/s) = 6.18287 6.74787 6.47154
#
# Compressibility (1/GPa) = 0.01855997
#
# Stress axis : x y z
#
# Youngs Moduli (GPa) = 51.30764 34.96959 75.21891
#
# Poissons Ratio (x) = 0.31083 0.21363
# Poissons Ratio (y) = 0.45605 0.72827
# Poissons Ratio (z) = 0.14572 0.33858
#
# Static dielectric constant tensor:
#      x y z
#    x 4.045600 -0.056160 0.172950 
#    y -0.056160 3.955580 -0.348350 
#    z 0.172950 -0.348350 4.364290 
# 
# 
# High freq. dielectric constant tensor:
#      x y z
#    x 1.880320 -0.010700 0.009300 
#    y -0.010700 1.856230 -0.027870 
#    z 0.009300 -0.027870 1.874090 
# 
# From -- ./inp_files/304421.got.cif
#   From: 2010.06.25/outbox.cif.g09.slc.cpg/sg2_153_cif.got.tgz:304421.got - 2010.06.27 13:26:56.
