data_PCOD8023122
_publ_section_title
;
Structure prediction by ZEFSAII (Michael W. Deem and Ramdas Pophale) SiO2 
 PCOD8023122
Probable space group: P -1
;
_chemical_formula_sum "Si O2"
_cell_formula_units_Z 14
_cell_length_a 19.947606
_cell_length_b 9.821731
_cell_length_c 11.285239
_cell_angle_alpha 63.902344
_cell_angle_beta 140.854957
_cell_angle_gamma 144.631760
_cell_volume 686.688138
_symmetry_space_group_name_H-M "P -1"
_symmetry_group_IT_number 2
_symmetry_cell_setting 'triclinic'
loop_
_space_group_symop_operation_xyz
x,y,z
-x,-y,-z
loop_
_atom_site_type_symbol
_atom_site_label
_atom_site_fract_x
_atom_site_fract_y
_atom_site_fract_z
Si Si1 0.993371 0.294278 0.197418
Si Si2 0.193949 0.841561 0.242428
Si Si3 0.147700 0.153365 0.408432
Si Si4 0.078302 0.793241 0.601949
Si Si5 0.726829 0.269750 0.182269
Si Si6 0.098501 0.324169 0.930651
Si Si7 0.417764 0.545979 0.435220
O O1 0.888001 0.186172 0.220315
O O2 0.157007 0.618253 0.281629
O O3 0.087811 0.243227 0.342699
O O4 0.838392 0.129459 0.943827
O O5 0.064196 0.774724 0.185955
O O6 0.420178 0.130894 0.468431
O O7 0.358519 0.423436 0.533325
O O8 0.158455 0.052385 0.572653
O O9 0.996550 0.909927 0.198010
O O10 0.205411 0.823131 0.693573
O O11 0.850209 0.499951 0.367444
O O12 0.766448 0.398531 0.062275
O O13 0.500000 0.000000 0.000000
O O14 0.224888 0.381297 0.174438
O O15 0.500000 0.500000 0.500000
#
# Coordination Sequence:
#
# PCOD8023122 Si02
#       7
#     2   2   2   2   2   2   2
#     4  11  23  45  64  91 137 168 206 265 325 373
#     4  11  24  43  67  94 128 173 211 262 317 374
#     4  11  23  42  66  96 130 170 211 260 323 376
#     4  10  23  43  66  89 133 169 203 266 323 370
#     4  10  23  40  68  97 121 166 221 258 309 385
#     4  11  22  43  68  95 127 168 216 264 311 374
#     4  12  24  38  69  97 128 166 220 262 310 378
#
# _framework density 20.387712000000001
#
# number of rings (size 3 to 8) (size 9 to 14) (size 15 to 20)
#    0.000    1.143    4.286    1.714    4.000    0.571 
#    2.571    0.714    0.000    0.000    0.000    0.000 
#    0.000    0.000    0.000    0.000    0.000    0.000 
#
# Total GULP energy -173641.072269 kJ/mol
# GULP energy per Si atom -12402.933733 kJ/mol
# Density = 2.034131 g / cm^3
# Si number density = 20.387712 Si / 1000 Ang^3
#
#
#
# Elastic Constant Matrix: (Units=GPa)
#
#
# Indices 1 2 3 4 5 6 
#
# 1 88.2433 33.7133 20.4766 -1.1928 0.2482 8.3417
# 2 33.7133 121.5296 29.9589 -8.4190 12.5584 4.6377
# 3 20.4766 29.9589 57.1434 10.3582 13.4430 11.5043
# 4 -1.1928 -8.4190 10.3582 37.2378 5.3895 2.6357
# 5 0.2482 12.5584 13.4430 5.3895 28.6880 -7.8334
# 6 8.3417 4.6377 11.5043 2.6357 -7.8334 46.2614
#
#
#
# Elastic Compliance Matrix: (Units=1/GPa)
#
#
# Indices 1 2 3 4 5 6 
#
# 1 0.013433 -0.003005 -0.003807 0.000473 0.002690 -0.000746
# 2 -0.003005 0.010817 -0.004478 0.004112 -0.003451 -0.000248
# 3 -0.003807 -0.004478 0.026363 -0.006377 -0.011054 -0.006929
# 4 0.000473 0.004112 -0.006377 0.030391 -0.004929 -0.001478
# 5 0.002690 -0.003451 -0.011054 -0.004929 0.045336 0.010567
# 6 -0.000746 -0.000248 -0.006929 -0.001478 0.010567 0.025372
#
#
# Mechanical properties :
#
#
# Convention : Reuss Voigt Hill
#
# Bulk Modulus (GPa) = 35.67111 48.35710 42.01411
# Shear Modulus (GPa) = 27.22772 34.62194 30.92483
#
# Velocity S-wave (km/s) = 3.65841 4.12536 3.89888
# Velocity P-wave (km/s) = 5.94808 6.81629 6.39693
#
# Compressibility (1/GPa) = 0.02803389
#
# Stress axis : x y z
#
# Youngs Moduli (GPa) = 74.44386 92.44897 37.93172
#
# Poissons Ratio (x) = 0.27779 0.14440
# Poissons Ratio (y) = 0.22369 0.16986
# Poissons Ratio (z) = 0.28339 0.41398
#
# Static dielectric constant tensor:
#      x y z
#    x 3.727570 0.056740 -0.115330 
#    y 0.056740 3.995340 -0.058650 
#    z -0.115330 -0.058650 3.590950 
# 
# 
# High freq. dielectric constant tensor:
#      x y z
#    x 1.800570 0.000620 -0.003060 
#    y 0.000620 1.819780 -0.008940 
#    z -0.003060 -0.008940 1.776520 
# 
# From -- ./inp_files/68737.got.cif
#   From: 2010.06.25/outbox.cif.g09.slc.cpg/sg2_35_cif.got.tgz:68737.got - 2010.06.27 13:26:56.
