data_PCOD8023614
_publ_section_title
;
Structure prediction by ZEFSAII (Michael W. Deem and Ramdas Pophale) SiO2 
 PCOD8023614
Probable space group: P -1
;
_chemical_formula_sum "Si O2"
_cell_formula_units_Z 14
_cell_length_a 9.496454
_cell_length_b 11.421288
_cell_length_c 9.061224
_cell_angle_alpha 130.644512
_cell_angle_beta 51.908543
_cell_angle_gamma 114.094386
_cell_volume 586.861574
_symmetry_space_group_name_H-M "P -1"
_symmetry_group_IT_number 2
_symmetry_cell_setting 'triclinic'
loop_
_space_group_symop_operation_xyz
x,y,z
-x,-y,-z
loop_
_atom_site_type_symbol
_atom_site_label
_atom_site_fract_x
_atom_site_fract_y
_atom_site_fract_z
Si Si1 0.878683 0.416303 0.627098
Si Si2 0.221965 0.946756 0.198619
Si Si3 0.614651 0.203575 0.523137
Si Si4 0.410164 0.043405 0.878219
Si Si5 0.584474 0.566939 0.350520
Si Si6 0.571177 0.646096 0.958301
Si Si7 0.058324 0.264581 0.654267
O O1 0.820751 0.254134 0.457817
O O2 0.697080 0.518916 0.847966
O O3 0.000000 0.500000 0.500000
O O4 0.972641 0.386703 0.696749
O O5 0.377224 0.942860 0.217176
O O6 0.088281 0.799235 0.184989
O O7 0.125470 0.111383 0.404063
O O8 0.308681 0.932780 0.969050
O O9 0.536118 0.290961 0.503423
O O10 0.612088 0.024806 0.329778
O O11 0.515004 0.245381 0.772589
O O12 0.326242 0.217367 0.087082
O O13 0.500000 0.500000 0.500000
O O14 0.573794 0.434538 0.122631
O O15 0.786652 0.632635 0.285540
#
# Coordination Sequence:
#
# PCOD8023614 Si02
#       7
#     2   2   2   2   2   2   2
#     4  11  23  44  68 101 144 174 223 290 352 406
#     4  10  23  41  72 105 139 174 236 294 337 405
#     4  11  24  46  67 100 135 188 232 274 347 422
#     4  11  22  46  72  99 133 189 237 277 343 417
#     4  11  22  42  74 100 136 183 232 277 344 416
#     4  11  25  45  72 100 137 184 230 284 342 422
#     4  11  22  44  70 107 142 176 227 295 349 405
#
# _framework density 23.855709999999998
#
# number of rings (size 3 to 8) (size 9 to 14) (size 15 to 20)
#    0.000    1.143    1.429    6.429    2.000    0.000 
#    5.143    5.000    0.000    0.000    0.000    0.000 
#    0.000    0.000    0.000    0.000    0.000    0.000 
#
# Total GULP energy -173489.830946 kJ/mol
# GULP energy per Si atom -12392.130782 kJ/mol
# Density = 2.380141 g / cm^3
# Si number density = 23.855710 Si / 1000 Ang^3
#
#
#
# Elastic Constant Matrix: (Units=GPa)
#
#
# Indices 1 2 3 4 5 6 
#
# 1 103.6638 46.2649 33.7884 2.6151 12.9223 2.5071
# 2 46.2649 158.7974 53.8882 -1.3635 12.6137 15.0156
# 3 33.7884 53.8882 102.6856 11.3590 23.5673 15.2514
# 4 2.6151 -1.3635 11.3590 42.7861 2.6389 -2.1612
# 5 12.9223 12.6137 23.5673 2.6389 25.7426 1.3254
# 6 2.5071 15.0156 15.2514 -2.1612 1.3254 45.8025
#
#
#
# Elastic Compliance Matrix: (Units=1/GPa)
#
#
# Indices 1 2 3 4 5 6 
#
# 1 0.011801 -0.002629 -0.001982 -0.000054 -0.002865 0.000956
# 2 -0.002629 0.008381 -0.003568 0.001280 0.000419 -0.001367
# 3 -0.001982 -0.003568 0.015799 -0.003693 -0.011145 -0.003834
# 4 -0.000054 0.001280 -0.003693 0.024485 0.000170 0.001964
# 5 -0.002865 0.000419 -0.011145 0.000170 0.050147 0.002287
# 6 0.000956 -0.001367 -0.003834 0.001964 0.002287 0.023532
#
#
# Mechanical properties :
#
#
# Convention : Reuss Voigt Hill
#
# Bulk Modulus (GPa) = 50.95910 70.33662 60.64786
# Shear Modulus (GPa) = 31.83816 38.27993 35.05904
#
# Velocity S-wave (km/s) = 3.65720 4.01015 3.83773
# Velocity P-wave (km/s) = 6.26428 7.14072 6.71681
#
# Compressibility (1/GPa) = 0.01962358
#
# Stress axis : x y z
#
# Youngs Moduli (GPa) = 84.73666 119.31694 63.29584
#
# Poissons Ratio (x) = 0.31368 0.12546
# Poissons Ratio (y) = 0.22277 0.22583
# Poissons Ratio (z) = 0.16795 0.42570
#
# Static dielectric constant tensor:
#      x y z
#    x 4.385560 0.030490 -0.013350 
#    y 0.030490 4.952550 0.145720 
#    z -0.013350 0.145720 4.116200 
# 
# 
# High freq. dielectric constant tensor:
#      x y z
#    x 1.937370 -0.006390 0.008420 
#    y -0.006390 1.982680 0.000750 
#    z 0.008420 0.000750 1.932840 
# 
# From -- ./inp_files/190625.got.cif
#   From: 2010.06.25/outbox.cif.g09.slc.cpg/sg2_96_cif.got.tgz:190625.got - 2010.06.27 13:26:56.
