data_PCOD8023374
_publ_section_title
;
Structure prediction by ZEFSAII (Michael W. Deem and Ramdas Pophale) SiO2 
 PCOD8023374
Probable space group: P -1
;
_chemical_formula_sum "Si O2"
_cell_formula_units_Z 16
_cell_length_a 20.315304
_cell_length_b 11.560096
_cell_length_c 6.813815
_cell_angle_alpha 58.076331
_cell_angle_beta 131.280622
_cell_angle_gamma 141.852986
_cell_volume 742.611337
_symmetry_space_group_name_H-M "P -1"
_symmetry_group_IT_number 2
_symmetry_cell_setting 'triclinic'
loop_
_space_group_symop_operation_xyz
x,y,z
-x,-y,-z
loop_
_atom_site_type_symbol
_atom_site_label
_atom_site_fract_x
_atom_site_fract_y
_atom_site_fract_z
Si Si1 0.520999 0.943333 0.393998
Si Si2 0.967417 0.065678 0.701653
Si Si3 0.112435 0.723421 0.494775
Si Si4 0.680211 0.249143 0.109025
Si Si5 0.269616 0.024730 0.246506
Si Si6 0.252051 0.232882 0.709266
Si Si7 0.770878 0.608245 0.143970
Si Si8 0.636392 0.663867 0.559579
O O1 0.608118 0.912564 0.648285
O O2 0.500000 0.000000 0.500000
O O3 0.583675 0.099056 0.211781
O O4 0.390997 0.761913 0.207596
O O5 0.916729 0.161305 0.572085
O O6 0.090323 0.215504 0.692257
O O7 0.872406 0.882194 0.548621
O O8 0.000000 0.000000 0.000000
O O9 0.229577 0.772549 0.775559
O O10 0.000000 0.500000 0.500000
O O11 0.158382 0.804320 0.286158
O O12 0.758833 0.438463 0.219743
O O13 0.306696 0.137836 0.421018
O O14 0.228931 0.082168 0.944985
O O15 0.291057 0.406218 0.761724
O O16 0.358011 0.323567 0.677615
O O17 0.717431 0.627876 0.832455
O O18 0.500000 0.500000 0.500000
#
# Coordination Sequence:
#
# PCOD8023374 Si02
#       8
#     2   2   2   2   2   2   2   2
#     4  10  23  41  66  92 131 178 221 272 338 404
#     4  12  22  44  72  96 134 182 224 281 350 403
#     4  11  22  43  72  96 138 185 226 278 344 407
#     4  10  23  42  64  97 134 175 221 280 333 398
#     4  10  23  42  65 100 133 176 230 279 347 398
#     4  11  24  42  70  96 138 178 226 288 338 411
#     4  11  23  40  65 102 129 172 231 275 341 400
#     4  11  23  41  66  96 132 182 223 282 343 405
#
# _framework density 21.545593
#
# number of rings (size 3 to 8) (size 9 to 14) (size 15 to 20)
#    0.000    1.250    3.750    1.875    1.750    6.000 
#    0.000    1.875    0.000    0.000    0.000    0.000 
#    0.000    0.000    0.000    0.000    0.000    0.000 
#
# Total GULP energy -198217.298191 kJ/mol
# GULP energy per Si atom -12388.581137 kJ/mol
# Density = 2.149655 g / cm^3
# Si number density = 21.545593 Si / 1000 Ang^3
#
#
#
# Elastic Constant Matrix: (Units=GPa)
#
#
# Indices 1 2 3 4 5 6 
#
# 1 129.5055 36.1420 54.4880 -1.4019 -1.3237 0.9688
# 2 36.1420 96.0606 33.2271 4.2102 -5.5444 7.1333
# 3 54.4880 33.2271 98.8397 11.0933 -2.9530 -2.0475
# 4 -1.4019 4.2102 11.0933 21.7459 -3.1186 3.3106
# 5 -1.3237 -5.5444 -2.9530 -3.1186 37.3438 -0.4295
# 6 0.9688 7.1333 -2.0475 3.3106 -0.4295 47.1808
#
#
#
# Elastic Compliance Matrix: (Units=1/GPa)
#
#
# Indices 1 2 3 4 5 6 
#
# 1 0.010773 -0.002251 -0.005649 0.004065 -0.000064 -0.000412
# 2 -0.002251 0.012512 -0.002895 -0.000587 0.001478 -0.001916
# 3 -0.005649 -0.002895 0.015114 -0.007790 -0.000065 0.001756
# 4 0.004065 -0.000587 -0.007790 0.051460 0.003694 -0.003910
# 5 -0.000064 0.001478 -0.000065 0.003694 0.027296 -0.000236
# 6 -0.000412 -0.001916 0.001756 -0.003910 -0.000236 0.021842
#
#
# Mechanical properties :
#
#
# Convention : Reuss Voigt Hill
#
# Bulk Modulus (GPa) = 59.49259 63.56890 61.53074
# Shear Modulus (GPa) = 30.08636 34.62402 32.35519
#
# Velocity S-wave (km/s) = 3.74090 4.01310 3.87939
# Velocity P-wave (km/s) = 6.80673 7.14435 6.97758
#
# Compressibility (1/GPa) = 0.01680882
#
# Stress axis : x y z
#
# Youngs Moduli (GPa) = 92.82498 79.92614 66.16574
#
# Poissons Ratio (x) = 0.17988 0.37377
# Poissons Ratio (y) = 0.20891 0.19155
# Poissons Ratio (z) = 0.52437 0.23139
#
# Static dielectric constant tensor:
#      x y z
#    x 4.113650 0.148840 0.172540 
#    y 0.148840 3.997230 0.147300 
#    z 0.172540 0.147300 3.734870 
# 
# 
# High freq. dielectric constant tensor:
#      x y z
#    x 1.860590 0.008680 0.012170 
#    y 0.008680 1.841300 -0.000220 
#    z 0.012170 -0.000220 1.837530 
# 
# From -- ./inp_files/71010.got.cif
#   From: 2010.06.25/outbox.cif.g09.slc.cpg/sg2_36_cif.got.tgz:71010.got - 2010.06.27 13:26:56.
