data_PCOD8023280
_publ_section_title
;
Structure prediction by ZEFSAII (Michael W. Deem and Ramdas Pophale) SiO2 
 PCOD8023280
Probable space group: P -1
;
_chemical_formula_sum "Si O2"
_cell_formula_units_Z 14
_cell_length_a 9.590108
_cell_length_b 14.272793
_cell_length_c 11.726613
_cell_angle_alpha 29.190430
_cell_angle_beta 120.575562
_cell_angle_gamma 126.501292
_cell_volume 629.045562
_symmetry_space_group_name_H-M "P -1"
_symmetry_group_IT_number 2
_symmetry_cell_setting 'triclinic'
loop_
_space_group_symop_operation_xyz
x,y,z
-x,-y,-z
loop_
_atom_site_type_symbol
_atom_site_label
_atom_site_fract_x
_atom_site_fract_y
_atom_site_fract_z
Si Si1 0.161809 0.962749 0.256373
Si Si2 0.693303 0.242624 0.639684
Si Si3 0.247481 0.440026 0.180434
Si Si4 0.214446 0.043001 0.865162
Si Si5 0.618009 0.653264 0.197882
Si Si6 0.694398 0.944272 0.369884
Si Si7 0.870793 0.257057 0.295646
O O1 0.170301 0.776116 0.378201
O O2 0.201027 0.908027 0.458892
O O3 0.976418 0.982592 0.145697
O O4 0.301675 0.180598 0.045080
O O5 0.697299 0.472537 0.411891
O O6 0.506135 0.082874 0.690025
O O7 0.741397 0.158207 0.868215
O O8 0.411037 0.568162 0.189877
O O9 0.282066 0.244562 0.349601
O O10 0.078218 0.365872 0.271166
O O11 0.216309 0.568283 0.923367
O O12 0.343436 0.244764 0.769401
O O13 0.232807 0.069943 0.710072
O O14 0.811223 0.151947 0.259045
#
# Coordination Sequence:
#
# PCOD8023280 Si02
#       7
#     2   2   2   2   2   2   2
#     4  11  24  42  64  95 130 170 204 260 320 376
#     4  10  23  41  65  97 126 166 212 257 324 369
#     4  10  23  41  64  95 122 168 213 261 307 372
#     4  11  23  41  67  94 129 166 212 258 318 373
#     4  10  23  43  66  93 130 160 215 265 312 373
#     4  11  23  42  66  95 128 168 210 262 312 377
#     4  11  23  43  66  91 133 165 213 257 316 374
#
# _framework density 22.255939000000001
#
# number of rings (size 3 to 8) (size 9 to 14) (size 15 to 20)
#    0.000    1.429    1.429    4.286    0.000    9.143 
#    2.571    2.857    0.000    0.000    0.000    0.000 
#    0.000    0.000    0.000    0.000    0.000    0.000 
#
# Total GULP energy -173585.092992 kJ/mol
# GULP energy per Si atom -12398.935214 kJ/mol
# Density = 2.220528 g / cm^3
# Si number density = 22.255939 Si / 1000 Ang^3
#
#
#
# Elastic Constant Matrix: (Units=GPa)
#
#
# Indices 1 2 3 4 5 6 
#
# 1 88.1605 37.0695 47.8052 4.1351 13.0191 9.6795
# 2 37.0695 85.2092 53.7857 1.9939 -5.9094 3.7440
# 3 47.8052 53.7857 148.7285 5.4844 17.8017 -4.2425
# 4 4.1351 1.9939 5.4844 25.5598 10.2934 3.5679
# 5 13.0191 -5.9094 17.8017 10.2934 32.8956 5.5874
# 6 9.6795 3.7440 -4.2425 3.5679 5.5874 30.1586
#
#
#
# Elastic Compliance Matrix: (Units=1/GPa)
#
#
# Indices 1 2 3 4 5 6 
#
# 1 0.016438 -0.005709 -0.002687 0.001254 -0.005786 -0.004021
# 2 -0.005709 0.019160 -0.006337 -0.003057 0.010604 -0.003041
# 3 -0.002687 -0.006337 0.010801 0.000784 -0.006905 0.004355
# 4 0.001254 -0.003057 0.000784 0.045491 -0.015286 -0.002462
# 5 -0.005786 0.010604 -0.006905 -0.015286 0.044273 -0.006825
# 6 -0.004021 -0.003041 0.004355 -0.002462 -0.006825 0.036995
#
#
# Mechanical properties :
#
#
# Convention : Reuss Voigt Hill
#
# Bulk Modulus (GPa) = 59.05937 66.60210 62.83073
# Shear Modulus (GPa) = 24.00745 29.95198 26.97972
#
# Velocity S-wave (km/s) = 3.28792 3.67249 3.48551
# Velocity P-wave (km/s) = 6.40374 6.92628 6.67013
#
# Compressibility (1/GPa) = 0.01693211
#
# Stress axis : x y z
#
# Youngs Moduli (GPa) = 60.83552 52.19189 92.58341
#
# Poissons Ratio (x) = 0.29794 0.24882
# Poissons Ratio (y) = 0.34729 0.58673
# Poissons Ratio (z) = 0.16349 0.33075
#
# Static dielectric constant tensor:
#      x y z
#    x 3.962650 0.237900 0.291360 
#    y 0.237900 3.806770 0.011860 
#    z 0.291360 0.011860 4.302670 
# 
# 
# High freq. dielectric constant tensor:
#      x y z
#    x 1.875180 0.020360 0.023950 
#    y 0.020360 1.863340 0.002670 
#    z 0.023950 0.002670 1.895630 
# 
# From -- ./inp_files/306804.got.cif
#   From: 2010.06.25/outbox.cif.g09.slc.cpg/sg2_154_cif.got.tgz:306804.got - 2010.06.27 13:26:56.
