data_PCOD8023462
_publ_section_title
;
Structure prediction by ZEFSAII (Michael W. Deem and Ramdas Pophale) SiO2 
 PCOD8023462
Probable space group: P -1
;
_chemical_formula_sum "Si O2"
_cell_formula_units_Z 14
_cell_length_a 8.416672
_cell_length_b 6.943537
_cell_length_c 23.097669
_cell_angle_alpha 112.624968
_cell_angle_beta 141.285416
_cell_angle_gamma 91.871746
_cell_volume 636.741901
_symmetry_space_group_name_H-M "P -1"
_symmetry_group_IT_number 2
_symmetry_cell_setting 'triclinic'
loop_
_space_group_symop_operation_xyz
x,y,z
-x,-y,-z
loop_
_atom_site_type_symbol
_atom_site_label
_atom_site_fract_x
_atom_site_fract_y
_atom_site_fract_z
Si Si1 0.325834 0.740403 0.596555
Si Si2 0.244686 0.060852 0.692612
Si Si3 0.371584 0.009378 0.526725
Si Si4 0.647070 0.628188 0.874139
Si Si5 0.822726 0.107872 0.032753
Si Si6 0.794533 0.586501 0.720520
Si Si7 0.772556 0.206903 0.234261
O O1 0.583411 0.689978 0.676362
O O2 0.000000 0.500000 0.500000
O O3 0.409994 0.988640 0.684850
O O4 0.332571 0.799573 0.536662
O O5 0.497308 0.344220 0.821835
O O6 0.115420 0.870482 0.687961
O O7 0.961117 0.040996 0.579245
O O8 0.607886 0.293003 0.653171
O O9 0.500000 0.000000 0.500000
O O10 0.372286 0.640012 0.768352
O O11 0.898709 0.684400 0.904856
O O12 0.803352 0.842184 0.994635
O O13 0.898302 0.232803 0.131826
O O14 0.494318 0.042564 0.907837
O O15 0.918571 0.608123 0.693619
#
# Coordination Sequence:
#
# PCOD8023462 Si02
#       7
#     2   2   2   2   2   2   2
#     4  12  28  43  69 100 136 182 225 274 335 400
#     4  12  24  42  71  96 135 173 231 270 339 396
#     4  12  28  45  70 101 133 178 225 281 342 394
#     4   9  21  41  66  95 130 168 226 272 326 394
#     4   9  21  43  67  98 132 176 223 271 340 387
#     4  12  24  45  67  97 144 171 224 278 335 401
#     4  10  23  41  68 100 131 183 213 281 334 397
#
# _framework density 21.986929
#
# number of rings (size 3 to 8) (size 9 to 14) (size 15 to 20)
#    0.857    0.286    1.429    4.286    6.000    1.714 
#    2.571    0.714    0.000    0.000    0.000    0.000 
#    0.000    0.000    0.000    0.000    0.000    0.000 
#
# Total GULP energy -173540.766597 kJ/mol
# GULP energy per Si atom -12395.769043 kJ/mol
# Density = 2.193689 g / cm^3
# Si number density = 21.986929 Si / 1000 Ang^3
#
#
#
# Elastic Constant Matrix: (Units=GPa)
#
#
# Indices 1 2 3 4 5 6 
#
# 1 71.9969 17.5010 11.4532 9.2477 3.1460 14.9748
# 2 17.5010 92.9265 24.8365 13.7712 -4.2455 14.8298
# 3 11.4532 24.8365 70.0112 8.4708 -5.0778 1.7745
# 4 9.2477 13.7712 8.4708 36.9460 -0.0590 3.0298
# 5 3.1460 -4.2455 -5.0778 -0.0590 36.8265 -4.3110
# 6 14.9748 14.8298 1.7745 3.0298 -4.3110 37.5712
#
#
#
# Elastic Compliance Matrix: (Units=1/GPa)
#
#
# Indices 1 2 3 4 5 6 
#
# 1 0.016190 -0.001322 -0.001891 -0.002645 -0.002493 -0.005915
# 2 -0.001322 0.013253 -0.003928 -0.003365 0.000605 -0.004178
# 3 -0.001891 -0.003928 0.016333 -0.001963 0.002185 0.001942
# 4 -0.002645 -0.003365 -0.001963 0.029427 -0.000379 0.000059
# 5 -0.002493 0.000605 0.002185 -0.000379 0.028196 0.003918
# 6 -0.005915 -0.004178 0.001942 0.000059 0.003918 0.030976
#
#
# Mechanical properties :
#
#
# Convention : Reuss Voigt Hill
#
# Bulk Modulus (GPa) = 31.75104 38.05734 34.90419
# Shear Modulus (GPa) = 31.41570 34.34501 32.88036
#
# Velocity S-wave (km/s) = 3.78409 3.95658 3.87130
# Velocity P-wave (km/s) = 5.79351 6.18218 5.99100
#
# Compressibility (1/GPa) = 0.03149504
#
# Stress axis : x y z
#
# Youngs Moduli (GPa) = 61.76476 75.45391 61.22548
#
# Poissons Ratio (x) = 0.09974 0.11575
# Poissons Ratio (y) = 0.08164 0.24052
# Poissons Ratio (z) = 0.11677 0.29642
#
# Static dielectric constant tensor:
#      x y z
#    x 3.924400 -0.013490 0.019540 
#    y -0.013490 3.893010 0.182650 
#    z 0.019540 0.182650 3.966390 
# 
# 
# High freq. dielectric constant tensor:
#      x y z
#    x 1.867600 0.001860 0.007030 
#    y 0.001860 1.851740 0.016730 
#    z 0.007030 0.016730 1.865200 
# 
# From -- ./inp_files/229583.got.cif
#   From: 2010.06.25/outbox.cif.g09.slc.cpg/sg2_115_cif.got.tgz:229583.got - 2010.06.27 13:26:56.
