data_PCOD8023300
_publ_section_title
;
Structure prediction by ZEFSAII (Michael W. Deem and Ramdas Pophale) SiO2 
 PCOD8023300
Probable space group: P -1
;
_chemical_formula_sum "Si O2"
_cell_formula_units_Z 12
_cell_length_a 9.234493
_cell_length_b 12.493367
_cell_length_c 9.168134
_cell_angle_alpha 62.889347
_cell_angle_beta 81.393912
_cell_angle_gamma 34.405219
_cell_volume 475.076913
_symmetry_space_group_name_H-M "P -1"
_symmetry_group_IT_number 2
_symmetry_cell_setting 'triclinic'
loop_
_space_group_symop_operation_xyz
x,y,z
-x,-y,-z
loop_
_atom_site_type_symbol
_atom_site_label
_atom_site_fract_x
_atom_site_fract_y
_atom_site_fract_z
Si Si1 0.829624 0.759848 0.638469
Si Si2 0.452535 0.686422 0.127396
Si Si3 0.252157 0.920058 0.516969
Si Si4 0.974427 0.207602 0.899344
Si Si5 0.260259 0.421564 0.115200
Si Si6 0.269749 0.500207 0.512637
O O1 0.858444 0.631792 0.832319
O O2 0.031222 0.583473 0.577660
O O3 0.500000 0.000000 0.500000
O O4 0.907204 0.839802 0.633042
O O5 0.264260 0.719399 0.053001
O O6 0.568757 0.547279 0.347408
O O7 0.715601 0.545793 0.073987
O O8 0.281285 0.929493 0.040103
O O9 0.423537 0.791743 0.724648
O O10 0.495068 0.736903 0.469417
O O11 0.000000 0.000000 0.500000
O O12 0.965562 0.334298 0.917376
O O13 0.907732 0.280494 0.694146
#
# Coordination Sequence:
#
# PCOD8023300 Si02
#       6
#     2   2   2   2   2   2
#     4  10  23  43  68  99 140 179 226 277 340 405
#     4  11  24  40  68 101 136 175 227 282 335 402
#     4  10  24  40  71 105 134 175 232 280 337 406
#     4  10  23  41  64  98 136 176 224 280 339 396
#     4  10  23  43  64  95 138 183 216 280 342 400
#     4  11  25  42  71 100 134 179 229 279 341 402
#
# _framework density 25.259066000000001
#
# number of rings (size 3 to 8) (size 9 to 14) (size 15 to 20)
#    0.000    1.667    0.000    3.000   11.667    9.333 
#    0.000    1.667    0.000    0.000    0.000    0.000 
#    0.000    0.000    0.000    0.000    0.000    0.000 
#
# Total GULP energy -148738.528893 kJ/mol
# GULP energy per Si atom -12394.877408 kJ/mol
# Density = 2.520158 g / cm^3
# Si number density = 25.259066 Si / 1000 Ang^3
#
#
#
# Elastic Constant Matrix: (Units=GPa)
#
#
# Indices 1 2 3 4 5 6 
#
# 1 112.5331 39.5953 10.4776 -1.5462 -32.0283 0.9176
# 2 39.5953 122.4566 20.2117 8.2352 -16.3254 -14.1953
# 3 10.4776 20.2117 87.9502 15.3617 -16.1684 -4.0378
# 4 -1.5462 8.2352 15.3617 37.9089 -4.9327 -9.1548
# 5 -32.0283 -16.3254 -16.1684 -4.9327 35.1877 -3.4421
# 6 0.9176 -14.1953 -4.0378 -9.1548 -3.4421 45.4477
#
#
#
# Elastic Compliance Matrix: (Units=1/GPa)
#
#
# Indices 1 2 3 4 5 6 
#
# 1 0.013102 -0.003004 0.000791 0.002378 0.011248 0.000198
# 2 -0.003004 0.009959 -0.001389 -0.000815 0.001426 0.002992
# 3 0.000791 -0.001389 0.013398 -0.004285 0.005661 0.000306
# 4 0.002378 -0.000815 -0.004285 0.030392 0.004644 0.005791
# 5 0.011248 0.001426 0.005661 0.004644 0.043052 0.004917
# 6 0.000198 0.002992 0.000306 0.005791 0.004917 0.024500
#
#
# Mechanical properties :
#
#
# Convention : Reuss Voigt Hill
#
# Bulk Modulus (GPa) = 34.18265 51.50102 42.84184
# Shear Modulus (GPa) = 33.03418 40.55257 36.79337
#
# Velocity S-wave (km/s) = 3.62030 4.01117 3.82074
# Velocity P-wave (km/s) = 5.57114 6.47194 6.03836
#
# Compressibility (1/GPa) = 0.02925461
#
# Stress axis : x y z
#
# Youngs Moduli (GPa) = 76.32352 100.41649 74.63699
#
# Poissons Ratio (x) = 0.30169 -0.05905
# Poissons Ratio (y) = 0.22931 0.10366
# Poissons Ratio (z) = -0.06038 0.13946
#
# Static dielectric constant tensor:
#      x y z
#    x 4.740600 -0.029970 -0.231330 
#    y -0.029970 4.678980 -0.268750 
#    z -0.231330 -0.268750 4.933870 
# 
# 
# High freq. dielectric constant tensor:
#      x y z
#    x 2.001380 -0.017020 -0.004550 
#    y -0.017020 2.011850 -0.014010 
#    z -0.004550 -0.014010 2.022980 
# 
# From -- ./inp_files/184987.got.cif
#   From: 2010.06.25/outbox.cif.g09.slc.cpg/sg2_93_cif.got.tgz:184987.got - 2010.06.27 13:26:56.
