data_PCOD8023666
_publ_section_title
;
Structure prediction by ZEFSAII (Michael W. Deem and Ramdas Pophale) SiO2 
 PCOD8023666
Probable space group: P -1
;
_chemical_formula_sum "Si O2"
_cell_formula_units_Z 16
_cell_length_a 13.994226
_cell_length_b 13.966894
_cell_length_c 8.191131
_cell_angle_alpha 100.761032
_cell_angle_beta 78.734048
_cell_angle_gamma 150.069843
_cell_volume 782.923517
_symmetry_space_group_name_H-M "P -1"
_symmetry_group_IT_number 2
_symmetry_cell_setting 'triclinic'
loop_
_space_group_symop_operation_xyz
x,y,z
-x,-y,-z
loop_
_atom_site_type_symbol
_atom_site_label
_atom_site_fract_x
_atom_site_fract_y
_atom_site_fract_z
Si Si1 0.108013 0.105249 0.261556
Si Si2 0.314182 0.812223 0.295521
Si Si3 0.131723 0.246165 0.607638
Si Si4 0.271786 0.396376 0.099276
Si Si5 0.091782 0.441464 0.140190
Si Si6 0.483490 0.523232 0.756323
Si Si7 0.043502 0.386715 0.760159
Si Si8 0.733667 0.239701 0.325096
O O1 0.047925 0.130373 0.432133
O O2 0.111761 0.171853 0.112651
O O3 0.323242 0.248444 0.268884
O O4 0.968597 0.892317 0.244524
O O5 0.251826 0.664151 0.164712
O O6 0.294608 0.767611 0.476784
O O7 0.168595 0.773695 0.288131
O O8 0.531884 0.030427 0.247259
O O9 0.357076 0.410232 0.597649
O O10 0.105791 0.338651 0.646644
O O11 0.181952 0.422528 0.183871
O O12 0.450213 0.525159 0.205803
O O13 0.347762 0.463668 0.911270
O O14 0.899885 0.303186 0.260288
O O15 0.031250 0.370101 0.952900
O O16 0.201197 0.602666 0.726131
#
# Coordination Sequence:
#
# PCOD8023666 Si02
#       8
#     2   2   2   2   2   2   2   2
#     4   9  22  37  58  84 122 152 200 242 278 351
#     4  10  23  42  62  92 115 151 200 243 299 357
#     4  11  21  38  59  90 115 161 194 238 296 338
#     4   9  20  39  58  84 119 154 194 238 284 346
#     4  11  21  40  60  91 120 158 196 238 299 348
#     4   9  19  40  55  81 121 153 194 241 285 337
#     4  11  23  37  64  87 123 156 194 245 295 349
#     4  10  23  42  63  87 119 151 195 250 295 357
#
# _framework density 20.436223999999999
#
# number of rings (size 3 to 8) (size 9 to 14) (size 15 to 20)
#    0.750    1.250    1.250    3.375    3.500    3.500 
#    4.500    1.250    0.000    0.000    0.000    0.000 
#    0.000    0.000    0.000    0.000    0.000    0.000 
#
# Total GULP energy -198268.582773 kJ/mol
# GULP energy per Si atom -12391.786423 kJ/mol
# Density = 2.038971 g / cm^3
# Si number density = 20.436224 Si / 1000 Ang^3
#
#
#
# Elastic Constant Matrix: (Units=GPa)
#
#
# Indices 1 2 3 4 5 6 
#
# 1 130.0705 55.5901 2.0758 -3.3294 -9.6822 0.7658
# 2 55.5901 118.0134 -3.8679 -5.2421 -16.2543 12.6488
# 3 2.0758 -3.8679 24.4676 -4.7631 -7.5208 -0.2721
# 4 -3.3294 -5.2421 -4.7631 26.4977 8.8375 5.7458
# 5 -9.6822 -16.2543 -7.5208 8.8375 24.6274 2.7532
# 6 0.7658 12.6488 -0.2721 5.7458 2.7532 23.6817
#
#
#
# Elastic Compliance Matrix: (Units=1/GPa)
#
#
# Indices 1 2 3 4 5 6 
#
# 1 0.009808 -0.004967 -0.001707 -0.000588 -0.000007 0.002459
# 2 -0.004967 0.013148 0.005425 0.001862 0.008637 -0.008255
# 3 -0.001707 0.005425 0.047823 0.005217 0.016251 -0.005448
# 4 -0.000588 0.001862 0.005217 0.045425 -0.012539 -0.010479
# 5 -0.000007 0.008637 0.016251 -0.012539 0.056656 -0.007971
# 6 0.002459 -0.008255 -0.005448 -0.010479 -0.007971 0.049963
#
#
# Mechanical properties :
#
#
# Convention : Reuss Voigt Hill
#
# Bulk Modulus (GPa) = 14.64497 42.23861 28.44179
# Shear Modulus (GPa) = 20.15476 29.54494 24.84985
#
# Velocity S-wave (km/s) = 3.14383 3.80638 3.49086
# Velocity P-wave (km/s) = 4.51220 6.32704 5.49506
#
# Compressibility (1/GPa) = 0.06828283
#
# Stress axis : x y z
#
# Youngs Moduli (GPa) = 101.95763 76.05672 20.91052
#
# Poissons Ratio (x) = 0.37775 0.03568
# Poissons Ratio (y) = 0.50639 -0.11344
# Poissons Ratio (z) = 0.17399 -0.41262
#
# Static dielectric constant tensor:
#      x y z
#    x 3.607510 0.125080 0.061330 
#    y 0.125080 3.766870 -0.115710 
#    z 0.061330 -0.115710 3.640070 
# 
# 
# High freq. dielectric constant tensor:
#      x y z
#    x 1.789760 0.010630 0.004260 
#    y 0.010630 1.791090 -0.010300 
#    z 0.004260 -0.010300 1.803420 
# 
# From -- ./inp_files/313544.got.cif
#   From: 2010.06.25/outbox.cif.g09.slc.cpg/sg2_157_cif.got.tgz:313544.got - 2010.06.27 13:26:56.
