data_PCOD8023934
_publ_section_title
;
Structure prediction by ZEFSAII (Michael W. Deem and Ramdas Pophale) SiO2 
 PCOD8023934
Probable space group: P -1
;
_chemical_formula_sum "Si O2"
_cell_formula_units_Z 16
_cell_length_a 22.162485
_cell_length_b 18.357770
_cell_length_c 9.538858
_cell_angle_alpha 36.439002
_cell_angle_beta 143.203839
_cell_angle_gamma 163.805671
_cell_volume 633.507944
_symmetry_space_group_name_H-M "P -1"
_symmetry_group_IT_number 2
_symmetry_cell_setting 'triclinic'
loop_
_space_group_symop_operation_xyz
x,y,z
-x,-y,-z
loop_
_atom_site_type_symbol
_atom_site_label
_atom_site_fract_x
_atom_site_fract_y
_atom_site_fract_z
Si Si1 0.982534 0.328650 0.350972
Si Si2 0.368980 0.182337 0.667801
Si Si3 0.873237 0.385300 0.582469
Si Si4 0.561428 0.129327 0.768891
Si Si5 0.081592 0.972094 0.111787
Si Si6 0.483532 0.850666 0.818497
Si Si7 0.007447 0.987024 0.368563
Si Si8 0.540722 0.384224 0.384987
O O1 0.954979 0.410378 0.285923
O O2 0.178273 0.573747 0.230352
O O3 0.772893 0.088333 0.232354
O O4 0.007794 0.235752 0.639104
O O5 0.221467 0.135475 0.514524
O O6 0.529096 0.397113 0.510627
O O7 0.519428 0.288899 0.905979
O O8 0.731439 0.359928 0.350489
O O9 0.000000 0.500000 0.500000
O O10 0.703610 0.093397 0.756754
O O11 0.471760 0.172039 0.538815
O O12 0.463738 0.942351 0.750471
O O13 0.500000 0.000000 0.000000
O O14 0.349971 0.260958 0.150103
O O15 0.980216 0.873180 0.916748
O O16 0.000000 0.000000 0.000000
O O17 0.796107 0.691982 0.357627
O O18 0.000000 0.000000 0.500000
#
# Coordination Sequence:
#
# PCOD8023934 Si02
#       8
#     2   2   2   2   2   2   2   2
#     4  10  23  42  68 100 133 183 237 276 339 425
#     4  11  23  45  67 101 134 175 237 282 348 421
#     4  10  24  42  62  93 138 182 223 272 352 401
#     4  11  21  40  70 103 138 178 228 279 341 415
#     4  11  22  47  72  96 137 182 241 294 342 418
#     4  10  24  41  62 100 139 173 220 283 336 422
#     4  12  27  48  70 106 136 180 238 303 361 403
#     4  11  23  44  73 101 132 185 238 276 354 430
#
# _framework density 25.256194000000001
#
# number of rings (size 3 to 8) (size 9 to 14) (size 15 to 20)
#    0.000    1.250    5.000    0.375    3.500    6.500 
#    6.750    0.000    0.000    0.000    0.000    0.000 
#    0.000    0.000    0.000    0.000    0.000    0.000 
#
# Total GULP energy -198208.990895 kJ/mol
# GULP energy per Si atom -12388.061931 kJ/mol
# Density = 2.519871 g / cm^3
# Si number density = 25.256194 Si / 1000 Ang^3
#
#
#
# Elastic Constant Matrix: (Units=GPa)
#
#
# Indices 1 2 3 4 5 6 
#
# 1 101.1687 3.0737 7.7393 -8.5808 -12.2481 23.4023
# 2 3.0737 53.0346 -3.8873 -5.4634 -0.5102 2.6341
# 3 7.7393 -3.8873 112.9641 12.2247 -15.0057 6.5967
# 4 -8.5808 -5.4634 12.2247 29.0633 10.9795 -5.3691
# 5 -12.2481 -0.5102 -15.0057 10.9795 47.0415 -1.0284
# 6 23.4023 2.6341 6.5967 -5.3691 -1.0284 28.4815
#
#
#
# Elastic Compliance Matrix: (Units=1/GPa)
#
#
# Indices 1 2 3 4 5 6 
#
# 1 0.012646 -0.000124 0.000030 0.000724 0.002910 -0.010145
# 2 -0.000124 0.019292 0.000285 0.003479 -0.000568 -0.001113
# 3 0.000030 0.000285 0.010455 -0.006835 0.004863 -0.003585
# 4 0.000724 0.003479 -0.006835 0.044310 -0.012108 0.008582
# 5 0.002910 -0.000568 0.004863 -0.012108 0.026282 -0.004798
# 6 -0.010145 -0.001113 -0.003585 0.008582 -0.004798 0.045824
#
#
# Mechanical properties :
#
#
# Convention : Reuss Voigt Hill
#
# Bulk Modulus (GPa) = 23.37786 31.22432 27.30109
# Shear Modulus (GPa) = 28.95436 38.26671 33.61053
#
# Velocity S-wave (km/s) = 3.38956 3.89670 3.65195
# Velocity P-wave (km/s) = 4.95936 5.71276 5.34934
#
# Compressibility (1/GPa) = 0.04277552
#
# Stress axis : x y z
#
# Youngs Moduli (GPa) = 79.07358 51.83517 95.64735
#
# Poissons Ratio (x) = 0.00644 -0.00286
# Poissons Ratio (y) = 0.00983 -0.02730
# Poissons Ratio (z) = -0.00237 -0.01479
#
# Static dielectric constant tensor:
#      x y z
#    x 4.604090 0.145300 -0.275230 
#    y 0.145300 4.705830 -0.035900 
#    z -0.275230 -0.035900 4.898870 
# 
# 
# High freq. dielectric constant tensor:
#      x y z
#    x 2.002380 0.017860 -0.016460 
#    y 0.017860 2.007190 0.002870 
#    z -0.016460 0.002870 2.017800 
# 
# From -- ./inp_files/348840.got.cif
#   From: 2010.06.25/outbox.cif.g09.slc.cpg/sg2_175_cif.got.tgz:348840.got - 2010.06.27 13:26:56.
