data_PCOD8023355
_publ_section_title
;
Structure prediction by ZEFSAII (Michael W. Deem and Ramdas Pophale) SiO2 
 PCOD8023355
Probable space group: P -1
;
_chemical_formula_sum "Si O2"
_cell_formula_units_Z 16
_cell_length_a 20.829869
_cell_length_b 18.512267
_cell_length_c 11.968358
_cell_angle_alpha 27.236823
_cell_angle_beta 39.190718
_cell_angle_gamma 21.270365
_cell_volume 725.354007
_symmetry_space_group_name_H-M "P -1"
_symmetry_group_IT_number 2
_symmetry_cell_setting 'triclinic'
loop_
_space_group_symop_operation_xyz
x,y,z
-x,-y,-z
loop_
_atom_site_type_symbol
_atom_site_label
_atom_site_fract_x
_atom_site_fract_y
_atom_site_fract_z
Si Si1 0.547595 0.692018 0.522877
Si Si2 0.860799 0.459512 0.301982
Si Si3 0.059179 0.584075 0.169695
Si Si4 0.606486 0.408391 0.210963
Si Si5 0.070238 0.920538 0.640547
Si Si6 0.145375 0.315089 0.208217
Si Si7 0.256581 0.044487 0.742433
Si Si8 0.807307 0.158961 0.055067
O O1 0.672082 0.671588 0.333855
O O2 0.509261 0.604162 0.603404
O O3 0.643013 0.485588 0.783537
O O4 0.351952 0.011984 0.393904
O O5 0.024477 0.311947 0.364663
O O6 0.821614 0.645852 0.008889
O O7 0.916546 0.221289 0.499835
O O8 0.035476 0.573930 0.084250
O O9 0.230253 0.256321 0.439092
O O10 0.866248 0.801622 0.191910
O O11 0.097553 0.718688 0.943298
O O12 0.722357 0.274484 0.355126
O O13 0.759273 0.190465 0.205466
O O14 0.468003 0.734999 0.922605
O O15 0.000000 0.000000 0.500000
O O16 0.184186 0.015515 0.785966
O O17 0.000000 0.000000 0.000000
#
# Coordination Sequence:
#
# PCOD8023355 Si02
#       8
#     2   2   2   2   2   2   2   2
#     4  11  22  40  71 104 132 175 237 278 340 408
#     4  11  24  44  70  97 135 183 238 278 343 401
#     4  11  23  43  66  96 147 174 224 280 351 409
#     4  11  22  43  68 100 139 176 232 286 333 415
#     4  12  24  45  66  97 134 188 223 277 348 402
#     4  11  23  44  68  98 139 182 227 294 330 407
#     4  10  23  41  66 101 137 179 221 283 350 404
#     4  11  22  39  71 105 136 178 226 283 345 409
#
# _framework density 22.058195000000001
#
# number of rings (size 3 to 8) (size 9 to 14) (size 15 to 20)
#    0.000    1.000    2.500    6.375    1.750    0.500 
#    2.250    3.750    0.000    0.000    0.000    0.000 
#    0.000    0.000    0.000    0.000    0.000    0.000 
#
# Total GULP energy -198376.985159 kJ/mol
# GULP energy per Si atom -12398.561572 kJ/mol
# Density = 2.200799 g / cm^3
# Si number density = 22.058195 Si / 1000 Ang^3
#
#
#
# Elastic Constant Matrix: (Units=GPa)
#
#
# Indices 1 2 3 4 5 6 
#
# 1 104.2878 42.7640 26.0878 -6.1770 7.6597 -15.2111
# 2 42.7640 112.2377 31.0197 -1.4995 -3.6711 -11.5639
# 3 26.0878 31.0197 91.0052 -7.4147 -11.9637 -17.1914
# 4 -6.1770 -1.4995 -7.4147 40.7320 -4.2872 -3.2770
# 5 7.6597 -3.6711 -11.9637 -4.2872 35.7426 -4.6040
# 6 -15.2111 -11.5639 -17.1914 -3.2770 -4.6040 36.9925
#
#
#
# Elastic Compliance Matrix: (Units=1/GPa)
#
#
# Indices 1 2 3 4 5 6 
#
# 1 0.012432 -0.003994 -0.002037 0.001234 -0.003271 0.002619
# 2 -0.003994 0.011216 -0.002378 -0.000421 0.001275 0.000880
# 3 -0.002037 -0.002378 0.014697 0.003457 0.006344 0.006345
# 4 0.001234 -0.000421 0.003457 0.026231 0.004625 0.004882
# 5 -0.003271 0.001275 0.006344 0.004625 0.032316 0.006433
# 6 0.002619 0.000880 0.006345 0.004882 0.006433 0.032566
#
#
# Mechanical properties :
#
#
# Convention : Reuss Voigt Hill
#
# Bulk Modulus (GPa) = 46.45775 56.36375 51.41075
# Shear Modulus (GPa) = 32.58341 36.53736 34.56039
#
# Velocity S-wave (km/s) = 3.84755 4.07431 3.96255
# Velocity P-wave (km/s) = 6.39104 6.90950 6.65532
#
# Compressibility (1/GPa) = 0.02152494
#
# Stress axis : x y z
#
# Youngs Moduli (GPa) = 80.44036 89.16160 68.04018
#
# Poissons Ratio (x) = 0.35614 0.13859
# Poissons Ratio (y) = 0.32130 0.16183
# Poissons Ratio (z) = 0.16385 0.21207
#
# Static dielectric constant tensor:
#      x y z
#    x 4.013850 -0.086800 -0.028250 
#    y -0.086800 3.949670 -0.073900 
#    z -0.028250 -0.073900 4.145140 
# 
# 
# High freq. dielectric constant tensor:
#      x y z
#    x 1.856690 -0.002390 0.000540 
#    y -0.002390 1.859420 -0.007900 
#    z 0.000540 -0.007900 1.887210 
# 
# From -- ./inp_files/472330.got.cif
#   From: 2010.06.25/outbox.cif.g09.slc.cpg/sg2_237_cif.got.tgz:472330.got - 2010.06.27 13:26:56.
