data_PCOD8023870
_publ_section_title
;
Structure prediction by ZEFSAII (Michael W. Deem and Ramdas Pophale) SiO2 
 PCOD8023870
Probable space group: P -1
;
_chemical_formula_sum "Si O2"
_cell_formula_units_Z 14
_cell_length_a 11.775239
_cell_length_b 9.717018
_cell_length_c 8.474763
_cell_angle_alpha 130.141455
_cell_angle_beta 121.215315
_cell_angle_gamma 56.581717
_cell_volume 598.144878
_symmetry_space_group_name_H-M "P -1"
_symmetry_group_IT_number 2
_symmetry_cell_setting 'triclinic'
loop_
_space_group_symop_operation_xyz
x,y,z
-x,-y,-z
loop_
_atom_site_type_symbol
_atom_site_label
_atom_site_fract_x
_atom_site_fract_y
_atom_site_fract_z
Si Si1 0.195721 0.119713 0.826742
Si Si2 0.661963 0.624169 0.697767
Si Si3 0.347482 0.751163 0.469702
Si Si4 0.885907 0.561839 0.226603
Si Si5 0.145061 0.955081 0.978217
Si Si6 0.840772 0.693864 0.638370
Si Si7 0.655487 0.384639 0.966232
O O1 0.088699 0.298035 0.785789
O O2 0.264890 0.962264 0.627186
O O3 0.301358 0.210392 0.056976
O O4 0.121806 0.016014 0.821490
O O5 0.495731 0.693352 0.620699
O O6 0.721715 0.412137 0.659207
O O7 0.728103 0.599019 0.549216
O O8 0.357658 0.752362 0.287518
O O9 0.885254 0.659596 0.466625
O O10 0.022884 0.372505 0.191998
O O11 0.737276 0.526179 0.068224
O O12 0.248005 0.737486 0.911983
O O13 0.227365 0.080586 0.215859
O O14 0.000000 0.000000 0.000000
O O15 0.500000 0.500000 0.000000
#
# Coordination Sequence:
#
# PCOD8023870 Si02
#       7
#     2   2   2   2   2   2   2
#     4  11  25  43  73 104 140 184 239 293 355 420
#     4  10  23  42  67 101 137 187 230 298 346 420
#     4  11  24  43  70 101 146 182 238 284 363 417
#     4  11  23  43  69 102 140 186 237 293 355 421
#     4  11  25  46  71 104 141 187 239 293 355 429
#     4  10  23  43  70  96 144 185 239 290 357 418
#     4  12  26  44  72 105 146 188 238 292 356 424
#
# _framework density 23.405702999999999
#
# number of rings (size 3 to 8) (size 9 to 14) (size 15 to 20)
#    0.000    1.143    2.857    2.143    6.000    5.714 
#    0.000    7.143    0.000    0.000    0.000    0.000 
#    0.000    0.000    0.000    0.000    0.000    0.000 
#
# Total GULP energy -173469.508794 kJ/mol
# GULP energy per Si atom -12390.679200 kJ/mol
# Density = 2.335243 g / cm^3
# Si number density = 23.405703 Si / 1000 Ang^3
#
#
#
# Elastic Constant Matrix: (Units=GPa)
#
#
# Indices 1 2 3 4 5 6 
#
# 1 110.2317 49.0248 19.0676 0.8389 -2.6113 10.7423
# 2 49.0248 131.6420 30.3058 -1.3534 -9.6489 18.6047
# 3 19.0676 30.3058 86.4195 1.4878 -11.5274 7.2558
# 4 0.8389 -1.3534 1.4878 31.4979 5.0890 -6.2904
# 5 -2.6113 -9.6489 -11.5274 5.0890 31.6911 -4.6236
# 6 10.7423 18.6047 7.2558 -6.2904 -4.6236 39.5602
#
#
#
# Elastic Compliance Matrix: (Units=1/GPa)
#
#
# Indices 1 2 3 4 5 6 
#
# 1 0.011032 -0.003742 -0.001109 -0.000525 -0.000724 -0.001201
# 2 -0.003742 0.010060 -0.002229 -0.000241 0.001520 -0.003167
# 3 -0.001109 -0.002229 0.013251 -0.001534 0.004174 -0.000837
# 4 -0.000525 -0.000241 -0.001534 0.033739 -0.005322 0.005280
# 5 -0.000724 0.001520 0.004174 -0.005322 0.034610 0.001915
# 6 -0.001201 -0.003167 -0.000837 0.005280 0.001915 0.028310
#
#
# Mechanical properties :
#
#
# Convention : Reuss Voigt Hill
#
# Bulk Modulus (GPa) = 49.54687 58.34330 53.94508
# Shear Modulus (GPa) = 32.91895 35.87617 34.39756
#
# Velocity S-wave (km/s) = 3.75434 3.91934 3.83773
# Velocity P-wave (km/s) = 6.32519 6.74260 6.53723
#
# Compressibility (1/GPa) = 0.02018291
#
# Stress axis : x y z
#
# Youngs Moduli (GPa) = 90.64900 99.40794 75.46422
#
# Poissons Ratio (x) = 0.37197 0.08366
# Poissons Ratio (y) = 0.33920 0.16823
# Poissons Ratio (z) = 0.10049 0.22161
#
# Static dielectric constant tensor:
#      x y z
#    x 4.201340 0.340950 -0.034230 
#    y 0.340950 4.458890 0.085150 
#    z -0.034230 0.085150 4.215260 
# 
# 
# High freq. dielectric constant tensor:
#      x y z
#    x 1.917870 0.017630 -0.009860 
#    y 0.017630 1.930080 0.006730 
#    z -0.009860 0.006730 1.929870 
# 
# From -- ./inp_files/246144.got.cif
#   From: 2010.06.25/outbox.cif.g09.slc.cpg/sg2_124_cif.got.tgz:246144.got - 2010.06.27 13:26:56.
