data_PCOD8023965
_publ_section_title
;
Structure prediction by ZEFSAII (Michael W. Deem and Ramdas Pophale) SiO2 
 PCOD8023965
Probable space group: P -1
;
_chemical_formula_sum "Si O2"
_cell_formula_units_Z 16
_cell_length_a 6.633452
_cell_length_b 22.892401
_cell_length_c 8.463878
_cell_angle_alpha 120.177544
_cell_angle_beta 99.764121
_cell_angle_gamma 44.162015
_cell_volume 734.123041
_symmetry_space_group_name_H-M "P -1"
_symmetry_group_IT_number 2
_symmetry_cell_setting 'triclinic'
loop_
_space_group_symop_operation_xyz
x,y,z
-x,-y,-z
loop_
_atom_site_type_symbol
_atom_site_label
_atom_site_fract_x
_atom_site_fract_y
_atom_site_fract_z
Si Si1 0.279434 0.789434 0.651775
Si Si2 0.701303 0.443871 0.295634
Si Si3 0.397612 0.064958 0.337534
Si Si4 0.385118 0.396769 0.060496
Si Si5 0.546277 0.092264 0.724307
Si Si6 0.139858 0.964089 0.794943
Si Si7 0.376624 0.269154 0.081780
Si Si8 0.305014 0.424081 0.725092
O O1 0.312232 0.850097 0.637300
O O2 0.333705 0.796111 0.851556
O O3 0.536887 0.672646 0.486260
O O4 0.943674 0.842032 0.646603
O O5 0.500000 0.500000 0.500000
O O6 0.640607 0.384029 0.142180
O O7 0.607695 0.524721 0.267601
O O8 0.064295 0.361502 0.262104
O O9 0.453155 0.100121 0.543127
O O10 0.618660 0.034837 0.185672
O O11 0.490928 0.965641 0.253382
O O12 0.437970 0.307138 0.000967
O O13 0.055645 0.502260 0.221710
O O14 0.429636 0.389417 0.870273
O O15 0.337696 0.204181 0.913628
O O16 0.894791 0.031611 0.712272
O O17 0.000000 0.000000 0.000000
#
# Coordination Sequence:
#
# PCOD8023965 Si02
#       8
#     2   2   2   2   2   2   2   2
#     4  11  24  41  63 101 130 172 218 269 326 395
#     4  11  23  41  66  96 134 177 218 266 328 390
#     4  10  25  43  70  93 132 176 215 270 334 384
#     4  10  23  42  68  93 133 178 211 278 324 384
#     4  10  23  46  65  98 130 171 221 271 322 398
#     4  11  23  45  66  97 134 171 213 273 329 387
#     4  11  24  42  66 100 131 169 225 267 330 385
#     4  10  23  43  63  97 135 169 223 268 324 390
#
# _framework density 21.794713000000002
#
# number of rings (size 3 to 8) (size 9 to 14) (size 15 to 20)
#    0.000    1.500    1.250    2.250    3.500    8.000 
#    2.250    0.000    0.000    0.000    0.000    0.000 
#    0.000    0.000    0.000    0.000    0.000    0.000 
#
# Total GULP energy -198390.339710 kJ/mol
# GULP energy per Si atom -12399.396232 kJ/mol
# Density = 2.174511 g / cm^3
# Si number density = 21.794713 Si / 1000 Ang^3
#
#
#
# Elastic Constant Matrix: (Units=GPa)
#
#
# Indices 1 2 3 4 5 6 
#
# 1 128.4226 44.2648 48.5616 -10.5688 1.1328 5.7838
# 2 44.2648 107.7431 47.3541 -8.4436 3.4081 -2.4318
# 3 48.5616 47.3541 96.7268 -2.1126 10.3192 8.7977
# 4 -10.5688 -8.4436 -2.1126 39.0064 6.2273 12.1650
# 5 1.1328 3.4081 10.3192 6.2273 34.0907 -7.9131
# 6 5.7838 -2.4318 8.7977 12.1650 -7.9131 29.4556
#
#
#
# Elastic Compliance Matrix: (Units=1/GPa)
#
#
# Indices 1 2 3 4 5 6 
#
# 1 0.010379 -0.002452 -0.003742 0.002789 -0.000005 -0.002276
# 2 -0.002452 0.012749 -0.005397 0.000649 0.001056 0.003162
# 3 -0.003742 -0.005397 0.016196 0.001863 -0.006200 -0.006983
# 4 0.002789 0.000649 0.001863 0.034063 -0.011148 -0.018113
# 5 -0.000005 0.001056 -0.006200 -0.011148 0.036965 0.016475
# 6 -0.002276 0.003162 -0.006983 -0.018113 0.016475 0.048650
#
#
# Mechanical properties :
#
#
# Convention : Reuss Voigt Hill
#
# Bulk Modulus (GPa) = 61.94433 68.13930 65.04181
# Shear Modulus (GPa) = 26.65743 33.35799 30.00771
#
# Velocity S-wave (km/s) = 3.50110 3.91647 3.71460
# Velocity P-wave (km/s) = 6.69530 7.19609 6.95021
#
# Compressibility (1/GPa) = 0.01614353
#
# Stress axis : x y z
#
# Youngs Moduli (GPa) = 96.34793 78.43480 61.74255
#
# Poissons Ratio (x) = 0.19233 0.23103
# Poissons Ratio (y) = 0.23626 0.33320
# Poissons Ratio (z) = 0.36052 0.42329
#
# Static dielectric constant tensor:
#      x y z
#    x 4.042030 0.034180 0.226670 
#    y 0.034180 4.076080 -0.029630 
#    z 0.226670 -0.029630 4.048400 
# 
# 
# High freq. dielectric constant tensor:
#      x y z
#    x 1.860770 0.003790 0.012640 
#    y 0.003790 1.866520 -0.000590 
#    z 0.012640 -0.000590 1.852900 
# 
# From -- ./inp_files/53946.got.cif
#   From: 2010.06.25/outbox.cif.g09.slc.cpg/sg2_27_cif.got.tgz:53946.got - 2010.06.27 13:26:56.
