data_PCOD8023837
_publ_section_title
;
Structure prediction by ZEFSAII (Michael W. Deem and Ramdas Pophale) SiO2 
 PCOD8023837
Probable space group: P -1
;
_chemical_formula_sum "Si O2"
_cell_formula_units_Z 16
_cell_length_a 8.474181
_cell_length_b 15.335095
_cell_length_c 9.178054
_cell_angle_alpha 59.269802
_cell_angle_beta 120.671802
_cell_angle_gamma 84.069331
_cell_volume 767.532350
_symmetry_space_group_name_H-M "P -1"
_symmetry_group_IT_number 2
_symmetry_cell_setting 'triclinic'
loop_
_space_group_symop_operation_xyz
x,y,z
-x,-y,-z
loop_
_atom_site_type_symbol
_atom_site_label
_atom_site_fract_x
_atom_site_fract_y
_atom_site_fract_z
Si Si1 0.807486 0.493995 0.350735
Si Si2 0.544309 0.246818 0.522926
Si Si3 0.570157 0.894559 0.017574
Si Si4 0.844182 0.578463 0.986279
Si Si5 0.002719 0.242488 0.059654
Si Si6 0.042611 0.765553 0.281681
Si Si7 0.405093 0.063434 0.548409
Si Si8 0.544533 0.300380 0.805329
O O1 0.810628 0.508894 0.163647
O O2 0.827890 0.371711 0.507203
O O3 0.606683 0.592692 0.255723
O O4 0.000000 0.500000 0.500000
O O5 0.787485 0.194024 0.629396
O O6 0.505234 0.136870 0.606150
O O7 0.505814 0.316966 0.598386
O O8 0.388602 0.339683 0.254592
O O9 0.473154 0.812621 0.073135
O O10 0.824064 0.824546 0.215070
O O11 0.500000 0.000000 0.000000
O O12 0.462405 0.951118 0.766907
O O13 0.000000 0.500000 0.000000
O O14 0.946929 0.653167 0.029922
O O15 0.156824 0.149777 0.330611
O O16 0.025788 0.191588 0.952535
O O17 0.769252 0.284586 0.970875
O O18 0.500000 0.000000 0.500000
#
# Coordination Sequence:
#
# PCOD8023837 Si02
#       8
#     2   2   2   2   2   2   2   2
#     4  12  23  42  69  95 134 177 212 270 323 389
#     4  10  25  43  64  99 130 169 219 270 324 391
#     4  12  24  42  67  97 128 172 220 274 325 382
#     4  11  24  42  63  94 134 173 212 263 326 383
#     4  10  23  42  66  96 127 173 217 265 324 389
#     4  11  24  43  69  96 130 175 222 262 329 391
#     4  11  23  44  68  91 132 173 217 272 329 382
#     4  11  24  43  68  99 131 170 225 263 326 391
#
# _framework density 20.846025000000001
#
# number of rings (size 3 to 8) (size 9 to 14) (size 15 to 20)
#    0.000    1.000    5.000    0.750    3.500    3.500 
#    2.250    0.000    0.000    0.000    0.000    0.000 
#    0.000    0.000    0.000    0.000    0.000    0.000 
#
# Total GULP energy -198286.061214 kJ/mol
# GULP energy per Si atom -12392.878826 kJ/mol
# Density = 2.079858 g / cm^3
# Si number density = 20.846025 Si / 1000 Ang^3
#
#
#
# Elastic Constant Matrix: (Units=GPa)
#
#
# Indices 1 2 3 4 5 6 
#
# 1 116.7666 30.7733 52.4647 6.3662 18.8084 7.6940
# 2 30.7733 75.4710 31.3561 -0.8703 14.5496 -9.7076
# 3 52.4647 31.3561 114.7367 2.7695 -1.3292 15.5712
# 4 6.3662 -0.8703 2.7695 33.0071 1.9977 1.6207
# 5 18.8084 14.5496 -1.3292 1.9977 39.7437 7.6469
# 6 7.6940 -9.7076 15.5712 1.6207 7.6469 37.3593
#
#
#
# Elastic Compliance Matrix: (Units=1/GPa)
#
#
# Indices 1 2 3 4 5 6 
#
# 1 0.012301 -0.001813 -0.005194 -0.001679 -0.005309 0.000320
# 2 -0.001813 0.019238 -0.005839 0.001384 -0.008266 0.009438
# 3 -0.005194 -0.005839 0.013790 -0.000335 0.006519 -0.007515
# 4 -0.001679 0.001384 -0.000335 0.030771 -0.001224 -0.000239
# 5 -0.005309 -0.008266 0.006519 -0.001224 0.032994 -0.010472
# 6 0.000320 0.009438 -0.007515 -0.000239 -0.010472 0.034440
#
#
# Mechanical properties :
#
#
# Convention : Reuss Voigt Hill
#
# Bulk Modulus (GPa) = 50.91973 59.57361 55.24667
# Shear Modulus (GPa) = 28.44624 34.84735 31.64679
#
# Velocity S-wave (km/s) = 3.69804 4.09302 3.90053
# Velocity P-wave (km/s) = 6.53557 7.13982 6.84437
#
# Compressibility (1/GPa) = 0.01963875
#
# Stress axis : x y z
#
# Youngs Moduli (GPa) = 81.29415 51.97913 72.51813
#
# Poissons Ratio (x) = 0.09422 0.37664
# Poissons Ratio (y) = 0.14736 0.42341
# Poissons Ratio (z) = 0.42222 0.30349
#
# Static dielectric constant tensor:
#      x y z
#    x 4.847370 0.968960 -1.048590 
#    y 0.968960 4.693890 -0.902680 
#    z -1.048590 -0.902680 5.064770 
# 
# 
# High freq. dielectric constant tensor:
#      x y z
#    x 1.822510 0.001980 0.003750 
#    y 0.001980 1.813380 0.002440 
#    z 0.003750 0.002440 1.831250 
# 
# From -- ./inp_files/177433.got.cif
#   From: 2010.06.25/outbox.cif.g09.slc.cpg/sg2_89_cif.got.tgz:177433.got - 2010.06.27 13:26:56.
