data_PCOD8023606
_publ_section_title
;
Structure prediction by ZEFSAII (Michael W. Deem and Ramdas Pophale) SiO2 
 PCOD8023606
Probable space group: P -1
;
_chemical_formula_sum "Si O2"
_cell_formula_units_Z 12
_cell_length_a 10.905607
_cell_length_b 9.663564
_cell_length_c 11.325409
_cell_angle_alpha 119.729586
_cell_angle_beta 140.354496
_cell_angle_gamma 86.980532
_cell_volume 531.926711
_symmetry_space_group_name_H-M "P -1"
_symmetry_group_IT_number 2
_symmetry_cell_setting 'triclinic'
loop_
_space_group_symop_operation_xyz
x,y,z
-x,-y,-z
loop_
_atom_site_type_symbol
_atom_site_label
_atom_site_fract_x
_atom_site_fract_y
_atom_site_fract_z
Si Si1 0.440554 0.295578 0.336635
Si Si2 0.006799 0.952315 0.243116
Si Si3 0.961047 0.266056 0.421129
Si Si4 0.647348 0.387448 0.280615
Si Si5 0.493888 0.184868 0.578914
Si Si6 0.210409 0.397984 0.908282
O O1 0.500000 0.500000 0.500000
O O2 0.609866 0.335800 0.369310
O O3 0.488495 0.211372 0.447746
O O4 0.161755 0.148402 0.037316
O O5 0.998250 0.786240 0.244762
O O6 0.906901 0.051371 0.289382
O O7 0.267441 0.124252 0.462830
O O8 0.120487 0.388667 0.476606
O O9 0.712575 0.243414 0.216401
O O10 0.111665 0.387126 0.701122
O O11 0.420620 0.367003 0.046832
O O12 0.709314 0.393777 0.885404
O O13 0.500000 0.000000 0.500000
#
# Coordination Sequence:
#
# PCOD8023606 Si02
#       6
#     2   2   2   2   2   2
#     4  11  22  46  69  94 143 179 229 286 335 412
#     4  11  24  44  71 100 132 187 226 282 350 403
#     4  11  23  43  71 106 135 177 236 279 350 412
#     4  10  23  41  72 100 135 186 222 282 346 399
#     4  12  27  44  69 105 135 184 233 279 351 409
#     4  11  24  46  69 100 148 173 223 302 329 413
#
# _framework density 22.559498999999999
#
# number of rings (size 3 to 8) (size 9 to 14) (size 15 to 20)
#    0.000    1.000    5.000    1.500    2.333    7.333 
#    0.000    0.000    0.000    0.000    0.000    0.000 
#    0.000    0.000    0.000    0.000    0.000    0.000 
#
# Total GULP energy -148699.560724 kJ/mol
# GULP energy per Si atom -12391.630060 kJ/mol
# Density = 2.250815 g / cm^3
# Si number density = 22.559499 Si / 1000 Ang^3
#
#
#
# Elastic Constant Matrix: (Units=GPa)
#
#
# Indices 1 2 3 4 5 6 
#
# 1 77.3791 35.6441 9.3607 6.8555 9.7544 1.5958
# 2 35.6441 138.5427 29.9295 16.6092 -11.2940 -2.0361
# 3 9.3607 29.9295 72.4183 14.6051 -19.3495 -0.1399
# 4 6.8555 16.6092 14.6051 39.2231 -5.3515 -3.2114
# 5 9.7544 -11.2940 -19.3495 -5.3515 26.8322 10.0108
# 6 1.5958 -2.0361 -0.1399 -3.2114 10.0108 50.7452
#
#
#
# Elastic Compliance Matrix: (Units=1/GPa)
#
#
# Indices 1 2 3 4 5 6 
#
# 1 0.016757 -0.004371 -0.002988 -0.001336 -0.010855 0.001346
# 2 -0.004371 0.009289 -0.001823 -0.001987 0.003937 -0.000397
# 3 -0.002988 -0.001823 0.019791 -0.004299 0.014904 -0.003137
# 4 -0.001336 -0.001987 -0.004299 0.028520 0.001709 0.001418
# 5 -0.010855 0.003937 0.014904 0.001709 0.057986 -0.010791
# 6 0.001346 -0.000397 -0.003137 0.001418 -0.010791 0.021858
#
#
# Mechanical properties :
#
#
# Convention : Reuss Voigt Hill
#
# Bulk Modulus (GPa) = 36.39595 48.68985 42.54290
# Shear Modulus (GPa) = 27.51442 37.58716 32.55079
#
# Velocity S-wave (km/s) = 3.49612 4.08626 3.80265
# Velocity P-wave (km/s) = 5.69785 6.62518 6.17894
#
# Compressibility (1/GPa) = 0.02747559
#
# Stress axis : x y z
#
# Youngs Moduli (GPa) = 59.67593 107.64912 50.52730
#
# Poissons Ratio (x) = 0.47050 0.15097
# Poissons Ratio (y) = 0.26083 0.09209
# Poissons Ratio (z) = 0.17831 0.19620
#
# Static dielectric constant tensor:
#      x y z
#    x 3.924420 -0.054490 0.014000 
#    y -0.054490 4.123550 0.194960 
#    z 0.014000 0.194960 3.908280 
# 
# 
# High freq. dielectric constant tensor:
#      x y z
#    x 1.892810 0.006390 0.003060 
#    y 0.006390 1.906740 0.019480 
#    z 0.003060 0.019480 1.876820 
# 
# From -- ./inp_files/246637.got.cif
#   From: 2010.06.25/outbox.cif.g09.slc.cpg/sg2_124_cif.got.tgz:246637.got - 2010.06.27 13:26:56.
