data_PCOD8023554
_publ_section_title
;
Structure prediction by ZEFSAII (Michael W. Deem and Ramdas Pophale) SiO2 
 PCOD8023554
Probable space group: P -1
;
_chemical_formula_sum "Si O2"
_cell_formula_units_Z 16
_cell_length_a 4.882617
_cell_length_b 16.100383
_cell_length_c 16.327514
_cell_angle_alpha 36.602469
_cell_angle_beta 89.183678
_cell_angle_gamma 105.399232
_cell_volume 677.648748
_symmetry_space_group_name_H-M "P -1"
_symmetry_group_IT_number 2
_symmetry_cell_setting 'triclinic'
loop_
_space_group_symop_operation_xyz
x,y,z
-x,-y,-z
loop_
_atom_site_type_symbol
_atom_site_label
_atom_site_fract_x
_atom_site_fract_y
_atom_site_fract_z
Si Si1 0.096884 0.683580 0.847563
Si Si2 0.878445 0.229703 0.043045
Si Si3 0.267351 0.221354 0.896706
Si Si4 0.841237 0.474460 0.750914
Si Si5 0.730815 0.820358 0.650891
Si Si6 0.531093 0.683227 0.589626
Si Si7 0.465243 0.115372 0.719040
Si Si8 0.054087 0.877728 0.180869
O O1 0.009503 0.741675 0.886380
O O2 0.463611 0.790970 0.742015
O O3 0.890728 0.710622 0.757943
O O4 0.000000 0.500000 0.000000
O O5 0.594157 0.056430 0.173051
O O6 0.759348 0.358277 0.921839
O O7 0.147356 0.246531 0.965727
O O8 0.612357 0.365440 0.766448
O O9 0.041154 0.222139 0.824055
O O10 0.299933 0.060632 0.018427
O O11 0.792546 0.627110 0.642011
O O12 0.203911 0.535277 0.685311
O O13 0.539506 0.766610 0.609287
O O14 0.000000 0.000000 0.500000
O O15 0.602969 0.804943 0.420689
O O16 0.248496 0.114585 0.793044
O O17 0.810018 0.198309 0.691996
#
# Coordination Sequence:
#
# PCOD8023554 Si02
#       8
#     2   2   2   2   2   2   2   2
#     4  12  27  44  73 108 140 175 236 300 344 404
#     4  11  24  43  74  99 134 177 236 276 343 408
#     4  10  23  42  72 103 135 179 222 285 344 409
#     4  12  24  43  69 101 132 185 219 275 351 412
#     4  12  27  49  70 100 140 192 231 286 351 422
#     4  12  26  45  68  95 143 181 224 279 353 410
#     4  11  24  43  67 101 132 181 226 285 325 409
#     4  10  23  41  70 103 136 168 235 284 331 395
#
# _framework density 23.611053999999999
#
# number of rings (size 3 to 8) (size 9 to 14) (size 15 to 20)
#    0.000    0.750    2.500    4.500    3.500    3.500 
#    0.000    3.750    0.000    0.000    0.000    0.000 
#    0.000    0.000    0.000    0.000    0.000    0.000 
#
# Total GULP energy -198312.130532 kJ/mol
# GULP energy per Si atom -12394.508158 kJ/mol
# Density = 2.355731 g / cm^3
# Si number density = 23.611054 Si / 1000 Ang^3
#
#
#
# Elastic Constant Matrix: (Units=GPa)
#
#
# Indices 1 2 3 4 5 6 
#
# 1 102.4219 27.9137 36.0702 1.1382 6.5148 15.5284
# 2 27.9137 88.7061 24.6284 15.4132 -10.9831 18.0852
# 3 36.0702 24.6284 121.0111 4.0253 10.5424 8.7137
# 4 1.1382 15.4132 4.0253 26.8266 8.7226 -0.4353
# 5 6.5148 -10.9831 10.5424 8.7226 39.4646 1.3580
# 6 15.5284 18.0852 8.7137 -0.4353 1.3580 33.8413
#
#
#
# Elastic Compliance Matrix: (Units=1/GPa)
#
#
# Indices 1 2 3 4 5 6 
#
# 1 0.012171 -0.003275 -0.002595 0.002581 -0.002694 -0.003025
# 2 -0.003275 0.018076 -0.002507 -0.013059 0.009405 -0.008057
# 3 -0.002595 -0.002507 0.009772 0.001104 -0.003129 0.000154
# 4 0.002581 -0.013059 0.001104 0.049676 -0.015568 0.006774
# 5 -0.002694 0.009405 -0.003129 -0.015568 0.032833 -0.004502
# 6 -0.003025 -0.008057 0.000154 0.006774 -0.004502 0.035472
#
#
# Mechanical properties :
#
#
# Convention : Reuss Voigt Hill
#
# Bulk Modulus (GPa) = 42.98232 54.37372 48.67802
# Shear Modulus (GPa) = 27.39580 34.92830 31.16205
#
# Velocity S-wave (km/s) = 3.41001 3.85037 3.63686
# Velocity P-wave (km/s) = 5.80931 6.54569 6.18846
#
# Compressibility (1/GPa) = 0.02326538
#
# Stress axis : x y z
#
# Youngs Moduli (GPa) = 82.16123 55.32172 102.33067
#
# Poissons Ratio (x) = 0.18117 0.26552
# Poissons Ratio (y) = 0.26906 0.25659
# Poissons Ratio (z) = 0.21319 0.13872
#
# Static dielectric constant tensor:
#      x y z
#    x 4.166140 0.224360 0.083670 
#    y 0.224360 4.257260 -0.072010 
#    z 0.083670 -0.072010 4.381170 
# 
# 
# High freq. dielectric constant tensor:
#      x y z
#    x 1.940580 0.014640 0.011510 
#    y 0.014640 1.933730 -0.001340 
#    z 0.011510 -0.001340 1.927070 
# 
# From -- ./inp_files/484263.got.cif
#   From: 2010.06.25/outbox.cif.g09.slc.cpg/sg2_243_cif.got.tgz:484263.got - 2010.06.27 13:26:56.
