data_PCOD8023429
_publ_section_title
;
Structure prediction by ZEFSAII (Michael W. Deem and Ramdas Pophale) SiO2 
 PCOD8023429
Probable space group: P -1
;
_chemical_formula_sum "Si O2"
_cell_formula_units_Z 16
_cell_length_a 9.362014
_cell_length_b 18.875556
_cell_length_c 19.144620
_cell_angle_alpha 29.307075
_cell_angle_beta 26.193822
_cell_angle_gamma 37.059324
_cell_volume 729.076169
_symmetry_space_group_name_H-M "P -1"
_symmetry_group_IT_number 2
_symmetry_cell_setting 'triclinic'
loop_
_space_group_symop_operation_xyz
x,y,z
-x,-y,-z
loop_
_atom_site_type_symbol
_atom_site_label
_atom_site_fract_x
_atom_site_fract_y
_atom_site_fract_z
Si Si1 0.356505 0.937306 0.317318
Si Si2 0.264901 0.698862 0.800287
Si Si3 0.194180 0.658042 0.559494
Si Si4 0.690490 0.407287 0.589932
Si Si5 0.397160 0.967234 0.429726
Si Si6 0.522276 0.766598 0.041733
Si Si7 0.451311 0.732979 0.845751
Si Si8 0.705483 0.423503 0.816680
O O1 0.408878 0.782381 0.389546
O O2 0.513265 0.926848 0.334836
O O3 0.978135 0.980981 0.451253
O O4 0.524796 0.058815 0.093606
O O5 0.463287 0.827814 0.570060
O O6 0.285662 0.705210 0.868998
O O7 0.417276 0.548585 0.832096
O O8 0.897500 0.711976 0.925163
O O9 0.348504 0.501389 0.650860
O O10 0.196566 0.672018 0.462855
O O11 0.827341 0.673879 0.733838
O O12 0.658942 0.281316 0.768439
O O13 0.957585 0.513406 0.406528
O O14 0.595385 0.096463 0.262463
O O15 0.366736 0.702286 0.096687
O O16 0.261657 0.642695 0.063087
#
# Coordination Sequence:
#
# PCOD8023429 Si02
#       8
#     2   2   2   2   2   2   2   2
#     4   9  19  40  64  92 120 166 205 258 311 365
#     4  11  23  36  66  99 120 163 209 260 313 363
#     4  10  23  41  67  90 126 169 203 258 312 368
#     4  11  25  42  61  90 130 172 207 249 309 374
#     4   9  19  37  63  94 128 154 205 261 316 360
#     4  11  24  42  63  92 129 163 209 257 310 371
#     4  11  21  41  66  96 127 158 210 260 309 368
#     4  12  24  41  63  94 128 165 209 260 307 366
#
# _framework density 21.94558
#
# number of rings (size 3 to 8) (size 9 to 14) (size 15 to 20)
#    0.000    1.500    2.500    2.250    7.000    0.500 
#    0.000    1.875    0.000    0.000    0.000    0.000 
#    0.000    0.000    0.000    0.000    0.000    0.000 
#
# Total GULP energy -198485.678916 kJ/mol
# GULP energy per Si atom -12405.354932 kJ/mol
# Density = 2.189563 g / cm^3
# Si number density = 21.945580 Si / 1000 Ang^3
#
#
#
# Elastic Constant Matrix: (Units=GPa)
#
#
# Indices 1 2 3 4 5 6 
#
# 1 74.2645 1.7438 14.0123 6.5761 7.2328 8.8535
# 2 1.7438 27.6069 5.5094 -9.9106 1.5635 16.4258
# 3 14.0123 5.5094 110.4766 -6.8632 22.9956 -1.8489
# 4 6.5761 -9.9106 -6.8632 21.0982 -0.4817 -4.5196
# 5 7.2328 1.5635 22.9956 -0.4817 44.2315 -7.7741
# 6 8.8535 16.4258 -1.8489 -4.5196 -7.7741 21.2465
#
#
#
# Elastic Compliance Matrix: (Units=1/GPa)
#
#
# Indices 1 2 3 4 5 6 
#
# 1 0.016465 0.006242 -0.002094 -0.006159 -0.004497 -0.014824
# 2 0.006242 0.087849 -0.001696 0.023110 -0.015548 -0.071439
# 3 -0.002094 -0.001696 0.010647 0.003677 -0.004712 0.002169
# 4 -0.006159 0.023110 0.003677 0.060776 -0.001517 -0.002607
# 5 -0.004497 -0.015548 -0.004712 -0.001517 0.030608 0.024361
# 6 -0.014824 -0.071439 0.002169 -0.002607 0.024361 0.117022
#
#
# Mechanical properties :
#
#
# Convention : Reuss Voigt Hill
#
# Bulk Modulus (GPa) = 8.34280 28.31987 18.33134
# Shear Modulus (GPa) = 13.95014 30.05406 22.00210
#
# Velocity S-wave (km/s) = 2.52398 3.70466 3.16978
# Velocity P-wave (km/s) = 3.50768 5.58856 4.66561
#
# Compressibility (1/GPa) = 0.11986382
#
# Stress axis : x y z
#
# Youngs Moduli (GPa) = 60.73630 11.38312 93.91984
#
# Poissons Ratio (x) = -0.07105 0.19670
# Poissons Ratio (y) = -0.37910 0.15930
# Poissons Ratio (z) = 0.12720 0.01931
#
# Static dielectric constant tensor:
#      x y z
#    x 3.959350 0.139860 0.063250 
#    y 0.139860 3.829960 -0.250840 
#    z 0.063250 -0.250840 4.087280 
# 
# 
# High freq. dielectric constant tensor:
#      x y z
#    x 1.867880 0.008470 0.003510 
#    y 0.008470 1.847060 -0.016040 
#    z 0.003510 -0.016040 1.870270 
# 
# From -- ./inp_files/207092.got.cif
#   From: 2010.06.25/outbox.cif.g09.slc.cpg/sg2_104_cif.got.tgz:207092.got - 2010.06.27 13:26:56.
