data_PCOD8023599
_publ_section_title
;
Structure prediction by ZEFSAII (Michael W. Deem and Ramdas Pophale) SiO2 
 PCOD8023599
Probable space group: P -1
;
_chemical_formula_sum "Si O2"
_cell_formula_units_Z 14
_cell_length_a 9.724568
_cell_length_b 9.630258
_cell_length_c 25.086424
_cell_angle_alpha 151.707378
_cell_angle_beta 141.870668
_cell_angle_gamma 47.603911
_cell_volume 686.177279
_symmetry_space_group_name_H-M "P -1"
_symmetry_group_IT_number 2
_symmetry_cell_setting 'triclinic'
loop_
_space_group_symop_operation_xyz
x,y,z
-x,-y,-z
loop_
_atom_site_type_symbol
_atom_site_label
_atom_site_fract_x
_atom_site_fract_y
_atom_site_fract_z
Si Si1 0.848051 0.343814 0.442819
Si Si2 0.082171 0.168336 0.166376
Si Si3 0.540504 0.375399 0.527856
Si Si4 0.793715 0.313148 0.028974
Si Si5 0.682333 0.902850 0.160191
Si Si6 0.722141 0.171297 0.147921
Si Si7 0.821965 0.835737 0.427779
O O1 0.695829 0.588642 0.503679
O O2 0.000000 0.500000 0.500000
O O3 0.024393 0.202320 0.487177
O O4 0.686395 0.108533 0.283001
O O5 0.259433 0.429517 0.320353
O O6 0.978507 0.265105 0.112349
O O7 0.921650 0.099386 0.144671
O O8 0.196940 0.872283 0.085626
O O9 0.500000 0.500000 0.500000
O O10 0.610350 0.038171 0.438795
O O11 0.840426 0.643020 0.133557
O O12 0.566805 0.244295 0.969787
O O13 0.762878 0.063888 0.184505
O O14 0.714255 0.525917 0.267249
O O15 0.500000 0.000000 0.000000
O O16 0.000000 0.000000 0.500000
#
# Coordination Sequence:
#
# PCOD8023599 Si02
#       7
#     2   2   2   2   2   2   2
#     4  12  25  46  69 101 141 173 233 296 337 407
#     4  11  22  43  68  98 133 178 229 280 338 420
#     4  12  25  43  73 100 134 185 238 276 345 423
#     4  10  23  41  71  95 130 179 223 274 348 416
#     4  11  23  43  66  99 133 177 221 280 349 402
#     4  12  25  43  67 100 141 175 226 294 342 401
#     4  12  25  46  74 102 137 189 232 282 349 416
#
# _framework density 20.402891
#
# number of rings (size 3 to 8) (size 9 to 14) (size 15 to 20)
#    0.000    0.571    7.143    0.857    0.000    2.286 
#    2.571    0.000    0.000    0.000    0.000    0.000 
#    0.000    0.000    0.000    0.000    0.000    0.000 
#
# Total GULP energy -173479.488435 kJ/mol
# GULP energy per Si atom -12391.392031 kJ/mol
# Density = 2.035645 g / cm^3
# Si number density = 20.402891 Si / 1000 Ang^3
#
#
#
# Elastic Constant Matrix: (Units=GPa)
#
#
# Indices 1 2 3 4 5 6 
#
# 1 147.0373 59.7722 30.7188 19.4177 -4.1238 -0.7191
# 2 59.7722 107.5837 32.2778 18.1428 0.2383 7.2255
# 3 30.7188 32.2778 110.5948 9.9387 -3.6455 9.0152
# 4 19.4177 18.1428 9.9387 39.8477 -0.5453 -4.8883
# 5 -4.1238 0.2383 -3.6455 -0.5453 32.2012 -0.0288
# 6 -0.7191 7.2255 9.0152 -4.8883 -0.0288 33.5838
#
#
#
# Elastic Compliance Matrix: (Units=1/GPa)
#
#
# Indices 1 2 3 4 5 6 
#
# 1 0.009161 -0.004503 -0.001114 -0.001977 0.001048 0.001177
# 2 -0.004503 0.013240 -0.002076 -0.003689 -0.000975 -0.002926
# 3 -0.001114 -0.002076 0.010323 -0.001386 0.001016 -0.002549
# 4 -0.001977 -0.003689 -0.001386 0.028736 0.000109 0.005306
# 5 0.001048 -0.000975 0.001016 0.000109 0.031313 0.000002
# 6 0.001177 -0.002926 -0.002549 0.005306 0.000002 0.031887
#
#
# Mechanical properties :
#
#
# Convention : Reuss Voigt Hill
#
# Bulk Modulus (GPa) = 57.67545 67.86147 62.76846
# Shear Modulus (GPa) = 34.28744 37.28968 35.78856
#
# Velocity S-wave (km/s) = 4.10386 4.27976 4.19273
# Velocity P-wave (km/s) = 7.12637 7.59965 7.36681
#
# Compressibility (1/GPa) = 0.01733840
#
# Stress axis : x y z
#
# Youngs Moduli (GPa) = 109.16357 75.52589 96.87105
#
# Poissons Ratio (x) = 0.34012 0.10790
# Poissons Ratio (y) = 0.49160 0.20107
# Poissons Ratio (z) = 0.12159 0.15677
#
# Static dielectric constant tensor:
#      x y z
#    x 3.684950 -0.145660 0.029420 
#    y -0.145660 3.857730 0.075770 
#    z 0.029420 0.075770 3.772180 
# 
# 
# High freq. dielectric constant tensor:
#      x y z
#    x 1.804290 0.002950 -0.008230 
#    y 0.002950 1.802050 -0.002520 
#    z -0.008230 -0.002520 1.812290 
# 
# From -- ./inp_files/225787.got.cif
#   From: 2010.06.25/outbox.cif.g09.slc.cpg/sg2_113_cif.got.tgz:225787.got - 2010.06.27 13:26:56.
