data_PCOD8023202
_publ_section_title
;
Structure prediction by ZEFSAII (Michael W. Deem and Ramdas Pophale) SiO2 
 PCOD8023202
Probable space group: P -1
;
_chemical_formula_sum "Si O2"
_cell_formula_units_Z 16
_cell_length_a 25.948638
_cell_length_b 18.642700
_cell_length_c 15.025387
_cell_angle_alpha 18.712791
_cell_angle_beta 28.524935
_cell_angle_gamma 20.104817
_cell_volume 797.711852
_symmetry_space_group_name_H-M "P -1"
_symmetry_group_IT_number 2
_symmetry_cell_setting 'triclinic'
loop_
_space_group_symop_operation_xyz
x,y,z
-x,-y,-z
loop_
_atom_site_type_symbol
_atom_site_label
_atom_site_fract_x
_atom_site_fract_y
_atom_site_fract_z
Si Si1 0.363299 0.385816 0.106696
Si Si2 0.363242 0.567324 0.084582
Si Si3 0.287140 0.970728 0.475528
Si Si4 0.368953 0.421469 0.582529
Si Si5 0.159339 0.124271 0.129443
Si Si6 0.174485 0.242061 0.519847
Si Si7 0.335523 0.272333 0.625098
Si Si8 0.163826 0.334335 0.058903
O O1 0.414948 0.389157 0.122050
O O2 0.245642 0.353517 0.329546
O O3 0.511182 0.091276 0.177400
O O4 0.287761 0.701061 0.798635
O O5 0.307679 0.443351 0.375116
O O6 0.500000 0.500000 0.000000
O O7 0.228727 0.935127 0.843465
O O8 0.455060 0.815974 0.383585
O O9 0.217477 0.184644 0.417951
O O10 0.180040 0.191442 0.297017
O O11 0.346101 0.440742 0.488745
O O12 0.282976 0.764014 0.342489
O O13 0.303789 0.298409 0.875210
O O14 0.160333 0.149736 0.204838
O O15 0.197395 0.305607 0.811937
O O16 0.993285 0.299181 0.139474
O O17 0.000000 0.500000 0.500000
#
# Coordination Sequence:
#
# PCOD8023202 Si02
#       8
#     2   2   2   2   2   2   2   2
#     4  11  22  41  63  88 130 161 210 267 307 367
#     4  11  23  38  65  95 120 166 219 255 310 376
#     4  11  23  41  64  92 123 168 211 254 314 383
#     4  11  21  40  65  90 125 161 212 256 306 378
#     4  10  23  41  62  92 126 160 204 263 314 376
#     4  11  26  43  61  93 132 165 211 263 317 373
#     4  11  21  37  64  91 119 163 209 258 309 366
#     4  10  24  41  61  94 128 159 207 258 320 373
#
# _framework density 20.057369000000001
#
# number of rings (size 3 to 8) (size 9 to 14) (size 15 to 20)
#    0.000    1.250    3.750    1.875    0.000    6.500 
#    0.000    0.000    0.000    0.000    0.000    0.000 
#    0.000    0.000    0.000    0.000    0.000    0.000 
#
# Total GULP energy -198464.377739 kJ/mol
# GULP energy per Si atom -12404.023609 kJ/mol
# Density = 2.001172 g / cm^3
# Si number density = 20.057369 Si / 1000 Ang^3
#
#
#
# Elastic Constant Matrix: (Units=GPa)
#
#
# Indices 1 2 3 4 5 6 
#
# 1 107.4142 45.0965 53.2125 -10.4532 8.0805 6.0438
# 2 45.0965 120.1202 19.5243 -17.2057 -3.8308 0.3423
# 3 53.2125 19.5243 83.9931 -7.1098 9.9815 7.8030
# 4 -10.4532 -17.2057 -7.1098 28.4154 0.5917 -1.6132
# 5 8.0805 -3.8308 9.9815 0.5917 37.2951 2.5522
# 6 6.0438 0.3423 7.8030 -1.6132 2.5522 23.7676
#
#
#
# Elastic Compliance Matrix: (Units=1/GPa)
#
#
# Indices 1 2 3 4 5 6 
#
# 1 0.015644 -0.004395 -0.008549 0.000936 -0.001507 -0.000883
# 2 -0.004395 0.010673 0.000421 0.004969 0.001791 0.000971
# 3 -0.008549 0.000421 0.017982 0.001476 -0.002712 -0.003344
# 4 0.000936 0.004969 0.001476 0.039042 -0.000840 0.001946
# 5 -0.001507 0.001791 -0.002712 -0.000840 0.028188 -0.001836
# 6 -0.000883 0.000971 -0.003344 0.001946 -0.001836 0.043712
#
#
# Mechanical properties :
#
#
# Convention : Reuss Voigt Hill
#
# Bulk Modulus (GPa) = 51.94097 60.79934 56.37015
# Shear Modulus (GPa) = 26.78015 30.80856 28.79436
#
# Velocity S-wave (km/s) = 3.65797 3.92346 3.79304
# Velocity P-wave (km/s) = 6.61766 7.13465 6.88101
#
# Compressibility (1/GPa) = 0.01925262
#
# Stress axis : x y z
#
# Youngs Moduli (GPa) = 63.92046 93.69735 55.61152
#
# Poissons Ratio (x) = 0.41182 0.47544
# Poissons Ratio (y) = 0.28095 -0.02343
# Poissons Ratio (z) = 0.54647 -0.03948
#
# Static dielectric constant tensor:
#      x y z
#    x 3.695860 0.013080 -0.387640 
#    y 0.013080 1.580940 -7.388890 
#    z -0.387640 -7.388890 -22.918770 
# 
# 
# High freq. dielectric constant tensor:
#      x y z
#    x 1.784020 0.006320 -0.007310 
#    y 0.006320 1.788350 0.003420 
#    z -0.007310 0.003420 1.786400 
# 
# From -- ./inp_files/37342.got.cif
#   From: 2010.06.25/outbox.cif.g09.slc.cpg/sg2_19_cif.got.tgz:37342.got - 2010.06.27 13:26:56.
