data_PCOD8023983
_publ_section_title
;
Structure prediction by ZEFSAII (Michael W. Deem and Ramdas Pophale) SiO2 
 PCOD8023983
Probable space group: P -1
;
_chemical_formula_sum "Si O2"
_cell_formula_units_Z 16
_cell_length_a 14.231705
_cell_length_b 13.614823
_cell_length_c 13.444136
_cell_angle_alpha 134.344272
_cell_angle_beta 42.026241
_cell_angle_gamma 159.220458
_cell_volume 618.597336
_symmetry_space_group_name_H-M "P -1"
_symmetry_group_IT_number 2
_symmetry_cell_setting 'triclinic'
loop_
_space_group_symop_operation_xyz
x,y,z
-x,-y,-z
loop_
_atom_site_type_symbol
_atom_site_label
_atom_site_fract_x
_atom_site_fract_y
_atom_site_fract_z
Si Si1 0.887807 0.592836 0.230030
Si Si2 0.372179 0.843281 0.387252
Si Si3 0.540506 0.405774 0.556736
Si Si4 0.788676 0.793547 0.931616
Si Si5 0.043635 0.013428 0.360110
Si Si6 0.260938 0.664282 0.029383
Si Si7 0.750829 0.061216 0.071755
Si Si8 0.864034 0.590938 0.614426
O O1 0.677215 0.469151 0.391875
O O2 0.040367 0.846780 0.228104
O O3 0.124597 0.699397 0.169112
O O4 0.704345 0.349642 0.123045
O O5 0.614073 0.026065 0.246275
O O6 0.221870 0.570073 0.334845
O O7 0.150457 0.769049 0.468955
O O8 0.500000 0.000000 0.500000
O O9 0.204357 0.125210 0.608137
O O10 0.624783 0.381657 0.567278
O O11 0.660414 0.661130 0.669823
O O12 0.914672 0.787511 0.753496
O O13 0.500000 0.500000 0.000000
O O14 0.757498 0.903843 0.969194
O O15 0.000000 0.000000 0.000000
O O16 0.000000 0.000000 0.500000
O O17 0.568346 0.936520 0.028707
O O18 0.065143 0.388639 0.046588
#
# Coordination Sequence:
#
# PCOD8023983 Si02
#       8
#     2   2   2   2   2   2   2   2
#     4  10  24  47  68 101 141 179 238 284 358 406
#     4  11  26  47  74 104 149 185 239 296 360 423
#     4  11  25  42  72 102 141 182 236 290 349 420
#     4  12  26  48  74 104 148 191 236 294 360 422
#     4  10  23  42  68  97 137 183 227 294 347 409
#     4  11  28  44  73 101 138 191 229 294 344 428
#     4  12  27  48  74 104 143 186 239 288 354 424
#     4  11  27  44  73 112 140 193 239 296 357 429
#
# _framework density 25.864968000000001
#
# number of rings (size 3 to 8) (size 9 to 14) (size 15 to 20)
#    0.000    1.000    1.250    3.750   10.500    7.000 
#    0.000    0.000    0.000    0.000    0.000    0.000 
#    0.000    0.000    0.000    0.000    0.000    0.000 
#
# Total GULP energy -198466.841633 kJ/mol
# GULP energy per Si atom -12404.177602 kJ/mol
# Density = 2.580610 g / cm^3
# Si number density = 25.864968 Si / 1000 Ang^3
#
#
#
# Elastic Constant Matrix: (Units=GPa)
#
#
# Indices 1 2 3 4 5 6 
#
# 1 131.1313 16.5881 32.1522 3.6625 -15.5050 18.2047
# 2 16.5881 82.2305 15.8007 -0.2826 2.1929 11.6122
# 3 32.1522 15.8007 127.6156 4.6042 -11.4988 1.9778
# 4 3.6625 -0.2826 4.6042 23.9905 -0.2644 9.9067
# 5 -15.5050 2.1929 -11.4988 -0.2644 45.3930 9.8809
# 6 18.2047 11.6122 1.9778 9.9067 9.8809 48.0264
#
#
#
# Elastic Compliance Matrix: (Units=1/GPa)
#
#
# Indices 1 2 3 4 5 6 
#
# 1 0.009168 -0.001025 -0.001819 0.000639 0.003600 -0.004025
# 2 -0.001025 0.013086 -0.001444 0.001795 -0.000697 -0.002943
# 3 -0.001819 -0.001444 0.008655 -0.001684 0.001473 0.000727
# 4 0.000639 0.001795 -0.001684 0.046348 0.002291 -0.010639
# 5 0.003600 -0.000697 0.001473 0.002291 0.025184 -0.006911
# 6 -0.004025 -0.002943 0.000727 -0.010639 -0.006911 0.026645
#
#
# Mechanical properties :
#
#
# Convention : Reuss Voigt Hill
#
# Bulk Modulus (GPa) = 44.77804 52.22881 48.50343
# Shear Modulus (GPa) = 34.45710 41.91110 38.18410
#
# Velocity S-wave (km/s) = 3.65388 4.02976 3.84642
# Velocity P-wave (km/s) = 5.92882 6.47215 6.20643
#
# Compressibility (1/GPa) = 0.02233237
#
# Stress axis : x y z
#
# Youngs Moduli (GPa) = 109.07112 76.42034 115.53525
#
# Poissons Ratio (x) = 0.07836 0.21019
# Poissons Ratio (y) = 0.11184 0.16681
# Poissons Ratio (z) = 0.19843 0.11034
#
# Static dielectric constant tensor:
#      x y z
#    x 4.578400 -0.405710 0.371090 
#    y -0.405710 4.687390 0.393120 
#    z 0.371090 0.393120 4.287180 
# 
# 
# High freq. dielectric constant tensor:
#      x y z
#    x 2.050660 -0.003290 -0.003170 
#    y -0.003290 2.031310 0.008100 
#    z -0.003170 0.008100 2.045790 
# 
# From -- ./inp_files/534431.got.cif
#   From: 2010.06.25/outbox.cif.g09.slc.cpg/sg2_268_cif.got.tgz:534431.got - 2010.06.27 13:26:56.
