data_PCOD8023919
_publ_section_title
;
Structure prediction by ZEFSAII (Michael W. Deem and Ramdas Pophale) SiO2 
 PCOD8023919
Probable space group: P -1
;
_chemical_formula_sum "Si O2"
_cell_formula_units_Z 16
_cell_length_a 19.218087
_cell_length_b 16.327264
_cell_length_c 7.918164
_cell_angle_alpha 66.316810
_cell_angle_beta 124.737427
_cell_angle_gamma 156.725311
_cell_volume 747.898217
_symmetry_space_group_name_H-M "P -1"
_symmetry_group_IT_number 2
_symmetry_cell_setting 'triclinic'
loop_
_space_group_symop_operation_xyz
x,y,z
-x,-y,-z
loop_
_atom_site_type_symbol
_atom_site_label
_atom_site_fract_x
_atom_site_fract_y
_atom_site_fract_z
Si Si1 0.265770 0.662644 0.411854
Si Si2 0.767867 0.745908 0.337702
Si Si3 0.194867 0.786617 0.726846
Si Si4 0.087940 0.163500 0.875854
Si Si5 0.513397 0.362700 0.908291
Si Si6 0.426620 0.627595 0.633452
Si Si7 0.273531 0.057039 0.523204
Si Si8 0.503003 0.029062 0.224394
O O1 0.271878 0.563285 0.462147
O O2 0.343645 0.794154 0.248780
O O3 0.028994 0.462394 0.301227
O O4 0.435477 0.847533 0.639382
O O5 0.603678 0.656249 0.261441
O O6 0.707781 0.587008 0.443734
O O7 0.758042 0.735986 0.128913
O O8 0.000000 0.000000 0.500000
O O9 0.166442 0.856140 0.545887
O O10 0.277756 0.796629 0.693758
O O11 0.375746 0.967671 0.969558
O O12 0.906183 0.041567 0.628051
O O13 0.238315 0.378733 0.005842
O O14 0.000000 0.000000 0.000000
O O15 0.429635 0.215420 0.769229
O O16 0.485391 0.297664 0.114413
O O17 0.620251 0.828999 0.606934
#
# Coordination Sequence:
#
# PCOD8023919 Si02
#       8
#     2   2   2   2   2   2   2   2
#     4  11  22  43  67  94 134 169 211 275 330 383
#     4  11  22  40  63  89 127 173 215 267 331 377
#     4  11  22  41  68  97 130 169 219 266 326 402
#     4  11  23  40  63  92 123 171 222 269 326 392
#     4  11  24  42  62  90 130 173 215 272 328 382
#     4  11  24  43  63  96 132 169 222 274 320 395
#     4  12  24  42  66  96 132 171 220 275 323 389
#     4  10  23  42  67  98 127 172 213 266 340 387
#
# _framework density 21.393287000000001
#
# number of rings (size 3 to 8) (size 9 to 14) (size 15 to 20)
#    0.000    1.000    2.500    6.000    1.750    1.000 
#    0.000    0.000    0.000    0.000    0.000    0.000 
#    0.000    0.000    0.000    0.000    0.000    0.000 
#
# Total GULP energy -198398.534037 kJ/mol
# GULP energy per Si atom -12399.908377 kJ/mol
# Density = 2.134459 g / cm^3
# Si number density = 21.393287 Si / 1000 Ang^3
#
#
#
# Elastic Constant Matrix: (Units=GPa)
#
#
# Indices 1 2 3 4 5 6 
#
# 1 63.5369 30.4865 19.0487 -7.4162 10.7833 3.5728
# 2 30.4865 98.6754 20.8929 -0.0326 12.9894 14.7244
# 3 19.0487 20.8929 72.8315 -0.0590 2.4712 -2.8312
# 4 -7.4162 -0.0326 -0.0590 34.8444 -3.6112 0.5143
# 5 10.7833 12.9894 2.4712 -3.6112 32.5158 -2.0372
# 6 3.5728 14.7244 -2.8312 0.5143 -2.0372 36.6266
#
#
#
# Elastic Compliance Matrix: (Units=1/GPa)
#
#
# Indices 1 2 3 4 5 6 
#
# 1 0.020411 -0.004857 -0.003825 0.003913 -0.004142 -0.000619
# 2 -0.004857 0.013545 -0.002687 -0.001370 -0.004086 -0.005387
# 3 -0.003825 -0.002687 0.015565 -0.000701 0.001253 0.002736
# 4 0.003913 -0.001370 -0.000701 0.029801 0.002602 -0.000159
# 5 -0.004142 -0.004086 0.001253 0.002602 0.034205 0.004009
# 6 -0.000619 -0.005387 0.002736 -0.000159 0.004009 0.029965
#
#
# Mechanical properties :
#
#
# Convention : Reuss Voigt Hill
#
# Bulk Modulus (GPa) = 37.33913 41.76667 39.55290
# Shear Modulus (GPa) = 28.54541 31.77174 30.15858
#
# Velocity S-wave (km/s) = 3.65679 3.85791 3.75870
# Velocity P-wave (km/s) = 5.94315 6.27776 6.11275
#
# Compressibility (1/GPa) = 0.02678156
#
# Stress axis : x y z
#
# Youngs Moduli (GPa) = 48.99344 73.82746 64.24679
#
# Poissons Ratio (x) = 0.35859 0.24577
# Poissons Ratio (y) = 0.23797 0.17264
# Poissons Ratio (z) = 0.18742 0.19839
#
# Static dielectric constant tensor:
#      x y z
#    x 3.879980 0.053050 -0.020400 
#    y 0.053050 4.193500 0.048600 
#    z -0.020400 0.048600 3.816570 
# 
# 
# High freq. dielectric constant tensor:
#      x y z
#    x 1.838740 0.001460 0.004070 
#    y 0.001460 1.849370 -0.002140 
#    z 0.004070 -0.002140 1.833680 
# 
# From -- ./inp_files/348447.got.cif
#   From: 2010.06.25/outbox.cif.g09.slc.cpg/sg2_175_cif.got.tgz:348447.got - 2010.06.27 13:26:56.
