data_PCOD8023077
_publ_section_title
;
Structure prediction by ZEFSAII (Michael W. Deem and Ramdas Pophale) SiO2 
 PCOD8023077
Probable space group: P -1
;
_chemical_formula_sum "Si O2"
_cell_formula_units_Z 10
_cell_length_a 18.911173
_cell_length_b 18.409845
_cell_length_c 7.891908
_cell_angle_alpha 151.903494
_cell_angle_beta 150.084547
_cell_angle_gamma 15.554207
_cell_volume 343.858828
_symmetry_space_group_name_H-M "P -1"
_symmetry_group_IT_number 2
_symmetry_cell_setting 'triclinic'
loop_
_space_group_symop_operation_xyz
x,y,z
-x,-y,-z
loop_
_atom_site_type_symbol
_atom_site_label
_atom_site_fract_x
_atom_site_fract_y
_atom_site_fract_z
Si Si1 0.651116 0.176018 0.654200
Si Si2 0.858363 0.202490 0.879497
Si Si3 0.269391 0.295622 0.222802
Si Si4 0.304216 0.369985 0.802339
Si Si5 0.160805 0.114095 0.889497
O O1 0.646261 0.340930 0.873723
O O2 0.360481 0.393564 0.577306
O O3 0.753134 0.946729 0.257221
O O4 0.870954 0.974785 0.845019
O O5 0.931451 0.978965 0.470338
O O6 0.723314 0.440160 0.955018
O O7 0.253713 0.285841 0.376041
O O8 0.000000 0.500000 0.000000
O O9 0.500000 0.000000 0.000000
O O10 0.599496 0.070781 0.864656
O O11 0.093702 0.549329 0.887592
#
# Coordination Sequence:
#
# PCOD8023077 Si02
#       5
#     2   2   2   2   2
#     4   9  22  44  69 102 135 177 220 265 334 398
#     4   9  20  42  71 103 143 167 212 264 345 412
#     4  12  27  48  67  89 130 185 234 271 317 393
#     4  12  23  42  68 102 134 174 215 272 341 391
#     4  10  23  40  67 108 139 163 210 274 345 395
#
# _framework density 29.081700999999999
#
# number of rings (size 3 to 8) (size 9 to 14) (size 15 to 20)
#    1.200    0.400    0.000    4.800    0.000    5.600 
#    0.000    6.000    0.000    0.000    0.000    0.000 
#    0.000    0.000    0.000    0.000    0.000    0.000 
#
# Total GULP energy -124007.976566 kJ/mol
# GULP energy per Si atom -12400.797657 kJ/mol
# Density = 2.901551 g / cm^3
# Si number density = 29.081701 Si / 1000 Ang^3
#
#
#
# Elastic Constant Matrix: (Units=GPa)
#
#
# Indices 1 2 3 4 5 6 
#
# 1 139.5629 48.0453 28.3500 -2.5152 6.8087 -25.9544
# 2 48.0453 155.8894 54.2297 -45.2932 3.1886 -26.6352
# 3 28.3500 54.2297 188.1431 -37.6618 -20.2928 -17.6332
# 4 -2.5152 -45.2932 -37.6618 58.2291 1.3757 -2.3594
# 5 6.8087 3.1886 -20.2928 1.3757 33.8946 0.5658
# 6 -25.9544 -26.6352 -17.6332 -2.3594 0.5658 55.9859
#
#
#
# Elastic Compliance Matrix: (Units=1/GPa)
#
#
# Indices 1 2 3 4 5 6 
#
# 1 0.008750 -0.002471 -0.001006 -0.002045 -0.002086 0.002499
# 2 -0.002471 0.010371 -0.000890 0.007573 -0.001384 0.003841
# 3 -0.001006 -0.000890 0.007092 0.003807 0.004353 0.001460
# 4 -0.002045 0.007573 0.003807 0.025617 0.000856 0.004925
# 5 -0.002086 -0.001384 0.004353 0.000856 0.032633 -0.000548
# 6 0.002499 0.003841 0.001460 0.004925 -0.000548 0.021520
#
#
# Mechanical properties :
#
#
# Convention : Reuss Voigt Hill
#
# Bulk Modulus (GPa) = 57.21724 82.76059 69.98892
# Shear Modulus (GPa) = 41.47836 53.15327 47.31581
#
# Velocity S-wave (km/s) = 3.78070 4.27982 4.03798
# Velocity P-wave (km/s) = 6.22700 7.27614 6.77192
#
# Compressibility (1/GPa) = 0.01747725
#
# Stress axis : x y z
#
# Youngs Moduli (GPa) = 114.28613 96.42328 141.00780
#
# Poissons Ratio (x) = 0.23827 0.14190
# Poissons Ratio (y) = 0.28241 0.12554
# Poissons Ratio (z) = 0.11501 0.08585
#
# Static dielectric constant tensor:
#      x y z
#    x 6.769080 -0.161270 1.509900 
#    y -0.161270 4.665860 0.418960 
#    z 1.509900 0.418960 7.569860 
# 
# 
# High freq. dielectric constant tensor:
#      x y z
#    x 2.220730 -0.014280 0.028680 
#    y -0.014280 2.167780 0.027390 
#    z 0.028680 0.027390 2.248780 
# 
# From -- ./inp_files/71952.got.cif
#   From: 2010.06.25/outbox.cif.g09.slc.cpg/sg2_36_cif.got.tgz:71952.got - 2010.06.27 13:26:56.
