data_PCOD8023992
_publ_section_title
;
Structure prediction by ZEFSAII (Michael W. Deem and Ramdas Pophale) SiO2 
 PCOD8023992
Probable space group: P -1
;
_chemical_formula_sum "Si O2"
_cell_formula_units_Z 14
_cell_length_a 8.566077
_cell_length_b 14.010721
_cell_length_c 19.945998
_cell_angle_alpha 31.913109
_cell_angle_beta 147.226609
_cell_angle_gamma 126.810615
_cell_volume 627.734802
_symmetry_space_group_name_H-M "P -1"
_symmetry_group_IT_number 2
_symmetry_cell_setting 'triclinic'
loop_
_space_group_symop_operation_xyz
x,y,z
-x,-y,-z
loop_
_atom_site_type_symbol
_atom_site_label
_atom_site_fract_x
_atom_site_fract_y
_atom_site_fract_z
Si Si1 0.382810 0.717482 0.303567
Si Si2 0.134863 0.919895 0.392072
Si Si3 0.832527 0.624432 0.800193
Si Si4 0.748748 0.908934 0.891630
Si Si5 0.153574 0.769742 0.994204
Si Si6 0.760933 0.710495 0.312012
Si Si7 0.116301 0.899298 0.673594
O O1 0.500000 0.500000 0.500000
O O2 0.583563 0.707293 0.317304
O O3 0.428072 0.859747 0.291325
O O4 0.011987 0.794305 0.109361
O O5 0.507997 0.805075 0.593909
O O6 0.964238 0.837182 0.324534
O O7 0.013421 0.149242 0.186780
O O8 0.021712 0.928075 0.422874
O O9 0.027236 0.715143 0.769804
O O10 0.766524 0.462059 0.828523
O O11 0.000000 0.500000 0.000000
O O12 0.494328 0.812355 0.860237
O O13 0.894787 0.897400 0.878203
O O14 0.483246 0.799519 0.102856
O O15 0.000000 0.500000 0.500000
O O16 0.000000 0.000000 0.500000
#
# Coordination Sequence:
#
# PCOD8023992 Si02
#       7
#     2   2   2   2   2   2   2
#     4  10  23  42  68  98 140 178 222 290 351 411
#     4  12  25  48  72 101 145 180 239 297 351 418
#     4  12  27  47  71 102 143 189 240 287 345 420
#     4  10  24  44  64 102 137 178 235 281 349 415
#     4  11  25  45  74 103 139 187 231 294 358 420
#     4  11  23  43  71 109 134 179 237 288 358 423
#     4  12  27  47  74 101 141 194 236 290 351 416
#
# _framework density 22.302412
#
# number of rings (size 3 to 8) (size 9 to 14) (size 15 to 20)
#    0.000    0.857    4.286    1.714    4.000    5.143 
#    0.000    0.000    0.000    0.000    0.000    0.000 
#    0.000    0.000    0.000    0.000    0.000    0.000 
#
# Total GULP energy -173560.897781 kJ/mol
# GULP energy per Si atom -12397.206984 kJ/mol
# Density = 2.225165 g / cm^3
# Si number density = 22.302412 Si / 1000 Ang^3
#
#
#
# Elastic Constant Matrix: (Units=GPa)
#
#
# Indices 1 2 3 4 5 6 
#
# 1 108.7148 32.7972 60.3406 8.7780 4.8994 -0.7739
# 2 32.7972 95.6797 42.6951 -2.3107 0.9606 12.0172
# 3 60.3406 42.6951 133.1421 -3.5115 0.3994 9.2513
# 4 8.7780 -2.3107 -3.5115 40.7127 3.0456 9.8747
# 5 4.8994 0.9606 0.3994 3.0456 46.6173 -0.9688
# 6 -0.7739 12.0172 9.2513 9.8747 -0.9688 44.0581
#
#
#
# Elastic Compliance Matrix: (Units=1/GPa)
#
#
# Indices 1 2 3 4 5 6 
#
# 1 0.013498 -0.002601 -0.005603 -0.004206 -0.000979 0.003044
# 2 -0.002601 0.013036 -0.002709 0.001920 -0.000170 -0.003466
# 3 -0.005603 -0.002709 0.011142 0.002538 0.000336 -0.002261
# 4 -0.004206 0.001920 0.002538 0.027704 -0.001582 -0.007375
# 5 -0.000979 -0.000170 0.000336 -0.001582 0.021675 0.000790
# 6 0.003044 -0.003466 -0.002261 -0.007375 0.000790 0.025841
#
#
# Mechanical properties :
#
#
# Convention : Reuss Voigt Hill
#
# Bulk Modulus (GPa) = 63.09450 67.68915 65.39182
# Shear Modulus (GPa) = 35.71289 39.72453 37.71871
#
# Velocity S-wave (km/s) = 4.00597 4.22498 4.11693
# Velocity P-wave (km/s) = 7.05329 7.36322 7.20992
#
# Compressibility (1/GPa) = 0.01584924
#
# Stress axis : x y z
#
# Youngs Moduli (GPa) = 74.08340 76.71339 89.75111
#
# Poissons Ratio (x) = 0.19952 0.50288
# Poissons Ratio (y) = 0.19268 0.24317
# Poissons Ratio (z) = 0.41509 0.20785
#
# Static dielectric constant tensor:
#      x y z
#    x 3.990300 -0.044620 0.121490 
#    y -0.044620 4.591780 0.112570 
#    z 0.121490 0.112570 4.116690 
# 
# 
# High freq. dielectric constant tensor:
#      x y z
#    x 1.876960 -0.006020 0.010520 
#    y -0.006020 1.899290 0.007380 
#    z 0.010520 0.007380 1.882150 
# 
# From -- ./inp_files/124905.got.cif
#   From: 2010.06.25/outbox.cif.g09.slc.cpg/sg2_63_cif.got.tgz:124905.got - 2010.06.27 13:26:56.
