data_PCOD8023637
_publ_section_title
;
Structure prediction by ZEFSAII (Michael W. Deem and Ramdas Pophale) SiO2 
 PCOD8023637
Probable space group: P -1
;
_chemical_formula_sum "Si O2"
_cell_formula_units_Z 14
_cell_length_a 12.191812
_cell_length_b 9.101276
_cell_length_c 8.687621
_cell_angle_alpha 60.739335
_cell_angle_beta 130.503045
_cell_angle_gamma 121.175406
_cell_volume 609.645318
_symmetry_space_group_name_H-M "P -1"
_symmetry_group_IT_number 2
_symmetry_cell_setting 'triclinic'
loop_
_space_group_symop_operation_xyz
x,y,z
-x,-y,-z
loop_
_atom_site_type_symbol
_atom_site_label
_atom_site_fract_x
_atom_site_fract_y
_atom_site_fract_z
Si Si1 0.930297 0.019885 0.264412
Si Si2 0.077469 0.513348 0.807918
Si Si3 0.569753 0.868104 0.037486
Si Si4 0.912827 0.237881 0.566935
Si Si5 0.583827 0.183310 0.402405
Si Si6 0.418265 0.461387 0.605151
Si Si7 0.127174 0.392189 0.210385
O O1 0.748851 0.950409 0.133975
O O2 0.011540 0.917129 0.276890
O O3 0.000000 0.000000 0.500000
O O4 0.984424 0.218005 0.148714
O O5 0.119284 0.708951 0.667678
O O6 0.044740 0.390334 0.692451
O O7 0.933677 0.470759 0.815096
O O8 0.196696 0.473768 0.061972
O O9 0.525246 0.675994 0.174328
O O10 0.488137 0.821863 0.825803
O O11 0.500000 0.000000 0.000000
O O12 0.758603 0.191068 0.545500
O O13 0.567994 0.355234 0.388714
O O14 0.500000 0.000000 0.500000
O O15 0.500000 0.500000 0.500000
O O16 0.248705 0.352778 0.454723
#
# Coordination Sequence:
#
# PCOD8023637 Si02
#       7
#     2   2   2   2   2   2   2
#     4  12  24  45  73 106 141 183 240 297 357 430
#     4  10  23  41  74 102 139 184 232 303 355 429
#     4  12  28  49  76 107 148 200 243 305 372 438
#     4  11  24  46  72 105 143 186 243 299 364 428
#     4  12  29  49  72 107 151 194 248 304 373 445
#     4  12  27  48  73 105 150 197 247 302 372 444
#     4  11  24  44  72 108 142 182 244 293 362 430
#
# _framework density 22.964172000000001
#
# number of rings (size 3 to 8) (size 9 to 14) (size 15 to 20)
#    0.000    0.571    4.286    2.143    8.000    2.857 
#    0.000    0.000    0.000    0.000    0.000    0.000 
#    0.000    0.000    0.000    0.000    0.000    0.000 
#
# Total GULP energy -173436.961432 kJ/mol
# GULP energy per Si atom -12388.354388 kJ/mol
# Density = 2.291190 g / cm^3
# Si number density = 22.964172 Si / 1000 Ang^3
#
#
#
# Elastic Constant Matrix: (Units=GPa)
#
#
# Indices 1 2 3 4 5 6 
#
# 1 125.9333 66.3982 38.7504 -9.3666 3.4518 -24.4094
# 2 66.3982 132.8751 53.4700 -17.8583 5.8330 -11.0920
# 3 38.7504 53.4700 120.9422 -12.6844 -14.9938 -15.3738
# 4 -9.3666 -17.8583 -12.6844 44.9434 2.4651 -2.7636
# 5 3.4518 5.8330 -14.9938 2.4651 43.9156 -4.4434
# 6 -24.4094 -11.0920 -15.3738 -2.7636 -4.4434 36.5528
#
#
#
# Elastic Compliance Matrix: (Units=1/GPa)
#
#
# Indices 1 2 3 4 5 6 
#
# 1 0.012161 -0.005173 -0.000729 0.000656 0.000083 0.006304
# 2 -0.005173 0.012047 -0.003949 0.002652 -0.002853 -0.001605
# 3 -0.000729 -0.003949 0.011489 0.001494 0.004810 0.003845
# 4 0.000656 0.002652 0.001494 0.024132 -0.000885 0.003589
# 5 0.000083 -0.002853 0.004810 -0.000885 0.025262 0.004217
# 6 0.006304 -0.001605 0.003845 0.003589 0.004217 0.033482
#
#
# Mechanical properties :
#
#
# Convention : Reuss Voigt Hill
#
# Bulk Modulus (GPa) = 62.51035 77.44308 69.97671
# Shear Modulus (GPa) = 34.81767 39.82450 37.32109
#
# Velocity S-wave (km/s) = 3.89803 4.16889 4.03574
# Velocity P-wave (km/s) = 6.89489 7.54782 7.22873
#
# Compressibility (1/GPa) = 0.01599735
#
# Stress axis : x y z
#
# Youngs Moduli (GPa) = 82.23170 83.00644 87.03654
#
# Poissons Ratio (x) = 0.42936 0.06344
# Poissons Ratio (y) = 0.42535 0.34366
# Poissons Ratio (z) = 0.05994 0.32775
#
# Static dielectric constant tensor:
#      x y z
#    x 4.446890 -0.184760 -0.254870 
#    y -0.184760 4.296970 -0.223110 
#    z -0.254870 -0.223110 3.700940 
# 
# 
# High freq. dielectric constant tensor:
#      x y z
#    x 1.910280 -0.008240 -0.006850 
#    y -0.008240 1.912150 -0.004840 
#    z -0.006850 -0.004840 1.924700 
# 
# From -- ./inp_files/242786.got.cif
#   From: 2010.06.25/outbox.cif.g09.slc.cpg/sg2_122_cif.got.tgz:242786.got - 2010.06.27 13:26:56.
