data_PCOD8023204
_publ_section_title
;
Structure prediction by ZEFSAII (Michael W. Deem and Ramdas Pophale) SiO2 
 PCOD8023204
Probable space group: P -1
;
_chemical_formula_sum "Si O2"
_cell_formula_units_Z 16
_cell_length_a 13.219565
_cell_length_b 9.652096
_cell_length_c 10.663683
_cell_angle_alpha 93.207513
_cell_angle_beta 139.840708
_cell_angle_gamma 65.786887
_cell_volume 719.540649
_symmetry_space_group_name_H-M "P -1"
_symmetry_group_IT_number 2
_symmetry_cell_setting 'triclinic'
loop_
_space_group_symop_operation_xyz
x,y,z
-x,-y,-z
loop_
_atom_site_type_symbol
_atom_site_label
_atom_site_fract_x
_atom_site_fract_y
_atom_site_fract_z
Si Si1 0.216964 0.372986 0.653256
Si Si2 0.003076 0.971968 0.354662
Si Si3 0.388454 0.717322 0.010343
Si Si4 0.613900 0.799769 0.789130
Si Si5 0.223547 0.122649 0.481423
Si Si6 0.832110 0.625519 0.755148
Si Si7 0.421439 0.396568 0.061041
Si Si8 0.013646 0.655500 0.293893
O O1 0.195131 0.221277 0.590351
O O2 0.256911 0.384297 0.838175
O O3 0.034737 0.561048 0.444169
O O4 0.407968 0.325569 0.753970
O O5 0.076564 0.781873 0.380476
O O6 0.130584 0.019036 0.403521
O O7 0.000000 0.000000 0.500000
O O8 0.783961 0.095105 0.105428
O O9 0.346164 0.589084 0.025600
O O10 0.392947 0.694034 0.859733
O O11 0.645827 0.747982 0.669881
O O12 0.449044 0.997267 0.657403
O O13 0.533812 0.698727 0.770331
O O14 0.806298 0.754024 0.038343
O O15 0.124457 0.258584 0.280820
O O16 0.822145 0.500266 0.643929
O O17 0.000000 0.500000 0.000000
#
# Coordination Sequence:
#
# PCOD8023204 Si02
#       8
#     2   2   2   2   2   2   2   2
#     4   9  20  39  60  88 132 160 208 242 312 376
#     4  12  25  37  62  97 134 158 199 256 321 367
#     4   9  20  38  58  88 131 162 196 251 309 374
#     4  11  22  39  69  85 125 163 214 254 307 356
#     4  11  24  39  65  95 125 163 208 255 308 373
#     4   9  22  46  65  86 119 166 219 257 299 361
#     4   9  20  35  64  92 123 163 207 247 312 372
#     4  10  23  41  62  93 126 164 208 257 305 369
#
# _framework density 22.236408999999998
#
# number of rings (size 3 to 8) (size 9 to 14) (size 15 to 20)
#    0.750    1.250    0.000    2.625    8.750    1.000 
#    0.000    3.125    2.750    0.000    0.000    0.000 
#    0.000    0.000    0.000    0.000    0.000    0.000 
#
# Total GULP energy -198248.142600 kJ/mol
# GULP energy per Si atom -12390.508912 kJ/mol
# Density = 2.218580 g / cm^3
# Si number density = 22.236409 Si / 1000 Ang^3
#
#
#
# Elastic Constant Matrix: (Units=GPa)
#
#
# Indices 1 2 3 4 5 6 
#
# 1 75.9497 42.8563 16.4752 -7.1757 -6.8719 6.9215
# 2 42.8563 147.9200 16.3872 -10.3097 -2.2104 8.2278
# 3 16.4752 16.3872 64.2129 -12.9349 8.4347 -0.7303
# 4 -7.1757 -10.3097 -12.9349 25.0895 -0.8992 3.3158
# 5 -6.8719 -2.2104 8.4347 -0.8992 40.0641 -9.7341
# 6 6.9215 8.2278 -0.7303 3.3158 -9.7341 37.9929
#
#
#
# Elastic Compliance Matrix: (Units=1/GPa)
#
#
# Indices 1 2 3 4 5 6 
#
# 1 0.016871 -0.004270 -0.003313 0.001680 0.003007 -0.001588
# 2 -0.004270 0.008269 -0.000561 0.002045 -0.000431 -0.001313
# 3 -0.003313 -0.000561 0.018870 0.008496 -0.004582 -0.000828
# 4 0.001680 0.002045 0.008496 0.046165 -0.001570 -0.005017
# 5 0.003007 -0.000431 -0.004582 -0.001570 0.028028 0.006775
# 6 -0.001588 -0.001313 -0.000828 -0.005017 0.006775 0.029052
#
#
# Mechanical properties :
#
#
# Convention : Reuss Voigt Hill
#
# Bulk Modulus (GPa) = 36.07449 48.83555 42.45502
# Shear Modulus (GPa) = 28.93784 34.78690 31.86237
#
# Velocity S-wave (km/s) = 3.61137 3.95956 3.78946
# Velocity P-wave (km/s) = 5.80066 6.55086 6.18714
#
# Compressibility (1/GPa) = 0.02772042
#
# Stress axis : x y z
#
# Youngs Moduli (GPa) = 59.27462 120.93488 52.99332
#
# Poissons Ratio (x) = 0.51644 0.17559
# Poissons Ratio (y) = 0.25313 0.02972
# Poissons Ratio (z) = 0.19640 0.06783
#
# Static dielectric constant tensor:
#      x y z
#    x 4.193950 -0.237580 -0.100450 
#    y -0.237580 4.034650 -0.209300 
#    z -0.100450 -0.209300 4.027040 
# 
# 
# High freq. dielectric constant tensor:
#      x y z
#    x 1.867430 0.001210 0.008700 
#    y 0.001210 1.873750 -0.023030 
#    z 0.008700 -0.023030 1.868500 
# 
# From -- ./inp_files/447545.got.cif
#   From: 2010.06.25/outbox.cif.g09.slc.cpg/sg2_224_cif.got.tgz:447545.got - 2010.06.27 13:26:56.
