data_PCOD8023210
_publ_section_title
;
Structure prediction by ZEFSAII (Michael W. Deem and Ramdas Pophale) SiO2 
 PCOD8023210
Probable space group: P -1
;
_chemical_formula_sum "Si O2"
_cell_formula_units_Z 14
_cell_length_a 11.122371
_cell_length_b 14.398371
_cell_length_c 9.936862
_cell_angle_alpha 121.337025
_cell_angle_beta 62.166772
_cell_angle_gamma 149.609797
_cell_volume 686.979880
_symmetry_space_group_name_H-M "P -1"
_symmetry_group_IT_number 2
_symmetry_cell_setting 'triclinic'
loop_
_space_group_symop_operation_xyz
x,y,z
-x,-y,-z
loop_
_atom_site_type_symbol
_atom_site_label
_atom_site_fract_x
_atom_site_fract_y
_atom_site_fract_z
Si Si1 0.275889 0.618478 0.322727
Si Si2 0.756685 0.281736 0.312316
Si Si3 0.956258 0.884625 0.820398
Si Si4 0.595814 0.945926 0.201357
Si Si5 0.501282 0.459820 0.818910
Si Si6 0.994165 0.927561 0.310839
Si Si7 0.440760 0.089686 0.106237
O O1 0.236796 0.632449 0.504037
O O2 0.453907 0.637338 0.258742
O O3 0.022891 0.415506 0.240201
O O4 0.381362 0.776722 0.285311
O O5 0.589324 0.070737 0.279152
O O6 0.651878 0.275103 0.230318
O O7 0.699851 0.657627 0.783967
O O8 0.155044 0.922448 0.761473
O O9 0.978911 0.959321 0.724936
O O10 0.000000 0.000000 0.000000
O O11 0.560898 0.864811 0.011553
O O12 0.249904 0.301650 0.753256
O O13 0.500000 0.500000 0.000000
O O14 0.000000 0.000000 0.500000
O O15 0.197677 0.968557 0.216672
O O16 0.500000 0.000000 0.000000
#
# Coordination Sequence:
#
# PCOD8023210 Si02
#       7
#     2   2   2   2   2   2   2
#     4  11  22  39  66  98 123 172 218 270 326 393
#     4  10  23  41  62  93 138 163 214 267 331 397
#     4  12  22  42  69  98 129 172 228 280 324 399
#     4  11  20  40  66  94 126 171 219 265 327 391
#     4  12  23  40  72  97 128 172 229 273 327 391
#     4  12  26  45  69 100 138 172 220 283 342 389
#     4  10  23  42  63  91 135 170 209 268 329 393
#
# _framework density 20.379055000000001
#
# number of rings (size 3 to 8) (size 9 to 14) (size 15 to 20)
#    0.000    0.857    5.714    1.286    2.000    1.143 
#    0.000    2.857    0.000    0.000    0.000    0.000 
#    0.000    0.000    0.000    0.000    0.000    0.000 
#
# Total GULP energy -173511.308441 kJ/mol
# GULP energy per Si atom -12393.664889 kJ/mol
# Density = 2.033267 g / cm^3
# Si number density = 20.379055 Si / 1000 Ang^3
#
#
#
# Elastic Constant Matrix: (Units=GPa)
#
#
# Indices 1 2 3 4 5 6 
#
# 1 101.8230 29.7037 38.7665 2.2582 5.6869 21.8786
# 2 29.7037 111.7531 25.3972 7.3641 19.9408 12.8231
# 3 38.7665 25.3972 112.2924 5.4447 13.1506 19.3929
# 4 2.2582 7.3641 5.4447 27.0103 1.0435 1.5492
# 5 5.6869 19.9408 13.1506 1.0435 38.7466 0.1893
# 6 21.8786 12.8231 19.3929 1.5492 0.1893 36.4786
#
#
#
# Elastic Compliance Matrix: (Units=1/GPa)
#
#
# Indices 1 2 3 4 5 6 
#
# 1 0.012718 -0.002165 -0.003047 0.000432 0.000296 -0.005267
# 2 -0.002165 0.010966 -0.000672 -0.002360 -0.005024 -0.002073
# 3 -0.003047 -0.000672 0.011183 -0.001484 -0.002944 -0.003803
# 4 0.000432 -0.002360 -0.001484 0.037920 0.000635 -0.000254
# 5 0.000296 -0.005024 -0.002944 0.000635 0.029318 0.002975
# 6 -0.005267 -0.002073 -0.003803 -0.000254 0.002975 0.033318
#
#
# Mechanical properties :
#
#
# Convention : Reuss Voigt Hill
#
# Bulk Modulus (GPa) = 43.29119 57.06704 50.17912
# Shear Modulus (GPa) = 32.28076 35.91384 34.09730
#
# Velocity S-wave (km/s) = 3.98429 4.20252 4.09486
# Velocity P-wave (km/s) = 6.51576 7.18414 6.85810
#
# Compressibility (1/GPa) = 0.02309939
#
# Stress axis : x y z
#
# Youngs Moduli (GPa) = 78.62765 91.18800 89.42361
#
# Poissons Ratio (x) = 0.19741 0.27248
# Poissons Ratio (y) = 0.17022 0.06010
# Poissons Ratio (z) = 0.23958 0.06128
#
# Static dielectric constant tensor:
#      x y z
#    x 4.064970 -0.328090 0.169070 
#    y -0.328090 5.338400 -0.219770 
#    z 0.169070 -0.219770 3.785650 
# 
# 
# High freq. dielectric constant tensor:
#      x y z
#    x 1.803680 0.015260 0.001950 
#    y 0.015260 1.789740 0.000010 
#    z 0.001950 0.000010 1.805270 
# 
# From -- ./inp_files/236568.got.cif
#   From: 2010.06.25/outbox.cif.g09.slc.cpg/sg2_119_cif.got.tgz:236568.got - 2010.06.27 13:26:56.
