data_PCOD8023826
_publ_section_title
;
Structure prediction by ZEFSAII (Michael W. Deem and Ramdas Pophale) SiO2 
 PCOD8023826
Probable space group: P -1
;
_chemical_formula_sum "Si O2"
_cell_formula_units_Z 16
_cell_length_a 11.158790
_cell_length_b 13.154568
_cell_length_c 11.941452
_cell_angle_alpha 117.403609
_cell_angle_beta 48.215415
_cell_angle_gamma 145.795445
_cell_volume 717.296155
_symmetry_space_group_name_H-M "P -1"
_symmetry_group_IT_number 2
_symmetry_cell_setting 'triclinic'
loop_
_space_group_symop_operation_xyz
x,y,z
-x,-y,-z
loop_
_atom_site_type_symbol
_atom_site_label
_atom_site_fract_x
_atom_site_fract_y
_atom_site_fract_z
Si Si1 0.578369 0.988272 0.828307
Si Si2 0.112060 0.184941 0.561551
Si Si3 0.587640 0.125815 0.670632
Si Si4 0.146211 0.525090 0.212356
Si Si5 0.565784 0.527050 0.322496
Si Si6 0.899278 0.174405 0.318560
Si Si7 0.449782 0.404989 0.095277
Si Si8 0.192891 0.574693 0.821245
O O1 0.450152 0.794118 0.786826
O O2 0.504857 0.032952 0.796637
O O3 0.884379 0.141326 0.718867
O O4 0.500000 0.000000 0.000000
O O5 0.264694 0.333029 0.440794
O O6 0.314342 0.293569 0.597996
O O7 0.000000 0.000000 0.500000
O O8 0.746730 0.332033 0.686030
O O9 0.769595 0.136525 0.498089
O O10 0.324592 0.009497 0.709073
O O11 0.007649 0.343957 0.269882
O O12 0.936980 0.475254 0.243292
O O13 0.391919 0.625142 0.030728
O O14 0.577520 0.546608 0.191216
O O15 0.733762 0.515804 0.259629
O O16 0.136932 0.217271 0.212249
O O17 0.500000 0.500000 0.000000
O O18 0.000000 0.500000 0.000000
#
# Coordination Sequence:
#
# PCOD8023826 Si02
#       8
#     2   2   2   2   2   2   2   2
#     4  12  25  41  66 101 134 170 223 279 332 398
#     4  11  24  43  66 101 131 175 217 268 339 395
#     4  11  23  42  68  94 129 173 218 272 324 387
#     4  11  22  41  68  97 128 170 222 265 329 387
#     4  11  23  43  69  96 140 172 216 275 331 396
#     4  10  23  44  64  93 133 171 220 267 319 391
#     4  10  23  42  66  94 132 173 217 266 320 391
#     4  12  22  40  66  98 131 171 215 277 335 387
#
# _framework density 22.305989
#
# number of rings (size 3 to 8) (size 9 to 14) (size 15 to 20)
#    0.000    1.000    3.750    3.375    0.000    1.500 
#    0.000    5.000    0.000    0.000    0.000    0.000 
#    0.000    0.000    0.000    0.000    0.000    0.000 
#
# Total GULP energy -198358.501493 kJ/mol
# GULP energy per Si atom -12397.406343 kJ/mol
# Density = 2.225522 g / cm^3
# Si number density = 22.305989 Si / 1000 Ang^3
#
#
#
# Elastic Constant Matrix: (Units=GPa)
#
#
# Indices 1 2 3 4 5 6 
#
# 1 81.7229 29.4144 41.0524 2.6083 10.8022 22.2935
# 2 29.4144 152.2111 38.6091 16.3162 6.3306 23.5774
# 3 41.0524 38.6091 127.3019 1.4045 8.6094 22.2734
# 4 2.6083 16.3162 1.4045 38.9392 14.4146 2.4200
# 5 10.8022 6.3306 8.6094 14.4146 39.9314 -1.8643
# 6 22.2935 23.5774 22.2734 2.4200 -1.8643 32.2630
#
#
#
# Elastic Compliance Matrix: (Units=1/GPa)
#
#
# Indices 1 2 3 4 5 6 
#
# 1 0.017457 -0.001056 -0.003352 0.001799 -0.004920 -0.009396
# 2 -0.001056 0.008062 -0.001395 -0.003102 0.000243 -0.003952
# 3 -0.003352 -0.001395 0.010136 0.001318 -0.001713 -0.003859
# 4 0.001799 -0.003102 0.001318 0.031335 -0.011727 -0.002914
# 5 -0.004920 0.000243 -0.001713 -0.011727 0.031269 0.007091
# 6 -0.009396 -0.003952 -0.003859 -0.002914 0.007091 0.043668
#
#
# Mechanical properties :
#
#
# Convention : Reuss Voigt Hill
#
# Bulk Modulus (GPa) = 41.58409 64.37642 52.98025
# Shear Modulus (GPa) = 30.95000 39.03736 34.99368
#
# Velocity S-wave (km/s) = 3.72898 4.18794 3.96511
# Velocity P-wave (km/s) = 6.10110 7.23245 6.69073
#
# Compressibility (1/GPa) = 0.02404766
#
# Stress axis : x y z
#
# Youngs Moduli (GPa) = 57.28499 124.03254 98.65626
#
# Poissons Ratio (x) = 0.13097 0.33073
# Poissons Ratio (y) = 0.06049 0.13767
# Poissons Ratio (z) = 0.19204 0.17308
#
# Static dielectric constant tensor:
#      x y z
#    x 1.136880 -0.131540 1.767090 
#    y -0.131540 4.091890 0.185000 
#    z 1.767090 0.185000 3.094010 
# 
# 
# High freq. dielectric constant tensor:
#      x y z
#    x 1.864590 0.026910 0.001930 
#    y 0.026910 1.882230 -0.003250 
#    z 0.001930 -0.003250 1.897490 
# 
# From -- ./inp_files/433075.got.cif
#   From: 2010.06.25/outbox.cif.g09.slc.cpg/sg2_217_cif.got.tgz:433075.got - 2010.06.27 13:26:56.
