data_PCOD8023891
_publ_section_title
;
Structure prediction by ZEFSAII (Michael W. Deem and Ramdas Pophale) SiO2 
 PCOD8023891
Probable space group: P -1
;
_chemical_formula_sum "Si O2"
_cell_formula_units_Z 16
_cell_length_a 9.440862
_cell_length_b 8.996867
_cell_length_c 17.811117
_cell_angle_alpha 108.377347
_cell_angle_beta 128.561926
_cell_angle_gamma 112.409810
_cell_volume 704.478869
_symmetry_space_group_name_H-M "P -1"
_symmetry_group_IT_number 2
_symmetry_cell_setting 'triclinic'
loop_
_space_group_symop_operation_xyz
x,y,z
-x,-y,-z
loop_
_atom_site_type_symbol
_atom_site_label
_atom_site_fract_x
_atom_site_fract_y
_atom_site_fract_z
Si Si1 0.190381 0.029327 0.744760
Si Si2 0.670444 0.953408 0.037209
Si Si3 0.294102 0.434755 0.857732
Si Si4 0.322020 0.698541 0.167398
Si Si5 0.237957 0.416010 0.221695
Si Si6 0.243267 0.452375 0.560559
Si Si7 0.219931 0.710436 0.355406
Si Si8 0.248868 0.782822 0.543217
O O1 0.215486 0.023858 0.840741
O O2 0.156438 0.189416 0.733507
O O3 0.471710 0.156034 0.813860
O O4 0.899476 0.741349 0.584787
O O5 0.472679 0.673258 0.900192
O O6 0.912480 0.135488 0.082389
O O7 0.500000 0.000000 0.000000
O O8 0.028500 0.366601 0.787566
O O9 0.500000 0.500000 0.000000
O O10 0.303484 0.521389 0.176575
O O11 0.449847 0.913052 0.304203
O O12 0.000000 0.500000 0.000000
O O13 0.446971 0.411195 0.300006
O O14 0.287439 0.585622 0.325946
O O15 0.299829 0.671170 0.596790
O O16 0.015814 0.286033 0.527410
O O17 0.137372 0.641059 0.404674
O O18 0.500000 0.000000 0.500000
#
# Coordination Sequence:
#
# PCOD8023891 Si02
#       8
#     2   2   2   2   2   2   2   2
#     4  10  23  42  67  94 133 185 217 281 339 409
#     4  11  22  42  64  98 138 178 227 276 340 399
#     4  10  24  41  66  97 140 182 228 272 350 410
#     4  11  25  44  67  97 139 178 225 277 345 414
#     4  12  25  42  70 103 134 173 232 291 329 409
#     4  10  24  45  66 102 132 174 229 280 351 406
#     4  12  23  40  71 103 132 176 233 287 333 403
#     4  10  24  45  70  94 139 182 219 283 351 411
#
# _framework density 22.711825000000001
#
# number of rings (size 3 to 8) (size 9 to 14) (size 15 to 20)
#    0.000    1.250    2.500    2.250    3.500    6.000 
#    2.250    1.250    0.000    0.000    0.000    0.000 
#    0.000    0.000    0.000    0.000    0.000    0.000 
#
# Total GULP energy -198234.156319 kJ/mol
# GULP energy per Si atom -12389.634770 kJ/mol
# Density = 2.266013 g / cm^3
# Si number density = 22.711825 Si / 1000 Ang^3
#
#
#
# Elastic Constant Matrix: (Units=GPa)
#
#
# Indices 1 2 3 4 5 6 
#
# 1 61.3490 16.5325 13.7829 -10.0010 17.5488 -15.1156
# 2 16.5325 104.1517 31.5119 16.4181 17.1822 -12.6201
# 3 13.7829 31.5119 82.1728 8.2241 29.0242 -8.6167
# 4 -10.0010 16.4181 8.2241 47.2069 -2.7192 -0.7588
# 5 17.5488 17.1822 29.0242 -2.7192 43.9159 -1.6438
# 6 -15.1156 -12.6201 -8.6167 -0.7588 -1.6438 42.1360
#
#
#
# Elastic Compliance Matrix: (Units=1/GPa)
#
#
# Indices 1 2 3 4 5 6 
#
# 1 0.021434 -0.002178 -0.000024 0.005002 -0.007131 0.006844
# 2 -0.002178 0.012095 -0.002867 -0.004259 -0.002152 0.002094
# 3 -0.000024 -0.002867 0.017480 -0.002622 -0.010499 0.002250
# 4 0.005002 -0.004259 -0.002622 0.024358 0.002929 0.000536
# 5 -0.007131 -0.002152 -0.010499 0.002929 0.033433 -0.003993
# 6 0.006844 0.002094 0.002250 0.000536 -0.003993 0.027129
#
#
# Mechanical properties :
#
#
# Convention : Reuss Voigt Hill
#
# Bulk Modulus (GPa) = 24.46724 41.25866 32.86295
# Shear Modulus (GPa) = 31.31072 39.04152 35.17612
#
# Velocity S-wave (km/s) = 3.71699 4.15057 3.93975
# Velocity P-wave (km/s) = 5.40534 6.41680 5.93266
#
# Compressibility (1/GPa) = 0.04087097
#
# Stress axis : x y z
#
# Youngs Moduli (GPa) = 46.65500 82.68160 57.20936
#
# Poissons Ratio (x) = 0.18006 0.00138
# Poissons Ratio (y) = 0.10160 0.16400
# Poissons Ratio (z) = 0.00113 0.23702
#
# Static dielectric constant tensor:
#      x y z
#    x 3.814620 -0.215700 0.266780 
#    y -0.215700 4.517050 0.623410 
#    z 0.266780 0.623410 4.099350 
# 
# 
# High freq. dielectric constant tensor:
#      x y z
#    x 1.884130 -0.005010 0.006470 
#    y -0.005010 1.907190 0.016470 
#    z 0.006470 0.016470 1.900990 
# 
# From -- ./inp_files/321037.got.cif
#   From: 2010.06.25/outbox.cif.g09.slc.cpg/sg2_161_cif.got.tgz:321037.got - 2010.06.27 13:26:56.
