data_PCOD8023822
_publ_section_title
;
Structure prediction by ZEFSAII (Michael W. Deem and Ramdas Pophale) SiO2 
 PCOD8023822
Probable space group: P -1
;
_chemical_formula_sum "Si O2"
_cell_formula_units_Z 12
_cell_length_a 14.684197
_cell_length_b 15.452296
_cell_length_c 11.857398
_cell_angle_alpha 25.714348
_cell_angle_beta 149.668926
_cell_angle_gamma 152.332314
_cell_volume 512.911997
_symmetry_space_group_name_H-M "P -1"
_symmetry_group_IT_number 2
_symmetry_cell_setting 'triclinic'
loop_
_space_group_symop_operation_xyz
x,y,z
-x,-y,-z
loop_
_atom_site_type_symbol
_atom_site_label
_atom_site_fract_x
_atom_site_fract_y
_atom_site_fract_z
Si Si1 0.983507 0.540561 0.749204
Si Si2 0.121577 0.979069 0.496690
Si Si3 0.569226 0.253867 0.073331
Si Si4 0.296703 0.368900 0.805692
Si Si5 0.624426 0.851640 0.655470
Si Si6 0.251239 0.977190 0.877161
O O1 0.034131 0.703705 0.721277
O O2 0.194997 0.543002 0.934431
O O3 0.916176 0.665659 0.434596
O O4 0.796841 0.285787 0.870599
O O5 0.258774 0.072270 0.647737
O O6 0.257143 0.108567 0.382291
O O7 0.928647 0.022291 0.241805
O O8 0.575755 0.056925 0.387499
O O9 0.444404 0.359134 0.877555
O O10 0.469409 0.138539 0.980908
O O11 0.408073 0.615537 0.695558
O O12 0.243214 0.170522 0.074070
#
# Coordination Sequence:
#
# PCOD8023822 Si02
#       6
#     2   2   2   2   2   2
#     4  11  23  41  67  97 124 168 210 256 321 371
#     4  10  23  42  66  93 128 171 208 259 318 370
#     4  11  23  41  67  97 124 168 210 256 321 371
#     4  11  22  44  64  96 131 161 214 264 307 378
#     4  10  23  42  66  93 128 171 208 259 318 370
#     4  11  22  44  64  96 131 161 214 264 307 378
#
# _framework density 23.395824999999999
#
# number of rings (size 3 to 8) (size 9 to 14) (size 15 to 20)
#    0.000    1.333    3.333    2.000    0.000    5.333 
#    6.000    5.000    0.000    0.000    0.000    0.000 
#    0.000    0.000    0.000    0.000    0.000    0.000 
#
# Total GULP energy -148815.261911 kJ/mol
# GULP energy per Si atom -12401.271826 kJ/mol
# Density = 2.334258 g / cm^3
# Si number density = 23.395825 Si / 1000 Ang^3
#
#
#
# Elastic Constant Matrix: (Units=GPa)
#
#
# Indices 1 2 3 4 5 6 
#
# 1 63.9984 4.8842 16.0027 14.8419 1.9682 0.1881
# 2 4.8842 70.0475 11.6936 15.1105 1.6778 1.3082
# 3 16.0027 11.6936 78.8333 28.8093 3.8228 7.3170
# 4 14.8419 15.1105 28.8093 42.3262 -6.7868 1.7608
# 5 1.9682 1.6778 3.8228 -6.7868 23.1952 -0.3284
# 6 0.1881 1.3082 7.3170 1.7608 -0.3284 19.4830
#
#
#
# Elastic Compliance Matrix: (Units=1/GPa)
#
#
# Indices 1 2 3 4 5 6 
#
# 1 0.017375 0.000320 -0.001403 -0.005757 -0.002939 0.000809
# 2 0.000320 0.015664 0.000083 -0.006218 -0.003001 -0.000575
# 3 -0.001403 0.000083 0.018612 -0.013059 -0.006859 -0.005917
# 4 -0.005757 -0.006218 -0.013059 0.038996 0.014530 0.002098
# 5 -0.002939 -0.003001 -0.006859 0.014530 0.048994 0.002318
# 6 0.000809 -0.000575 -0.005917 0.002098 0.002318 0.053429
#
#
# Mechanical properties :
#
#
# Convention : Reuss Voigt Hill
#
# Bulk Modulus (GPa) = 20.14127 30.89335 25.51731
# Shear Modulus (GPa) = 23.62724 29.02079 26.32401
#
# Velocity S-wave (km/s) = 3.18133 3.52579 3.35798
# Velocity P-wave (km/s) = 4.70341 5.45969 5.09560
#
# Compressibility (1/GPa) = 0.04964931
#
# Stress axis : x y z
#
# Youngs Moduli (GPa) = 57.55432 63.84138 53.72917
#
# Poissons Ratio (x) = -0.02042 0.07540
# Poissons Ratio (y) = -0.01841 -0.00445
# Poissons Ratio (z) = 0.08076 -0.00528
#
# Static dielectric constant tensor:
#      x y z
#    x 3.864690 -0.271940 0.035960 
#    y -0.271940 4.172290 0.058990 
#    z 0.035960 0.058990 4.374420 
# 
# 
# High freq. dielectric constant tensor:
#      x y z
#    x 1.905590 -0.012510 0.001840 
#    y -0.012510 1.926990 0.002860 
#    z 0.001840 0.002860 1.938110 
# 
# From -- ./inp_files/203484.got.cif
#   From: 2010.06.25/outbox.cif.g09.slc.cpg/sg2_102_cif.got.tgz:203484.got - 2010.06.27 13:26:56.
