data_PCOD8023776
_publ_section_title
;
Structure prediction by ZEFSAII (Michael W. Deem and Ramdas Pophale) SiO2 
 PCOD8023776
Probable space group: P -1
;
_chemical_formula_sum "Si O2"
_cell_formula_units_Z 16
_cell_length_a 6.565661
_cell_length_b 13.066179
_cell_length_c 11.839436
_cell_angle_alpha 89.820667
_cell_angle_beta 128.535400
_cell_angle_gamma 75.215896
_cell_volume 750.336547
_symmetry_space_group_name_H-M "P -1"
_symmetry_group_IT_number 2
_symmetry_cell_setting 'triclinic'
loop_
_space_group_symop_operation_xyz
x,y,z
-x,-y,-z
loop_
_atom_site_type_symbol
_atom_site_label
_atom_site_fract_x
_atom_site_fract_y
_atom_site_fract_z
Si Si1 0.950375 0.903557 0.175369
Si Si2 0.898144 0.446121 0.862248
Si Si3 0.691373 0.262775 0.864355
Si Si4 0.250585 0.833496 0.665783
Si Si5 0.709609 0.407410 0.379152
Si Si6 0.408636 0.859031 0.970570
Si Si7 0.117204 0.427505 0.695325
Si Si8 0.737429 0.029698 0.522351
O O1 0.202506 0.839983 0.181298
O O2 0.088798 0.914398 0.341151
O O3 0.786829 0.020429 0.065907
O O4 0.725726 0.841831 0.115506
O O5 0.885987 0.334721 0.910914
O O6 0.609617 0.525211 0.717173
O O7 0.108005 0.421683 0.828546
O O8 0.000000 0.500000 0.000000
O O9 0.374976 0.333211 0.730964
O O10 0.708254 0.221945 0.999402
O O11 0.255001 0.714323 0.640237
O O12 0.398583 0.833272 0.835610
O O13 0.405897 0.883418 0.625674
O O14 0.937462 0.914102 0.548303
O O15 0.853807 0.457227 0.331279
O O16 0.845199 0.412358 0.547692
O O17 0.500000 0.000000 0.500000
#
# Coordination Sequence:
#
# PCOD8023776 Si02
#       8
#     2   2   2   2   2   2   2   2
#     4  10  23  42  67  95 130 172 213 269 315 387
#     4  11  26  43  67  98 131 164 217 270 321 385
#     4  11  24  38  70  94 129 174 215 258 329 375
#     4  10  24  41  66  95 131 171 210 265 321 372
#     4  10  24  43  69  93 128 173 211 268 318 383
#     4  10  23  42  65  95 134 169 220 262 314 388
#     4  10  24  45  65  95 129 168 221 263 320 387
#     4  10  24  43  64  99 133 164 214 260 321 385
#
# _framework density 21.323765999999999
#
# number of rings (size 3 to 8) (size 9 to 14) (size 15 to 20)
#    0.000    1.750    0.000    1.500   10.500    7.000 
#    0.000    0.000    0.000    0.000    0.000    0.000 
#    0.000    0.000    0.000    0.000    0.000    0.000 
#
# Total GULP energy -198401.250002 kJ/mol
# GULP energy per Si atom -12400.078125 kJ/mol
# Density = 2.127523 g / cm^3
# Si number density = 21.323766 Si / 1000 Ang^3
#
#
#
# Elastic Constant Matrix: (Units=GPa)
#
#
# Indices 1 2 3 4 5 6 
#
# 1 124.0445 61.6661 49.6946 1.0310 -20.2382 6.5921
# 2 61.6661 133.3759 36.0686 0.1173 -11.8657 4.1390
# 3 49.6946 36.0686 78.4211 3.9712 -18.5780 -0.8876
# 4 1.0310 0.1173 3.9712 27.3089 3.0655 -5.2768
# 5 -20.2382 -11.8657 -18.5780 3.0655 36.0184 -9.1237
# 6 6.5921 4.1390 -0.8876 -5.2768 -9.1237 38.3770
#
#
#
# Elastic Compliance Matrix: (Units=1/GPa)
#
#
# Indices 1 2 3 4 5 6 
#
# 1 0.012889 -0.004160 -0.005629 -0.000198 0.002658 -0.001291
# 2 -0.004160 0.009960 -0.002023 0.000355 -0.000235 -0.000413
# 3 -0.005629 -0.002023 0.019077 -0.002775 0.006982 0.002905
# 4 -0.000198 0.000355 -0.002775 0.038269 -0.003583 0.004342
# 5 0.002658 -0.000235 0.006982 -0.003583 0.035001 0.007559
# 6 -0.001291 -0.000413 0.002905 0.004342 0.007559 0.028785
#
#
# Mechanical properties :
#
#
# Convention : Reuss Voigt Hill
#
# Bulk Modulus (GPa) = 54.64139 70.07781 62.35960
# Shear Modulus (GPa) = 28.78468 32.90167 30.84317
#
# Velocity S-wave (km/s) = 3.67807 3.93231 3.80731
# Velocity P-wave (km/s) = 6.61195 7.31796 6.97389
#
# Compressibility (1/GPa) = 0.01830114
#
# Stress axis : x y z
#
# Youngs Moduli (GPa) = 77.58717 100.40451 52.42033
#
# Poissons Ratio (x) = 0.41770 0.29507
# Poissons Ratio (y) = 0.32277 0.10604
# Poissons Ratio (z) = 0.43673 0.20310
#
# Static dielectric constant tensor:
#      x y z
#    x 3.943600 0.001730 -0.054550 
#    y 0.001730 4.022600 -0.145240 
#    z -0.054550 -0.145240 3.831470 
# 
# 
# High freq. dielectric constant tensor:
#      x y z
#    x 1.838320 0.000370 -0.004080 
#    y 0.000370 1.848920 -0.009720 
#    z -0.004080 -0.009720 1.831930 
# 
# From -- ./inp_files/364635.got.cif
#   From: 2010.06.25/outbox.cif.g09.slc.cpg/sg2_183_cif.got.tgz:364635.got - 2010.06.27 13:26:56.
