data_PCOD8023531
_publ_section_title
;
Structure prediction by ZEFSAII (Michael W. Deem and Ramdas Pophale) SiO2 
 PCOD8023531
Probable space group: P -1
;
_chemical_formula_sum "Si O2"
_cell_formula_units_Z 16
_cell_length_a 8.452578
_cell_length_b 14.872828
_cell_length_c 8.500203
_cell_angle_alpha 128.845583
_cell_angle_beta 97.792789
_cell_angle_gamma 107.963462
_cell_volume 709.331700
_symmetry_space_group_name_H-M "P -1"
_symmetry_group_IT_number 2
_symmetry_cell_setting 'triclinic'
loop_
_space_group_symop_operation_xyz
x,y,z
-x,-y,-z
loop_
_atom_site_type_symbol
_atom_site_label
_atom_site_fract_x
_atom_site_fract_y
_atom_site_fract_z
Si Si1 0.101863 0.945878 0.063012
Si Si2 0.076314 0.366792 0.858064
Si Si3 0.156140 0.714110 0.724603
Si Si4 0.759446 0.364714 0.676707
Si Si5 0.124415 0.141493 0.757423
Si Si6 0.372494 0.232354 0.396656
Si Si7 0.492118 0.716959 0.883127
Si Si8 0.227355 0.428104 0.605661
O O1 0.971649 0.858438 0.092350
O O2 0.280203 0.083483 0.294349
O O3 0.167100 0.856926 0.880159
O O4 0.000000 0.000000 0.000000
O O5 0.122316 0.251616 0.766533
O O6 0.169254 0.443359 0.790779
O O7 0.854954 0.309461 0.749567
O O8 0.144952 0.473827 0.126201
O O9 0.241112 0.693291 0.556422
O O10 0.298380 0.719273 0.884992
O O11 0.936734 0.596035 0.568147
O O12 0.544784 0.311117 0.625125
O O13 0.341402 0.187263 0.867795
O O14 0.000000 0.000000 0.500000
O O15 0.423981 0.234024 0.223368
O O16 0.240689 0.294855 0.456368
O O17 0.423133 0.559119 0.728043
#
# Coordination Sequence:
#
# PCOD8023531 Si02
#       8
#     2   2   2   2   2   2   2   2
#     4  12  24  45  67  92 128 172 221 263 317 384
#     4  10  23  43  62  94 138 172 211 261 330 391
#     4  10  23  41  69  96 129 166 218 272 320 377
#     4   9  22  41  67  95 129 172 214 269 324 379
#     4  12  27  44  67  93 136 176 213 266 326 386
#     4  11  22  40  67  95 127 170 226 267 316 373
#     4  11  24  40  64 100 127 167 222 268 319 382
#     4  11  21  39  69  95 134 171 210 266 329 384
#
# _framework density 22.556443000000002
#
# number of rings (size 3 to 8) (size 9 to 14) (size 15 to 20)
#    0.000    1.250    2.500    2.250    1.750   12.000 
#    0.000    1.250    0.000    0.000    0.000    0.000 
#    0.000    0.000    0.000    0.000    0.000    0.000 
#
# Total GULP energy -198241.989234 kJ/mol
# GULP energy per Si atom -12390.124327 kJ/mol
# Density = 2.250510 g / cm^3
# Si number density = 22.556443 Si / 1000 Ang^3
#
#
#
# Elastic Constant Matrix: (Units=GPa)
#
#
# Indices 1 2 3 4 5 6 
#
# 1 115.5248 12.6397 64.5735 1.0256 35.6150 -18.6928
# 2 12.6397 58.9082 19.0163 9.4479 21.0369 -0.3734
# 3 64.5735 19.0163 134.7794 16.0626 30.0096 -17.9432
# 4 1.0256 9.4479 16.0626 27.4953 -1.9813 2.0302
# 5 35.6150 21.0369 30.0096 -1.9813 50.5005 -3.0070
# 6 -18.6928 -0.3734 -17.9432 2.0302 -3.0070 30.4680
#
#
#
# Elastic Compliance Matrix: (Units=1/GPa)
#
#
# Indices 1 2 3 4 5 6 
#
# 1 0.014311 0.000947 -0.004803 0.001040 -0.007284 0.005175
# 2 0.000947 0.021664 -0.000351 -0.007994 -0.009785 0.000207
# 3 -0.004803 -0.000351 0.012017 -0.007296 -0.003640 0.004252
# 4 0.001040 -0.007994 -0.007296 0.044375 0.008323 -0.005893
# 5 -0.007284 -0.009785 -0.003640 0.008323 0.031254 -0.004202
# 6 0.005175 0.000207 0.004252 -0.005893 -0.004202 0.038481
#
#
# Mechanical properties :
#
#
# Convention : Reuss Voigt Hill
#
# Bulk Modulus (GPa) = 25.26781 55.74127 40.50454
# Shear Modulus (GPa) = 27.21698 35.89161 31.55429
#
# Velocity S-wave (km/s) = 3.47741 3.99330 3.74425
# Velocity P-wave (km/s) = 5.22967 6.78436 6.05710
#
# Compressibility (1/GPa) = 0.03957604
#
# Stress axis : x y z
#
# Youngs Moduli (GPa) = 69.87603 46.16045 83.21861
#
# Poissons Ratio (x) = -0.04372 0.39972
# Poissons Ratio (y) = -0.06618 0.02925
# Poissons Ratio (z) = 0.33563 0.01622
#
# Static dielectric constant tensor:
#      x y z
#    x 4.571470 0.017840 0.508530 
#    y 0.017840 4.128370 0.279820 
#    z 0.508530 0.279820 4.431640 
# 
# 
# High freq. dielectric constant tensor:
#      x y z
#    x 1.904450 -0.010810 0.016020 
#    y -0.010810 1.862130 0.004880 
#    z 0.016020 0.004880 1.896360 
# 
# From -- ./inp_files/209069.got.cif
#   From: 2010.06.25/outbox.cif.g09.slc.cpg/sg2_105_cif.got.tgz:209069.got - 2010.06.27 13:26:56.
