data_PCOD8023485
_publ_section_title
;
Structure prediction by ZEFSAII (Michael W. Deem and Ramdas Pophale) SiO2 
 PCOD8023485
Probable space group: P -1
;
_chemical_formula_sum "Si O2"
_cell_formula_units_Z 16
_cell_length_a 9.339092
_cell_length_b 14.469482
_cell_length_c 12.730816
_cell_angle_alpha 103.190415
_cell_angle_beta 90.148918
_cell_angle_gamma 30.423174
_cell_volume 779.618259
_symmetry_space_group_name_H-M "P -1"
_symmetry_group_IT_number 2
_symmetry_cell_setting 'triclinic'
loop_
_space_group_symop_operation_xyz
x,y,z
-x,-y,-z
loop_
_atom_site_type_symbol
_atom_site_label
_atom_site_fract_x
_atom_site_fract_y
_atom_site_fract_z
Si Si1 0.686428 0.212811 0.807074
Si Si2 0.116675 0.404718 0.588173
Si Si3 0.223447 0.947299 0.027635
Si Si4 0.844935 0.819938 0.419762
Si Si5 0.932707 0.311862 0.065697
Si Si6 0.878174 0.869885 0.198199
Si Si7 0.301529 0.246590 0.168583
Si Si8 0.207825 0.958624 0.442078
O O1 0.635588 0.173520 0.895174
O O2 0.403809 0.450465 0.845045
O O3 0.715256 0.115161 0.694127
O O4 0.991136 0.099116 0.785392
O O5 0.980872 0.379023 0.602580
O O6 0.483684 0.203727 0.532015
O O7 0.000000 0.500000 0.500000
O O8 0.996927 0.538321 0.718623
O O9 0.509039 0.788230 0.907500
O O10 0.018405 0.164161 0.088984
O O11 0.000000 0.000000 0.000000
O O12 0.896692 0.806515 0.292563
O O13 0.500000 0.000000 0.500000
O O14 0.971704 0.834947 0.492627
O O15 0.196337 0.229495 0.080747
O O16 0.934946 0.295794 0.935310
O O17 0.522398 0.077935 0.217085
O O18 0.000000 0.000000 0.500000
#
# Coordination Sequence:
#
# PCOD8023485 Si02
#       8
#     2   2   2   2   2   2   2   2
#     4  12  24  43  71  98 137 180 224 282 334 412
#     4  11  25  43  68  97 132 176 225 278 341 407
#     4  11  24  41  67 100 138 180 221 273 343 402
#     4  10  23  41  68  94 127 176 223 269 342 399
#     4  11  25  43  67 103 136 174 230 278 337 404
#     4  11  22  42  70  92 136 180 212 281 344 394
#     4  11  23  43  64 101 138 169 227 283 332 402
#     4  11  23  46  67  98 131 173 230 279 338 397
#
# _framework density 20.522866
#
# number of rings (size 3 to 8) (size 9 to 14) (size 15 to 20)
#    0.000    1.000    5.000    3.375    1.750    5.500 
#    0.000    0.625    0.000    0.000    0.000    0.000 
#    0.000    0.000    0.000    0.000    0.000    0.000 
#
# Total GULP energy -198299.313289 kJ/mol
# GULP energy per Si atom -12393.707081 kJ/mol
# Density = 2.047616 g / cm^3
# Si number density = 20.522866 Si / 1000 Ang^3
#
#
#
# Elastic Constant Matrix: (Units=GPa)
#
#
# Indices 1 2 3 4 5 6 
#
# 1 152.0619 38.7611 58.6258 -13.6639 6.8707 3.7567
# 2 38.7611 75.7519 33.9102 -10.4134 -2.6142 9.0821
# 3 58.6258 33.9102 111.0911 -18.1968 4.4696 14.1105
# 4 -13.6639 -10.4134 -18.1968 29.6669 3.5003 -2.7317
# 5 6.8707 -2.6142 4.4696 3.5003 44.4403 -6.3168
# 6 3.7567 9.0821 14.1105 -2.7317 -6.3168 37.2784
#
#
#
# Elastic Compliance Matrix: (Units=1/GPa)
#
#
# Indices 1 2 3 4 5 6 
#
# 1 0.008864 -0.002900 -0.003724 0.001011 -0.001088 0.001113
# 2 -0.002900 0.016631 -0.002919 0.002359 0.001211 -0.002277
# 3 -0.003724 -0.002919 0.013292 0.005280 -0.001900 -0.003880
# 4 0.001011 0.002359 0.005280 0.038628 -0.003657 -0.000464
# 5 -0.001088 0.001211 -0.001900 -0.003657 0.023833 0.004304
# 6 0.001113 -0.002277 -0.003880 -0.000464 0.004304 0.029432
#
#
# Mechanical properties :
#
#
# Convention : Reuss Voigt Hill
#
# Bulk Modulus (GPa) = 50.76327 66.83323 58.79825
# Shear Modulus (GPa) = 31.98284 36.11763 34.05024
#
# Velocity S-wave (km/s) = 3.95194 4.19963 4.07767
# Velocity P-wave (km/s) = 6.75370 7.49345 7.13317
#
# Compressibility (1/GPa) = 0.01969928
#
# Stress axis : x y z
#
# Youngs Moduli (GPa) = 112.81595 60.12958 75.23154
#
# Poissons Ratio (x) = 0.17440 0.28020
# Poissons Ratio (y) = 0.32720 0.21961
# Poissons Ratio (z) = 0.42018 0.17552
#
# Static dielectric constant tensor:
#      x y z
#    x 4.101690 -0.055910 0.620480 
#    y -0.055910 3.413270 0.413020 
#    z 0.620480 0.413020 4.006470 
# 
# 
# High freq. dielectric constant tensor:
#      x y z
#    x 1.817270 -0.000550 0.008190 
#    y -0.000550 1.786970 0.000790 
#    z 0.008190 0.000790 1.813970 
# 
# From -- ./inp_files/214558.got.cif
#   From: 2010.06.25/outbox.cif.g09.slc.cpg/sg2_108_cif.got.tgz:214558.got - 2010.06.27 13:26:56.
