data_PCOD8023484
_publ_section_title
;
Structure prediction by ZEFSAII (Michael W. Deem and Ramdas Pophale) SiO2 
 PCOD8023484
Probable space group: P -1
;
_chemical_formula_sum "Si O2"
_cell_formula_units_Z 14
_cell_length_a 17.157483
_cell_length_b 15.998949
_cell_length_c 9.612279
_cell_angle_alpha 108.510550
_cell_angle_beta 118.376752
_cell_angle_gamma 17.436615
_cell_volume 596.031874
_symmetry_space_group_name_H-M "P -1"
_symmetry_group_IT_number 2
_symmetry_cell_setting 'triclinic'
loop_
_space_group_symop_operation_xyz
x,y,z
-x,-y,-z
loop_
_atom_site_type_symbol
_atom_site_label
_atom_site_fract_x
_atom_site_fract_y
_atom_site_fract_z
Si Si1 0.775171 0.130363 0.861151
Si Si2 0.144029 0.485542 0.711476
Si Si3 0.603882 0.216388 0.489662
Si Si4 0.127669 0.782235 0.524641
Si Si5 0.822209 0.904323 0.900507
Si Si6 0.170451 0.475132 0.219051
Si Si7 0.266845 0.176198 0.718618
O O1 0.845898 0.011114 0.713030
O O2 0.395027 0.526941 0.742619
O O3 0.843379 0.991322 0.964045
O O4 0.000000 0.000000 0.000000
O O5 0.262835 0.285236 0.790764
O O6 0.004578 0.688821 0.809208
O O7 0.872038 0.718258 0.493019
O O8 0.442852 0.241144 0.750529
O O9 0.292584 0.582165 0.420837
O O10 0.473184 0.242955 0.413151
O O11 0.812969 0.023976 0.424610
O O12 0.000000 0.000000 0.500000
O O13 0.979905 0.718032 0.076893
O O14 0.929906 0.678734 0.245570
O O15 0.349143 0.220249 0.163224
#
# Coordination Sequence:
#
# PCOD8023484 Si02
#       7
#     2   2   2   2   2   2   2
#     4  10  26  45  68  98 133 180 227 286 336 399
#     4  11  25  47  72 101 138 177 231 280 339 404
#     4  10  23  42  66  95 132 178 218 280 327 414
#     4  10  23  41  68  94 124 178 225 287 329 402
#     4  12  27  43  67 104 141 179 224 289 340 398
#     4  12  25  42  70 104 141 181 226 275 342 408
#     4  11  24  45  74 101 134 186 226 274 338 415
#
# _framework density 23.488676999999999
#
# number of rings (size 3 to 8) (size 9 to 14) (size 15 to 20)
#    0.857    0.286    0.000    5.571    6.000    6.286 
#    0.000    0.000    0.000    0.000    0.000    0.000 
#    0.000    0.000    0.000    0.000    0.000    0.000 
#
# Total GULP energy -173533.840372 kJ/mol
# GULP energy per Si atom -12395.274312 kJ/mol
# Density = 2.343522 g / cm^3
# Si number density = 23.488677 Si / 1000 Ang^3
#
#
#
# Elastic Constant Matrix: (Units=GPa)
#
#
# Indices 1 2 3 4 5 6 
#
# 1 150.3588 47.8785 27.4348 -7.3356 -20.5339 14.6272
# 2 47.8785 135.1644 13.2316 -8.5212 -16.0100 -5.6914
# 3 27.4348 13.2316 54.5654 4.8643 -8.4932 6.7905
# 4 -7.3356 -8.5212 4.8643 20.0488 3.4203 -5.5248
# 5 -20.5339 -16.0100 -8.4932 3.4203 37.3789 -7.1825
# 6 14.6272 -5.6914 6.7905 -5.5248 -7.1825 43.7551
#
#
#
# Elastic Compliance Matrix: (Units=1/GPa)
#
#
# Indices 1 2 3 4 5 6 
#
# 1 0.008646 -0.002418 -0.003309 0.001966 0.002388 -0.002051
# 2 -0.002418 0.009040 -0.001297 0.003689 0.002499 0.003062
# 3 -0.003309 -0.001297 0.021865 -0.008383 0.002774 -0.003059
# 4 0.001966 0.003689 -0.008383 0.056857 -0.002945 0.007819
# 5 0.002388 0.002499 0.002774 -0.002945 0.030760 0.003774
# 6 -0.002051 0.003062 -0.003059 0.007819 0.003774 0.026020
#
#
# Mechanical properties :
#
#
# Convention : Reuss Voigt Hill
#
# Bulk Modulus (GPa) = 39.21310 57.46426 48.33868
# Shear Modulus (GPa) = 28.45171 37.00614 32.72892
#
# Velocity S-wave (km/s) = 3.48414 3.97355 3.73687
# Velocity P-wave (km/s) = 5.73728 6.75055 6.26443
#
# Compressibility (1/GPa) = 0.02550168
#
# Stress axis : x y z
#
# Youngs Moduli (GPa) = 115.65804 110.62537 45.73591
#
# Poissons Ratio (x) = 0.26753 0.15134
# Poissons Ratio (y) = 0.27970 0.05932
# Poissons Ratio (z) = 0.38272 0.14348
#
# Static dielectric constant tensor:
#      x y z
#    x 4.430950 0.106670 -0.027500 
#    y 0.106670 4.371640 -0.136920 
#    z -0.027500 -0.136920 4.058550 
# 
# 
# High freq. dielectric constant tensor:
#      x y z
#    x 1.940870 0.006160 -0.003730 
#    y 0.006160 1.941830 -0.010070 
#    z -0.003730 -0.010070 1.911280 
# 
# From -- ./inp_files/313383.got.cif
#   From: 2010.06.25/outbox.cif.g09.slc.cpg/sg2_157_cif.got.tgz:313383.got - 2010.06.27 13:26:56.
