data_PCOD8023574
_publ_section_title
;
Structure prediction by ZEFSAII (Michael W. Deem and Ramdas Pophale) SiO2 
 PCOD8023574
Probable space group: P -1
;
_chemical_formula_sum "Si O2"
_cell_formula_units_Z 14
_cell_length_a 14.228548
_cell_length_b 7.287387
_cell_length_c 14.971468
_cell_angle_alpha 123.500472
_cell_angle_beta 139.571807
_cell_angle_gamma 44.046485
_cell_volume 699.865181
_symmetry_space_group_name_H-M "P -1"
_symmetry_group_IT_number 2
_symmetry_cell_setting 'triclinic'
loop_
_space_group_symop_operation_xyz
x,y,z
-x,-y,-z
loop_
_atom_site_type_symbol
_atom_site_label
_atom_site_fract_x
_atom_site_fract_y
_atom_site_fract_z
Si Si1 0.577420 0.468439 0.679603
Si Si2 0.298985 0.928892 0.486293
Si Si3 0.358719 0.386512 0.632668
Si Si4 0.011514 0.261668 0.494679
Si Si5 0.357906 0.241334 0.061798
Si Si6 0.734371 0.819034 0.203287
Si Si7 0.495675 0.277500 0.886523
O O1 0.471129 0.736994 0.617502
O O2 0.709314 0.222394 0.646496
O O3 0.441374 0.411376 0.609126
O O4 0.693221 0.507990 0.845877
O O5 0.309230 0.172038 0.525814
O O6 0.129932 0.014046 0.447714
O O7 0.501550 0.302982 0.791305
O O8 0.181963 0.668576 0.607406
O O9 0.099159 0.196728 0.640350
O O10 0.000000 0.500000 0.500000
O O11 0.560803 0.117548 0.144579
O O12 0.348650 0.016420 0.048251
O O13 0.231132 0.329532 0.907453
O O14 0.689975 0.676872 0.209902
O O15 0.500000 0.500000 0.000000
#
# Coordination Sequence:
#
# PCOD8023574 Si02
#       7
#     2   2   2   2   2   2   2
#     4  11  20  34  55  81 107 144 174 217 265 313
#     4  10  20  36  51  78 114 142 172 215 267 314
#     4  11  21  33  56  82 109 136 181 216 263 316
#     4  10  17  35  54  78 112 139 168 223 267 311
#     4   9  17  32  49  74 109 133 177 221 261 303
#     4   9  16  30  50  72 105 137 170 217 268 297
#     4  10  17  29  49  78 105 131 172 226 262 299
#
# _framework density 20.003852999999999
#
# number of rings (size 3 to 8) (size 9 to 14) (size 15 to 20)
#    0.857    1.143    5.714    1.286    0.000    0.571 
#    0.000    0.000    0.000    3.429    3.714    3.000 
#    0.000    0.000    0.000    0.000    0.000    0.000 
#
# Total GULP energy -173454.432996 kJ/mol
# GULP energy per Si atom -12389.602357 kJ/mol
# Density = 1.995832 g / cm^3
# Si number density = 20.003853 Si / 1000 Ang^3
#
#
#
# Elastic Constant Matrix: (Units=GPa)
#
#
# Indices 1 2 3 4 5 6 
#
# 1 62.3970 27.7248 27.7027 5.5872 -12.5590 -8.2924
# 2 27.7248 79.4386 36.0694 23.0666 -8.6931 -13.1681
# 3 27.7027 36.0694 94.4701 16.1922 -32.8342 -13.5203
# 4 5.5872 23.0666 16.1922 34.9304 -5.1034 -6.6030
# 5 -12.5590 -8.6931 -32.8342 -5.1034 22.6340 5.6605
# 6 -8.2924 -13.1681 -13.5203 -6.6030 5.6605 28.1208
#
#
#
# Elastic Compliance Matrix: (Units=1/GPa)
#
#
# Indices 1 2 3 4 5 6 
#
# 1 0.020955 -0.006456 -0.001370 0.002949 0.007400 0.001700
# 2 -0.006456 0.020434 -0.006629 -0.009905 -0.008553 0.003873
# 3 -0.001370 -0.006629 0.025535 -0.002128 0.032841 0.001658
# 4 0.002949 -0.009905 -0.002128 0.036638 0.002161 0.003376
# 5 0.007400 -0.008553 0.032841 0.002161 0.094256 -0.004499
# 6 0.001700 0.003873 0.001658 0.003376 -0.004499 0.040372
#
#
# Mechanical properties :
#
#
# Convention : Reuss Voigt Hill
#
# Bulk Modulus (GPa) = 26.30709 46.58883 36.44796
# Shear Modulus (GPa) = 17.87177 26.79096 22.33136
#
# Velocity S-wave (km/s) = 2.99225 3.66360 3.34481
# Velocity P-wave (km/s) = 5.01175 6.42156 5.75995
#
# Compressibility (1/GPa) = 0.03801257
#
# Stress axis : x y z
#
# Youngs Moduli (GPa) = 47.72226 48.93826 39.16241
#
# Poissons Ratio (x) = 0.31595 0.05366
# Poissons Ratio (y) = 0.30809 0.25962
# Poissons Ratio (z) = 0.06538 0.32442
#
# Static dielectric constant tensor:
#      x y z
#    x 3.549130 -0.011580 -0.218740 
#    y -0.011580 3.598610 0.100690 
#    z -0.218740 0.100690 3.575860 
# 
# 
# High freq. dielectric constant tensor:
#      x y z
#    x 1.754960 0.025030 -0.028670 
#    y 0.025030 1.756120 0.015470 
#    z -0.028670 0.015470 1.771630 
# 
# From -- ./inp_files/527746.got.cif
#   From: 2010.06.25/outbox.cif.g09.slc.cpg/sg2_264_cif.got.tgz:527746.got - 2010.06.27 13:26:56.
