data_PCOD8023592
_publ_section_title
;
Structure prediction by ZEFSAII (Michael W. Deem and Ramdas Pophale) SiO2 
 PCOD8023592
Probable space group: P -1
;
_chemical_formula_sum "Si O2"
_cell_formula_units_Z 14
_cell_length_a 5.078433
_cell_length_b 8.917741
_cell_length_c 12.455501
_cell_angle_alpha 80.459312
_cell_angle_beta 86.859740
_cell_angle_gamma 101.848470
_cell_volume 542.122195
_symmetry_space_group_name_H-M "P -1"
_symmetry_group_IT_number 2
_symmetry_cell_setting 'triclinic'
loop_
_space_group_symop_operation_xyz
x,y,z
-x,-y,-z
loop_
_atom_site_type_symbol
_atom_site_label
_atom_site_fract_x
_atom_site_fract_y
_atom_site_fract_z
Si Si1 0.766304 0.836791 0.660540
Si Si2 0.554427 0.256372 0.934386
Si Si3 0.937058 0.606962 0.393852
Si Si4 0.399531 0.522708 0.277319
Si Si5 0.435072 0.007639 0.782942
Si Si6 0.008722 0.152537 0.049899
Si Si7 0.754709 0.897784 0.427237
O O1 0.755095 0.656692 0.704067
O O2 0.601106 0.865763 0.550282
O O3 0.647231 0.902338 0.761359
O O4 0.068396 0.926172 0.610125
O O5 0.516646 0.408121 0.850778
O O6 0.519219 0.102924 0.877772
O O7 0.842468 0.270019 0.983184
O O8 0.325129 0.237153 0.035339
O O9 0.649224 0.538273 0.351542
O O10 0.945429 0.774695 0.424571
O O11 0.000000 0.500000 0.500000
O O12 0.180255 0.622818 0.302839
O O13 0.442470 0.126242 0.668684
O O14 0.132861 0.896651 0.824481
O O15 0.000000 0.000000 0.000000
#
# Coordination Sequence:
#
# PCOD8023592 Si02
#       7
#     2   2   2   2   2   2   2
#     4  11  27  42  66 103 144 187 223 281 349 428
#     4  11  23  44  71 104 132 176 239 291 339 401
#     4  12  25  45  72 100 140 187 240 282 334 409
#     4  12  26  45  71 102 143 186 228 290 348 405
#     4  11  23  41  72  96 138 180 229 284 353 405
#     4  10  23  41  71 106 130 171 238 297 335 405
#     4  11  25  45  67 102 140 187 233 278 342 421
#
# _framework density 25.824434
#
# number of rings (size 3 to 8) (size 9 to 14) (size 15 to 20)
#    0.000    0.857    2.857    4.286   10.000    0.000 
#    0.000    1.429    0.000    0.000    0.000    0.000 
#    0.000    0.000    0.000    0.000    0.000    0.000 
#
# Total GULP energy -173520.393383 kJ/mol
# GULP energy per Si atom -12394.313813 kJ/mol
# Density = 2.576566 g / cm^3
# Si number density = 25.824434 Si / 1000 Ang^3
#
#
#
# Elastic Constant Matrix: (Units=GPa)
#
#
# Indices 1 2 3 4 5 6 
#
# 1 110.6781 24.3781 0.5510 -0.1776 -11.2526 -5.4634
# 2 24.3781 95.8168 28.9808 -22.3152 -1.7205 6.5151
# 3 0.5510 28.9808 115.5842 -19.6152 -13.2817 -13.0699
# 4 -0.1776 -22.3152 -19.6152 32.1211 -6.1267 -1.7848
# 5 -11.2526 -1.7205 -13.2817 -6.1267 48.7184 -12.4376
# 6 -5.4634 6.5151 -13.0699 -1.7848 -12.4376 13.4612
#
#
#
# Elastic Compliance Matrix: (Units=1/GPa)
#
#
# Indices 1 2 3 4 5 6 
#
# 1 0.012515 -0.005647 0.005786 0.003040 0.010708 0.023727
# 2 -0.005647 0.016498 -0.007130 0.004124 -0.008373 -0.024390
# 3 0.005786 -0.007130 0.020226 0.013790 0.020015 0.045759
# 4 0.003040 0.004124 0.013790 0.048423 0.020363 0.037862
# 5 0.010708 -0.008373 0.020015 0.020363 0.050406 0.077105
# 6 0.023727 -0.024390 0.045759 0.037862 0.077105 0.216414
#
#
# Mechanical properties :
#
#
# Convention : Reuss Voigt Hill
#
# Bulk Modulus (GPa) = 28.36333 47.76655 38.06494
# Shear Modulus (GPa) = 12.81335 36.73808 24.77572
#
# Velocity S-wave (km/s) = 2.22991 3.77584 3.10076
# Velocity P-wave (km/s) = 4.19964 6.12749 5.25276
#
# Compressibility (1/GPa) = 0.03525679
#
# Stress axis : x y z
#
# Youngs Moduli (GPa) = 79.90360 60.61176 49.44055
#
# Poissons Ratio (x) = 0.34228 -0.28604
# Poissons Ratio (y) = 0.45123 0.35251
# Poissons Ratio (z) = -0.46229 0.43216
#
# Static dielectric constant tensor:
#      x y z
#    x 4.775570 -0.111250 -0.319120 
#    y -0.111250 4.456520 -0.089790 
#    z -0.319120 -0.089790 5.347030 
# 
# 
# High freq. dielectric constant tensor:
#      x y z
#    x 2.030940 -0.012280 -0.000980 
#    y -0.012280 2.008770 -0.015390 
#    z -0.000980 -0.015390 2.056110 
# 
# From -- ./inp_files/94301.got.cif
#   From: 2010.06.25/outbox.cif.g09.slc.cpg/sg2_48_cif.got.tgz:94301.got - 2010.06.27 13:26:56.
