data_PCOD8023103
_publ_section_title
;
Structure prediction by ZEFSAII (Michael W. Deem and Ramdas Pophale) SiO2 
 PCOD8023103
Probable space group: P -1
;
_chemical_formula_sum "Si O2"
_cell_formula_units_Z 16
_cell_length_a 9.020776
_cell_length_b 11.549581
_cell_length_c 16.203800
_cell_angle_alpha 51.060321
_cell_angle_beta 68.476860
_cell_angle_gamma 35.159010
_cell_volume 714.288135
_symmetry_space_group_name_H-M "P -1"
_symmetry_group_IT_number 2
_symmetry_cell_setting 'triclinic'
loop_
_space_group_symop_operation_xyz
x,y,z
-x,-y,-z
loop_
_atom_site_type_symbol
_atom_site_label
_atom_site_fract_x
_atom_site_fract_y
_atom_site_fract_z
Si Si1 0.075286 0.258328 0.158402
Si Si2 0.508573 0.707540 0.125235
Si Si3 0.004766 0.717285 0.018206
Si Si4 0.260038 0.489954 0.507901
Si Si5 0.665381 0.240599 0.682039
Si Si6 0.727007 0.209531 0.016757
Si Si7 0.459338 0.174718 0.200434
Si Si8 0.332623 0.159044 0.543104
O O1 0.364901 0.102880 0.198899
O O2 0.827128 0.511130 0.152566
O O3 0.100111 0.059282 0.248033
O O4 0.022721 0.345019 0.035687
O O5 0.423481 0.696537 0.232549
O O6 0.500781 0.603525 0.093202
O O7 0.297843 0.004456 0.014321
O O8 0.175228 0.474492 0.149766
O O9 0.227153 0.684656 0.979433
O O10 0.409001 0.399724 0.604869
O O11 0.216094 0.685129 0.389389
O O12 0.416998 0.258890 0.516412
O O13 0.978198 0.617646 0.523363
O O14 0.668589 0.111375 0.130242
O O15 0.000000 0.000000 0.000000
O O16 0.613933 0.008338 0.325016
O O17 0.500000 0.000000 0.500000
#
# Coordination Sequence:
#
# PCOD8023103 Si02
#       8
#     2   2   2   2   2   2   2   2
#     4  11  23  42  65 101 140 178 227 277 347 416
#     4  10  23  40  68 104 136 174 235 266 346 422
#     4  10  23  42  65  98 140 174 230 276 339 415
#     4  10  24  49  70  99 137 179 239 292 341 401
#     4  10  23  44  74  98 138 181 227 297 335 401
#     4  10  23  43  64 101 136 178 230 271 343 420
#     4  12  24  43  69  95 145 182 220 293 339 405
#     4  11  27  47  69 103 139 181 237 282 353 404
#
# _framework density 22.399923000000001
#
# number of rings (size 3 to 8) (size 9 to 14) (size 15 to 20)
#    0.000    1.500    2.500    0.750    7.000    2.500 
#   13.500    2.500    0.000    0.000    0.000    0.000 
#    0.000    0.000    0.000    0.000    0.000    0.000 
#
# Total GULP energy -198234.402698 kJ/mol
# GULP energy per Si atom -12389.650169 kJ/mol
# Density = 2.234894 g / cm^3
# Si number density = 22.399923 Si / 1000 Ang^3
#
#
#
# Elastic Constant Matrix: (Units=GPa)
#
#
# Indices 1 2 3 4 5 6 
#
# 1 109.4536 27.0790 23.3597 8.6341 0.1233 9.8534
# 2 27.0790 100.1669 37.3375 2.2692 -5.3763 4.9098
# 3 23.3597 37.3375 82.9657 -0.7662 2.8975 6.9149
# 4 8.6341 2.2692 -0.7662 36.0150 6.2632 3.3403
# 5 0.1233 -5.3763 2.8975 6.2632 37.2447 -1.3155
# 6 9.8534 4.9098 6.9149 3.3403 -1.3155 32.7778
#
#
#
# Elastic Compliance Matrix: (Units=1/GPa)
#
#
# Indices 1 2 3 4 5 6 
#
# 1 0.010394 -0.001938 -0.001896 -0.002229 0.000130 -0.002202
# 2 -0.001938 0.012598 -0.005213 -0.000851 0.002373 -0.000023
# 3 -0.001896 -0.005213 0.015206 0.001702 -0.002290 -0.002122
# 4 -0.002229 -0.000851 0.001702 0.029574 -0.005320 -0.002789
# 5 0.000130 0.002373 -0.002290 -0.005320 0.028327 0.001767
# 6 -0.002202 -0.000023 -0.002122 -0.002789 0.001767 0.031977
#
#
# Mechanical properties :
#
#
# Convention : Reuss Voigt Hill
#
# Bulk Modulus (GPa) = 49.74012 52.01541 50.87777
# Shear Modulus (GPa) = 32.70751 34.86150 33.78451
#
# Velocity S-wave (km/s) = 3.82535 3.94931 3.88782
# Velocity P-wave (km/s) = 6.46257 6.63835 6.55105
#
# Compressibility (1/GPa) = 0.02010450
#
# Stress axis : x y z
#
# Youngs Moduli (GPa) = 96.20698 79.37765 65.76542
#
# Poissons Ratio (x) = 0.15381 0.12470
# Poissons Ratio (y) = 0.18643 0.34282
# Poissons Ratio (z) = 0.18242 0.41378
#
# Static dielectric constant tensor:
#      x y z
#    x 4.707680 0.278570 0.116440 
#    y 0.278570 4.127440 -0.242100 
#    z 0.116440 -0.242100 4.042840 
# 
# 
# High freq. dielectric constant tensor:
#      x y z
#    x 1.904270 0.005320 0.014560 
#    y 0.005320 1.877350 -0.011550 
#    z 0.014560 -0.011550 1.869300 
# 
# From -- ./inp_files/500011.got.cif
#   From: 2010.06.25/outbox.cif.g09.slc.cpg/sg2_251_cif.got.tgz:500011.got - 2010.06.27 13:26:56.
