data_PCOD8023539
_publ_section_title
;
Structure prediction by ZEFSAII (Michael W. Deem and Ramdas Pophale) SiO2 
 PCOD8023539
Probable space group: P -1
;
_chemical_formula_sum "Si O2"
_cell_formula_units_Z 14
_cell_length_a 14.924785
_cell_length_b 20.175738
_cell_length_c 8.853193
_cell_angle_alpha 29.697300
_cell_angle_beta 132.845823
_cell_angle_gamma 150.996300
_cell_volume 604.106279
_symmetry_space_group_name_H-M "P -1"
_symmetry_group_IT_number 2
_symmetry_cell_setting 'triclinic'
loop_
_space_group_symop_operation_xyz
x,y,z
-x,-y,-z
loop_
_atom_site_type_symbol
_atom_site_label
_atom_site_fract_x
_atom_site_fract_y
_atom_site_fract_z
Si Si1 0.111632 0.025341 0.749063
Si Si2 0.323283 0.762696 0.325328
Si Si3 0.296235 0.258025 0.211760
Si Si4 0.850665 0.650524 0.717851
Si Si5 0.131177 0.850789 0.388025
Si Si6 0.970397 0.462035 0.321155
Si Si7 0.541325 0.772204 0.786091
O O1 0.248611 0.117536 0.576579
O O2 0.110955 0.183806 0.469936
O O3 0.886061 0.794010 0.907529
O O4 0.186953 0.000221 0.022237
O O5 0.181908 0.720106 0.364976
O O6 0.415233 0.717192 0.609245
O O7 0.189191 0.606677 0.337056
O O8 0.500000 0.000000 0.000000
O O9 0.307112 0.199284 0.175141
O O10 0.500000 0.500000 0.000000
O O11 0.940471 0.744205 0.467828
O O12 0.957704 0.611278 0.989707
O O13 0.614723 0.427219 0.882137
O O14 0.085145 0.662346 0.650007
O O15 0.324196 0.006265 0.408456
#
# Coordination Sequence:
#
# PCOD8023539 Si02
#       7
#     2   2   2   2   2   2   2
#     4  11  26  42  71  98 135 176 228 273 340 393
#     4  10  23  41  69  98 132 176 229 279 326 397
#     4  11  24  43  69  98 136 178 226 280 334 398
#     4  11  23  45  65  97 138 179 218 280 334 399
#     4  12  26  44  68 103 138 178 222 278 337 405
#     4  10  25  43  68  98 137 179 224 269 341 399
#     4  11  25  42  70  99 140 172 227 280 340 390
#
# _framework density 23.174731000000001
#
# number of rings (size 3 to 8) (size 9 to 14) (size 15 to 20)
#    0.000    1.143    2.857    1.714    4.000    7.429 
#    0.000    0.000    0.000    0.000    0.000    0.000 
#    0.000    0.000    0.000    0.000    0.000    0.000 
#
# Total GULP energy -173524.545985 kJ/mol
# GULP energy per Si atom -12394.610428 kJ/mol
# Density = 2.312198 g / cm^3
# Si number density = 23.174731 Si / 1000 Ang^3
#
#
#
# Elastic Constant Matrix: (Units=GPa)
#
#
# Indices 1 2 3 4 5 6 
#
# 1 72.1058 32.7193 22.1799 -13.8696 -12.4282 -5.6287
# 2 32.7193 131.2793 37.2741 -19.8616 -1.7245 -2.9514
# 3 22.1799 37.2741 95.5528 -6.3784 -14.3757 7.8578
# 4 -13.8696 -19.8616 -6.3784 42.3424 7.5902 -5.4806
# 5 -12.4282 -1.7245 -14.3757 7.5902 47.6750 -11.1511
# 6 -5.6287 -2.9514 7.8578 -5.4806 -11.1511 34.7044
#
#
#
# Elastic Compliance Matrix: (Units=1/GPa)
#
#
# Indices 1 2 3 4 5 6 
#
# 1 0.017928 -0.002977 -0.002504 0.003991 0.004408 0.005268
# 2 -0.002977 0.009829 -0.003252 0.003596 -0.001715 0.001106
# 3 -0.002504 -0.003252 0.012868 -0.001259 0.002620 -0.002953
# 4 0.003991 0.003596 -0.001259 0.027483 -0.002465 0.004786
# 5 0.004408 -0.001715 0.002620 -0.002465 0.025029 0.007629
# 6 0.005268 0.001106 -0.002953 0.004786 0.007629 0.033639
#
#
# Mechanical properties :
#
#
# Convention : Reuss Voigt Hill
#
# Bulk Modulus (GPa) = 43.17959 53.69826 48.43893
# Shear Modulus (GPa) = 32.90281 38.72866 35.81573
#
# Velocity S-wave (km/s) = 3.77207 4.09242 3.93551
# Velocity P-wave (km/s) = 6.13547 6.74921 6.44965
#
# Compressibility (1/GPa) = 0.02315909
#
# Stress axis : x y z
#
# Youngs Moduli (GPa) = 55.77793 101.73805 77.71128
#
# Poissons Ratio (x) = 0.30291 0.19457
# Poissons Ratio (y) = 0.16607 0.25272
# Poissons Ratio (z) = 0.13966 0.33086
#
# Static dielectric constant tensor:
#      x y z
#    x 4.436320 0.072040 -0.420830 
#    y 0.072040 4.167800 -0.135610 
#    z -0.420830 -0.135610 4.441850 
# 
# 
# High freq. dielectric constant tensor:
#      x y z
#    x 1.914020 -0.000830 -0.027750 
#    y -0.000830 1.917510 -0.016380 
#    z -0.027750 -0.016380 1.913140 
# 
# From -- ./inp_files/319185.got.cif
#   From: 2010.06.25/outbox.cif.g09.slc.cpg/sg2_160_cif.got.tgz:319185.got - 2010.06.27 13:26:56.
