data_PCOD8023111
_publ_section_title
;
Structure prediction by ZEFSAII (Michael W. Deem and Ramdas Pophale) SiO2 
 PCOD8023111
Probable space group: P -1
;
_chemical_formula_sum "Si O2"
_cell_formula_units_Z 14
_cell_length_a 16.119513
_cell_length_b 10.464839
_cell_length_c 18.090482
_cell_angle_alpha 143.376896
_cell_angle_beta 157.707438
_cell_angle_gamma 34.403177
_cell_volume 643.047990
_symmetry_space_group_name_H-M "P -1"
_symmetry_group_IT_number 2
_symmetry_cell_setting 'triclinic'
loop_
_space_group_symop_operation_xyz
x,y,z
-x,-y,-z
loop_
_atom_site_type_symbol
_atom_site_label
_atom_site_fract_x
_atom_site_fract_y
_atom_site_fract_z
Si Si1 0.491758 0.063461 0.399821
Si Si2 0.974792 0.766777 0.453318
Si Si3 0.889103 0.570809 0.021002
Si Si4 0.180855 0.251026 0.362576
Si Si5 0.920818 0.074129 0.683773
Si Si6 0.910223 0.936534 0.024459
Si Si7 0.392354 0.894751 0.797585
O O1 0.642419 0.833807 0.462074
O O2 0.660435 0.179924 0.554202
O O3 0.320928 0.250084 0.401998
O O4 0.354162 0.984629 0.186275
O O5 0.996873 0.503498 0.345772
O O6 0.216342 0.779477 0.628912
O O7 0.941582 0.850636 0.549827
O O8 0.745027 0.909606 0.283338
O O9 0.957884 0.335037 0.014564
O O10 0.608680 0.696179 0.844523
O O11 0.016759 0.746320 0.235843
O O12 0.000000 0.500000 0.000000
O O13 0.043374 0.077557 0.156829
O O14 0.102338 0.011485 0.873595
O O15 0.500000 0.000000 0.000000
#
# Coordination Sequence:
#
# PCOD8023111 Si02
#       7
#     2   2   2   2   2   2   2
#     4  10  23  40  68  92 134 170 222 267 319 379
#     4  11  26  43  68  93 139 171 213 267 328 391
#     4  10  23  42  68  96 132 161 220 274 316 388
#     4  10  24  44  63 100 126 175 222 265 319 387
#     4  10  23  43  61 103 125 171 217 264 330 382
#     4  10  23  42  67  98 126 173 220 267 323 374
#     4  11  25  44  63 100 130 175 215 260 331 389
#
# _framework density 21.771315000000001
#
# number of rings (size 3 to 8) (size 9 to 14) (size 15 to 20)
#    0.000    1.714    1.429    0.429   14.000    4.000 
#    0.000    1.429    0.000    0.000    0.000    0.000 
#    0.000    0.000    0.000    0.000    0.000    0.000 
#
# Total GULP energy -173566.572135 kJ/mol
# GULP energy per Si atom -12397.612295 kJ/mol
# Density = 2.172176 g / cm^3
# Si number density = 21.771315 Si / 1000 Ang^3
#
#
#
# Elastic Constant Matrix: (Units=GPa)
#
#
# Indices 1 2 3 4 5 6 
#
# 1 83.6455 47.0103 55.4012 -3.0622 -0.2277 -9.2665
# 2 47.0103 127.2977 53.3841 7.6108 4.8095 0.4948
# 3 55.4012 53.3841 144.3640 -11.7793 -7.7148 10.7835
# 4 -3.0622 7.6108 -11.7793 37.2663 7.4485 0.2428
# 5 -0.2277 4.8095 -7.7148 7.4485 45.3965 -0.9572
# 6 -9.2665 0.4948 10.7835 0.2428 -0.9572 28.0824
#
#
#
# Elastic Compliance Matrix: (Units=1/GPa)
#
#
# Indices 1 2 3 4 5 6 
#
# 1 0.019994 -0.004660 -0.006617 0.000528 -0.000423 0.009202
# 2 -0.004660 0.010851 -0.002481 -0.003160 -0.001093 -0.000786
# 3 -0.006617 -0.002481 0.011207 0.003255 0.001465 -0.006421
# 4 0.000528 -0.003160 0.003255 0.029351 -0.003955 -0.001408
# 5 -0.000423 -0.001093 0.001465 -0.003955 0.023043 0.000137
# 6 0.009202 -0.000786 -0.006421 -0.001408 0.000137 0.041142
#
#
# Mechanical properties :
#
#
# Convention : Reuss Voigt Hill
#
# Bulk Modulus (GPa) = 68.79773 74.09982 71.44878
# Shear Modulus (GPa) = 29.77083 35.44981 32.61032
#
# Velocity S-wave (km/s) = 3.70189 4.03957 3.87441
# Velocity P-wave (km/s) = 7.06688 7.47442 7.27351
#
# Compressibility (1/GPa) = 0.01453536
#
# Stress axis : x y z
#
# Youngs Moduli (GPa) = 50.01412 92.16135 89.22865
#
# Poissons Ratio (x) = 0.42951 0.59038
# Poissons Ratio (y) = 0.23309 0.22141
# Poissons Ratio (z) = 0.33092 0.22869
#
# Static dielectric constant tensor:
#      x y z
#    x 3.945870 0.058230 0.118130 
#    y 0.058230 4.157170 0.186010 
#    z 0.118130 0.186010 4.255610 
# 
# 
# High freq. dielectric constant tensor:
#      x y z
#    x 1.854350 -0.002900 0.004110 
#    y -0.002900 1.838370 0.000670 
#    z 0.004110 0.000670 1.866450 
# 
# From -- ./inp_files/436956.got.cif
#   From: 2010.06.25/outbox.cif.g09.slc.cpg/sg2_219_cif.got.tgz:436956.got - 2010.06.27 13:26:56.
