data_PCOD8023317
_publ_section_title
;
Structure prediction by ZEFSAII (Michael W. Deem and Ramdas Pophale) SiO2 
 PCOD8023317
Probable space group: P -1
;
_chemical_formula_sum "Si O2"
_cell_formula_units_Z 16
_cell_length_a 11.501669
_cell_length_b 8.208444
_cell_length_c 17.265666
_cell_angle_alpha 142.310984
_cell_angle_beta 48.864259
_cell_angle_gamma 111.862545
_cell_volume 710.641128
_symmetry_space_group_name_H-M "P -1"
_symmetry_group_IT_number 2
_symmetry_cell_setting 'triclinic'
loop_
_space_group_symop_operation_xyz
x,y,z
-x,-y,-z
loop_
_atom_site_type_symbol
_atom_site_label
_atom_site_fract_x
_atom_site_fract_y
_atom_site_fract_z
Si Si1 0.055971 0.136618 0.714160
Si Si2 0.362994 0.266959 0.072418
Si Si3 0.159358 0.956320 0.757884
Si Si4 0.734059 0.977555 0.824851
Si Si5 0.361349 0.862223 0.784754
Si Si6 0.178200 0.899527 0.417180
Si Si7 0.273550 0.332781 0.443007
Si Si8 0.082873 0.720395 0.908514
O O1 0.030320 0.448128 0.808301
O O2 0.880151 0.110533 0.804466
O O3 0.183325 0.073891 0.707052
O O4 0.156168 0.904931 0.521263
O O5 0.281371 0.598822 0.225900
O O6 0.269805 0.162370 0.142626
O O7 0.555629 0.209262 0.980339
O O8 0.338474 0.133033 0.950994
O O9 0.151434 0.640115 0.633680
O O10 0.291875 0.970855 0.770039
O O11 0.979272 0.171698 0.938120
O O12 0.765297 0.745262 0.655792
O O13 0.544436 0.655755 0.624765
O O14 0.274080 0.655632 0.785642
O O15 0.266695 0.112819 0.428560
O O16 0.000000 0.000000 0.500000
O O17 0.000000 0.000000 0.000000
#
# Coordination Sequence:
#
# PCOD8023317 Si02
#       8
#     2   2   2   2   2   2   2   2
#     4  12  25  43  66 101 130 170 223 270 331 383
#     4  10  24  43  69 101 130 175 215 271 336 383
#     4  11  24  40  68  95 133 175 215 272 318 390
#     4  10  23  45  70  97 134 168 219 278 328 388
#     4  10  23  44  68  91 135 176 220 263 321 401
#     4  12  26  40  66 102 135 168 219 274 327 396
#     4  11  24  44  66  99 129 178 217 267 337 379
#     4  10  23  41  65  94 126 173 215 266 320 388
#
# _framework density 22.514880000000002
#
# number of rings (size 3 to 8) (size 9 to 14) (size 15 to 20)
#    0.000    1.250    1.250    3.750    7.000    5.000 
#    0.000    5.000    0.000    0.000    0.000    0.000 
#    0.000    0.000    0.000    0.000    0.000    0.000 
#
# Total GULP energy -198285.903964 kJ/mol
# GULP energy per Si atom -12392.868998 kJ/mol
# Density = 2.246363 g / cm^3
# Si number density = 22.514880 Si / 1000 Ang^3
#
#
#
# Elastic Constant Matrix: (Units=GPa)
#
#
# Indices 1 2 3 4 5 6 
#
# 1 102.7920 34.0941 30.4773 -4.0229 20.8099 -3.8599
# 2 34.0941 102.6610 29.2492 4.4748 4.5462 12.8103
# 3 30.4773 29.2492 110.6603 4.4415 12.3097 3.7069
# 4 -4.0229 4.4748 4.4415 40.3091 -8.1984 1.6074
# 5 20.8099 4.5462 12.3097 -8.1984 31.8389 -13.9659
# 6 -3.8599 12.8103 3.7069 1.6074 -13.9659 43.4501
#
#
#
# Elastic Compliance Matrix: (Units=1/GPa)
#
#
# Indices 1 2 3 4 5 6 
#
# 1 0.012878 -0.003455 -0.001865 0.000434 -0.007078 0.000031
# 2 -0.003455 0.012028 -0.001951 -0.001470 -0.000788 -0.003886
# 3 -0.001865 -0.001951 0.010619 -0.001848 -0.003809 -0.001652
# 4 0.000434 -0.001470 -0.001848 0.026875 0.008616 0.002405
# 5 -0.007078 -0.000788 -0.003809 0.008616 0.046177 0.014452
# 6 0.000031 -0.003886 -0.001652 0.002405 0.014452 0.028861
#
#
# Mechanical properties :
#
#
# Convention : Reuss Voigt Hill
#
# Bulk Modulus (GPa) = 47.65470 55.97272 51.81371
# Shear Modulus (GPa) = 31.45174 37.93914 34.69544
#
# Velocity S-wave (km/s) = 3.74161 4.10941 3.92982
# Velocity P-wave (km/s) = 6.31490 6.88699 6.60714
#
# Compressibility (1/GPa) = 0.02098429
#
# Stress axis : x y z
#
# Youngs Moduli (GPa) = 77.65066 83.14056 94.16983
#
# Poissons Ratio (x) = 0.28724 0.17560
# Poissons Ratio (y) = 0.26828 0.18370
# Poissons Ratio (z) = 0.14480 0.16219
#
# Static dielectric constant tensor:
#      x y z
#    x 4.244120 0.198900 0.082430 
#    y 0.198900 4.151330 -0.426410 
#    z 0.082430 -0.426410 4.554560 
# 
# 
# High freq. dielectric constant tensor:
#      x y z
#    x 1.881250 -0.002700 0.010420 
#    y -0.002700 1.883860 -0.016640 
#    z 0.010420 -0.016640 1.904560 
# 
# From -- ./inp_files/567103.got.cif
#   From: 2010.06.25/outbox.cif.g09.slc.cpg/sg2_284_cif.got.tgz:567103.got - 2010.06.27 13:26:56.
