data_PCOD8023002
_publ_section_title
;
Structure prediction by ZEFSAII (Michael W. Deem and Ramdas Pophale) SiO2 
 PCOD8023002
Probable space group: P -1
;
_chemical_formula_sum "Si O2"
_cell_formula_units_Z 16
_cell_length_a 14.270999
_cell_length_b 13.191806
_cell_length_c 11.697426
_cell_angle_alpha 83.823641
_cell_angle_beta 30.817385
_cell_angle_gamma 61.847978
_cell_volume 748.285531
_symmetry_space_group_name_H-M "P -1"
_symmetry_group_IT_number 2
_symmetry_cell_setting 'triclinic'
loop_
_space_group_symop_operation_xyz
x,y,z
-x,-y,-z
loop_
_atom_site_type_symbol
_atom_site_label
_atom_site_fract_x
_atom_site_fract_y
_atom_site_fract_z
Si Si1 0.661881 0.868976 0.501102
Si Si2 0.235430 0.868010 0.354410
Si Si3 0.858012 0.954422 0.116644
Si Si4 0.085639 0.609489 0.606447
Si Si5 0.264713 0.458265 0.212900
Si Si6 0.867749 0.476739 0.901288
Si Si7 0.271341 0.704288 0.537937
Si Si8 0.481000 0.052917 0.888152
O O1 0.747310 0.939371 0.343961
O O2 0.916169 0.686790 0.246528
O O3 0.404168 0.919706 0.705854
O O4 0.586910 0.924288 0.703809
O O5 0.148185 0.822651 0.547384
O O6 0.334365 0.923445 0.316643
O O7 0.471285 0.724194 0.043175
O O8 0.000000 0.000000 0.500000
O O9 0.086616 0.793297 0.832202
O O10 0.000000 0.000000 0.000000
O O11 0.271943 0.531790 0.304573
O O12 0.261649 0.589427 0.524323
O O13 0.000919 0.532521 0.743909
O O14 0.827617 0.788979 0.834931
O O15 0.229073 0.529100 0.119616
O O16 0.000000 0.500000 0.500000
O O17 0.585501 0.602452 0.254164
O O18 0.500000 0.000000 0.000000
#
# Coordination Sequence:
#
# PCOD8023002 Si02
#       8
#     2   2   2   2   2   2   2   2
#     4  11  26  45  70 103 128 176 229 275 334 401
#     4  11  23  36  59 102 139 174 225 271 320 404
#     4  11  26  47  73  93 134 174 227 282 335 395
#     4  11  21  39  66  91 135 183 212 269 332 391
#     4   9  18  36  59  86 134 178 208 256 330 385
#     4  10  23  40  64  97 137 165 222 276 329 401
#     4  11  23  42  66  94 130 176 222 275 336 391
#     4  12  22  39  68  99 137 176 218 269 332 398
#
# _framework density 21.382211000000002
#
# number of rings (size 3 to 8) (size 9 to 14) (size 15 to 20)
#    0.000    1.250    5.000    2.250    1.750    4.500 
#    0.000    1.250    0.000    0.000    0.000    0.000 
#    0.000    0.000    0.000    0.000    0.000    0.000 
#
# Total GULP energy -198385.672772 kJ/mol
# GULP energy per Si atom -12399.104548 kJ/mol
# Density = 2.133354 g / cm^3
# Si number density = 21.382211 Si / 1000 Ang^3
#
#
#
# Elastic Constant Matrix: (Units=GPa)
#
#
# Indices 1 2 3 4 5 6 
#
# 1 107.8927 41.0732 43.8180 -2.8708 -0.0021 16.7481
# 2 41.0732 80.4569 26.7431 7.6174 -12.7556 3.4655
# 3 43.8180 26.7431 108.0480 12.3515 -3.6629 -8.4664
# 4 -2.8708 7.6174 12.3515 36.0436 -1.6844 -9.6270
# 5 -0.0021 -12.7556 -3.6629 -1.6844 35.3819 1.8780
# 6 16.7481 3.4655 -8.4664 -9.6270 1.8780 35.5152
#
#
#
# Elastic Compliance Matrix: (Units=1/GPa)
#
#
# Indices 1 2 3 4 5 6 
#
# 1 0.014956 -0.006109 -0.005450 0.002376 -0.002281 -0.006991
# 2 -0.006109 0.017243 -0.001213 -0.003534 0.005941 -0.000363
# 3 -0.005450 -0.001213 0.012518 -0.003167 0.000453 0.004790
# 4 0.002376 -0.003534 -0.003167 0.031632 -0.000471 0.007069
# 5 -0.002281 0.005941 0.000453 -0.000471 0.030490 -0.001136
# 6 -0.006991 -0.000363 0.004790 0.007069 -0.001136 0.034607
#
#
# Mechanical properties :
#
#
# Convention : Reuss Voigt Hill
#
# Bulk Modulus (GPa) = 52.15751 57.74067 54.94909
# Shear Modulus (GPa) = 28.83813 33.70570 31.27191
#
# Velocity S-wave (km/s) = 3.67645 3.97463 3.82844
# Velocity P-wave (km/s) = 6.51671 6.93731 6.73030
#
# Compressibility (1/GPa) = 0.01917269
#
# Stress axis : x y z
#
# Youngs Moduli (GPa) = 66.86363 57.99397 79.88236
#
# Poissons Ratio (x) = 0.35428 0.43535
# Poissons Ratio (y) = 0.40847 0.09694
# Poissons Ratio (z) = 0.36440 0.07037
#
# Static dielectric constant tensor:
#      x y z
#    x 2.963310 0.342970 -0.198170 
#    y 0.342970 3.721390 0.045180 
#    z -0.198170 0.045180 4.197570 
# 
# 
# High freq. dielectric constant tensor:
#      x y z
#    x 1.832480 0.011580 -0.004640 
#    y 0.011580 1.826120 -0.001880 
#    z -0.004640 -0.001880 1.855930 
# 
# From -- ./inp_files/452258.got.cif
#   From: 2010.06.25/outbox.cif.g09.slc.cpg/sg2_227_cif.got.tgz:452258.got - 2010.06.27 13:26:56.
