data_PCOD8023647
_publ_section_title
;
Structure prediction by ZEFSAII (Michael W. Deem and Ramdas Pophale) SiO2 
 PCOD8023647
Probable space group: P -1
;
_chemical_formula_sum "Si O2"
_cell_formula_units_Z 10
_cell_length_a 7.968010
_cell_length_b 11.629863
_cell_length_c 6.920179
_cell_angle_alpha 40.207423
_cell_angle_beta 64.612146
_cell_angle_gamma 65.103005
_cell_volume 369.154701
_symmetry_space_group_name_H-M "P -1"
_symmetry_group_IT_number 2
_symmetry_cell_setting 'triclinic'
loop_
_space_group_symop_operation_xyz
x,y,z
-x,-y,-z
loop_
_atom_site_type_symbol
_atom_site_label
_atom_site_fract_x
_atom_site_fract_y
_atom_site_fract_z
Si Si1 0.746168 0.198481 0.268578
Si Si2 0.995619 0.722504 0.276589
Si Si3 0.653725 0.953426 0.312185
Si Si4 0.367035 0.425394 0.326074
Si Si5 0.669200 0.264646 0.639577
O O1 0.646138 0.032975 0.435660
O O2 0.783763 0.175434 0.508090
O O3 0.621962 0.401359 0.036625
O O4 0.943365 0.202914 0.055568
O O5 0.857310 0.568621 0.521592
O O6 0.189104 0.653163 0.390821
O O7 0.875226 0.889596 0.236337
O O8 0.554882 0.774624 0.555368
O O9 0.578153 0.112304 0.994801
O O10 0.497646 0.422532 0.456225
#
# Coordination Sequence:
#
# PCOD8023647 Si02
#       5
#     2   2   2   2   2
#     4  11  21  40  66  86 121 160 194 250 298 340
#     4   9  23  42  59  90 123 151 206 241 287 371
#     4   9  23  42  59  90 123 151 206 241 287 371
#     4  10  23  42  60  89 125 154 198 248 293 356
#     4  11  21  40  66  86 121 160 194 250 298 340
#
# _framework density 27.088913999999999
#
# number of rings (size 3 to 8) (size 9 to 14) (size 15 to 20)
#    1.200    0.800    0.000    4.200    0.000    8.000 
#    0.000    8.000    0.000    0.000    0.000    0.000 
#    0.000    0.000    0.000    0.000    0.000    0.000 
#
# Total GULP energy -123988.696704 kJ/mol
# GULP energy per Si atom -12398.869670 kJ/mol
# Density = 2.702726 g / cm^3
# Si number density = 27.088914 Si / 1000 Ang^3
#
#
#
# Elastic Constant Matrix: (Units=GPa)
#
#
# Indices 1 2 3 4 5 6 
#
# 1 148.4907 30.7360 49.3906 0.1685 -11.9989 11.0704
# 2 30.7360 95.7541 23.8530 17.3875 -9.3984 3.8829
# 3 49.3906 23.8530 148.9817 11.9469 -10.7500 15.8843
# 4 0.1685 17.3875 11.9469 56.7243 -0.7536 3.6543
# 5 -11.9989 -9.3984 -10.7500 -0.7536 51.3285 -16.0680
# 6 11.0704 3.8829 15.8843 3.6543 -16.0680 58.4128
#
#
#
# Elastic Compliance Matrix: (Units=1/GPa)
#
#
# Indices 1 2 3 4 5 6 
#
# 1 0.008048 -0.002114 -0.002298 0.001158 0.000842 -0.000601
# 2 -0.002114 0.012127 -0.000893 -0.003534 0.001648 0.000512
# 3 -0.002298 -0.000893 0.007909 -0.001286 0.000486 -0.001442
# 4 0.001158 -0.003534 -0.001286 0.019036 -0.000684 -0.001014
# 5 0.000842 0.001648 0.000486 -0.000684 0.021841 0.005650
# 6 -0.000601 0.000512 -0.001442 -0.001014 0.005650 0.019209
#
#
# Mechanical properties :
#
#
# Convention : Reuss Voigt Hill
#
# Bulk Modulus (GPa) = 57.22725 66.79841 62.01283
# Shear Modulus (GPa) = 47.79932 52.57625 50.18778
#
# Velocity S-wave (km/s) = 4.20519 4.41032 4.30898
# Velocity P-wave (km/s) = 6.68953 7.11667 6.90640
#
# Compressibility (1/GPa) = 0.01747419
#
# Stress axis : x y z
#
# Youngs Moduli (GPa) = 124.25833 82.45934 126.44182
#
# Poissons Ratio (x) = 0.17433 0.29051
# Poissons Ratio (y) = 0.26270 0.11292
# Poissons Ratio (z) = 0.28549 0.07364
#
# Static dielectric constant tensor:
#      x y z
#    x 5.015190 -0.275610 -0.368470 
#    y -0.275610 5.342450 0.040620 
#    z -0.368470 0.040620 4.439220 
# 
# 
# High freq. dielectric constant tensor:
#      x y z
#    x 2.127450 -0.028200 -0.040910 
#    y -0.028200 2.165120 0.001620 
#    z -0.040910 0.001620 2.069470 
# 
# From -- ./inp_files/22851.got.cif
#   From: 2010.06.25/outbox.cif.g09.slc.cpg/sg2_12_cif.got.tgz:22851.got - 2010.06.27 13:26:56.
