data_PCOD8023126
_publ_section_title
;
Structure prediction by ZEFSAII (Michael W. Deem and Ramdas Pophale) SiO2 
 PCOD8023126
Probable space group: P -1
;
_chemical_formula_sum "Si O2"
_cell_formula_units_Z 14
_cell_length_a 8.441876
_cell_length_b 8.700048
_cell_length_c 20.350215
_cell_angle_alpha 50.002172
_cell_angle_beta 147.247603
_cell_angle_gamma 129.541393
_cell_volume 602.574649
_symmetry_space_group_name_H-M "P -1"
_symmetry_group_IT_number 2
_symmetry_cell_setting 'triclinic'
loop_
_space_group_symop_operation_xyz
x,y,z
-x,-y,-z
loop_
_atom_site_type_symbol
_atom_site_label
_atom_site_fract_x
_atom_site_fract_y
_atom_site_fract_z
Si Si1 0.092855 0.748277 0.535211
Si Si2 0.936629 0.040679 0.197479
Si Si3 0.226085 0.715292 0.444557
Si Si4 0.340267 0.968045 0.682776
Si Si5 0.743845 0.066023 0.980947
Si Si6 0.068484 0.764502 0.131814
Si Si7 0.882851 0.681881 0.697116
O O1 0.211524 0.813377 0.485234
O O2 0.351842 0.854526 0.647879
O O3 0.013582 0.502709 0.583169
O O4 0.798324 0.831351 0.426704
O O5 0.091353 0.235774 0.242101
O O6 0.605235 0.932386 0.137938
O O7 0.913763 0.123242 0.093571
O O8 0.131813 0.866838 0.316675
O O9 0.560158 0.691116 0.551800
O O10 0.143722 0.808129 0.708399
O O11 0.674334 0.043319 0.804908
O O12 0.899436 0.240629 0.934618
O O13 0.766555 0.835074 0.028824
O O14 0.084011 0.551566 0.228348
#
# Coordination Sequence:
#
# PCOD8023126 Si02
#       7
#     2   2   2   2   2   2   2
#     4  10  23  40  68  97 145 175 211 270 352 396
#     4  11  24  45  68 102 136 175 234 274 328 408
#     4  11  23  43  68 107 137 174 217 283 338 411
#     4  11  23  44  63 105 139 172 220 277 330 416
#     4  10  25  47  69  92 138 184 225 284 321 391
#     4  11  24  48  68  98 136 176 231 279 329 399
#     4  12  25  41  73 103 135 179 217 282 346 396
#
# _framework density 23.233636000000001
#
# number of rings (size 3 to 8) (size 9 to 14) (size 15 to 20)
#    0.000    1.143    4.286    0.429    6.000    2.857 
#    0.000    0.000    0.000    0.000    0.000    0.000 
#    0.000    0.000    0.000    0.000    0.000    0.000 
#
# Total GULP energy -173663.033155 kJ/mol
# GULP energy per Si atom -12404.502368 kJ/mol
# Density = 2.318075 g / cm^3
# Si number density = 23.233636 Si / 1000 Ang^3
#
#
#
# Elastic Constant Matrix: (Units=GPa)
#
#
# Indices 1 2 3 4 5 6 
#
# 1 59.6553 20.7876 12.5270 1.7869 -14.7223 -10.4871
# 2 20.7876 89.9232 40.5127 -10.0558 -4.8221 -3.4754
# 3 12.5270 40.5127 109.8008 -10.2355 -8.1979 -1.8013
# 4 1.7869 -10.0558 -10.2355 28.2180 -11.0751 1.5413
# 5 -14.7223 -4.8221 -8.1979 -11.0751 28.9022 0.8042
# 6 -10.4871 -3.4754 -1.8013 1.5413 0.8042 26.7884
#
#
#
# Elastic Compliance Matrix: (Units=1/GPa)
#
#
# Indices 1 2 3 4 5 6 
#
# 1 0.022203 -0.004161 0.000018 0.000914 0.010755 0.007778
# 2 -0.004161 0.014582 -0.004482 0.004092 0.000618 -0.000293
# 3 0.000018 -0.004482 0.011454 0.004181 0.004117 -0.000168
# 4 0.000914 0.004092 0.004181 0.046386 0.020167 -0.002104
# 5 0.010755 0.000618 0.004117 0.020167 0.049022 0.001935
# 6 0.007778 -0.000293 -0.000168 -0.002104 0.001935 0.040388
#
#
# Mechanical properties :
#
#
# Convention : Reuss Voigt Hill
#
# Bulk Modulus (GPa) = 32.27191 45.22600 38.74895
# Shear Modulus (GPa) = 23.62774 29.15185 26.38980
#
# Velocity S-wave (km/s) = 3.19245 3.54605 3.37389
# Velocity P-wave (km/s) = 5.24493 6.02279 5.64727
#
# Compressibility (1/GPa) = 0.03098670
#
# Stress axis : x y z
#
# Youngs Moduli (GPa) = 45.03822 68.57989 87.30884
#
# Poissons Ratio (x) = 0.28539 -0.00157
# Poissons Ratio (y) = 0.18742 0.39136
# Poissons Ratio (z) = -0.00081 0.30741
#
# Static dielectric constant tensor:
#      x y z
#    x 4.261650 -0.210980 -0.053090 
#    y -0.210980 3.948740 0.043720 
#    z -0.053090 0.043720 4.312850 
# 
# 
# High freq. dielectric constant tensor:
#      x y z
#    x 1.925590 -0.006830 -0.002480 
#    y -0.006830 1.901230 -0.000890 
#    z -0.002480 -0.000890 1.927930 
# 
# From -- ./inp_files/242570.got.cif
#   From: 2010.06.25/outbox.cif.g09.slc.cpg/sg2_122_cif.got.tgz:242570.got - 2010.06.27 13:26:56.
