data_PCOD8023897
_publ_section_title
;
Structure prediction by ZEFSAII (Michael W. Deem and Ramdas Pophale) SiO2 
 PCOD8023897
Probable space group: P -1
;
_chemical_formula_sum "Si O2"
_cell_formula_units_Z 16
_cell_length_a 9.430705
_cell_length_b 18.609781
_cell_length_c 6.907745
_cell_angle_alpha 127.340318
_cell_angle_beta 64.425385
_cell_angle_gamma 125.851449
_cell_volume 775.730583
_symmetry_space_group_name_H-M "P -1"
_symmetry_group_IT_number 2
_symmetry_cell_setting 'triclinic'
loop_
_space_group_symop_operation_xyz
x,y,z
-x,-y,-z
loop_
_atom_site_type_symbol
_atom_site_label
_atom_site_fract_x
_atom_site_fract_y
_atom_site_fract_z
Si Si1 0.372014 0.779699 0.392623
Si Si2 0.495047 0.305690 0.488513
Si Si3 0.962883 0.825069 0.956614
Si Si4 0.826149 0.504872 0.539905
Si Si5 0.802250 0.660466 0.096422
Si Si6 0.350910 0.156844 0.991062
Si Si7 0.651831 0.035282 0.126029
Si Si8 0.976028 0.664123 0.399193
O O1 0.446038 0.760350 0.517276
O O2 0.365776 0.886266 0.587377
O O3 0.179876 0.687812 0.319461
O O4 0.491660 0.781005 0.146575
O O5 0.666065 0.393752 0.432265
O O6 0.387723 0.353214 0.747160
O O7 0.368839 0.231188 0.278499
O O8 0.834311 0.874612 0.059532
O O9 0.160216 0.913779 0.010995
O O10 0.950382 0.750389 0.669161
O O11 0.907709 0.766832 0.097544
O O12 0.000000 0.500000 0.500000
O O13 0.860671 0.556115 0.391982
O O14 0.769916 0.567474 0.825426
O O15 0.918651 0.658943 0.204605
O O16 0.361733 0.057212 0.889207
O O17 0.500000 0.000000 0.000000
#
# Coordination Sequence:
#
# PCOD8023897 Si02
#       8
#     2   2   2   2   2   2   2   2
#     4  11  24  42  67  96 134 170 217 266 323 383
#     4  12  24  44  65  97 133 172 219 267 319 384
#     4  10  23  44  65  95 131 167 215 266 318 389
#     4  11  25  42  66  99 134 166 219 271 317 387
#     4  11  24  44  68  94 132 172 216 265 327 379
#     4  12  24  43  68  93 132 176 215 266 325 381
#     4  11  24  43  67  99 131 167 215 272 322 383
#     4  10  23  42  67  95 128 173 213 264 324 381
#
# _framework density 20.625717000000002
#
# number of rings (size 3 to 8) (size 9 to 14) (size 15 to 20)
#    0.000    1.000    5.000    1.125    3.500    2.000 
#    0.000    1.250    0.000    0.000    0.000    0.000 
#    0.000    0.000    0.000    0.000    0.000    0.000 
#
# Total GULP energy -198500.277618 kJ/mol
# GULP energy per Si atom -12406.267351 kJ/mol
# Density = 2.057877 g / cm^3
# Si number density = 20.625717 Si / 1000 Ang^3
#
#
#
# Elastic Constant Matrix: (Units=GPa)
#
#
# Indices 1 2 3 4 5 6 
#
# 1 133.5806 53.1949 41.8098 -12.4177 -2.3349 -5.3617
# 2 53.1949 124.7209 37.3071 -12.7069 6.7118 -2.4149
# 3 41.8098 37.3071 53.1554 -10.6846 1.6931 -5.5357
# 4 -12.4177 -12.7069 -10.6846 31.4945 -3.7701 -0.8713
# 5 -2.3349 6.7118 1.6931 -3.7701 38.1391 -8.6768
# 6 -5.3617 -2.4149 -5.5357 -0.8713 -8.6768 36.4709
#
#
#
# Elastic Compliance Matrix: (Units=1/GPa)
#
#
# Indices 1 2 3 4 5 6 
#
# 1 0.010675 -0.002627 -0.006263 0.001254 0.001719 0.000884
# 2 -0.002627 0.010975 -0.005408 0.001301 -0.001930 -0.000908
# 3 -0.006263 -0.005408 0.028939 0.005329 0.000579 0.003379
# 4 0.001254 0.001301 0.005329 0.035102 0.003719 0.002803
# 5 0.001719 -0.001930 0.000579 0.003719 0.028625 0.007112
# 6 0.000884 -0.000908 0.003379 0.002803 0.007112 0.029761
#
#
# Mechanical properties :
#
#
# Convention : Reuss Voigt Hill
#
# Bulk Modulus (GPa) = 45.46968 64.00896 54.73932
# Shear Modulus (GPa) = 27.77732 33.16389 30.47060
#
# Velocity S-wave (km/s) = 3.67377 4.01420 3.84775
# Velocity P-wave (km/s) = 6.33154 7.25162 6.80714
#
# Compressibility (1/GPa) = 0.02199268
#
# Stress axis : x y z
#
# Youngs Moduli (GPa) = 93.67960 91.11715 34.55513
#
# Poissons Ratio (x) = 0.23937 0.21642
# Poissons Ratio (y) = 0.24610 0.18687
# Poissons Ratio (z) = 0.58672 0.49276
#
# Static dielectric constant tensor:
#      x y z
#    x 3.848650 -0.000400 -0.140430 
#    y -0.000400 3.891560 -0.116160 
#    z -0.140430 -0.116160 3.579750 
# 
# 
# High freq. dielectric constant tensor:
#      x y z
#    x 1.822660 -0.003760 -0.009050 
#    y -0.003760 1.815230 -0.010010 
#    z -0.009050 -0.010010 1.800500 
# 
# From -- ./inp_files/37232.got.cif
#   From: 2010.06.25/outbox.cif.g09.slc.cpg/sg2_19_cif.got.tgz:37232.got - 2010.06.27 13:26:56.
