data_PCOD8023522
_publ_section_title
;
Structure prediction by ZEFSAII (Michael W. Deem and Ramdas Pophale) SiO2 
 PCOD8023522
Probable space group: P -1
;
_chemical_formula_sum "Si O2"
_cell_formula_units_Z 16
_cell_length_a 17.461421
_cell_length_b 12.152362
_cell_length_c 19.787457
_cell_angle_alpha 142.026759
_cell_angle_beta 21.018448
_cell_angle_gamma 149.192408
_cell_volume 769.235889
_symmetry_space_group_name_H-M "P -1"
_symmetry_group_IT_number 2
_symmetry_cell_setting 'triclinic'
loop_
_space_group_symop_operation_xyz
x,y,z
-x,-y,-z
loop_
_atom_site_type_symbol
_atom_site_label
_atom_site_fract_x
_atom_site_fract_y
_atom_site_fract_z
Si Si1 0.458038 0.270111 0.100329
Si Si2 0.698716 0.726224 0.559143
Si Si3 0.154063 0.317692 0.257436
Si Si4 0.836504 0.051492 0.979597
Si Si5 0.946752 0.199579 0.806863
Si Si6 0.257092 0.749001 0.340432
Si Si7 0.132493 0.802758 0.331068
Si Si8 0.759847 0.507077 0.092047
O O1 0.340887 0.348351 0.179313
O O2 0.561574 0.432277 0.156846
O O3 0.248795 0.026303 0.180658
O O4 0.688398 0.272621 0.877430
O O5 0.401335 0.536748 0.726736
O O6 0.773818 0.725772 0.418368
O O7 0.878558 0.686151 0.438621
O O8 0.718707 0.940342 0.669904
O O9 0.277644 0.543448 0.226333
O O10 0.868555 0.235119 0.479625
O O11 0.120615 0.141538 0.145934
O O12 0.916023 0.157205 0.891041
O O13 0.021669 0.238470 0.970480
O O14 0.541724 0.963012 0.197120
O O15 0.895378 0.378910 0.916863
O O16 0.067135 0.725453 0.425457
#
# Coordination Sequence:
#
# PCOD8023522 Si02
#       8
#     2   2   2   2   2   2   2   2
#     4  11  20  38  62  88 117 154 207 238 285 342
#     4  11  22  34  58  90 121 157 196 239 289 331
#     4  10  23  41  69  88 108 149 203 251 287 354
#     4  11  24  38  59  88 125 152 189 245 301 347
#     4  11  21  37  58  86 117 163 204 234 277 350
#     4  11  21  42  68  88 111 148 204 245 297 342
#     4  11  19  35  64  89 115 153 201 252 272 339
#     4  12  23  37  55  88 128 158 189 239 296 349
#
# _framework density 20.799861
#
# number of rings (size 3 to 8) (size 9 to 14) (size 15 to 20)
#    0.000    1.000    5.000    4.875    0.000    1.500 
#    0.000    0.625    0.000    2.250    0.000    0.000 
#    0.000    0.000    0.000    0.000    0.000    0.000 
#
# Total GULP energy -198389.490968 kJ/mol
# GULP energy per Si atom -12399.343186 kJ/mol
# Density = 2.075252 g / cm^3
# Si number density = 20.799861 Si / 1000 Ang^3
#
#
#
# Elastic Constant Matrix: (Units=GPa)
#
#
# Indices 1 2 3 4 5 6 
#
# 1 45.6174 44.0128 19.3319 -3.1626 -0.1223 1.8571
# 2 44.0128 99.7696 22.8188 -5.5986 -15.2823 5.9772
# 3 19.3319 22.8188 80.9612 -9.0466 6.2414 1.7647
# 4 -3.1626 -5.5986 -9.0466 25.7585 -10.2078 -4.6271
# 5 -0.1223 -15.2823 6.2414 -10.2078 24.6274 3.1751
# 6 1.8571 5.9772 1.7647 -4.6271 3.1751 27.2070
#
#
#
# Elastic Compliance Matrix: (Units=1/GPa)
#
#
# Indices 1 2 3 4 5 6 
#
# 1 0.043170 -0.020821 -0.004041 -0.005915 -0.014465 0.002572
# 2 -0.020821 0.023314 -0.002013 0.008545 0.018974 -0.004331
# 3 -0.004041 -0.002013 0.014474 0.002732 -0.003895 0.000698
# 4 -0.005915 0.008545 0.002732 0.051768 0.025500 0.004178
# 5 -0.014465 0.018974 -0.003895 0.025500 0.064656 -0.006137
# 6 0.002572 -0.004331 0.000698 0.004178 -0.006137 0.038913
#
#
# Mechanical properties :
#
#
# Convention : Reuss Voigt Hill
#
# Bulk Modulus (GPa) = 36.75577 44.29724 40.52650
# Shear Modulus (GPa) = 16.71600 24.86424 20.79012
#
# Velocity S-wave (km/s) = 2.83796 3.46121 3.16497
# Velocity P-wave (km/s) = 5.33369 6.10872 5.73431
#
# Compressibility (1/GPa) = 0.02720662
#
# Stress axis : x y z
#
# Youngs Moduli (GPa) = 23.16448 42.89242 69.08842
#
# Poissons Ratio (x) = 0.89308 0.27921
# Poissons Ratio (y) = 0.48232 0.13906
# Poissons Ratio (z) = 0.09362 0.08634
#
# Static dielectric constant tensor:
#      x y z
#    x 3.714690 -0.063220 0.080590 
#    y -0.063220 3.672600 0.094660 
#    z 0.080590 0.094660 4.024220 
# 
# 
# High freq. dielectric constant tensor:
#      x y z
#    x 1.789980 -0.008800 0.011150 
#    y -0.008800 1.789130 0.012310 
#    z 0.011150 0.012310 1.837980 
# 
# From -- ./inp_files/464523.got.cif
#   From: 2010.06.25/outbox.cif.g09.slc.cpg/sg2_233_cif.got.tgz:464523.got - 2010.06.27 13:26:56.
