data_PCOD8023842
_publ_section_title
;
Structure prediction by ZEFSAII (Michael W. Deem and Ramdas Pophale) SiO2 
 PCOD8023842
Probable space group: P -1
;
_chemical_formula_sum "Si O2"
_cell_formula_units_Z 16
_cell_length_a 11.948457
_cell_length_b 11.716453
_cell_length_c 14.548274
_cell_angle_alpha 29.275609
_cell_angle_beta 63.952775
_cell_angle_gamma 81.047535
_cell_volume 765.597002
_symmetry_space_group_name_H-M "P -1"
_symmetry_group_IT_number 2
_symmetry_cell_setting 'triclinic'
loop_
_space_group_symop_operation_xyz
x,y,z
-x,-y,-z
loop_
_atom_site_type_symbol
_atom_site_label
_atom_site_fract_x
_atom_site_fract_y
_atom_site_fract_z
Si Si1 0.263856 0.662121 0.558197
Si Si2 0.836647 0.129934 0.389470
Si Si3 0.289304 0.255743 0.960572
Si Si4 0.207617 0.734132 0.247535
Si Si5 0.835927 0.566755 0.959243
Si Si6 0.032407 0.299625 0.756626
Si Si7 0.517221 0.161781 0.023662
Si Si8 0.643897 0.520696 0.896887
O O1 0.243606 0.852515 0.503247
O O2 0.315354 0.474977 0.719652
O O3 0.109229 0.478213 0.693501
O O4 0.388262 0.851884 0.307263
O O5 0.825319 0.298508 0.192040
O O6 0.753805 0.818027 0.606782
O O7 0.003760 0.232124 0.280050
O O8 0.193743 0.266012 0.070777
O O9 0.446866 0.329754 0.889986
O O10 0.201330 0.951816 0.164297
O O11 0.137181 0.441739 0.529976
O O12 0.374563 0.844737 0.085180
O O13 0.117487 0.708277 0.205488
O O14 0.718705 0.457329 0.997869
O O15 0.000000 0.000000 0.000000
O O16 0.607092 0.301035 0.985416
O O17 0.500000 0.500000 0.000000
#
# Coordination Sequence:
#
# PCOD8023842 Si02
#       8
#     2   2   2   2   2   2   2   2
#     4  11  23  41  69  92 132 169 215 264 327 379
#     4  10  23  42  66  97 126 168 214 271 315 382
#     4  11  22  42  67  92 129 171 213 266 318 377
#     4  11  26  43  68  95 130 169 213 268 319 378
#     4  10  23  42  67  95 126 169 217 265 321 374
#     4  11  24  45  66  96 127 167 217 269 319 375
#     4  12  26  43  63  98 132 174 214 262 314 391
#     4  12  23  41  64  92 130 170 213 256 324 376
#
# _framework density 20.898721999999999
#
# number of rings (size 3 to 8) (size 9 to 14) (size 15 to 20)
#    0.000    1.000    5.000    0.750    1.750    5.000 
#    2.250    0.000    0.000    0.000    0.000    0.000 
#    0.000    0.000    0.000    0.000    0.000    0.000 
#
# Total GULP energy -198463.104547 kJ/mol
# GULP energy per Si atom -12403.944034 kJ/mol
# Density = 2.085116 g / cm^3
# Si number density = 20.898722 Si / 1000 Ang^3
#
#
#
# Elastic Constant Matrix: (Units=GPa)
#
#
# Indices 1 2 3 4 5 6 
#
# 1 145.6162 22.4603 36.0100 5.9182 2.8449 12.8709
# 2 22.4603 51.0572 13.3965 -6.4251 4.4257 5.7963
# 3 36.0100 13.3965 91.0808 3.1929 4.8292 -1.3777
# 4 5.9182 -6.4251 3.1929 32.8328 -0.2905 -13.7534
# 5 2.8449 4.4257 4.8292 -0.2905 36.6311 -0.2201
# 6 12.8709 5.7963 -1.3777 -13.7534 -0.2201 33.6276
#
#
#
# Elastic Compliance Matrix: (Units=1/GPa)
#
#
# Indices 1 2 3 4 5 6 
#
# 1 0.008581 -0.002983 -0.002892 -0.003692 0.000020 -0.004398
# 2 -0.002983 0.022350 -0.002173 0.004737 -0.002150 -0.000877
# 3 -0.002892 -0.002173 0.012544 -0.000364 -0.001158 0.001839
# 4 -0.003692 0.004737 -0.000364 0.039015 0.000171 0.016539
# 5 0.000020 -0.002150 -0.001158 0.000171 0.027715 0.000567
# 6 -0.004398 -0.000877 0.001839 0.016539 0.000567 0.038416
#
#
# Mechanical properties :
#
#
# Convention : Reuss Voigt Hill
#
# Bulk Modulus (GPa) = 36.52433 47.94308 42.23371
# Shear Modulus (GPa) = 28.76140 35.01079 31.88609
#
# Velocity S-wave (km/s) = 3.71378 4.09743 3.91031
# Velocity P-wave (km/s) = 5.99202 6.73615 6.37495
#
# Compressibility (1/GPa) = 0.02737901
#
# Stress axis : x y z
#
# Youngs Moduli (GPa) = 116.53540 44.74225 79.71728
#
# Poissons Ratio (x) = 0.13346 0.23055
# Poissons Ratio (y) = 0.34762 0.17325
# Poissons Ratio (z) = 0.33703 0.09724
#
# Static dielectric constant tensor:
#      x y z
#    x 4.078080 0.149630 0.010810 
#    y 0.149630 3.658970 -0.014500 
#    z 0.010810 -0.014500 3.840830 
# 
# 
# High freq. dielectric constant tensor:
#      x y z
#    x 1.838540 0.011550 0.002000 
#    y 0.011550 1.805570 -0.000970 
#    z 0.002000 -0.000970 1.823440 
# 
# From -- ./inp_files/399384.got.cif
#   From: 2010.06.25/outbox.cif.g09.slc.cpg/sg2_200_cif.got.tgz:399384.got - 2010.06.27 13:26:56.
