data_PCOD8023686
_publ_section_title
;
Structure prediction by ZEFSAII (Michael W. Deem and Ramdas Pophale) SiO2 
 PCOD8023686
Probable space group: P -1
;
_chemical_formula_sum "Si O2"
_cell_formula_units_Z 16
_cell_length_a 9.067637
_cell_length_b 13.536930
_cell_length_c 6.671412
_cell_angle_alpha 89.114950
_cell_angle_beta 81.417642
_cell_angle_gamma 116.535236
_cell_volume 721.307457
_symmetry_space_group_name_H-M "P -1"
_symmetry_group_IT_number 2
_symmetry_cell_setting 'triclinic'
loop_
_space_group_symop_operation_xyz
x,y,z
-x,-y,-z
loop_
_atom_site_type_symbol
_atom_site_label
_atom_site_fract_x
_atom_site_fract_y
_atom_site_fract_z
Si Si1 0.125768 0.174418 0.484594
Si Si2 0.359765 0.300325 0.087692
Si Si3 0.647679 0.392611 0.324383
Si Si4 0.496140 0.972900 0.229424
Si Si5 0.765674 0.009352 0.459162
Si Si6 0.122649 0.625891 0.016102
Si Si7 0.822687 0.643174 0.207479
Si Si8 0.594595 0.272842 0.745468
O O1 0.206834 0.208730 0.247286
O O2 0.184874 0.089969 0.574546
O O3 0.180340 0.275656 0.623108
O O4 0.926453 0.119415 0.493935
O O5 0.496066 0.382355 0.213769
O O6 0.296415 0.369326 0.956082
O O7 0.439165 0.241458 0.928646
O O8 0.764372 0.523648 0.327892
O O9 0.571086 0.331110 0.549177
O O10 0.751203 0.332703 0.201950
O O11 0.688975 0.027494 0.265475
O O12 0.401959 0.841789 0.301468
O O13 0.387841 0.026818 0.352513
O O14 0.500000 0.000000 0.000000
O O15 0.231770 0.639659 0.192943
O O16 0.010383 0.689285 0.074563
O O17 0.000000 0.500000 0.000000
#
# Coordination Sequence:
#
# PCOD8023686 Si02
#       8
#     2   2   2   2   2   2   2   2
#     4  11  24  42  63  91 129 163 204 257 308 366
#     4  11  23  39  62  92 128 164 204 252 302 366
#     4  10  23  42  63  90 128 165 206 254 299 367
#     4  11  23  42  67  92 120 159 209 258 309 365
#     4  10  24  43  64  92 122 160 207 260 311 359
#     4   9  22  40  61  92 125 160 206 254 302 360
#     4  11  23  39  63  94 125 166 206 248 312 369
#     4  11  23  42  66  91 123 168 208 248 310 371
#
# _framework density 22.181940999999998
#
# number of rings (size 3 to 8) (size 9 to 14) (size 15 to 20)
#    0.000    1.500    0.000    4.125    0.000   14.000 
#    0.000    3.125    0.000    0.000    0.000    0.000 
#    0.000    0.000    0.000    0.000    0.000    0.000 
#
# Total GULP energy -198377.255215 kJ/mol
# GULP energy per Si atom -12398.578451 kJ/mol
# Density = 2.213145 g / cm^3
# Si number density = 22.181941 Si / 1000 Ang^3
#
#
#
# Elastic Constant Matrix: (Units=GPa)
#
#
# Indices 1 2 3 4 5 6 
#
# 1 151.5555 36.9597 68.8437 7.0331 5.8514 4.8749
# 2 36.9597 81.5578 42.7383 6.5545 7.7030 2.5366
# 3 68.8437 42.7383 140.3451 7.5741 16.9225 3.0868
# 4 7.0331 6.5545 7.5741 29.3477 -0.5538 -1.5875
# 5 5.8514 7.7030 16.9225 -0.5538 37.4884 3.3366
# 6 4.8749 2.5366 3.0868 -1.5875 3.3366 26.5251
#
#
#
# Elastic Compliance Matrix: (Units=1/GPa)
#
#
# Indices 1 2 3 4 5 6 
#
# 1 0.008835 -0.002020 -0.003752 -0.000744 0.000820 -0.001142
# 2 -0.002020 0.015254 -0.003373 -0.002112 -0.001269 -0.000662
# 3 -0.003752 -0.003373 0.010469 -0.001106 -0.003478 0.000165
# 4 -0.000744 -0.002112 -0.001106 0.035165 0.001355 0.002402
# 5 0.000820 -0.001269 -0.003478 0.001355 0.028678 -0.003151
# 6 -0.001142 -0.000662 0.000165 0.002402 -0.003151 0.038494
#
#
# Mechanical properties :
#
#
# Convention : Reuss Voigt Hill
#
# Bulk Modulus (GPa) = 61.47223 74.50463 67.98843
# Shear Modulus (GPa) = 31.13182 33.66669 32.39925
#
# Velocity S-wave (km/s) = 3.75036 3.90006 3.82594
# Velocity P-wave (km/s) = 6.82104 7.34449 7.08760
#
# Compressibility (1/GPa) = 0.01626751
#
# Stress axis : x y z
#
# Youngs Moduli (GPa) = 113.18813 65.55587 95.52419
#
# Poissons Ratio (x) = 0.13239 0.35845
# Poissons Ratio (y) = 0.22859 0.32221
# Poissons Ratio (z) = 0.42473 0.22112
#
# Static dielectric constant tensor:
#      x y z
#    x 4.460320 0.083960 -0.153590 
#    y 0.083960 3.947130 0.180720 
#    z -0.153590 0.180720 4.060990 
# 
# 
# High freq. dielectric constant tensor:
#      x y z
#    x 1.893970 0.005810 -0.003180 
#    y 0.005810 1.857130 0.017130 
#    z -0.003180 0.017130 1.874490 
# 
# From -- ./inp_files/38648.got.cif
#   From: 2010.06.25/outbox.cif.g09.slc.cpg/sg2_20_cif.got.tgz:38648.got - 2010.06.27 13:26:56.
