data_PCOD8023626
_publ_section_title
;
Structure prediction by ZEFSAII (Michael W. Deem and Ramdas Pophale) SiO2 
 PCOD8023626
Probable space group: P -1
;
_chemical_formula_sum "Si O2"
_cell_formula_units_Z 16
_cell_length_a 9.886606
_cell_length_b 9.873108
_cell_length_c 11.836752
_cell_angle_alpha 137.500483
_cell_angle_beta 119.461059
_cell_angle_gamma 68.875387
_cell_volume 679.631590
_symmetry_space_group_name_H-M "P -1"
_symmetry_group_IT_number 2
_symmetry_cell_setting 'triclinic'
loop_
_space_group_symop_operation_xyz
x,y,z
-x,-y,-z
loop_
_atom_site_type_symbol
_atom_site_label
_atom_site_fract_x
_atom_site_fract_y
_atom_site_fract_z
Si Si1 0.897646 0.169236 0.119864
Si Si2 0.387695 0.258674 0.647676
Si Si3 0.463712 0.936466 0.072104
Si Si4 0.930803 0.571945 0.244845
Si Si5 0.630580 0.558796 0.993441
Si Si6 0.048243 0.131632 0.394241
Si Si7 0.855650 0.304657 0.772160
Si Si8 0.428752 0.853393 0.545080
O O1 0.943189 0.369559 0.195704
O O2 0.943442 0.189607 0.281274
O O3 0.713690 0.125706 0.012928
O O4 0.000000 0.000000 0.000000
O O5 0.469400 0.432340 0.868995
O O6 0.209034 0.259024 0.535455
O O7 0.467507 0.294101 0.579535
O O8 0.440817 0.063499 0.615148
O O9 0.506235 0.122460 0.286447
O O10 0.584746 0.757613 0.030818
O O11 0.500000 0.000000 0.000000
O O12 0.022500 0.761327 0.457048
O O13 0.013770 0.550023 0.141802
O O14 0.745294 0.627556 0.188007
O O15 0.752878 0.416617 0.891285
O O16 0.065524 0.892020 0.260055
O O17 0.746072 0.230138 0.578219
#
# Coordination Sequence:
#
# PCOD8023626 Si02
#       8
#     2   2   2   2   2   2   2   2
#     4  12  28  47  70 100 142 185 227 280 347 409
#     4   9  18  39  69  93 126 167 226 281 334 396
#     4  12  28  43  68  98 141 183 227 288 346 405
#     4  12  25  41  72 100 137 181 230 285 335 411
#     4  11  23  42  67 100 134 173 237 280 341 403
#     4  11  23  42  69 100 137 175 225 282 347 405
#     4  10  23  41  72  99 133 182 225 285 339 408
#     4   9  19  40  64  97 127 172 222 278 337 401
#
# _framework density 23.542166000000002
#
# number of rings (size 3 to 8) (size 9 to 14) (size 15 to 20)
#    0.000    1.250    0.000    6.375    5.250    1.500 
#    0.000    1.250    0.000    0.000    0.000    0.000 
#    0.000    0.000    0.000    0.000    0.000    0.000 
#
# Total GULP energy -198300.844509 kJ/mol
# GULP energy per Si atom -12393.802782 kJ/mol
# Density = 2.348858 g / cm^3
# Si number density = 23.542166 Si / 1000 Ang^3
#
#
#
# Elastic Constant Matrix: (Units=GPa)
#
#
# Indices 1 2 3 4 5 6 
#
# 1 103.1664 39.4612 17.4340 -2.8824 3.4031 9.7167
# 2 39.4612 123.1448 32.3156 -2.8392 4.7183 -11.6407
# 3 17.4340 32.3156 103.9120 -18.0792 7.5233 -2.0381
# 4 -2.8824 -2.8392 -18.0792 40.6683 -4.4393 -0.6092
# 5 3.4031 4.7183 7.5233 -4.4393 35.0084 4.4516
# 6 9.7167 -11.6407 -2.0381 -0.6092 4.4516 28.4780
#
#
#
# Elastic Compliance Matrix: (Units=1/GPa)
#
#
# Indices 1 2 3 4 5 6 
#
# 1 0.011986 -0.004194 -0.000823 0.000140 0.000347 -0.005914
# 2 -0.004194 0.010717 -0.002548 -0.000739 -0.001323 0.005820
# 3 -0.000823 -0.002548 0.011491 0.004714 -0.001499 0.000397
# 4 0.000140 -0.000739 0.004714 0.026915 0.002463 0.000178
# 5 0.000347 -0.001323 -0.001499 0.002463 0.030031 -0.005408
# 6 -0.005914 0.005820 0.000397 0.000178 -0.005408 0.040389
#
#
# Mechanical properties :
#
#
# Convention : Reuss Voigt Hill
#
# Bulk Modulus (GPa) = 52.45768 56.51607 54.48688
# Shear Modulus (GPa) = 32.67693 36.89844 34.78768
#
# Velocity S-wave (km/s) = 3.72965 3.96325 3.84822
# Velocity P-wave (km/s) = 6.39358 6.70832 6.55284
#
# Compressibility (1/GPa) = 0.01906299
#
# Stress axis : x y z
#
# Youngs Moduli (GPa) = 83.43170 93.31115 87.02812
#
# Poissons Ratio (x) = 0.39133 0.07167
# Poissons Ratio (y) = 0.34990 0.22173
# Poissons Ratio (z) = 0.06870 0.23774
#
# Static dielectric constant tensor:
#      x y z
#    x 4.533150 -0.171980 -0.087510 
#    y -0.171980 3.850190 0.015040 
#    z -0.087510 0.015040 5.060760 
# 
# 
# High freq. dielectric constant tensor:
#      x y z
#    x 1.965010 -0.006950 -0.007070 
#    y -0.006950 1.896830 -0.000970 
#    z -0.007070 -0.000970 1.976070 
# 
# From -- ./inp_files/420123.got.cif
#   From: 2010.06.25/outbox.cif.g09.slc.cpg/sg2_211_cif.got.tgz:420123.got - 2010.06.27 13:26:56.
