data_PCOD8023191
_publ_section_title
;
Structure prediction by ZEFSAII (Michael W. Deem and Ramdas Pophale) SiO2 
 PCOD8023191
Probable space group: P -1
;
_chemical_formula_sum "Si O2"
_cell_formula_units_Z 14
_cell_length_a 6.154386
_cell_length_b 18.373648
_cell_length_c 8.818750
_cell_angle_alpha 127.125017
_cell_angle_beta 56.586358
_cell_angle_gamma 96.216643
_cell_volume 624.932702
_symmetry_space_group_name_H-M "P -1"
_symmetry_group_IT_number 2
_symmetry_cell_setting 'triclinic'
loop_
_space_group_symop_operation_xyz
x,y,z
-x,-y,-z
loop_
_atom_site_type_symbol
_atom_site_label
_atom_site_fract_x
_atom_site_fract_y
_atom_site_fract_z
Si Si1 0.875269 0.234042 0.387320
Si Si2 0.940122 0.937843 0.312477
Si Si3 0.175897 0.539012 0.809023
Si Si4 0.559098 0.126140 0.574175
Si Si5 0.523918 0.807559 0.965186
Si Si6 0.619772 0.345850 0.332261
Si Si7 0.197044 0.568854 0.178205
O O1 0.684406 0.179789 0.469181
O O2 0.762305 0.268561 0.308098
O O3 0.859177 0.324049 0.610091
O O4 0.200912 0.167649 0.157712
O O5 0.746356 0.874554 0.357897
O O6 0.768742 0.014521 0.348734
O O7 0.000000 0.000000 0.500000
O O8 0.246038 0.869878 0.056723
O O9 0.468911 0.451561 0.596116
O O10 0.156193 0.633864 0.838316
O O11 0.975927 0.489177 0.743347
O O12 0.089809 0.580500 0.061368
O O13 0.535209 0.176983 0.812598
O O14 0.572380 0.696741 0.753849
O O15 0.500000 0.500000 0.000000
#
# Coordination Sequence:
#
# PCOD8023191 Si02
#       7
#     2   2   2   2   2   2   2
#     4  12  25  40  66 102 130 171 226 271 324 386
#     4   9  21  45  72  96 129 173 209 264 336 395
#     4  10  23  41  61  86 129 174 220 266 321 378
#     4  10  23  45  70  97 133 170 214 268 329 398
#     4  11  23  43  65 100 134 168 222 266 329 389
#     4  11  23  40  61  92 129 172 217 270 320 376
#     4  11  22  41  62  91 127 173 223 269 322 379
#
# _framework density 22.402414
#
# number of rings (size 3 to 8) (size 9 to 14) (size 15 to 20)
#    0.000    1.429    2.857    1.714    0.000    6.857 
#    0.000   10.000    0.000    0.000    0.000    0.000 
#    0.000    0.000    0.000    0.000    0.000    0.000 
#
# Total GULP energy -173437.579791 kJ/mol
# GULP energy per Si atom -12388.398556 kJ/mol
# Density = 2.235142 g / cm^3
# Si number density = 22.402414 Si / 1000 Ang^3
#
#
#
# Elastic Constant Matrix: (Units=GPa)
#
#
# Indices 1 2 3 4 5 6 
#
# 1 120.2606 67.4047 38.2980 -5.1731 -15.8246 20.8684
# 2 67.4047 149.9972 39.6014 -14.9107 -2.4079 25.9894
# 3 38.2980 39.6014 86.3334 -2.0493 -2.2716 4.9343
# 4 -5.1731 -14.9107 -2.0493 23.4651 5.6544 -2.2989
# 5 -15.8246 -2.4079 -2.2716 5.6544 47.6631 3.4053
# 6 20.8684 25.9894 4.9343 -2.2989 3.4053 36.2230
#
#
#
# Elastic Compliance Matrix: (Units=1/GPa)
#
#
# Indices 1 2 3 4 5 6 
#
# 1 0.013150 -0.004281 -0.003530 -0.001661 0.004504 -0.004552
# 2 -0.004281 0.010533 -0.002595 0.005431 -0.001353 -0.004265
# 3 -0.003530 -0.002595 0.014189 -0.000834 -0.000669 0.001973
# 4 -0.001661 0.005431 -0.000834 0.047136 -0.005961 0.000726
# 5 0.004504 -0.001353 -0.000669 -0.005961 0.023376 -0.004109
# 6 -0.004552 -0.004265 0.001973 0.000726 -0.004109 0.033453
#
#
# Mechanical properties :
#
#
# Convention : Reuss Voigt Hill
#
# Bulk Modulus (GPa) = 58.62091 71.91101 65.26596
# Shear Modulus (GPa) = 29.70202 35.55604 32.62903
#
# Velocity S-wave (km/s) = 3.64516 3.98823 3.82055
# Velocity P-wave (km/s) = 6.62875 7.30598 6.97559
#
# Compressibility (1/GPa) = 0.01705876
#
# Stress axis : x y z
#
# Youngs Moduli (GPa) = 76.04357 94.93876 70.47520
#
# Poissons Ratio (x) = 0.40647 0.24881
# Poissons Ratio (y) = 0.32558 0.18290
# Poissons Ratio (z) = 0.26847 0.24638
#
# Static dielectric constant tensor:
#      x y z
#    x 4.255180 0.208700 -0.170730 
#    y 0.208700 4.039090 0.155960 
#    z -0.170730 0.155960 4.536490 
# 
# 
# High freq. dielectric constant tensor:
#      x y z
#    x 1.890230 0.022810 0.001770 
#    y 0.022810 1.864370 0.008880 
#    z 0.001770 0.008880 1.893460 
# 
# From -- ./inp_files/55704.got.cif
#   From: 2010.06.25/outbox.cif.g09.slc.cpg/sg2_28_cif.got.tgz:55704.got - 2010.06.27 13:26:56.
