data_PCOD8023968
_publ_section_title
;
Structure prediction by ZEFSAII (Michael W. Deem and Ramdas Pophale) SiO2 
 PCOD8023968
Probable space group: P -1
;
_chemical_formula_sum "Si O2"
_cell_formula_units_Z 16
_cell_length_a 15.126988
_cell_length_b 9.033181
_cell_length_c 9.205270
_cell_angle_alpha 68.707969
_cell_angle_beta 109.507978
_cell_angle_gamma 139.848949
_cell_volume 752.371515
_symmetry_space_group_name_H-M "P -1"
_symmetry_group_IT_number 2
_symmetry_cell_setting 'triclinic'
loop_
_space_group_symop_operation_xyz
x,y,z
-x,-y,-z
loop_
_atom_site_type_symbol
_atom_site_label
_atom_site_fract_x
_atom_site_fract_y
_atom_site_fract_z
Si Si1 0.220470 0.839756 0.546153
Si Si2 0.050936 0.402699 0.993984
Si Si3 0.434790 0.065919 0.358424
Si Si4 0.959883 0.661242 0.332724
Si Si5 0.909543 0.925401 0.120262
Si Si6 0.588058 0.873191 0.190249
Si Si7 0.651268 0.202476 0.869166
Si Si8 0.599496 0.562870 0.152994
O O1 0.173867 0.598066 0.589086
O O2 0.088508 0.783667 0.462521
O O3 0.336488 0.036747 0.425854
O O4 0.278214 0.930765 0.707427
O O5 0.208514 0.562914 0.064639
O O6 0.021582 0.361729 0.819675
O O7 0.960748 0.159875 0.117387
O O8 0.000000 0.500000 0.000000
O O9 0.551325 0.332550 0.270861
O O10 0.500000 0.000000 0.500000
O O11 0.334338 0.869123 0.250525
O O12 0.939367 0.822983 0.287763
O O13 0.744266 0.725332 0.089151
O O14 0.000000 0.000000 0.000000
O O15 0.446049 0.762594 0.223440
O O16 0.593554 0.691171 0.228405
O O17 0.590525 0.984928 0.009627
O O18 0.500000 0.500000 0.000000
#
# Coordination Sequence:
#
# PCOD8023968 Si02
#       8
#     2   2   2   2   2   2   2   2
#     4  11  23  43  70  98 142 186 230 284 349 420
#     4  11  22  40  70 100 136 173 241 282 346 409
#     4  12  25  45  70 103 144 183 235 281 358 414
#     4  10  23  42  68  94 139 186 229 279 353 413
#     4  10  25  42  67 101 135 179 232 284 345 410
#     4  11  24  43  70 101 139 181 233 288 351 414
#     4  11  23  41  71 102 135 185 230 291 346 416
#     4  12  27  44  74 104 143 182 237 294 346 415
#
# _framework density 21.266092
#
# number of rings (size 3 to 8) (size 9 to 14) (size 15 to 20)
#    0.000    1.000    3.750    2.250    7.000    0.500 
#    2.250    0.625    0.000    0.000    0.000    0.000 
#    0.000    0.000    0.000    0.000    0.000    0.000 
#
# Total GULP energy -198255.131328 kJ/mol
# GULP energy per Si atom -12390.945708 kJ/mol
# Density = 2.121769 g / cm^3
# Si number density = 21.266092 Si / 1000 Ang^3
#
#
#
# Elastic Constant Matrix: (Units=GPa)
#
#
# Indices 1 2 3 4 5 6 
#
# 1 105.0075 54.1505 33.0503 -5.4799 16.6177 -2.9350
# 2 54.1505 124.4831 42.1877 -17.1082 23.4063 4.6890
# 3 33.0503 42.1877 83.8977 5.4884 23.3367 -6.1008
# 4 -5.4799 -17.1082 5.4884 45.4289 1.6931 3.2317
# 5 16.6177 23.4063 23.3367 1.6931 36.4026 -2.6463
# 6 -2.9350 4.6890 -6.1008 3.2317 -2.6463 33.0573
#
#
#
# Elastic Compliance Matrix: (Units=1/GPa)
#
#
# Indices 1 2 3 4 5 6 
#
# 1 0.012873 -0.004609 -0.002288 0.000054 -0.001357 0.001261
# 2 -0.004609 0.013149 -0.004279 0.005346 -0.004141 -0.003918
# 3 -0.002288 -0.004279 0.017411 -0.003978 -0.006930 0.003451
# 4 0.000054 0.005346 -0.003978 0.024894 -0.002369 -0.004111
# 5 -0.001357 -0.004141 -0.006930 -0.002369 0.035470 0.002259
# 6 0.001261 -0.003918 0.003451 -0.004111 0.002259 0.032138
#
#
# Mechanical properties :
#
#
# Convention : Reuss Voigt Hill
#
# Bulk Modulus (GPa) = 47.43603 63.57392 55.50498
# Shear Modulus (GPa) = 30.24542 35.24440 32.74491
#
# Velocity S-wave (km/s) = 3.77535 4.07542 3.92825
# Velocity P-wave (km/s) = 6.43107 7.21836 6.83606
#
# Compressibility (1/GPa) = 0.02108102
#
# Stress axis : x y z
#
# Youngs Moduli (GPa) = 77.68239 76.04881 57.43447
#
# Poissons Ratio (x) = 0.35053 0.13140
# Poissons Ratio (y) = 0.35806 0.24577
# Poissons Ratio (z) = 0.17772 0.32543
#
# Static dielectric constant tensor:
#      x y z
#    x 5.476510 1.709670 -1.054300 
#    y 1.709670 4.709300 -1.135820 
#    z -1.054300 -1.135820 4.676110 
# 
# 
# High freq. dielectric constant tensor:
#      x y z
#    x 1.835500 0.003900 0.014390 
#    y 0.003900 1.841330 -0.003040 
#    z 0.014390 -0.003040 1.830430 
# 
# From -- ./inp_files/297962.got.cif
#   From: 2010.06.25/outbox.cif.g09.slc.cpg/sg2_149_cif.got.tgz:297962.got - 2010.06.27 13:26:56.
