data_PCOD8023963
_publ_section_title
;
Structure prediction by ZEFSAII (Michael W. Deem and Ramdas Pophale) SiO2 
 PCOD8023963
Probable space group: P -1
;
_chemical_formula_sum "Si O2"
_cell_formula_units_Z 16
_cell_length_a 13.596840
_cell_length_b 12.175465
_cell_length_c 13.453729
_cell_angle_alpha 42.813946
_cell_angle_beta 29.815523
_cell_angle_gamma 54.204998
_cell_volume 743.794071
_symmetry_space_group_name_H-M "P -1"
_symmetry_group_IT_number 2
_symmetry_cell_setting 'triclinic'
loop_
_space_group_symop_operation_xyz
x,y,z
-x,-y,-z
loop_
_atom_site_type_symbol
_atom_site_label
_atom_site_fract_x
_atom_site_fract_y
_atom_site_fract_z
Si Si1 0.740407 0.909842 0.883079
Si Si2 0.192016 0.183144 0.554901
Si Si3 0.737946 0.104669 0.960581
Si Si4 0.392299 0.905930 0.504761
Si Si5 0.455276 0.389949 0.344858
Si Si6 0.551216 0.637611 0.944580
Si Si7 0.580622 0.403087 0.582600
Si Si8 0.815731 0.146994 0.486339
O O1 0.950771 0.853032 0.712956
O O2 0.751787 0.020645 0.897824
O O3 0.690655 0.015956 0.760008
O O4 0.584068 0.746705 0.138764
O O5 0.277708 0.311982 0.478944
O O6 0.257899 0.241528 0.345424
O O7 0.954551 0.154022 0.787220
O O8 0.290907 0.019040 0.595705
O O9 0.634235 0.266064 0.934741
O O10 0.618392 0.980150 0.226964
O O11 0.397391 0.734689 0.668266
O O12 0.258937 0.891502 0.533171
O O13 0.352801 0.463631 0.479358
O O14 0.597497 0.543016 0.066683
O O15 0.500000 0.500000 0.000000
O O16 0.500000 0.500000 0.500000
O O17 0.777314 0.329183 0.426957
#
# Coordination Sequence:
#
# PCOD8023963 Si02
#       8
#     2   2   2   2   2   2   2   2
#     4  11  24  39  68  95 117 168 217 256 312 361
#     4  10  23  42  68  93 123 164 218 255 302 374
#     4  11  21  40  69  92 124 163 210 265 301 370
#     4  11  22  42  64  92 129 160 211 260 310 370
#     4  11  23  42  63  92 131 173 195 256 327 366
#     4   9  22  40  63  92 127 161 206 255 311 366
#     4  12  24  42  63  91 136 162 202 259 318 374
#     4  11  23  41  65  95 121 164 218 261 303 369
#
# _framework density 21.511330000000001
#
# number of rings (size 3 to 8) (size 9 to 14) (size 15 to 20)
#    0.000    1.250    3.750    1.500    3.500    3.000 
#    0.000    5.000    0.000    0.000    0.000    0.000 
#    0.000    0.000    0.000    0.000    0.000    0.000 
#
# Total GULP energy -198383.977622 kJ/mol
# GULP energy per Si atom -12398.998601 kJ/mol
# Density = 2.146237 g / cm^3
# Si number density = 21.511330 Si / 1000 Ang^3
#
#
#
# Elastic Constant Matrix: (Units=GPa)
#
#
# Indices 1 2 3 4 5 6 
#
# 1 99.8427 41.2954 27.8747 -7.5245 7.7740 0.3900
# 2 41.2954 163.5090 40.4600 -8.5285 10.9530 -0.6530
# 3 27.8747 40.4600 56.2642 -1.1052 2.4547 -17.2868
# 4 -7.5245 -8.5285 -1.1052 26.2258 -2.4065 6.6862
# 5 7.7740 10.9530 2.4547 -2.4065 31.5061 -9.3804
# 6 0.3900 -0.6530 -17.2868 6.6862 -9.3804 45.0231
#
#
#
# Elastic Compliance Matrix: (Units=1/GPa)
#
#
# Indices 1 2 3 4 5 6 
#
# 1 0.012866 -0.001281 -0.006407 0.003686 -0.003073 -0.003778
# 2 -0.001281 0.008267 -0.006117 0.002618 -0.002833 -0.003197
# 3 -0.006407 -0.006117 0.028998 -0.005454 0.004881 0.012928
# 4 0.003686 0.002618 -0.005454 0.041901 -0.000713 -0.008459
# 5 -0.003073 -0.002833 0.004881 -0.000713 0.035858 0.009436
# 6 -0.003778 -0.003197 0.012928 -0.008459 0.009436 0.030383
#
#
# Mechanical properties :
#
#
# Convention : Reuss Voigt Hill
#
# Bulk Modulus (GPa) = 44.40421 59.87513 52.13967
# Shear Modulus (GPa) = 25.85445 34.55006 30.20225
#
# Velocity S-wave (km/s) = 3.47060 4.01201 3.75109
# Velocity P-wave (km/s) = 6.06194 7.02540 6.56138
#
# Compressibility (1/GPa) = 0.02252039
#
# Stress axis : x y z
#
# Youngs Moduli (GPa) = 77.72265 120.96854 34.48466
#
# Poissons Ratio (x) = 0.15495 0.22096
# Poissons Ratio (y) = 0.09956 0.21095
# Poissons Ratio (z) = 0.49800 0.73998
#
# Static dielectric constant tensor:
#      x y z
#    x 3.849380 0.066240 0.344750 
#    y 0.066240 4.244400 -0.051400 
#    z 0.344750 -0.051400 4.026190 
# 
# 
# High freq. dielectric constant tensor:
#      x y z
#    x 1.843920 0.005380 0.016010 
#    y 0.005380 1.871240 -0.005240 
#    z 0.016010 -0.005240 1.828910 
# 
# From -- ./inp_files/532311.got.cif
#   From: 2010.06.25/outbox.cif.g09.slc.cpg/sg2_267_cif.got.tgz:532311.got - 2010.06.27 13:26:56.
