data_PCOD8023459
_publ_section_title
;
Structure prediction by ZEFSAII (Michael W. Deem and Ramdas Pophale) SiO2 
 PCOD8023459
Probable space group: P -1
;
_chemical_formula_sum "Si O2"
_cell_formula_units_Z 16
_cell_length_a 13.315559
_cell_length_b 8.545312
_cell_length_c 15.805608
_cell_angle_alpha 74.074254
_cell_angle_beta 153.574327
_cell_angle_gamma 115.746034
_cell_volume 690.830388
_symmetry_space_group_name_H-M "P -1"
_symmetry_group_IT_number 2
_symmetry_cell_setting 'triclinic'
loop_
_space_group_symop_operation_xyz
x,y,z
-x,-y,-z
loop_
_atom_site_type_symbol
_atom_site_label
_atom_site_fract_x
_atom_site_fract_y
_atom_site_fract_z
Si Si1 0.365291 0.178647 0.992095
Si Si2 0.691757 0.005023 0.714366
Si Si3 0.247465 0.238090 0.076859
Si Si4 0.061514 0.644856 0.638403
Si Si5 0.994872 0.779467 0.745573
Si Si6 0.967457 0.260484 0.581079
Si Si7 0.846261 0.435216 0.979873
Si Si8 0.562867 0.869688 0.371599
O O1 0.197375 0.247263 0.801687
O O2 0.248009 0.960874 0.930046
O O3 0.398639 0.250419 0.103266
O O4 0.638158 0.270381 0.143304
O O5 0.672415 0.144790 0.747015
O O6 0.500000 0.000000 0.500000
O O7 0.624589 0.812441 0.738670
O O8 0.968852 0.076327 0.874481
O O9 0.222269 0.419139 0.048460
O O10 0.972671 0.721043 0.639727
O O11 0.966529 0.704400 0.473355
O O12 0.933633 0.425554 0.575432
O O13 0.749940 0.812474 0.574365
O O14 0.985860 0.618761 0.821838
O O15 0.711601 0.076115 0.421717
O O16 0.571575 0.267410 0.785476
O O17 0.000000 0.500000 0.000000
#
# Coordination Sequence:
#
# PCOD8023459 Si02
#       8
#     2   2   2   2   2   2   2   2
#     4  11  23  43  70  98 140 178 228 279 336 406
#     4  11  23  41  68  94 130 177 225 278 338 398
#     4  11  25  42  68 100 131 178 232 273 338 408
#     4  11  23  42  69 100 138 177 229 279 336 404
#     4  11  26  42  68 103 141 181 227 279 344 402
#     4  10  23  41  67  98 133 178 231 272 340 406
#     4  12  26  45  69  98 142 179 231 284 340 405
#     4  11  25  44  66  97 140 177 225 284 337 406
#
# _framework density 23.160533000000001
#
# number of rings (size 3 to 8) (size 9 to 14) (size 15 to 20)
#    0.000    1.000    1.250    5.250    3.500    7.500 
#    0.000    0.000    0.000    0.000    0.000    0.000 
#    0.000    0.000    0.000    0.000    0.000    0.000 
#
# Total GULP energy -198430.068017 kJ/mol
# GULP energy per Si atom -12401.879251 kJ/mol
# Density = 2.310782 g / cm^3
# Si number density = 23.160533 Si / 1000 Ang^3
#
#
#
# Elastic Constant Matrix: (Units=GPa)
#
#
# Indices 1 2 3 4 5 6 
#
# 1 76.2008 34.5922 7.7786 -6.1192 -10.8076 -2.8821
# 2 34.5922 136.7229 35.8056 -15.9985 -19.0635 -8.1113
# 3 7.7786 35.8056 82.3516 -8.9807 -10.1610 16.7497
# 4 -6.1192 -15.9985 -8.9807 43.2856 4.1336 -7.9652
# 5 -10.8076 -19.0635 -10.1610 4.1336 35.9285 -2.9611
# 6 -2.8821 -8.1113 16.7497 -7.9652 -2.9611 29.5816
#
#
#
# Elastic Compliance Matrix: (Units=1/GPa)
#
#
# Indices 1 2 3 4 5 6 
#
# 1 0.015120 -0.003353 0.000288 0.000854 0.002827 0.000904
# 2 -0.003353 0.010713 -0.004899 0.003361 0.003451 0.006635
# 3 0.000288 -0.004899 0.016531 -0.000428 0.001334 -0.010657
# 4 0.000854 0.003361 -0.000428 0.025920 -0.000388 0.008188
# 5 0.002827 0.003451 0.001334 -0.000388 0.031223 0.003487
# 6 0.000904 0.006635 -0.010657 0.008188 0.003487 0.044300
#
#
# Mechanical properties :
#
#
# Convention : Reuss Voigt Hill
#
# Bulk Modulus (GPa) = 37.82641 50.18089 44.00365
# Shear Modulus (GPa) = 29.66521 36.23239 32.94880
#
# Velocity S-wave (km/s) = 3.58278 3.95954 3.77586
# Velocity P-wave (km/s) = 5.78643 6.52821 6.16848
#
# Compressibility (1/GPa) = 0.02643655
#
# Stress axis : x y z
#
# Youngs Moduli (GPa) = 66.13893 93.34207 60.49192
#
# Poissons Ratio (x) = 0.31299 -0.01742
# Poissons Ratio (y) = 0.22177 0.29632
# Poissons Ratio (z) = -0.01904 0.45724
#
# Static dielectric constant tensor:
#      x y z
#    x 4.211380 -0.107510 -0.033230 
#    y -0.107510 4.393290 -0.045260 
#    z -0.033230 -0.045260 4.176920 
# 
# 
# High freq. dielectric constant tensor:
#      x y z
#    x 1.907730 -0.003920 -0.004830 
#    y -0.003920 1.926850 -0.008250 
#    z -0.004830 -0.008250 1.927670 
# 
# From -- ./inp_files/515580.got.cif
#   From: 2010.06.25/outbox.cif.g09.slc.cpg/sg2_258_cif.got.tgz:515580.got - 2010.06.27 13:26:56.
