data_PCOD8023053
_publ_section_title
;
Structure prediction by ZEFSAII (Michael W. Deem and Ramdas Pophale) SiO2 
 PCOD8023053
Probable space group: P -1
;
_chemical_formula_sum "Si O2"
_cell_formula_units_Z 12
_cell_length_a 6.508856
_cell_length_b 10.035054
_cell_length_c 9.101622
_cell_angle_alpha 105.688904
_cell_angle_beta 70.320016
_cell_angle_gamma 84.014388
_cell_volume 526.247270
_symmetry_space_group_name_H-M "P -1"
_symmetry_group_IT_number 2
_symmetry_cell_setting 'triclinic'
loop_
_space_group_symop_operation_xyz
x,y,z
-x,-y,-z
loop_
_atom_site_type_symbol
_atom_site_label
_atom_site_fract_x
_atom_site_fract_y
_atom_site_fract_z
Si Si1 0.545325 0.426673 0.153465
Si Si2 0.726932 0.812480 0.383182
Si Si3 0.094226 0.691702 0.754493
Si Si4 0.896361 0.363627 0.584313
Si Si5 0.763691 0.109393 0.415255
Si Si6 0.307358 0.324866 0.948761
O O1 0.656977 0.371267 0.263227
O O2 0.705602 0.517044 0.063793
O O3 0.293002 0.514396 0.265909
O O4 0.510078 0.299771 0.013307
O O5 0.883143 0.671889 0.375522
O O6 0.502134 0.858424 0.546771
O O7 0.654302 0.785444 0.226436
O O8 0.850004 0.945498 0.390538
O O9 0.100260 0.852215 0.749336
O O10 0.049181 0.601661 0.591418
O O11 0.920593 0.689628 0.923273
O O12 0.802714 0.218475 0.565498
#
# Coordination Sequence:
#
# PCOD8023053 Si02
#       6
#     2   2   2   2   2   2
#     4  11  24  42  61  92 131 160 209 242 319 368
#     4  11  22  43  68  89 123 165 211 243 315 364
#     4  10  24  40  64  95 124 160 205 259 307 355
#     4  10  23  40  66  91 121 165 204 256 297 369
#     4   9  23  43  64  93 121 163 208 255 299 371
#     4  11  25  39  64  91 126 170 195 261 305 367
#
# _framework density 22.802969999999998
#
# number of rings (size 3 to 8) (size 9 to 14) (size 15 to 20)
#    1.000    0.667    1.667    1.500    9.333    1.333 
#    0.000    0.833    0.000    0.000    0.000    0.000 
#    0.000    0.000    0.000    0.000    0.000    0.000 
#
# Total GULP energy -148667.583659 kJ/mol
# GULP energy per Si atom -12388.965305 kJ/mol
# Density = 2.275107 g / cm^3
# Si number density = 22.802970 Si / 1000 Ang^3
#
#
#
# Elastic Constant Matrix: (Units=GPa)
#
#
# Indices 1 2 3 4 5 6 
#
# 1 65.4495 6.2590 24.2562 -13.1169 -0.1149 -11.0685
# 2 6.2590 20.0849 13.6649 -17.7204 -12.6102 -9.5885
# 3 24.2562 13.6649 90.2091 -17.0884 5.5395 1.8753
# 4 -13.1169 -17.7204 -17.0884 28.9933 11.9288 5.2668
# 5 -0.1149 -12.6102 5.5395 11.9288 49.1497 -6.5709
# 6 -11.0685 -9.5885 1.8753 5.2668 -6.5709 35.2404
#
#
#
# Elastic Compliance Matrix: (Units=1/GPa)
#
#
# Indices 1 2 3 4 5 6 
#
# 1 0.019833 0.013406 -0.005597 0.011160 0.002611 0.008994
# 2 0.013406 0.166025 -0.017272 0.075968 0.032146 0.044944
# 3 -0.005597 -0.017272 0.016098 0.001211 -0.007748 -0.008940
# 4 0.011160 0.075968 0.001211 0.084397 0.000445 0.011580
# 5 0.002611 0.032146 -0.007748 0.000445 0.031475 0.015781
# 6 0.008994 0.044944 -0.008940 0.011580 0.015781 0.045118
#
#
# Mechanical properties :
#
#
# Convention : Reuss Voigt Hill
#
# Bulk Modulus (GPa) = 5.46358 29.34483 17.40421
# Shear Modulus (GPa) = 11.28972 31.44757 21.36865
#
# Velocity S-wave (km/s) = 2.22750 3.71765 3.06453
# Velocity P-wave (km/s) = 3.00281 5.59685 4.49119
#
# Compressibility (1/GPa) = 0.18303003
#
# Stress axis : x y z
#
# Youngs Moduli (GPa) = 50.42017 6.02320 62.12069
#
# Poissons Ratio (x) = -0.08075 0.34769
# Poissons Ratio (y) = -0.67593 1.07294
# Poissons Ratio (z) = 0.28220 0.10403
#
# Static dielectric constant tensor:
#      x y z
#    x 4.156960 0.259760 0.265700 
#    y 0.259760 3.913120 -0.195180 
#    z 0.265700 -0.195180 3.958240 
# 
# 
# High freq. dielectric constant tensor:
#      x y z
#    x 1.910700 0.025150 0.011520 
#    y 0.025150 1.878600 -0.019750 
#    z 0.011520 -0.019750 1.889050 
# 
# From -- ./inp_files/131089.got.cif
#   From: 2010.06.25/outbox.cif.g09.slc.cpg/sg2_66_cif.got.tgz:131089.got - 2010.06.27 13:26:56.
