data_PCOD8023894
_publ_section_title
;
Structure prediction by ZEFSAII (Michael W. Deem and Ramdas Pophale) SiO2 
 PCOD8023894
Probable space group: P -1
;
_chemical_formula_sum "Si O2"
_cell_formula_units_Z 16
_cell_length_a 21.376895
_cell_length_b 13.093550
_cell_length_c 18.627398
_cell_angle_alpha 24.959846
_cell_angle_beta 18.909134
_cell_angle_gamma 27.306352
_cell_volume 694.567257
_symmetry_space_group_name_H-M "P -1"
_symmetry_group_IT_number 2
_symmetry_cell_setting 'triclinic'
loop_
_space_group_symop_operation_xyz
x,y,z
-x,-y,-z
loop_
_atom_site_type_symbol
_atom_site_label
_atom_site_fract_x
_atom_site_fract_y
_atom_site_fract_z
Si Si1 0.022225 0.205831 0.943619
Si Si2 0.092158 0.056061 0.116530
Si Si3 0.165337 0.013670 0.218540
Si Si4 0.165499 0.247559 0.213379
Si Si5 0.690486 0.052253 0.314970
Si Si6 0.554461 0.602941 0.080963
Si Si7 0.161258 0.310916 0.399746
Si Si8 0.513575 0.778391 0.791213
O O1 0.977506 0.485684 0.785581
O O2 0.230504 0.052398 0.782617
O O3 0.001527 0.233370 0.035726
O O4 0.863124 0.061014 0.178385
O O5 0.134407 0.163780 0.080070
O O6 0.953648 0.865140 0.406141
O O7 0.299415 0.935974 0.934723
O O8 0.342316 0.762433 0.181682
O O9 0.952369 0.955445 0.503708
O O10 0.218200 0.198101 0.103439
O O11 0.372031 0.235841 0.038382
O O12 0.542603 0.327483 0.295757
O O13 0.576446 0.845012 0.600347
O O14 0.724664 0.549406 0.869022
O O15 0.326680 0.146987 0.376076
O O16 0.000000 0.500000 0.500000
O O17 0.500000 0.500000 0.000000
#
# Coordination Sequence:
#
# PCOD8023894 Si02
#       8
#     2   2   2   2   2   2   2   2
#     4  10  23  42  67  94 136 176 208 272 333 388
#     4  12  24  40  65  94 130 173 217 273 323 386
#     4  11  24  43  68  97 126 173 232 271 323 386
#     4  10  24  44  67  94 131 174 222 280 323 378
#     4  10  24  41  65 100 135 170 214 262 334 402
#     4  11  23  43  70  96 134 174 214 275 324 393
#     4  12  23  40  62  96 137 173 212 260 330 396
#     4  12  26  39  63  96 135 177 214 259 325 404
#
# _framework density 23.035927000000001
#
# number of rings (size 3 to 8) (size 9 to 14) (size 15 to 20)
#    0.000    1.000    5.000    1.125    7.000    1.000 
#    0.000    0.000    0.000    2.250    0.000    0.000 
#    0.000    0.000    0.000    0.000    0.000    0.000 
#
# Total GULP energy -198238.741526 kJ/mol
# GULP energy per Si atom -12389.921345 kJ/mol
# Density = 2.298350 g / cm^3
# Si number density = 23.035927 Si / 1000 Ang^3
#
#
#
# Elastic Constant Matrix: (Units=GPa)
#
#
# Indices 1 2 3 4 5 6 
#
# 1 138.5823 6.7812 28.7149 3.9672 6.1744 9.5221
# 2 6.7812 47.7958 12.4394 1.6855 3.7206 3.1376
# 3 28.7149 12.4394 95.0886 -2.2728 12.0710 1.6847
# 4 3.9672 1.6855 -2.2728 22.3176 -4.8241 1.2108
# 5 6.1744 3.7206 12.0710 -4.8241 37.7987 7.7624
# 6 9.5221 3.1376 1.6847 1.2108 7.7624 31.5369
#
#
#
# Elastic Compliance Matrix: (Units=1/GPa)
#
#
# Indices 1 2 3 4 5 6 
#
# 1 0.007912 -0.000305 -0.002313 -0.001568 -0.000292 -0.002103
# 2 -0.000305 0.021923 -0.002644 -0.002045 -0.001201 -0.001574
# 3 -0.002313 -0.002644 0.011983 0.001064 -0.003276 0.001087
# 4 -0.001568 -0.002045 0.001064 0.046949 0.006691 -0.002829
# 5 -0.000292 -0.001201 -0.003276 0.006691 0.030013 -0.007261
# 6 -0.002103 -0.001574 0.001087 -0.002829 -0.007261 0.034338
#
#
# Mechanical properties :
#
#
# Convention : Reuss Voigt Hill
#
# Bulk Modulus (GPa) = 31.95431 41.92642 36.94037
# Shear Modulus (GPa) = 28.72347 33.89937 31.31142
#
# Velocity S-wave (km/s) = 3.53498 3.84029 3.69079
# Velocity P-wave (km/s) = 5.52838 6.15660 5.85093
#
# Compressibility (1/GPa) = 0.03129469
#
# Stress axis : x y z
#
# Youngs Moduli (GPa) = 126.38319 45.61470 83.45229
#
# Poissons Ratio (x) = 0.01389 0.19300
# Poissons Ratio (y) = 0.03850 0.22068
# Poissons Ratio (z) = 0.29228 0.12062
#
# Static dielectric constant tensor:
#      x y z
#    x 5.106580 -0.114090 -0.074450 
#    y -0.114090 3.699010 0.085670 
#    z -0.074450 0.085670 4.239240 
# 
# 
# High freq. dielectric constant tensor:
#      x y z
#    x 1.939350 -0.004560 -0.007540 
#    y -0.004560 1.868150 0.010250 
#    z -0.007540 0.010250 1.912830 
# 
# From -- ./inp_files/283203.got.cif
#   From: 2010.06.25/outbox.cif.g09.slc.cpg/sg2_142_cif.got.tgz:283203.got - 2010.06.27 13:26:56.
