data_PCOD8023525
_publ_section_title
;
Structure prediction by ZEFSAII (Michael W. Deem and Ramdas Pophale) SiO2 
 PCOD8023525
Probable space group: P -1
;
_chemical_formula_sum "Si O2"
_cell_formula_units_Z 16
_cell_length_a 12.070852
_cell_length_b 12.870530
_cell_length_c 5.161288
_cell_angle_alpha 112.131475
_cell_angle_beta 103.870718
_cell_angle_gamma 100.401067
_cell_volume 687.627474
_symmetry_space_group_name_H-M "P -1"
_symmetry_group_IT_number 2
_symmetry_cell_setting 'triclinic'
loop_
_space_group_symop_operation_xyz
x,y,z
-x,-y,-z
loop_
_atom_site_type_symbol
_atom_site_label
_atom_site_fract_x
_atom_site_fract_y
_atom_site_fract_z
Si Si1 0.932662 0.719950 0.631445
Si Si2 0.650692 0.689108 0.918642
Si Si3 0.124546 0.114874 0.902182
Si Si4 0.718934 0.248351 0.710554
Si Si5 0.684671 0.559614 0.301652
Si Si6 0.046484 0.576345 0.851897
Si Si7 0.104189 0.874621 0.496331
Si Si8 0.403276 0.710516 0.849183
O O1 0.828440 0.603995 0.371286
O O2 0.990317 0.685791 0.897818
O O3 0.038848 0.758411 0.517882
O O4 0.875298 0.826215 0.757506
O O5 0.649893 0.626488 0.586496
O O6 0.545034 0.749761 0.914246
O O7 0.776610 0.791459 0.131346
O O8 0.624148 0.591145 0.037993
O O9 0.988466 0.093109 0.715347
O O10 0.153888 0.991113 0.816962
O O11 0.783835 0.148192 0.608997
O O12 0.662127 0.272336 0.433364
O O13 0.811264 0.369648 0.984715
O O14 0.622688 0.209489 0.854326
O O15 0.640368 0.423171 0.205248
O O16 0.000000 0.500000 0.500000
O O17 0.000000 0.500000 0.000000
#
# Coordination Sequence:
#
# PCOD8023525 Si02
#       8
#     2   2   2   2   2   2   2   2
#     4  11  21  38  63  97 133 164 216 269 331 395
#     4  11  23  44  67  98 127 172 226 276 314 382
#     4  10  23  41  69  93 124 168 227 285 335 373
#     4  12  25  42  62  95 134 177 213 262 329 403
#     4  11  22  39  67  98 129 171 218 268 324 381
#     4  12  24  38  61  94 137 175 204 253 321 403
#     4  11  22  43  65  96 128 170 217 285 337 387
#     4  12  25  43  65  94 137 179 217 261 321 394
#
# _framework density 23.268415000000001
#
# number of rings (size 3 to 8) (size 9 to 14) (size 15 to 20)
#    0.000    0.750    2.500    6.375    0.000    1.000 
#    0.000    1.250    0.000    0.000    0.000    0.000 
#    0.000    0.000    0.000    0.000    0.000    0.000 
#
# Total GULP energy -198365.208305 kJ/mol
# GULP energy per Si atom -12397.825519 kJ/mol
# Density = 2.321545 g / cm^3
# Si number density = 23.268415 Si / 1000 Ang^3
#
#
#
# Elastic Constant Matrix: (Units=GPa)
#
#
# Indices 1 2 3 4 5 6 
#
# 1 123.0076 21.9904 34.0313 -2.6493 -14.6063 -22.0631
# 2 21.9904 57.9731 24.8792 -7.1874 -7.4929 -10.9820
# 3 34.0313 24.8792 90.2483 -21.3955 -15.7588 -9.9862
# 4 -2.6493 -7.1874 -21.3955 39.3924 -0.2581 0.2740
# 5 -14.6063 -7.4929 -15.7588 -0.2581 37.5490 -5.6360
# 6 -22.0631 -10.9820 -9.9862 0.2740 -5.6360 27.2919
#
#
#
# Elastic Compliance Matrix: (Units=1/GPa)
#
#
# Indices 1 2 3 4 5 6 
#
# 1 0.010994 -0.001093 -0.002320 -0.000751 0.004356 0.008506
# 2 -0.001093 0.021208 -0.003657 0.001783 0.003332 0.006982
# 3 -0.002320 -0.003657 0.016302 0.008043 0.005826 0.003740
# 4 -0.000751 0.001783 0.008043 0.030031 0.004188 0.003617
# 5 0.004356 0.003332 0.005826 0.004188 0.033548 0.013880
# 6 0.008506 0.006982 0.003740 0.003617 0.013880 0.050525
#
#
# Mechanical properties :
#
#
# Convention : Reuss Voigt Hill
#
# Bulk Modulus (GPa) = 29.10230 48.11454 38.60842
# Shear Modulus (GPa) = 26.56710 33.53518 30.05114
#
# Velocity S-wave (km/s) = 3.38267 3.80047 3.59764
# Velocity P-wave (km/s) = 5.27171 6.32306 5.82117
#
# Compressibility (1/GPa) = 0.03436155
#
# Stress axis : x y z
#
# Youngs Moduli (GPa) = 90.96172 47.15229 61.34394
#
# Poissons Ratio (x) = 0.05155 0.14235
# Poissons Ratio (y) = 0.09944 0.22434
# Poissons Ratio (z) = 0.21107 0.17244
#
# Static dielectric constant tensor:
#      x y z
#    x 4.573840 -0.189450 -0.129010 
#    y -0.189450 4.252440 0.262160 
#    z -0.129010 0.262160 4.205210 
# 
# 
# High freq. dielectric constant tensor:
#      x y z
#    x 1.925250 -0.011520 -0.014470 
#    y -0.011520 1.902710 -0.001010 
#    z -0.014470 -0.001010 1.924560 
# 
# From -- ./inp_files/72018.got.cif
#   From: 2010.06.25/outbox.cif.g09.slc.cpg/sg2_37_cif.got.tgz:72018.got - 2010.06.27 13:26:56.
