data_PCOD8023148
_publ_section_title
;
Structure prediction by ZEFSAII (Michael W. Deem and Ramdas Pophale) SiO2 
 PCOD8023148
Probable space group: P -1
;
_chemical_formula_sum "Si O2"
_cell_formula_units_Z 14
_cell_length_a 20.610405
_cell_length_b 9.524158
_cell_length_c 11.902646
_cell_angle_alpha 121.297851
_cell_angle_beta 141.290909
_cell_angle_gamma 28.861954
_cell_volume 592.253108
_symmetry_space_group_name_H-M "P -1"
_symmetry_group_IT_number 2
_symmetry_cell_setting 'triclinic'
loop_
_space_group_symop_operation_xyz
x,y,z
-x,-y,-z
loop_
_atom_site_type_symbol
_atom_site_label
_atom_site_fract_x
_atom_site_fract_y
_atom_site_fract_z
Si Si1 0.868867 0.806990 0.870339
Si Si2 0.242588 0.832845 0.934396
Si Si3 0.539693 0.216818 0.930735
Si Si4 0.205522 0.464908 0.009266
Si Si5 0.557658 0.235842 0.436237
Si Si6 0.093713 0.201549 0.454114
Si Si7 0.137281 0.829882 0.503025
O O1 0.704054 0.951932 0.617630
O O2 0.000000 0.500000 0.000000
O O3 0.048509 0.657541 0.982460
O O4 0.714806 0.140804 0.877076
O O5 0.417750 0.446104 0.976319
O O6 0.261000 0.938506 0.899097
O O7 0.993938 0.111277 0.731414
O O8 0.383345 0.432726 0.698812
O O9 0.622802 0.919770 0.939587
O O10 0.333495 0.452419 0.203831
O O11 0.068920 0.668820 0.795014
O O12 0.500000 0.500000 0.500000
O O13 0.686930 0.052247 0.418290
O O14 0.000000 0.500000 0.500000
O O15 0.145285 0.005530 0.543349
O O16 0.000000 0.000000 0.500000
#
# Coordination Sequence:
#
# PCOD8023148 Si02
#       7
#     2   2   2   2   2   2   2
#     4  11  25  44  71 102 142 186 239 300 348 419
#     4  10  23  40  70 101 143 175 236 289 361 400
#     4  10  23  41  72 104 137 179 241 295 352 428
#     4  11  27  47  69 105 146 188 239 298 362 424
#     4  11  30  48  68 101 148 192 242 286 361 438
#     4  11  29  47  74 106 147 184 238 303 359 422
#     4  10  25  43  72 105 140 181 232 296 361 418
#
# _framework density 23.638542999999999
#
# number of rings (size 3 to 8) (size 9 to 14) (size 15 to 20)
#    0.000    1.429    1.429    0.000   18.000    2.286 
#    0.000    0.000    0.000    0.000    0.000    0.000 
#    0.000    0.000    0.000    0.000    0.000    0.000 
#
# Total GULP energy -173541.114607 kJ/mol
# GULP energy per Si atom -12395.793900 kJ/mol
# Density = 2.358474 g / cm^3
# Si number density = 23.638543 Si / 1000 Ang^3
#
#
#
# Elastic Constant Matrix: (Units=GPa)
#
#
# Indices 1 2 3 4 5 6 
#
# 1 109.1287 29.5209 50.2503 4.6602 -7.8066 -16.7605
# 2 29.5209 97.8750 6.0956 9.0308 1.2228 -21.0056
# 3 50.2503 6.0956 104.3212 3.6158 12.2573 -4.2896
# 4 4.6602 9.0308 3.6158 35.3594 5.5986 -7.6487
# 5 -7.8066 1.2228 12.2573 5.5986 40.7143 2.0415
# 6 -16.7605 -21.0056 -4.2896 -7.6487 2.0415 41.6819
#
#
#
# Elastic Compliance Matrix: (Units=1/GPa)
#
#
# Indices 1 2 3 4 5 6 
#
# 1 0.014088 -0.003183 -0.007027 -0.000435 0.004821 0.003022
# 2 -0.003183 0.012299 0.001229 -0.001587 -0.001373 0.004821
# 3 -0.007027 0.001229 0.013514 -0.000032 -0.005421 -0.000556
# 4 -0.000435 -0.001587 -0.000032 0.030500 -0.004463 0.004837
# 5 0.004821 -0.001373 -0.005421 -0.004463 0.027847 -0.001494
# 6 0.003022 0.004821 -0.000556 0.004837 -0.001494 0.028539
#
#
# Mechanical properties :
#
#
# Convention : Reuss Voigt Hill
#
# Bulk Modulus (GPa) = 45.58156 53.67317 49.62736
# Shear Modulus (GPa) = 32.88138 38.58167 35.73152
#
# Velocity S-wave (km/s) = 3.73367 4.04437 3.89212
# Velocity P-wave (km/s) = 6.15724 6.67565 6.42168
#
# Compressibility (1/GPa) = 0.02193869
#
# Stress axis : x y z
#
# Youngs Moduli (GPa) = 70.98359 81.30858 73.99783
#
# Poissons Ratio (x) = 0.25882 0.51998
# Poissons Ratio (y) = 0.22595 -0.09096
# Poissons Ratio (z) = 0.49880 -0.09995
#
# Static dielectric constant tensor:
#      x y z
#    x 4.477640 0.043790 0.399110 
#    y 0.043790 4.127170 0.365860 
#    z 0.399110 0.365860 6.562510 
# 
# 
# High freq. dielectric constant tensor:
#      x y z
#    x 1.940450 -0.009660 -0.000130 
#    y -0.009660 1.926150 0.001500 
#    z -0.000130 0.001500 1.950910 
# 
# From -- ./inp_files/470092.got.cif
#   From: 2010.06.25/outbox.cif.g09.slc.cpg/sg2_236_cif.got.tgz:470092.got - 2010.06.27 13:26:56.
