data_PCOD8023632
_publ_section_title
;
Structure prediction by ZEFSAII (Michael W. Deem and Ramdas Pophale) SiO2 
 PCOD8023632
Probable space group: P -1
;
_chemical_formula_sum "Si O2"
_cell_formula_units_Z 12
_cell_length_a 10.177630
_cell_length_b 11.243516
_cell_length_c 9.443560
_cell_angle_alpha 53.139314
_cell_angle_beta 116.216444
_cell_angle_gamma 74.116323
_cell_volume 512.644612
_symmetry_space_group_name_H-M "P -1"
_symmetry_group_IT_number 2
_symmetry_cell_setting 'triclinic'
loop_
_space_group_symop_operation_xyz
x,y,z
-x,-y,-z
loop_
_atom_site_type_symbol
_atom_site_label
_atom_site_fract_x
_atom_site_fract_y
_atom_site_fract_z
Si Si1 0.825914 0.004786 0.834637
Si Si2 0.268214 0.141304 0.861266
Si Si3 0.178068 0.493113 0.752618
Si Si4 0.590778 0.768501 0.670849
Si Si5 0.747475 0.469049 0.729226
Si Si6 0.626592 0.449016 0.408095
O O1 0.625942 0.165408 0.508714
O O2 0.842185 0.174006 0.746453
O O3 0.734940 0.002521 0.938393
O O4 0.003862 0.776424 0.994761
O O5 0.210090 0.314351 0.818254
O O6 0.080642 0.265596 0.561073
O O7 0.500000 0.000000 0.000000
O O8 0.337634 0.499776 0.760886
O O9 0.249848 0.421040 0.999503
O O10 0.737304 0.635475 0.689246
O O11 0.500000 0.000000 0.500000
O O12 0.642289 0.565969 0.452710
O O13 0.611180 0.448224 0.768313
#
# Coordination Sequence:
#
# PCOD8023632 Si02
#       6
#     2   2   2   2   2   2
#     4  11  23  45  70 100 136 178 230 273 343 408
#     4  11  26  42  69 101 135 177 230 280 333 404
#     4  11  25  44  65 102 139 173 228 284 331 399
#     4  11  25  45  65 101 141 182 222 279 343 401
#     4  10  23  41  73  97 134 181 225 277 337 398
#     4  10  23  41  73  99 132 179 230 278 331 409
#
# _framework density 23.408028999999999
#
# number of rings (size 3 to 8) (size 9 to 14) (size 15 to 20)
#    0.000    1.333    3.333    0.500    7.000    4.667 
#    0.000    1.667    0.000    0.000    0.000    0.000 
#    0.000    0.000    0.000    0.000    0.000    0.000 
#
# Total GULP energy -148656.841345 kJ/mol
# GULP energy per Si atom -12388.070112 kJ/mol
# Density = 2.335475 g / cm^3
# Si number density = 23.408029 Si / 1000 Ang^3
#
#
#
# Elastic Constant Matrix: (Units=GPa)
#
#
# Indices 1 2 3 4 5 6 
#
# 1 94.1958 26.5427 35.7361 -1.8343 -8.7406 -22.4287
# 2 26.5427 156.9205 56.8950 -12.9459 -4.5434 -7.9719
# 3 35.7361 56.8950 123.2585 14.6747 2.9795 -17.3774
# 4 -1.8343 -12.9459 14.6747 32.2321 -5.3734 -0.0415
# 5 -8.7406 -4.5434 2.9795 -5.3734 37.3000 -16.3552
# 6 -22.4287 -7.9719 -17.3774 -0.0415 -16.3552 24.0311
#
#
#
# Elastic Compliance Matrix: (Units=1/GPa)
#
#
# Indices 1 2 3 4 5 6 
#
# 1 0.020936 0.000150 -0.002985 0.005896 0.019470 0.030693
# 2 0.000150 0.008711 -0.004609 0.006135 0.003164 0.001861
# 3 -0.002985 -0.004609 0.012605 -0.008072 -0.001898 0.003495
# 4 0.005896 0.006135 -0.008072 0.039717 0.013215 0.010764
# 5 0.019470 0.003164 -0.001898 0.013215 0.059365 0.058275
# 6 0.030693 0.001861 0.003495 0.010764 0.058275 0.113083
#
#
# Mechanical properties :
#
#
# Convention : Reuss Voigt Hill
#
# Bulk Modulus (GPa) = 36.54262 68.08026 52.31144
# Shear Modulus (GPa) = 17.95816 35.72604 26.84210
#
# Velocity S-wave (km/s) = 2.77281 3.91094 3.38998
# Velocity P-wave (km/s) = 5.08884 7.03855 6.14156
#
# Compressibility (1/GPa) = 0.02736531
#
# Stress axis : x y z
#
# Youngs Moduli (GPa) = 47.76515 114.80233 79.33102
#
# Poissons Ratio (x) = -0.01726 0.23678
# Poissons Ratio (y) = -0.00718 0.36563
# Poissons Ratio (z) = 0.14257 0.52911
#
# Static dielectric constant tensor:
#      x y z
#    x 4.268090 0.247190 0.193870 
#    y 0.247190 4.876380 -0.162410 
#    z 0.193870 -0.162410 4.577790 
# 
# 
# High freq. dielectric constant tensor:
#      x y z
#    x 1.917460 0.007060 0.014350 
#    y 0.007060 1.931140 -0.014700 
#    z 0.014350 -0.014700 1.933390 
# 
# From -- ./inp_files/183547.got.cif
#   From: 2010.06.25/outbox.cif.g09.slc.cpg/sg2_92_cif.got.tgz:183547.got - 2010.06.27 13:26:56.
