data_PCOD8023032
_publ_section_title
;
Structure prediction by ZEFSAII (Michael W. Deem and Ramdas Pophale) SiO2 
 PCOD8023032
Probable space group: P -1
;
_chemical_formula_sum "Si O2"
_cell_formula_units_Z 16
_cell_length_a 8.593099
_cell_length_b 18.628483
_cell_length_c 6.707435
_cell_angle_alpha 64.489682
_cell_angle_beta 60.144017
_cell_angle_gamma 55.363370
_cell_volume 749.567854
_symmetry_space_group_name_H-M "P -1"
_symmetry_group_IT_number 2
_symmetry_cell_setting 'triclinic'
loop_
_space_group_symop_operation_xyz
x,y,z
-x,-y,-z
loop_
_atom_site_type_symbol
_atom_site_label
_atom_site_fract_x
_atom_site_fract_y
_atom_site_fract_z
Si Si1 0.686285 0.275674 0.902090
Si Si2 0.416441 0.121577 0.985852
Si Si3 0.148487 0.628184 0.601482
Si Si4 0.192965 0.458390 0.562725
Si Si5 0.788672 0.079309 0.090223
Si Si6 0.418063 0.595034 0.837191
Si Si7 0.597563 0.021927 0.602491
Si Si8 0.752734 0.685503 0.994348
O O1 0.790650 0.301509 0.624113
O O2 0.809319 0.170115 0.979625
O O3 0.700316 0.324650 0.032729
O O4 0.453201 0.305291 0.975027
O O5 0.448323 0.098778 0.757227
O O6 0.626771 0.088088 0.012994
O O7 0.281140 0.226975 0.964025
O O8 0.299717 0.069103 0.221920
O O9 0.232009 0.537701 0.531203
O O10 0.250664 0.602250 0.780628
O O11 0.907129 0.671497 0.731672
O O12 0.395417 0.394336 0.391804
O O13 0.000000 0.500000 0.500000
O O14 0.150126 0.401245 0.825249
O O15 0.743169 0.058255 0.369842
O O16 0.000000 0.000000 0.000000
O O17 0.500000 0.500000 0.000000
O O18 0.500000 0.000000 0.500000
#
# Coordination Sequence:
#
# PCOD8023032 Si02
#       8
#     2   2   2   2   2   2   2   2
#     4  11  25  45  66 100 133 176 222 271 333 391
#     4   9  21  42  65  93 126 169 213 265 326 384
#     4  12  25  45  65  99 136 172 221 273 325 392
#     4  12  24  43  68  96 135 178 220 266 331 390
#     4  10  23  40  65  96 129 166 216 268 325 394
#     4  12  23  43  69  96 135 176 216 277 328 387
#     4   9  19  41  63  91 125 163 211 259 326 382
#     4  11  24  43  68  95 133 174 223 270 321 395
#
# _framework density 21.345632999999999
#
# number of rings (size 3 to 8) (size 9 to 14) (size 15 to 20)
#    0.000    1.250    2.500    3.000    3.500    0.500 
#    9.000    0.000    0.000    0.000    0.000    0.000 
#    0.000    0.000    0.000    0.000    0.000    0.000 
#
# Total GULP energy -198398.203081 kJ/mol
# GULP energy per Si atom -12399.887693 kJ/mol
# Density = 2.129705 g / cm^3
# Si number density = 21.345633 Si / 1000 Ang^3
#
#
#
# Elastic Constant Matrix: (Units=GPa)
#
#
# Indices 1 2 3 4 5 6 
#
# 1 71.4032 32.1043 38.0440 -3.4872 0.3984 -2.2512
# 2 32.1043 146.7909 58.8481 -13.9158 0.9103 10.9769
# 3 38.0440 58.8481 151.3204 -5.2442 -14.0806 4.2880
# 4 -3.4872 -13.9158 -5.2442 39.4572 8.1579 -2.3844
# 5 0.3984 0.9103 -14.0806 8.1579 38.3822 8.6659
# 6 -2.2512 10.9769 4.2880 -2.3844 8.6659 34.1497
#
#
#
# Elastic Compliance Matrix: (Units=1/GPa)
#
#
# Indices 1 2 3 4 5 6 
#
# 1 0.017191 -0.002428 -0.003650 0.000840 -0.002320 0.003019
# 2 -0.002428 0.008896 -0.002817 0.002689 -0.001306 -0.002147
# 3 -0.003650 -0.002817 0.008999 -0.001035 0.003975 -0.001546
# 4 0.000840 0.002689 -0.001035 0.027875 -0.007068 0.003061
# 5 -0.002320 -0.001306 0.003975 -0.007068 0.031010 -0.008595
# 6 0.003019 -0.002147 -0.001546 0.003061 -0.008595 0.032761
#
#
# Mechanical properties :
#
#
# Convention : Reuss Voigt Hill
#
# Bulk Modulus (GPa) = 57.81541 69.72303 63.76922
# Shear Modulus (GPa) = 33.26951 38.43235 35.85093
#
# Velocity S-wave (km/s) = 3.95221 4.24781 4.10267
# Velocity P-wave (km/s) = 6.92609 7.53613 7.23754
#
# Compressibility (1/GPa) = 0.01729643
#
# Stress axis : x y z
#
# Youngs Moduli (GPa) = 58.17117 112.40710 111.11834
#
# Poissons Ratio (x) = 0.27295 0.40558
# Poissons Ratio (y) = 0.14125 0.31299
# Poissons Ratio (z) = 0.21232 0.31662
#
# Static dielectric constant tensor:
#      x y z
#    x 3.598350 0.096070 -0.056980 
#    y 0.096070 3.865310 -0.044010 
#    z -0.056980 -0.044010 4.314570 
# 
# 
# High freq. dielectric constant tensor:
#      x y z
#    x 1.822480 0.015680 -0.002450 
#    y 0.015680 1.843650 -0.003780 
#    z -0.002450 -0.003780 1.855400 
# 
# From -- ./inp_files/46991.got.cif
#   From: 2010.06.25/outbox.cif.g09.slc.cpg/sg2_24_cif.got.tgz:46991.got - 2010.06.27 13:26:56.
