data_PCOD8023109
_publ_section_title
;
Structure prediction by ZEFSAII (Michael W. Deem and Ramdas Pophale) SiO2 
 PCOD8023109
Probable space group: P -1
;
_chemical_formula_sum "Si O2"
_cell_formula_units_Z 16
_cell_length_a 9.547314
_cell_length_b 14.873076
_cell_length_c 8.815942
_cell_angle_alpha 119.157772
_cell_angle_beta 118.230839
_cell_angle_gamma 103.113178
_cell_volume 774.548936
_symmetry_space_group_name_H-M "P -1"
_symmetry_group_IT_number 2
_symmetry_cell_setting 'triclinic'
loop_
_space_group_symop_operation_xyz
x,y,z
-x,-y,-z
loop_
_atom_site_type_symbol
_atom_site_label
_atom_site_fract_x
_atom_site_fract_y
_atom_site_fract_z
Si Si1 0.379409 0.670455 0.956911
Si Si2 0.313316 0.309338 0.333774
Si Si3 0.768684 0.259096 0.329137
Si Si4 0.600172 0.573698 0.846729
Si Si5 0.528402 0.848835 0.673218
Si Si6 0.382051 0.851262 0.297899
Si Si7 0.905417 0.531828 0.110469
Si Si8 0.125574 0.860948 0.956644
O O1 0.274917 0.660367 0.736772
O O2 0.531320 0.635173 0.981077
O O3 0.214869 0.584416 0.928896
O O4 0.489965 0.813773 0.203120
O O5 0.402863 0.435846 0.584459
O O6 0.300241 0.335903 0.173739
O O7 0.451272 0.264642 0.387466
O O8 0.099758 0.192452 0.188095
O O9 0.566915 0.145014 0.215793
O O10 0.851521 0.192792 0.230401
O O11 0.920482 0.348746 0.609532
O O12 0.762265 0.564623 0.999307
O O13 0.367624 0.796198 0.411498
O O14 0.733464 0.984681 0.850537
O O15 0.500000 0.000000 0.500000
O O16 0.173428 0.804372 0.077628
O O17 0.000000 0.500000 0.000000
#
# Coordination Sequence:
#
# PCOD8023109 Si02
#       8
#     2   2   2   2   2   2   2   2
#     4  11  22  42  63  93 131 168 207 260 322 376
#     4  11  23  41  63  92 128 170 212 258 318 376
#     4  11  23  39  63  96 125 161 212 263 315 376
#     4  11  25  41  63  93 132 168 211 263 318 378
#     4  11  21  43  64  92 126 168 211 257 320 375
#     4   9  21  39  66  93 123 163 210 260 312 370
#     4  12  26  39  66  97 127 168 211 262 318 385
#     4  10  23  40  68  91 125 166 215 264 310 375
#
# _framework density 20.657184999999998
#
# number of rings (size 3 to 8) (size 9 to 14) (size 15 to 20)
#    0.000    1.250    1.250    4.500    7.000    1.000 
#    0.000    0.000    0.000    2.250    0.000    0.000 
#    0.000    0.000    0.000    0.000    0.000    0.000 
#
# Total GULP energy -198357.779856 kJ/mol
# GULP energy per Si atom -12397.361241 kJ/mol
# Density = 2.061017 g / cm^3
# Si number density = 20.657185 Si / 1000 Ang^3
#
#
#
# Elastic Constant Matrix: (Units=GPa)
#
#
# Indices 1 2 3 4 5 6 
#
# 1 119.7246 39.0491 47.5372 0.5291 -8.8580 7.9899
# 2 39.0491 107.2571 47.7043 -16.6963 1.2268 9.5771
# 3 47.5372 47.7043 90.0680 -5.3443 -13.1990 1.4043
# 4 0.5291 -16.6963 -5.3443 38.6668 -3.0976 -1.8313
# 5 -8.8580 1.2268 -13.1990 -3.0976 30.1966 4.8731
# 6 7.9899 9.5771 1.4043 -1.8313 4.8731 36.3841
#
#
#
# Elastic Compliance Matrix: (Units=1/GPa)
#
#
# Indices 1 2 3 4 5 6 
#
# 1 0.011116 -0.002097 -0.004607 -0.001670 0.001483 -0.001994
# 2 -0.002097 0.013922 -0.006404 0.004797 -0.003117 -0.002298
# 3 -0.004607 -0.006404 0.017894 0.000352 0.006582 0.001143
# 4 -0.001670 0.004797 0.000352 0.028201 0.002330 0.000198
# 5 0.001483 -0.003117 0.006582 0.002330 0.037548 -0.004671
# 6 -0.001994 -0.002298 0.001143 0.000198 -0.004671 0.029119
#
#
# Mechanical properties :
#
#
# Convention : Reuss Voigt Hill
#
# Bulk Modulus (GPa) = 59.81935 65.07009 62.44472
# Shear Modulus (GPa) = 29.48357 33.23344 31.35851
#
# Velocity S-wave (km/s) = 3.78203 4.01535 3.90043
# Velocity P-wave (km/s) = 6.93489 7.28462 7.11191
#
# Compressibility (1/GPa) = 0.01671700
#
# Stress axis : x y z
#
# Youngs Moduli (GPa) = 89.96256 71.82662 55.88610
#
# Poissons Ratio (x) = 0.15060 0.25747
# Poissons Ratio (y) = 0.18863 0.35787
# Poissons Ratio (z) = 0.41446 0.45995
#
# Static dielectric constant tensor:
#      x y z
#    x 3.692640 -0.000440 -0.198000 
#    y -0.000440 4.140000 -0.267130 
#    z -0.198000 -0.267130 3.873550 
# 
# 
# High freq. dielectric constant tensor:
#      x y z
#    x 1.806430 -0.003850 -0.014390 
#    y -0.003850 1.823060 -0.008790 
#    z -0.014390 -0.008790 1.808570 
# 
# From -- ./inp_files/178094.got.cif
#   From: 2010.06.25/outbox.cif.g09.slc.cpg/sg2_90_cif.got.tgz:178094.got - 2010.06.27 13:26:56.
