data_PCOD8023775
_publ_section_title
;
Structure prediction by ZEFSAII (Michael W. Deem and Ramdas Pophale) SiO2 
 PCOD8023775
Probable space group: P -1
;
_chemical_formula_sum "Si O2"
_cell_formula_units_Z 14
_cell_length_a 19.758976
_cell_length_b 13.596268
_cell_length_c 11.970130
_cell_angle_alpha 149.509572
_cell_angle_beta 31.003051
_cell_angle_gamma 156.558904
_cell_volume 612.794931
_symmetry_space_group_name_H-M "P -1"
_symmetry_group_IT_number 2
_symmetry_cell_setting 'triclinic'
loop_
_space_group_symop_operation_xyz
x,y,z
-x,-y,-z
loop_
_atom_site_type_symbol
_atom_site_label
_atom_site_fract_x
_atom_site_fract_y
_atom_site_fract_z
Si Si1 0.101302 0.810828 0.750843
Si Si2 0.449469 0.946560 0.823680
Si Si3 0.613851 0.207993 0.638813
Si Si4 0.838866 0.063099 0.683471
Si Si5 0.839439 0.216139 0.594380
Si Si6 0.714068 0.685287 0.867084
Si Si7 0.213214 0.354262 0.517997
O O1 0.266257 0.835139 0.520231
O O2 0.082608 0.842512 0.675705
O O3 0.935565 0.525825 0.760274
O O4 0.160844 0.041829 0.974171
O O5 0.366445 0.667887 0.616421
O O6 0.488075 0.137296 0.853240
O O7 0.627003 0.055679 0.745094
O O8 0.305899 0.912524 0.069553
O O9 0.746496 0.507599 0.700414
O O10 0.500000 0.000000 0.500000
O O11 0.890734 0.137042 0.552012
O O12 0.018341 0.265171 0.704230
O O13 0.764085 0.772166 0.533756
O O14 0.768752 0.750472 0.724584
O O15 0.500000 0.500000 0.000000
#
# Coordination Sequence:
#
# PCOD8023775 Si02
#       7
#     2   2   2   2   2   2   2
#     4  10  23  42  65  95 133 166 217 272 328 384
#     4  11  23  43  67  95 132 173 220 263 332 390
#     4  11  20  37  65  99 128 160 210 272 325 382
#     4  11  25  43  65  93 134 176 218 268 328 384
#     4  10  23  45  66  94 133 180 216 266 323 398
#     4  12  21  37  67 100 128 164 210 274 333 378
#     4  11  25  42  65 103 127 166 225 273 325 392
#
# _framework density 22.846142
#
# number of rings (size 3 to 8) (size 9 to 14) (size 15 to 20)
#    0.000    1.143    2.857    3.429    0.000    2.857 
#    0.000   17.143    0.000    0.000    0.000    0.000 
#    0.000    0.000    0.000    0.000    0.000    0.000 
#
# Total GULP energy -173485.151002 kJ/mol
# GULP energy per Si atom -12391.796500 kJ/mol
# Density = 2.279414 g / cm^3
# Si number density = 22.846142 Si / 1000 Ang^3
#
#
#
# Elastic Constant Matrix: (Units=GPa)
#
#
# Indices 1 2 3 4 5 6 
#
# 1 134.6516 43.6700 36.1407 6.2485 13.4591 -27.5416
# 2 43.6700 134.5861 42.2900 19.1273 10.1601 -3.6683
# 3 36.1407 42.2900 79.9104 15.1221 13.0338 -6.5925
# 4 6.2485 19.1273 15.1221 38.8426 2.3119 3.6091
# 5 13.4591 10.1601 13.0338 2.3119 28.5877 -6.0547
# 6 -27.5416 -3.6683 -6.5925 3.6091 -6.0547 43.5666
#
#
#
# Elastic Compliance Matrix: (Units=1/GPa)
#
#
# Indices 1 2 3 4 5 6 
#
# 1 0.010169 -0.002177 -0.002741 0.000077 -0.001584 0.005604
# 2 -0.002177 0.009698 -0.003551 -0.002907 -0.000772 -0.000963
# 3 -0.002741 -0.003551 0.017262 -0.004261 -0.004920 0.000250
# 4 0.000077 -0.002907 -0.004261 0.029133 -0.000109 -0.003270
# 5 -0.001584 -0.000772 -0.004920 -0.000109 0.039019 0.003621
# 6 0.005604 -0.000963 0.000250 -0.003270 0.003621 0.027227
#
#
# Mechanical properties :
#
#
# Convention : Reuss Voigt Hill
#
# Bulk Modulus (GPa) = 49.52638 65.92773 57.72705
# Shear Modulus (GPa) = 32.01494 37.33589 34.67541
#
# Velocity S-wave (km/s) = 3.74749 4.04695 3.90010
# Velocity P-wave (km/s) = 6.36005 7.12439 6.75304
#
# Compressibility (1/GPa) = 0.02019126
#
# Stress axis : x y z
#
# Youngs Moduli (GPa) = 98.33477 103.11889 57.92919
#
# Poissons Ratio (x) = 0.22449 0.15878
# Poissons Ratio (y) = 0.21408 0.20571
# Poissons Ratio (z) = 0.26954 0.36617
#
# Static dielectric constant tensor:
#      x y z
#    x 4.409290 -0.291620 -0.146300 
#    y -0.291620 4.301230 -0.019840 
#    z -0.146300 -0.019840 3.954370 
# 
# 
# High freq. dielectric constant tensor:
#      x y z
#    x 1.916750 -0.001260 0.002560 
#    y -0.001260 1.916940 -0.015660 
#    z 0.002560 -0.015660 1.880520 
# 
# From -- ./inp_files/471987.got.cif
#   From: 2010.06.25/outbox.cif.g09.slc.cpg/sg2_236_cif.got.tgz:471987.got - 2010.06.27 13:26:56.
