data_PCOD8023319
_publ_section_title
;
Structure prediction by ZEFSAII (Michael W. Deem and Ramdas Pophale) SiO2 
 PCOD8023319
Probable space group: P -1
;
_chemical_formula_sum "Si O2"
_cell_formula_units_Z 12
_cell_length_a 10.694616
_cell_length_b 13.543336
_cell_length_c 11.632260
_cell_angle_alpha 40.141644
_cell_angle_beta 37.632004
_cell_angle_gamma 32.094620
_cell_volume 523.374239
_symmetry_space_group_name_H-M "P -1"
_symmetry_group_IT_number 2
_symmetry_cell_setting 'triclinic'
loop_
_space_group_symop_operation_xyz
x,y,z
-x,-y,-z
loop_
_atom_site_type_symbol
_atom_site_label
_atom_site_fract_x
_atom_site_fract_y
_atom_site_fract_z
Si Si1 0.849301 0.203960 0.789162
Si Si2 0.434066 0.618306 0.619908
Si Si3 0.842533 0.867795 0.155193
Si Si4 0.318117 0.976593 0.483908
Si Si5 0.898373 0.742287 0.806125
Si Si6 0.824147 0.634196 0.182808
O O1 0.916474 0.225013 0.851134
O O2 0.095003 0.130655 0.595503
O O3 0.601846 0.409105 0.743077
O O4 0.783748 0.054098 0.967063
O O5 0.186285 0.659165 0.705705
O O6 0.590194 0.633895 0.392733
O O7 0.351257 0.777472 0.637641
O O8 0.916356 0.704129 0.154982
O O9 0.588960 0.935340 0.353642
O O10 0.250301 0.054205 0.332106
O O11 0.927508 0.583188 0.840725
O O12 0.735958 0.771377 0.012326
#
# Coordination Sequence:
#
# PCOD8023319 Si02
#       6
#     2   2   2   2   2   2
#     4  11  24  46  66  93 131 166 217 267 311 381
#     4  11  24  41  68  97 127 172 209 262 322 375
#     4  10  25  45  64  95 128 171 214 263 322 370
#     4  11  24  42  67  98 127 170 210 265 316 381
#     4  11  23  41  65 100 132 162 215 261 320 380
#     4  10  23  41  65  94 129 172 207 261 316 379
#
# _framework density 22.928144
#
# number of rings (size 3 to 8) (size 9 to 14) (size 15 to 20)
#    0.000    1.333    1.667    2.500    4.667    5.333 
#    3.000    2.500    0.000    0.000    0.000    0.000 
#    0.000    0.000    0.000    0.000    0.000    0.000 
#
# Total GULP energy -148836.540602 kJ/mol
# GULP energy per Si atom -12403.045050 kJ/mol
# Density = 2.287596 g / cm^3
# Si number density = 22.928144 Si / 1000 Ang^3
#
#
#
# Elastic Constant Matrix: (Units=GPa)
#
#
# Indices 1 2 3 4 5 6 
#
# 1 77.9928 17.6465 30.9035 -11.8475 -12.7746 -1.5314
# 2 17.6465 46.9968 16.8367 -15.1645 -4.4043 -5.8145
# 3 30.9035 16.8367 97.7799 -19.4923 -0.8747 8.8026
# 4 -11.8475 -15.1645 -19.4923 26.4532 4.1140 3.8177
# 5 -12.7746 -4.4043 -0.8747 4.1140 32.6257 -0.5369
# 6 -1.5314 -5.8145 8.8026 3.8177 -0.5369 24.3311
#
#
#
# Elastic Compliance Matrix: (Units=1/GPa)
#
#
# Indices 1 2 3 4 5 6 
#
# 1 0.016545 -0.003529 -0.004565 0.000855 0.005802 0.001844
# 2 -0.003529 0.027892 -0.001695 0.012281 0.000874 0.005149
# 3 -0.004565 -0.001695 0.014423 0.009132 -0.002903 -0.007407
# 4 0.000855 0.012281 0.009132 0.053970 -0.004714 -0.008888
# 5 0.005802 0.000874 -0.002903 -0.004714 0.033608 0.003106
# 6 0.001844 0.005149 -0.007407 -0.008888 0.003106 0.046589
#
#
# Mechanical properties :
#
#
# Convention : Reuss Voigt Hill
#
# Bulk Modulus (GPa) = 25.45715 39.28254 32.36984
# Shear Modulus (GPa) = 22.15320 27.17418 24.66369
#
# Velocity S-wave (km/s) = 3.11175 3.44639 3.28334
# Velocity P-wave (km/s) = 4.90283 5.74516 5.34063
#
# Compressibility (1/GPa) = 0.03928169
#
# Stress axis : x y z
#
# Youngs Moduli (GPa) = 60.43940 35.85257 69.33337
#
# Poissons Ratio (x) = 0.12654 0.31652
# Poissons Ratio (y) = 0.21332 0.11750
# Poissons Ratio (z) = 0.27592 0.06076
#
# Static dielectric constant tensor:
#      x y z
#    x 3.932430 0.186480 -0.061830 
#    y 0.186480 4.066360 -0.100020 
#    z -0.061830 -0.100020 4.398860 
# 
# 
# High freq. dielectric constant tensor:
#      x y z
#    x 1.897920 0.011770 -0.008510 
#    y 0.011770 1.902400 -0.002770 
#    z -0.008510 -0.002770 1.921760 
# 
# From -- ./inp_files/236315.got.cif
#   From: 2010.06.25/outbox.cif.g09.slc.cpg/sg2_119_cif.got.tgz:236315.got - 2010.06.27 13:26:56.
