data_PCOD8023820
_publ_section_title
;
Structure prediction by ZEFSAII (Michael W. Deem and Ramdas Pophale) SiO2 
 PCOD8023820
Probable space group: P -1
;
_chemical_formula_sum "Si O2"
_cell_formula_units_Z 14
_cell_length_a 21.717038
_cell_length_b 7.156303
_cell_length_c 13.830039
_cell_angle_alpha 78.983202
_cell_angle_beta 19.816760
_cell_angle_gamma 88.759994
_cell_volume 629.311491
_symmetry_space_group_name_H-M "P -1"
_symmetry_group_IT_number 2
_symmetry_cell_setting 'triclinic'
loop_
_space_group_symop_operation_xyz
x,y,z
-x,-y,-z
loop_
_atom_site_type_symbol
_atom_site_label
_atom_site_fract_x
_atom_site_fract_y
_atom_site_fract_z
Si Si1 0.232700 0.373479 0.161637
Si Si2 0.592899 0.573658 0.750197
Si Si3 0.325233 0.192482 0.868218
Si Si4 0.835202 0.277979 0.879034
Si Si5 0.769042 0.930231 0.325097
Si Si6 0.047075 0.631513 0.081276
Si Si7 0.256444 0.377049 0.771399
O O1 0.267099 0.586627 0.030039
O O2 0.034136 0.297604 0.528265
O O3 0.426020 0.408418 0.938557
O O4 0.205906 0.188032 0.143551
O O5 0.633453 0.817688 0.634174
O O6 0.811073 0.574404 0.418001
O O7 0.500000 0.500000 0.000000
O O8 0.196153 0.216782 0.967475
O O9 0.553556 0.389849 0.509005
O O10 0.337205 0.971414 0.855189
O O11 0.899871 0.350361 0.885647
O O12 0.689529 0.733015 0.385744
O O13 0.000000 0.000000 0.000000
O O14 0.776024 0.148092 0.252915
O O15 0.066782 0.428736 0.027081
#
# Coordination Sequence:
#
# PCOD8023820 Si02
#       7
#     2   2   2   2   2   2   2
#     4  11  23  43  65  97 131 172 222 270 327 388
#     4  11  23  43  68  92 130 173 216 269 327 385
#     4  11  23  39  65  98 132 168 216 276 324 387
#     4  11  23  40  70  95 130 176 217 269 330 387
#     4  10  23  42  66  92 131 175 212 266 327 388
#     4  11  23  42  69  96 132 175 213 270 330 390
#     4  11  23  39  66  99 131 166 218 269 330 388
#
# _framework density 22.246535999999999
#
# number of rings (size 3 to 8) (size 9 to 14) (size 15 to 20)
#    0.000    1.143    5.714    0.429    2.000    2.857 
#    0.000    0.000    0.000    6.000    0.000    0.000 
#    0.000    0.000    0.000    0.000    0.000    0.000 
#
# Total GULP energy -173484.434410 kJ/mol
# GULP energy per Si atom -12391.745315 kJ/mol
# Density = 2.219590 g / cm^3
# Si number density = 22.246536 Si / 1000 Ang^3
#
#
#
# Elastic Constant Matrix: (Units=GPa)
#
#
# Indices 1 2 3 4 5 6 
#
# 1 116.4429 17.4633 32.9770 -5.6141 12.1288 -12.1497
# 2 17.4633 75.3260 4.1010 -4.8237 -2.2375 -5.7293
# 3 32.9770 4.1010 73.2193 0.1615 9.3288 -4.8154
# 4 -5.6141 -4.8237 0.1615 30.0199 0.7587 -1.5176
# 5 12.1288 -2.2375 9.3288 0.7587 44.7377 -0.2286
# 6 -12.1497 -5.7293 -4.8154 -1.5176 -0.2286 24.3024
#
#
#
# Elastic Compliance Matrix: (Units=1/GPa)
#
#
# Indices 1 2 3 4 5 6 
#
# 1 0.010832 -0.001895 -0.004223 0.002013 -0.002163 0.004238
# 2 -0.001895 0.014066 0.000076 0.002003 0.001180 0.002520
# 3 -0.004223 0.000076 0.015896 -0.000759 -0.002148 0.000989
# 4 0.002013 0.002003 -0.000759 0.034210 -0.000850 0.003457
# 5 -0.002163 0.001180 -0.002148 -0.000850 0.023455 -0.001061
# 6 0.004238 0.002520 0.000989 0.003457 -0.001061 0.044263
#
#
# Mechanical properties :
#
#
# Convention : Reuss Voigt Hill
#
# Bulk Modulus (GPa) = 34.82864 41.56344 38.19604
# Shear Modulus (GPa) = 30.41849 33.84179 32.13014
#
# Velocity S-wave (km/s) = 3.70176 3.90451 3.80449
# Velocity P-wave (km/s) = 5.82756 6.24905 6.04198
#
# Compressibility (1/GPa) = 0.02871200
#
# Stress axis : x y z
#
# Youngs Moduli (GPa) = 92.31490 71.09498 62.91046
#
# Poissons Ratio (x) = 0.13469 0.26566
# Poissons Ratio (y) = 0.17489 -0.00481
# Poissons Ratio (z) = 0.38983 -0.00543
#
# Static dielectric constant tensor:
#      x y z
#    x 4.301370 -0.395320 0.218150 
#    y -0.395320 4.118960 -0.284530 
#    z 0.218150 -0.284530 4.145940 
# 
# 
# High freq. dielectric constant tensor:
#      x y z
#    x 1.894570 -0.012240 0.003900 
#    y -0.012240 1.860960 -0.004450 
#    z 0.003900 -0.004450 1.877130 
# 
# From -- ./inp_files/82910.got.cif
#   From: 2010.06.25/outbox.cif.g09.slc.cpg/sg2_42_cif.got.tgz:82910.got - 2010.06.27 13:26:56.
