data_PCOD8023439
_publ_section_title
;
Structure prediction by ZEFSAII (Michael W. Deem and Ramdas Pophale) SiO2 
 PCOD8023439
Probable space group: P -1
;
_chemical_formula_sum "Si O2"
_cell_formula_units_Z 14
_cell_length_a 9.534339
_cell_length_b 15.624183
_cell_length_c 16.301256
_cell_angle_alpha 142.389277
_cell_angle_beta 35.845509
_cell_angle_gamma 151.480213
_cell_volume 650.627281
_symmetry_space_group_name_H-M "P -1"
_symmetry_group_IT_number 2
_symmetry_cell_setting 'triclinic'
loop_
_space_group_symop_operation_xyz
x,y,z
-x,-y,-z
loop_
_atom_site_type_symbol
_atom_site_label
_atom_site_fract_x
_atom_site_fract_y
_atom_site_fract_z
Si Si1 0.571922 0.566756 0.666447
Si Si2 0.781317 0.194898 0.559281
Si Si3 0.798208 0.033409 0.971887
Si Si4 0.500070 0.663753 0.101531
Si Si5 0.507456 0.204226 0.213498
Si Si6 0.638546 0.344468 0.024308
Si Si7 0.146804 0.171272 0.504368
O O1 0.370217 0.599540 0.730416
O O2 0.583099 0.626754 0.800747
O O3 0.354717 0.346570 0.599628
O O4 0.925094 0.676302 0.545995
O O5 0.676429 0.310783 0.725888
O O6 0.888111 0.153075 0.558439
O O7 0.500000 0.000000 0.500000
O O8 0.778217 0.191430 0.080699
O O9 0.140833 0.137781 0.927413
O O10 0.779699 0.949516 0.828985
O O11 0.513034 0.866900 0.040461
O O12 0.500000 0.500000 0.000000
O O13 0.348299 0.625482 0.055456
O O14 0.386922 0.175961 0.339732
O O15 0.000000 0.500000 0.000000
O O16 0.000000 0.000000 0.500000
#
# Coordination Sequence:
#
# PCOD8023439 Si02
#       7
#     2   2   2   2   2   2   2
#     4  10  23  44  68  94 136 176 226 271 336 395
#     4  11  24  47  69  95 137 180 222 279 341 397
#     4  10  23  41  67  94 138 167 226 269 340 389
#     4  12  28  42  70 104 137 178 227 278 341 402
#     4   9  20  39  69  94 125 178 216 276 329 397
#     4  11  25  44  69  98 137 177 225 277 333 402
#     4  11  24  39  69  97 130 171 230 268 332 398
#
# _framework density 21.517695
#
# number of rings (size 3 to 8) (size 9 to 14) (size 15 to 20)
#    0.000    1.429    0.000    5.571   14.000    1.143 
#    0.000    1.429    0.000    0.000    0.000    0.000 
#    0.000    0.000    0.000    0.000    0.000    0.000 
#
# Total GULP energy -173517.130304 kJ/mol
# GULP energy per Si atom -12394.080736 kJ/mol
# Density = 2.146872 g / cm^3
# Si number density = 21.517695 Si / 1000 Ang^3
#
#
#
# Elastic Constant Matrix: (Units=GPa)
#
#
# Indices 1 2 3 4 5 6 
#
# 1 69.4828 31.8769 32.9112 7.1416 3.0296 14.7575
# 2 31.8769 115.7417 45.2006 9.0063 -14.5591 5.9663
# 3 32.9112 45.2006 138.4023 7.6112 4.6209 -7.8828
# 4 7.1416 9.0063 7.6112 27.1964 -0.1708 -5.5081
# 5 3.0296 -14.5591 4.6209 -0.1708 30.9220 -0.5563
# 6 14.7575 5.9663 -7.8828 -5.5081 -0.5563 37.0754
#
#
#
# Elastic Compliance Matrix: (Units=1/GPa)
#
#
# Indices 1 2 3 4 5 6 
#
# 1 0.020503 -0.003735 -0.003791 -0.004961 -0.003393 -0.009154
# 2 -0.003735 0.011976 -0.003188 -0.002329 0.006444 -0.001368
# 3 -0.003791 -0.003188 0.009469 0.000202 -0.002471 0.004028
# 4 -0.004961 -0.002329 0.000202 0.040488 -0.000266 0.008404
# 5 -0.003393 0.006444 -0.002471 -0.000266 0.036079 0.000290
# 6 -0.009154 -0.001368 0.004028 0.008404 0.000290 0.032945
#
#
# Mechanical properties :
#
#
# Convention : Reuss Voigt Hill
#
# Bulk Modulus (GPa) = 48.73329 60.40046 54.56687
# Shear Modulus (GPa) = 27.81978 33.28128 30.55053
#
# Velocity S-wave (km/s) = 3.59956 3.93707 3.77209
# Velocity P-wave (km/s) = 6.32242 6.98559 6.66226
#
# Compressibility (1/GPa) = 0.02051986
#
# Stress axis : x y z
#
# Youngs Moduli (GPa) = 48.77217 83.50054 105.61076
#
# Poissons Ratio (x) = 0.31191 0.40036
# Poissons Ratio (y) = 0.18218 0.33668
# Poissons Ratio (z) = 0.18489 0.26619
#
# Static dielectric constant tensor:
#      x y z
#    x 3.770230 0.039070 0.009870 
#    y 0.039070 3.865520 0.151630 
#    z 0.009870 0.151630 4.364020 
# 
# 
# High freq. dielectric constant tensor:
#      x y z
#    x 1.826870 0.002900 0.004900 
#    y 0.002900 1.851520 0.008950 
#    z 0.004900 0.008950 1.863010 
# 
# From -- ./inp_files/209160.got.cif
#   From: 2010.06.25/outbox.cif.g09.slc.cpg/sg2_105_cif.got.tgz:209160.got - 2010.06.27 13:26:56.
