data_PCOD8023179
_publ_section_title
;
Structure prediction by ZEFSAII (Michael W. Deem and Ramdas Pophale) SiO2 
 PCOD8023179
Probable space group: P -1
;
_chemical_formula_sum "Si O2"
_cell_formula_units_Z 14
_cell_length_a 10.045544
_cell_length_b 17.175607
_cell_length_c 14.278326
_cell_angle_alpha 137.142049
_cell_angle_beta 28.121879
_cell_angle_gamma 138.207849
_cell_volume 751.175593
_symmetry_space_group_name_H-M "P -1"
_symmetry_group_IT_number 2
_symmetry_cell_setting 'triclinic'
loop_
_space_group_symop_operation_xyz
x,y,z
-x,-y,-z
loop_
_atom_site_type_symbol
_atom_site_label
_atom_site_fract_x
_atom_site_fract_y
_atom_site_fract_z
Si Si1 0.187004 0.268809 0.285389
Si Si2 0.859380 0.985561 0.873767
Si Si3 0.397342 0.789205 0.891576
Si Si4 0.652572 0.360319 0.715434
Si Si5 0.777865 0.816872 0.308640
Si Si6 0.781061 0.638023 0.852857
Si Si7 0.360676 0.819664 0.729494
O O1 0.048813 0.122686 0.228802
O O2 0.464516 0.300147 0.214274
O O3 0.308874 0.329858 0.165520
O O4 0.936131 0.318895 0.527671
O O5 0.584439 0.926433 0.922174
O O6 0.130992 0.069650 0.718445
O O7 0.754531 0.064639 0.085690
O O8 0.424626 0.770153 0.746899
O O9 0.055395 0.767684 0.112987
O O10 0.482637 0.290242 0.669543
O O11 0.762886 0.499823 0.744919
O O12 0.443085 0.330641 0.909100
O O13 0.659552 0.855389 0.513317
O O14 0.115135 0.714239 0.736287
#
# Coordination Sequence:
#
# PCOD8023179 Si02
#       7
#     2   2   2   2   2   2   2
#     4  10  23  41  60  88 127 150 187 261 296 335
#     4   9  22  39  58  89 131 145 195 249 288 351
#     4   9  22  41  56  91 127 148 196 249 286 352
#     4  11  23  41  65  85 116 159 204 243 292 352
#     4  11  20  37  65  89 116 165 196 230 299 361
#     4  11  23  41  65  85 116 159 204 243 292 352
#     4  11  20  37  65  89 116 165 196 230 299 361
#
# _framework density 18.637453000000001
#
# number of rings (size 3 to 8) (size 9 to 14) (size 15 to 20)
#    0.857    0.857    4.286    2.143    0.000    5.714 
#    0.000    1.429    0.000    0.000    0.000    0.000 
#    0.000    0.000    0.000    0.000    0.000    0.000 
#
# Total GULP energy -173534.918083 kJ/mol
# GULP energy per Si atom -12395.351292 kJ/mol
# Density = 1.859503 g / cm^3
# Si number density = 18.637453 Si / 1000 Ang^3
#
#
#
# Elastic Constant Matrix: (Units=GPa)
#
#
# Indices 1 2 3 4 5 6 
#
# 1 -73.8039 153.3178 30.4304 29.7943 78.7759 17.1440
# 2 153.3178 -84.3790 87.2995 -9.9534 -78.4388 -44.5799
# 3 30.4304 87.2995 136.2595 0.1791 41.3124 -19.9988
# 4 29.7943 -9.9534 0.1791 18.8690 -16.9915 -7.1251
# 5 78.7759 -78.4388 41.3124 -16.9915 -9.1203 -14.6503
# 6 17.1440 -44.5799 -19.9988 -7.1251 -14.6503 8.1967
#
#
#
# Elastic Compliance Matrix: (Units=1/GPa)
#
#
# Indices 1 2 3 4 5 6 
#
# 1 0.056024 0.040645 -0.047314 -0.048009 0.024557 -0.009401
# 2 0.040645 0.034691 -0.034507 -0.046587 0.004381 -0.013190
# 3 -0.047314 -0.034507 0.053187 0.048630 -0.024654 0.039266
# 4 -0.048009 -0.046587 0.048630 0.098682 -0.015564 0.023651
# 5 0.024557 0.004381 -0.024654 -0.015564 0.037379 -0.034407
# 6 -0.009401 -0.013190 0.039266 0.023651 -0.034407 0.124790
#
#
# Mechanical properties :
#
#
# Convention : Reuss Voigt Hill
#
# Bulk Modulus (GPa) = 16.24682 57.79687 37.02184
# Shear Modulus (GPa) = 9.84986 -15.94233 -3.04623
#
# Velocity S-wave (km/s) = 2.30140 -2.92788 -1.27985
# Velocity P-wave (km/s) = 3.97469 4.43266 4.20991
#
# Compressibility (1/GPa) = 0.06155051
#
# Stress axis : x y z
#
# Youngs Moduli (GPa) = 17.84961 28.82552 18.80149
#
# Poissons Ratio (x) = -1.17161 0.88958
# Poissons Ratio (y) = -0.72550 0.64877
# Poissons Ratio (z) = 0.84454 0.99467
#
# Static dielectric constant tensor:
#      x y z
#    x 3.330030 0.029420 0.066240 
#    y 0.029420 3.324880 -0.025510 
#    z 0.066240 -0.025510 3.415340 
# 
# 
# High freq. dielectric constant tensor:
#      x y z
#    x 1.720100 0.000380 0.006670 
#    y 0.000380 1.716060 -0.003470 
#    z 0.006670 -0.003470 1.729240 
# 
# From -- ./inp_files/570260.got.cif
#   From: 2010.06.25/outbox.cif.g09.slc.cpg/sg2_286_cif.got.tgz:570260.got - 2010.06.27 13:26:56.
