data_PCOD8023862
_publ_section_title
;
Structure prediction by ZEFSAII (Michael W. Deem and Ramdas Pophale) SiO2 
 PCOD8023862
Probable space group: P -1
;
_chemical_formula_sum "Si O2"
_cell_formula_units_Z 16
_cell_length_a 27.219027
_cell_length_b 18.279905
_cell_length_c 5.296390
_cell_angle_alpha 105.867461
_cell_angle_beta 114.304657
_cell_angle_gamma 18.038253
_cell_volume 675.627911
_symmetry_space_group_name_H-M "P -1"
_symmetry_group_IT_number 2
_symmetry_cell_setting 'triclinic'
loop_
_space_group_symop_operation_xyz
x,y,z
-x,-y,-z
loop_
_atom_site_type_symbol
_atom_site_label
_atom_site_fract_x
_atom_site_fract_y
_atom_site_fract_z
Si Si1 0.699323 0.378845 0.321044
Si Si2 0.115841 0.075737 0.311517
Si Si3 0.704483 0.942451 0.272601
Si Si4 0.672263 0.575421 0.303716
Si Si5 0.983757 0.103024 0.187653
Si Si6 0.065168 0.474953 0.307773
Si Si7 0.914393 0.390579 0.696354
Si Si8 0.519312 0.340341 0.388877
O O1 0.715560 0.448815 0.475237
O O2 0.894597 0.071462 0.461442
O O3 0.574078 0.512629 0.405160
O O4 0.622277 0.471089 0.965296
O O5 0.041378 0.194458 0.546118
O O6 0.075084 0.042140 0.139602
O O7 0.334118 0.792522 0.495236
O O8 0.022425 0.250334 0.056153
O O9 0.771334 0.779619 0.417559
O O10 0.879792 0.746077 0.324676
O O11 0.619455 0.123803 0.434293
O O12 0.547907 0.122347 0.920019
O O13 0.743989 0.561528 0.530631
O O14 0.777477 0.407487 0.110006
O O15 0.000000 0.000000 0.000000
O O16 0.151720 0.433624 0.325638
O O17 0.000000 0.500000 0.000000
#
# Coordination Sequence:
#
# PCOD8023862 Si02
#       8
#     2   2   2   2   2   2   2   2
#     4  11  24  40  69  99 135 177 229 280 329 393
#     4  11  24  42  69  98 137 182 223 279 338 396
#     4  10  23  42  67 100 132 174 226 269 343 399
#     4  10  24  44  69  98 137 185 220 274 339 409
#     4  11  23  44  68  98 138 182 231 276 335 398
#     4  11  24  42  72  99 132 174 224 285 331 405
#     4  11  24  44  68 101 138 177 224 274 342 399
#     4  11  23  42  68 100 136 178 224 281 335 402
#
# _framework density 23.681674000000001
#
# number of rings (size 3 to 8) (size 9 to 14) (size 15 to 20)
#    0.000    1.250    1.250    4.125    7.000    6.500 
#    0.000    0.625    0.000    0.000    0.000    0.000 
#    0.000    0.000    0.000    0.000    0.000    0.000 
#
# Total GULP energy -198338.723397 kJ/mol
# GULP energy per Si atom -12396.170212 kJ/mol
# Density = 2.362777 g / cm^3
# Si number density = 23.681674 Si / 1000 Ang^3
#
#
#
# Elastic Constant Matrix: (Units=GPa)
#
#
# Indices 1 2 3 4 5 6 
#
# 1 130.7566 3.2844 21.0388 -10.4717 -3.8581 1.8490
# 2 3.2844 51.6594 12.9153 -12.5791 -8.2466 -0.1640
# 3 21.0388 12.9153 60.5040 -11.9708 -10.4508 -0.5788
# 4 -10.4717 -12.5791 -11.9708 38.8620 3.7216 -4.6788
# 5 -3.8581 -8.2466 -10.4508 3.7216 41.2900 -0.7790
# 6 1.8490 -0.1640 -0.5788 -4.6788 -0.7790 34.7481
#
#
#
# Elastic Compliance Matrix: (Units=1/GPa)
#
#
# Indices 1 2 3 4 5 6 
#
# 1 0.008188 0.000520 -0.002651 0.001520 0.000056 -0.000271
# 2 0.000520 0.022107 -0.003135 0.006141 0.003134 0.000922
# 3 -0.002651 -0.003135 0.019581 0.004075 0.003735 0.001085
# 4 0.001520 0.006141 0.004075 0.029892 -0.000218 0.004036
# 5 0.000056 0.003134 0.003735 -0.000218 0.025827 0.000624
# 6 -0.000271 0.000922 0.001085 0.004036 0.000624 0.029373
#
#
# Mechanical properties :
#
#
# Convention : Reuss Voigt Hill
#
# Bulk Modulus (GPa) = 25.41548 35.26633 30.34090
# Shear Modulus (GPa) = 31.52338 36.69213 34.10775
#
# Velocity S-wave (km/s) = 3.65242 3.94050 3.79919
# Velocity P-wave (km/s) = 5.34250 5.96888 5.66436
#
# Compressibility (1/GPa) = 0.03934610
#
# Stress axis : x y z
#
# Youngs Moduli (GPa) = 122.12325 45.23498 51.07108
#
# Poissons Ratio (x) = -0.02354 0.13536
# Poissons Ratio (y) = -0.06355 0.16009
# Poissons Ratio (z) = 0.32369 0.14180
#
# Static dielectric constant tensor:
#      x y z
#    x 4.789490 -0.005100 -0.011520 
#    y -0.005100 4.355910 -0.310190 
#    z -0.011520 -0.310190 4.272790 
# 
# 
# High freq. dielectric constant tensor:
#      x y z
#    x 1.958650 -0.002260 -0.000270 
#    y -0.002260 1.920710 -0.010000 
#    z -0.000270 -0.010000 1.934860 
# 
# From -- ./inp_files/127445.got.cif
#   From: 2010.06.25/outbox.cif.g09.slc.cpg/sg2_64_cif.got.tgz:127445.got - 2010.06.27 13:26:56.
