data_PCOD8023248
_publ_section_title
;
Structure prediction by ZEFSAII (Michael W. Deem and Ramdas Pophale) SiO2 
 PCOD8023248
Probable space group: P -1
;
_chemical_formula_sum "Si O2"
_cell_formula_units_Z 14
_cell_length_a 18.166665
_cell_length_b 8.354343
_cell_length_c 10.872144
_cell_angle_alpha 135.229335
_cell_angle_beta 139.549847
_cell_angle_gamma 73.100472
_cell_volume 631.581799
_symmetry_space_group_name_H-M "P -1"
_symmetry_group_IT_number 2
_symmetry_cell_setting 'triclinic'
loop_
_space_group_symop_operation_xyz
x,y,z
-x,-y,-z
loop_
_atom_site_type_symbol
_atom_site_label
_atom_site_fract_x
_atom_site_fract_y
_atom_site_fract_z
Si Si1 0.783309 0.687049 0.412046
Si Si2 0.711569 0.870494 0.639475
Si Si3 0.617295 0.774200 0.738070
Si Si4 0.915189 0.008898 0.284557
Si Si5 0.005232 0.610979 0.724552
Si Si6 0.988591 0.249682 0.915525
Si Si7 0.529325 0.140807 0.743350
O O1 0.757162 0.694730 0.529453
O O2 0.903750 0.637026 0.521441
O O3 0.835333 0.978876 0.573292
O O4 0.648572 0.454007 0.047897
O O5 0.635372 0.728435 0.592168
O O6 0.611084 0.883967 0.418789
O O7 0.839956 0.169633 0.996634
O O8 0.500000 0.500000 0.500000
O O9 0.574293 0.993649 0.816401
O O10 0.757333 0.879540 0.046790
O O11 0.915956 0.834245 0.074796
O O12 0.983277 0.323193 0.512126
O O13 0.000000 0.000000 0.500000
O O14 0.968851 0.655755 0.839384
O O15 0.000000 0.500000 0.000000
O O16 0.500000 0.000000 0.500000
#
# Coordination Sequence:
#
# PCOD8023248 Si02
#       7
#     2   2   2   2   2   2   2
#     4  11  22  43  70  97 136 178 223 278 335 402
#     4  10  23  43  67  97 135 175 222 277 339 396
#     4  11  25  43  63  95 136 174 227 279 331 402
#     4  12  25  41  71  98 136 179 223 278 354 385
#     4  11  23  44  70 102 131 175 231 283 328 408
#     4  11  24  41  65 107 136 167 224 285 334 400
#     4  10  23  41  63  97 134 174 227 267 324 409
#
# _framework density 22.166566
#
# number of rings (size 3 to 8) (size 9 to 14) (size 15 to 20)
#    0.000    1.143    2.857    3.857    6.000    2.286 
#    0.000    0.714    0.000    0.000    0.000    0.000 
#    0.000    0.000    0.000    0.000    0.000    0.000 
#
# Total GULP energy -173508.165694 kJ/mol
# GULP energy per Si atom -12393.440407 kJ/mol
# Density = 2.211611 g / cm^3
# Si number density = 22.166566 Si / 1000 Ang^3
#
#
#
# Elastic Constant Matrix: (Units=GPa)
#
#
# Indices 1 2 3 4 5 6 
#
# 1 102.9754 45.2823 50.0364 9.7122 7.0897 2.4393
# 2 45.2823 123.9027 67.0703 10.4401 16.3626 -15.5909
# 3 50.0364 67.0703 175.6917 12.0762 19.4217 -9.5249
# 4 9.7122 10.4401 12.0762 50.2577 -6.3356 4.9685
# 5 7.0897 16.3626 19.4217 -6.3356 44.4774 0.3639
# 6 2.4393 -15.5909 -9.5249 4.9685 0.3639 32.6499
#
#
#
# Elastic Compliance Matrix: (Units=1/GPa)
#
#
# Indices 1 2 3 4 5 6 
#
# 1 0.012614 -0.003745 -0.002325 -0.000736 0.000304 -0.003300
# 2 -0.003745 0.012257 -0.002829 -0.002083 -0.003020 0.005658
# 3 -0.002325 -0.002829 0.007835 -0.001254 -0.002199 0.001324
# 4 -0.000736 -0.002083 -0.001254 0.021813 0.004577 -0.004676
# 5 0.000304 -0.003020 -0.002199 0.004577 0.025183 -0.003084
# 6 -0.003300 0.005658 0.001324 -0.004676 -0.003084 0.034708
#
#
# Mechanical properties :
#
#
# Convention : Reuss Voigt Hill
#
# Bulk Modulus (GPa) = 67.07387 80.81643 73.94515
# Shear Modulus (GPa) = 36.44905 41.48907 38.96906
#
# Velocity S-wave (km/s) = 4.05943 4.33100 4.19741
# Velocity P-wave (km/s) = 7.23164 7.84525 7.54469
#
# Compressibility (1/GPa) = 0.01490894
#
# Stress axis : x y z
#
# Youngs Moduli (GPa) = 79.27572 81.58528 127.63491
#
# Poissons Ratio (x) = 0.30554 0.29672
# Poissons Ratio (y) = 0.29689 0.36106
# Poissons Ratio (z) = 0.18430 0.23079
#
# Static dielectric constant tensor:
#      x y z
#    x 3.772740 0.158430 -0.375360 
#    y 0.158430 3.720190 0.430600 
#    z -0.375360 0.430600 3.658680 
# 
# 
# High freq. dielectric constant tensor:
#      x y z
#    x 1.876940 -0.019890 -0.000300 
#    y -0.019890 1.867280 -0.001490 
#    z -0.000300 -0.001490 1.878280 
# 
# From -- ./inp_files/158299.got.cif
#   From: 2010.06.25/outbox.cif.g09.slc.cpg/sg2_80_cif.got.tgz:158299.got - 2010.06.27 13:26:56.
