data_PCOD8023078
_publ_section_title
;
Structure prediction by ZEFSAII (Michael W. Deem and Ramdas Pophale) SiO2 
 PCOD8023078
Probable space group: P -1
;
_chemical_formula_sum "Si O2"
_cell_formula_units_Z 14
_cell_length_a 11.238005
_cell_length_b 19.159439
_cell_length_c 9.428487
_cell_angle_alpha 144.821267
_cell_angle_beta 127.326761
_cell_angle_gamma 32.246467
_cell_volume 599.758741
_symmetry_space_group_name_H-M "P -1"
_symmetry_group_IT_number 2
_symmetry_cell_setting 'triclinic'
loop_
_space_group_symop_operation_xyz
x,y,z
-x,-y,-z
loop_
_atom_site_type_symbol
_atom_site_label
_atom_site_fract_x
_atom_site_fract_y
_atom_site_fract_z
Si Si1 0.844662 0.505591 0.244910
Si Si2 0.664258 0.789188 0.811660
Si Si3 0.470689 0.354269 0.982140
Si Si4 0.152214 0.754349 0.113750
Si Si5 0.128733 0.771966 0.456955
Si Si6 0.235301 0.964373 0.917626
Si Si7 0.680096 0.995944 0.660085
O O1 0.787101 0.660069 0.547378
O O2 0.120173 0.310449 0.095961
O O3 0.730293 0.596244 0.160745
O O4 0.734320 0.450382 0.140071
O O5 0.504241 0.789761 0.774579
O O6 0.500000 0.000000 0.000000
O O7 0.350857 0.549219 0.282738
O O8 0.678916 0.257789 0.864436
O O9 0.564012 0.202031 0.911903
O O10 0.109638 0.821970 0.359266
O O11 0.914619 0.887587 0.074197
O O12 0.154019 0.877308 0.745286
O O13 0.892393 0.850942 0.463002
O O14 0.218502 0.066515 0.209704
O O15 0.500000 0.000000 0.500000
#
# Coordination Sequence:
#
# PCOD8023078 Si02
#       7
#     2   2   2   2   2   2   2
#     4  10  23  40  67 109 136 177 235 301 350 412
#     4  11  23  39  66 102 143 182 231 292 355 407
#     4  11  25  45  74 101 142 181 240 291 354 415
#     4  11  22  44  79 107 134 178 241 305 351 408
#     4  11  25  49  75 105 137 185 242 294 355 411
#     4  12  25  45  73 103 143 191 233 288 356 418
#     4  12  31  47  67 102 153 193 234 280 352 436
#
# _framework density 23.34272
#
# number of rings (size 3 to 8) (size 9 to 14) (size 15 to 20)
#    0.000    0.857    2.857    4.286    8.000    1.143 
#    2.571    0.000    0.000    0.000    0.000    0.000 
#    0.000    0.000    0.000    0.000    0.000    0.000 
#
# Total GULP energy -173541.760791 kJ/mol
# GULP energy per Si atom -12395.840057 kJ/mol
# Density = 2.328959 g / cm^3
# Si number density = 23.342720 Si / 1000 Ang^3
#
#
#
# Elastic Constant Matrix: (Units=GPa)
#
#
# Indices 1 2 3 4 5 6 
#
# 1 94.2940 32.3171 26.2397 1.7737 1.4776 -21.5211
# 2 32.3171 105.3265 34.0021 -4.1781 -8.0874 -10.6088
# 3 26.2397 34.0021 113.8533 -9.1588 1.5068 -5.1261
# 4 1.7737 -4.1781 -9.1588 36.8003 -4.9757 2.2385
# 5 1.4776 -8.0874 1.5068 -4.9757 27.2150 1.5379
# 6 -21.5211 -10.6088 -5.1261 2.2385 1.5379 39.6142
#
#
#
# Elastic Compliance Matrix: (Units=1/GPa)
#
#
# Indices 1 2 3 4 5 6 
#
# 1 0.013875 -0.003184 -0.002100 -0.002277 -0.002374 0.006634
# 2 -0.003184 0.011787 -0.002696 0.001312 0.004017 0.000848
# 3 -0.002100 -0.002696 0.010237 0.002273 -0.000802 -0.000635
# 4 -0.002277 0.001312 0.002273 0.028934 0.005816 -0.002452
# 5 -0.002374 0.004017 -0.000802 0.005816 0.039298 -0.002172
# 6 0.006634 0.000848 -0.000635 -0.002452 -0.002172 0.029215
#
#
# Mechanical properties :
#
#
# Convention : Reuss Voigt Hill
#
# Bulk Modulus (GPa) = 50.15002 55.39905 52.77454
# Shear Modulus (GPa) = 32.06106 35.45355 33.75731
#
# Velocity S-wave (km/s) = 3.71009 3.90144 3.80697
# Velocity P-wave (km/s) = 6.31537 6.63923 6.47932
#
# Compressibility (1/GPa) = 0.01994017
#
# Stress axis : x y z
#
# Youngs Moduli (GPa) = 72.07274 84.83655 97.68274
#
# Poissons Ratio (x) = 0.27009 0.20513
# Poissons Ratio (y) = 0.22946 0.26335
# Poissons Ratio (z) = 0.15135 0.22871
#
# Static dielectric constant tensor:
#      x y z
#    x 4.168350 -0.270930 0.140200 
#    y -0.270930 4.561200 -0.029530 
#    z 0.140200 -0.029530 3.959890 
# 
# 
# High freq. dielectric constant tensor:
#      x y z
#    x 1.912580 -0.014820 0.015480 
#    y -0.014820 1.939100 -0.000020 
#    z 0.015480 -0.000020 1.915070 
# 
# From -- ./inp_files/282458.got.cif
#   From: 2010.06.25/outbox.cif.g09.slc.cpg/sg2_142_cif.got.tgz:282458.got - 2010.06.27 13:26:56.
