data_PCOD8023777
_publ_section_title
;
Structure prediction by ZEFSAII (Michael W. Deem and Ramdas Pophale) SiO2 
 PCOD8023777
Probable space group: P -1
;
_chemical_formula_sum "Si O2"
_cell_formula_units_Z 14
_cell_length_a 8.451337
_cell_length_b 10.391541
_cell_length_c 14.838332
_cell_angle_alpha 74.450199
_cell_angle_beta 30.756825
_cell_angle_gamma 77.417902
_cell_volume 641.818815
_symmetry_space_group_name_H-M "P -1"
_symmetry_group_IT_number 2
_symmetry_cell_setting 'triclinic'
loop_
_space_group_symop_operation_xyz
x,y,z
-x,-y,-z
loop_
_atom_site_type_symbol
_atom_site_label
_atom_site_fract_x
_atom_site_fract_y
_atom_site_fract_z
Si Si1 0.112871 0.809324 0.163407
Si Si2 0.821761 0.662922 0.488121
Si Si3 0.935143 0.378154 0.437807
Si Si4 0.900749 0.924781 0.972865
Si Si5 0.677572 0.634214 0.916114
Si Si6 0.885700 0.342645 0.136108
Si Si7 0.737937 0.697188 0.199820
O O1 0.880977 0.785023 0.366374
O O2 0.963142 0.739579 0.162630
O O3 0.179269 0.967679 0.084743
O O4 0.443802 0.749347 0.035308
O O5 0.011994 0.536577 0.380916
O O6 0.465201 0.614476 0.684758
O O7 0.965718 0.702536 0.506789
O O8 0.569999 0.368304 0.597120
O O9 0.118638 0.315036 0.277692
O O10 0.144920 0.820941 0.829933
O O11 0.633459 0.822350 0.162837
O O12 0.000000 0.000000 0.000000
O O13 0.908367 0.610095 0.889438
O O14 0.500000 0.500000 0.000000
O O15 0.058014 0.400029 0.948037
#
# Coordination Sequence:
#
# PCOD8023777 Si02
#       7
#     2   2   2   2   2   2   2
#     4  11  21  42  68  90 131 164 211 261 315 368
#     4  11  24  39  65  94 125 174 206 266 312 374
#     4  11  24  41  59  93 135 160 219 254 316 378
#     4   8  20  42  68  92 124 164 214 259 314 374
#     4  12  25  40  63  99 127 168 212 259 313 384
#     4  10  23  42  65  96 123 167 214 251 328 363
#     4   9  21  41  65  91 123 166 204 265 309 373
#
# _framework density 21.813009000000001
#
# number of rings (size 3 to 8) (size 9 to 14) (size 15 to 20)
#    0.857    0.857    1.429    2.571    4.000    2.857 
#    0.000    0.714    0.000    0.000    0.000    0.000 
#    0.000    0.000    0.000    0.000    0.000    0.000 
#
# Total GULP energy -173442.689386 kJ/mol
# GULP energy per Si atom -12388.763528 kJ/mol
# Density = 2.176336 g / cm^3
# Si number density = 21.813009 Si / 1000 Ang^3
#
#
#
# Elastic Constant Matrix: (Units=GPa)
#
#
# Indices 1 2 3 4 5 6 
#
# 1 97.1635 3.4479 24.0520 5.6056 8.2396 -1.6139
# 2 3.4479 19.2851 6.0210 -3.9880 2.8642 -5.2265
# 3 24.0520 6.0210 125.4336 2.7896 9.6353 -7.7052
# 4 5.6056 -3.9880 2.7896 26.2568 -9.2957 8.5339
# 5 8.2396 2.8642 9.6353 -9.2957 39.3295 0.9807
# 6 -1.6139 -5.2265 -7.7052 8.5339 0.9807 32.0367
#
#
#
# Elastic Compliance Matrix: (Units=1/GPa)
#
#
# Indices 1 2 3 4 5 6 
#
# 1 0.011238 -0.001574 -0.001727 -0.003735 -0.002724 0.000972
# 2 -0.001574 0.056213 -0.001941 0.006062 -0.002032 0.007072
# 3 -0.001727 -0.001941 0.008777 -0.002459 -0.002289 0.002432
# 4 -0.003735 0.006062 -0.002459 0.048901 0.012831 -0.013209
# 5 -0.002724 -0.002032 -0.002289 0.012831 0.029872 -0.005351
# 6 0.000972 0.007072 0.002432 -0.013209 -0.005351 0.036684
#
#
# Mechanical properties :
#
#
# Convention : Reuss Voigt Hill
#
# Bulk Modulus (GPa) = 15.21080 34.32489 24.76784
# Shear Modulus (GPa) = 22.31317 33.41537 27.86427
#
# Velocity S-wave (km/s) = 3.20180 3.91820 3.57797
# Velocity P-wave (km/s) = 4.54501 6.01995 5.33371
#
# Compressibility (1/GPa) = 0.06574277
#
# Stress axis : x y z
#
# Youngs Moduli (GPa) = 88.98401 17.78952 113.93852
#
# Poissons Ratio (x) = 0.02801 0.19681
# Poissons Ratio (y) = 0.14008 0.22113
# Poissons Ratio (z) = 0.15370 0.03453
#
# Static dielectric constant tensor:
#      x y z
#    x 3.777470 -0.031370 0.218530 
#    y -0.031370 4.335210 -0.117230 
#    z 0.218530 -0.117230 3.939130 
# 
# 
# High freq. dielectric constant tensor:
#      x y z
#    x 1.857480 -0.000230 0.016300 
#    y -0.000230 1.846710 -0.005540 
#    z 0.016300 -0.005540 1.856200 
# 
# From -- ./inp_files/196363.got.cif
#   From: 2010.06.25/outbox.cif.g09.slc.cpg/sg2_99_cif.got.tgz:196363.got - 2010.06.27 13:26:56.
