data_PCOD8023736
_publ_section_title
;
Structure prediction by ZEFSAII (Michael W. Deem and Ramdas Pophale) SiO2 
 PCOD8023736
Probable space group: P -1
;
_chemical_formula_sum "Si O2"
_cell_formula_units_Z 12
_cell_length_a 13.329478
_cell_length_b 14.024445
_cell_length_c 5.273160
_cell_angle_alpha 99.615133
_cell_angle_beta 81.082727
_cell_angle_gamma 146.621412
_cell_volume 534.494640
_symmetry_space_group_name_H-M "P -1"
_symmetry_group_IT_number 2
_symmetry_cell_setting 'triclinic'
loop_
_space_group_symop_operation_xyz
x,y,z
-x,-y,-z
loop_
_atom_site_type_symbol
_atom_site_label
_atom_site_fract_x
_atom_site_fract_y
_atom_site_fract_z
Si Si1 0.373941 0.682877 0.229372
Si Si2 0.707479 0.017661 0.563508
Si Si3 0.028600 0.639356 0.639671
Si Si4 0.596703 0.677752 0.057868
Si Si5 0.207271 0.727340 0.117054
Si Si6 0.196330 0.114255 0.420615
O O1 0.510084 0.834995 0.451615
O O2 0.457396 0.655532 0.045763
O O3 0.340696 0.740032 0.054492
O O4 0.184444 0.500411 0.354636
O O5 0.802140 0.000767 0.651899
O O6 0.848606 0.166197 0.356402
O O7 0.680735 0.083384 0.808259
O O8 0.912926 0.386583 0.626642
O O9 0.072380 0.627258 0.889945
O O10 0.673508 0.749181 0.342018
O O11 0.500000 0.500000 0.000000
O O12 0.747997 0.798857 0.834151
O O13 0.000000 0.000000 0.500000
#
# Coordination Sequence:
#
# PCOD8023736 Si02
#       6
#     2   2   2   2   2   2
#     4  11  23  44  67  96 138 174 220 283 323 398
#     4   9  25  41  67 100 131 173 227 260 345 389
#     4  10  24  40  64  97 137 175 223 264 334 395
#     4  11  27  45  69 102 129 175 230 270 343 393
#     4  10  23  42  64  98 136 175 221 268 334 396
#     4  11  25  46  72  96 136 172 222 281 336 397
#
# _framework density 22.451112999999999
#
# number of rings (size 3 to 8) (size 9 to 14) (size 15 to 20)
#    1.000    0.667    0.000    2.500    7.000    7.333 
#    0.000    0.000    0.000    0.000    0.000    0.000 
#    0.000    0.000    0.000    0.000    0.000    0.000 
#
# Total GULP energy -148785.586992 kJ/mol
# GULP energy per Si atom -12398.798916 kJ/mol
# Density = 2.240001 g / cm^3
# Si number density = 22.451113 Si / 1000 Ang^3
#
#
#
# Elastic Constant Matrix: (Units=GPa)
#
#
# Indices 1 2 3 4 5 6 
#
# 1 148.3832 58.1395 14.6344 16.7689 -7.8629 -10.1954
# 2 58.1395 122.3175 35.2546 10.4429 0.5567 -1.1209
# 3 14.6344 35.2546 98.7212 2.7872 1.4588 -10.2927
# 4 16.7689 10.4429 2.7872 37.2219 -3.9153 -1.7206
# 5 -7.8629 0.5567 1.4588 -3.9153 28.6295 3.1100
# 6 -10.1954 -1.1209 -10.2927 -1.7206 3.1100 44.9967
#
#
#
# Elastic Compliance Matrix: (Units=1/GPa)
#
#
# Indices 1 2 3 4 5 6 
#
# 1 0.008810 -0.004068 0.000373 -0.002571 0.001938 0.001748
# 2 -0.004068 0.011215 -0.003497 -0.001240 -0.001174 -0.001409
# 3 0.000373 -0.003497 0.011616 -0.000007 -0.000716 0.002704
# 4 -0.002571 -0.001240 -0.000007 0.028723 0.003218 0.000261
# 5 0.001938 -0.001174 -0.000716 0.003218 0.036192 -0.002132
# 6 0.001748 -0.001409 0.002704 0.000261 -0.002132 0.023361
#
#
# Mechanical properties :
#
#
# Convention : Reuss Voigt Hill
#
# Bulk Modulus (GPa) = 57.94696 65.05321 61.50009
# Shear Modulus (GPa) = 35.70080 39.59586 37.64833
#
# Velocity S-wave (km/s) = 3.99200 4.20414 4.09944
# Velocity P-wave (km/s) = 6.86400 7.25291 7.06113
#
# Compressibility (1/GPa) = 0.01725716
#
# Stress axis : x y z
#
# Youngs Moduli (GPa) = 113.50861 89.16388 86.09146
#
# Poissons Ratio (x) = 0.36275 -0.03212
# Poissons Ratio (y) = 0.46179 0.30102
# Poissons Ratio (z) = -0.04235 0.31176
#
# Static dielectric constant tensor:
#      x y z
#    x 4.205760 -0.189910 0.145040 
#    y -0.189910 4.139020 -0.126600 
#    z 0.145040 -0.126600 4.314570 
# 
# 
# High freq. dielectric constant tensor:
#      x y z
#    x 1.884740 -0.011620 0.000840 
#    y -0.011620 1.907160 0.001290 
#    z 0.000840 0.001290 1.879990 
# 
# From -- ./inp_files/96475.got.cif
#   From: 2010.06.25/outbox.cif.g09.slc.cpg/sg2_49_cif.got.tgz:96475.got - 2010.06.27 13:26:56.
