data_PCOD8023611
_publ_section_title
;
Structure prediction by ZEFSAII (Michael W. Deem and Ramdas Pophale) SiO2 
 PCOD8023611
Probable space group: P -1
;
_chemical_formula_sum "Si O2"
_cell_formula_units_Z 14
_cell_length_a 15.463488
_cell_length_b 5.839499
_cell_length_c 25.490521
_cell_angle_alpha 64.996928
_cell_angle_beta 161.832490
_cell_angle_gamma 106.580011
_cell_volume 592.843052
_symmetry_space_group_name_H-M "P -1"
_symmetry_group_IT_number 2
_symmetry_cell_setting 'triclinic'
loop_
_space_group_symop_operation_xyz
x,y,z
-x,-y,-z
loop_
_atom_site_type_symbol
_atom_site_label
_atom_site_fract_x
_atom_site_fract_y
_atom_site_fract_z
Si Si1 0.582620 0.734509 0.266547
Si Si2 0.505164 0.806473 0.971705
Si Si3 0.412420 0.047550 0.234029
Si Si4 0.992806 0.884887 0.423482
Si Si5 0.609743 0.116846 0.645698
Si Si6 0.032174 0.551250 0.224633
Si Si7 0.124014 0.601040 0.956421
O O1 0.755239 0.928497 0.330083
O O2 0.829511 0.438868 0.454313
O O3 0.362274 0.862097 0.176993
O O4 0.366868 0.733118 0.093956
O O5 0.807732 0.762307 0.117116
O O6 0.500000 0.500000 0.000000
O O7 0.500000 0.000000 0.000000
O O8 0.186302 0.987879 0.744334
O O9 0.769315 0.983583 0.440392
O O10 0.347274 0.945247 0.261726
O O11 0.191377 0.364053 0.062610
O O12 0.256762 0.265264 0.410397
O O13 0.771188 0.316520 0.705321
O O14 0.774493 0.822952 0.739649
O O15 0.828863 0.495729 0.067520
#
# Coordination Sequence:
#
# PCOD8023611 Si02
#       7
#     2   2   2   2   2   2   2
#     4  10  23  41  72 102 144 184 239 308 367 440
#     4  12  29  48  78 110 150 196 247 308 372 449
#     4  11  23  42  69 104 141 185 245 301 366 436
#     4  10  23  42  68 104 141 190 238 304 369 436
#     4  11  25  45  70 100 143 191 245 302 366 443
#     4  11  27  47  70 103 142 195 239 304 371 441
#     4  11  23  43  70 103 141 188 241 300 372 437
#
# _framework density 23.615017999999999
#
# number of rings (size 3 to 8) (size 9 to 14) (size 15 to 20)
#    0.000    1.143    0.000    4.714    8.000    5.714 
#    2.571    0.000    0.000    0.000    0.000    0.000 
#    0.000    0.000    0.000    0.000    0.000    0.000 
#
# Total GULP energy -173517.294459 kJ/mol
# GULP energy per Si atom -12394.092461 kJ/mol
# Density = 2.356127 g / cm^3
# Si number density = 23.615018 Si / 1000 Ang^3
#
#
#
# Elastic Constant Matrix: (Units=GPa)
#
#
# Indices 1 2 3 4 5 6 
#
# 1 125.6525 54.7190 42.3473 -7.0036 -1.2499 -19.5345
# 2 54.7190 90.4056 41.9012 1.1010 -5.1554 -13.9548
# 3 42.3473 41.9012 155.0461 -16.2782 -19.0888 -8.9618
# 4 -7.0036 1.1010 -16.2782 34.3620 3.2613 0.3149
# 5 -1.2499 -5.1554 -19.0888 3.2613 33.9564 1.1753
# 6 -19.5345 -13.9548 -8.9618 0.3149 1.1753 40.0441
#
#
#
# Elastic Compliance Matrix: (Units=1/GPa)
#
#
# Indices 1 2 3 4 5 6 
#
# 1 0.011650 -0.006035 -0.001335 0.002052 -0.001550 0.003311
# 2 -0.006035 0.016486 -0.002915 -0.003242 0.000879 0.002149
# 3 -0.001335 -0.002915 0.008453 0.003452 0.003926 0.000082
# 4 0.002052 -0.003242 0.003452 0.031398 -0.001507 0.000441
# 5 -0.001550 0.000879 0.003926 -0.001507 0.031895 -0.000495
# 6 0.003311 0.002149 0.000082 0.000441 -0.000495 0.027366
#
#
# Mechanical properties :
#
#
# Convention : Reuss Voigt Hill
#
# Bulk Modulus (GPa) = 62.42586 72.11549 67.27068
# Shear Modulus (GPa) = 32.64609 37.14828 34.89718
#
# Velocity S-wave (km/s) = 3.72214 3.97051 3.84833
# Velocity P-wave (km/s) = 6.70557 7.18500 6.94942
#
# Compressibility (1/GPa) = 0.01601900
#
# Stress axis : x y z
#
# Youngs Moduli (GPa) = 85.83595 60.65623 118.30640
#
# Poissons Ratio (x) = 0.36606 0.15794
# Poissons Ratio (y) = 0.51802 0.34488
# Poissons Ratio (z) = 0.11459 0.17682
#
# Static dielectric constant tensor:
#      x y z
#    x 4.212840 0.003850 -0.041070 
#    y 0.003850 4.338510 -0.157760 
#    z -0.041070 -0.157760 4.622770 
# 
# 
# High freq. dielectric constant tensor:
#      x y z
#    x 1.932240 0.000780 -0.005590 
#    y 0.000780 1.929980 -0.010300 
#    z -0.005590 -0.010300 1.956750 
# 
# From -- ./inp_files/90625.got.cif
#   From: 2010.06.25/outbox.cif.g09.slc.cpg/sg2_46_cif.got.tgz:90625.got - 2010.06.27 13:26:56.
