data_PCOD8023382
_publ_section_title
;
Structure prediction by ZEFSAII (Michael W. Deem and Ramdas Pophale) SiO2 
 PCOD8023382
Probable space group: P -1
;
_chemical_formula_sum "Si O2"
_cell_formula_units_Z 16
_cell_length_a 9.204853
_cell_length_b 13.453018
_cell_length_c 14.266706
_cell_angle_alpha 139.572232
_cell_angle_beta 137.698810
_cell_angle_gamma 62.770623
_cell_volume 748.225241
_symmetry_space_group_name_H-M "P -1"
_symmetry_group_IT_number 2
_symmetry_cell_setting 'triclinic'
loop_
_space_group_symop_operation_xyz
x,y,z
-x,-y,-z
loop_
_atom_site_type_symbol
_atom_site_label
_atom_site_fract_x
_atom_site_fract_y
_atom_site_fract_z
Si Si1 0.092399 0.338612 0.614741
Si Si2 0.154645 0.881643 0.007560
Si Si3 0.359084 0.056252 0.393918
Si Si4 0.927064 0.008393 0.264956
Si Si5 0.554188 0.384650 0.790074
Si Si6 0.741698 0.220003 0.218476
Si Si7 0.022326 0.613297 0.893549
Si Si8 0.691585 0.671578 0.927693
O O1 0.046008 0.153822 0.495048
O O2 0.356626 0.411665 0.782351
O O3 0.997754 0.436327 0.717242
O O4 0.966320 0.338396 0.453545
O O5 0.242498 0.813664 0.907972
O O6 0.016276 0.729803 0.888416
O O7 0.368724 0.977258 0.239670
O O8 0.000000 0.000000 0.000000
O O9 0.100273 0.997123 0.256719
O O10 0.443990 0.246751 0.564276
O O11 0.500000 0.000000 0.500000
O O12 0.716230 0.055098 0.146043
O O13 0.844146 0.841240 0.157720
O O14 0.664930 0.549369 0.911790
O O15 0.744729 0.328834 0.898387
O O16 0.542361 0.303462 0.201988
O O17 0.810404 0.605804 0.852100
#
# Coordination Sequence:
#
# PCOD8023382 Si02
#       8
#     2   2   2   2   2   2   2   2
#     4   9  23  44  67  93 129 171 222 266 323 385
#     4  12  21  39  69  98 125 173 224 266 321 391
#     4  11  20  41  68  97 127 171 220 270 319 387
#     4   9  20  44  64  90 133 171 208 268 328 379
#     4  11  23  42  67  94 132 168 220 279 324 379
#     4  10  23  41  66  93 135 171 215 268 324 393
#     4  12  24  41  68  96 131 170 220 273 331 383
#     4  12  23  41  65  94 135 177 206 273 335 389
#
# _framework density 21.383932999999999
#
# number of rings (size 3 to 8) (size 9 to 14) (size 15 to 20)
#    0.750    0.500    3.750    1.875    0.000    3.500 
#    2.250    0.625    0.000    0.000    0.000    0.000 
#    0.000    0.000    0.000    0.000    0.000    0.000 
#
# Total GULP energy -198271.596202 kJ/mol
# GULP energy per Si atom -12391.974763 kJ/mol
# Density = 2.133526 g / cm^3
# Si number density = 21.383933 Si / 1000 Ang^3
#
#
#
# Elastic Constant Matrix: (Units=GPa)
#
#
# Indices 1 2 3 4 5 6 
#
# 1 103.9665 54.0464 48.7077 6.6993 4.6085 -27.7915
# 2 54.0464 100.4704 28.6388 6.7201 11.7026 -1.9568
# 3 48.7077 28.6388 97.2254 -1.4179 -4.5007 -1.3111
# 4 6.6993 6.7201 -1.4179 39.3929 3.9267 13.7572
# 5 4.6085 11.7026 -4.5007 3.9267 32.0174 7.4404
# 6 -27.7915 -1.9568 -1.3111 13.7572 7.4404 40.4286
#
#
#
# Elastic Compliance Matrix: (Units=1/GPa)
#
#
# Indices 1 2 3 4 5 6 
#
# 1 0.025967 -0.009253 -0.010399 -0.010184 -0.005578 0.021557
# 2 -0.009253 0.015103 -0.000011 0.001216 -0.003066 -0.005480
# 3 -0.010399 -0.000011 0.015690 0.005071 0.005253 -0.009332
# 4 -0.010184 0.001216 0.005071 0.033354 0.001939 -0.018484
# 5 -0.005578 -0.003066 0.005253 0.001939 0.036246 -0.011143
# 6 0.021557 -0.005480 -0.009332 -0.018484 -0.011143 0.047326
#
#
# Mechanical properties :
#
#
# Convention : Reuss Voigt Hill
#
# Bulk Modulus (GPa) = 57.36500 62.71645 60.04073
# Shear Modulus (GPa) = 22.84943 33.71907 28.28425
#
# Velocity S-wave (km/s) = 3.27239 3.97525 3.64082
# Velocity P-wave (km/s) = 6.41580 7.10371 6.76850
#
# Compressibility (1/GPa) = 0.01743223
#
# Stress axis : x y z
#
# Youngs Moduli (GPa) = 38.51113 66.21180 63.73651
#
# Poissons Ratio (x) = 0.61268 0.66280
# Poissons Ratio (y) = 0.35636 0.00071
# Poissons Ratio (z) = 0.40048 0.00074
#
# Static dielectric constant tensor:
#      x y z
#    x 3.620630 -0.253300 -0.055370 
#    y -0.253300 4.119220 0.198460 
#    z -0.055370 0.198460 3.963640 
# 
# 
# High freq. dielectric constant tensor:
#      x y z
#    x 1.813520 -0.023400 -0.000550 
#    y -0.023400 1.849700 0.011980 
#    z -0.000550 0.011980 1.838140 
# 
# From -- ./inp_files/504560.got.cif
#   From: 2010.06.25/outbox.cif.g09.slc.cpg/sg2_253_cif.got.tgz:504560.got - 2010.06.27 13:26:56.
