data_PCOD8023642
_publ_section_title
;
Structure prediction by ZEFSAII (Michael W. Deem and Ramdas Pophale) SiO2 
 PCOD8023642
Probable space group: P -1
;
_chemical_formula_sum "Si O2"
_cell_formula_units_Z 14
_cell_length_a 11.865344
_cell_length_b 12.473054
_cell_length_c 17.810625
_cell_angle_alpha 28.215603
_cell_angle_beta 153.210010
_cell_angle_gamma 144.401422
_cell_volume 557.339355
_symmetry_space_group_name_H-M "P -1"
_symmetry_group_IT_number 2
_symmetry_cell_setting 'triclinic'
loop_
_space_group_symop_operation_xyz
x,y,z
-x,-y,-z
loop_
_atom_site_type_symbol
_atom_site_label
_atom_site_fract_x
_atom_site_fract_y
_atom_site_fract_z
Si Si1 0.951284 0.082312 0.836563
Si Si2 0.783640 0.275343 0.261447
Si Si3 0.772760 0.955848 0.321938
Si Si4 0.080527 0.255170 0.210057
Si Si5 0.467236 0.301986 0.204357
Si Si6 0.720121 0.935009 0.092008
Si Si7 0.626854 0.420657 0.388412
O O1 0.865548 0.336299 0.625647
O O2 0.208807 0.097235 0.933245
O O3 0.729554 0.921270 0.762961
O O4 0.000000 0.000000 0.000000
O O5 0.656796 0.255298 0.279761
O O6 0.091282 0.276865 0.451160
O O7 0.691867 0.048767 0.297123
O O8 0.708299 0.499335 0.038494
O O9 0.988684 0.154965 0.297645
O O10 0.529844 0.931788 0.137283
O O11 0.380794 0.284813 0.364385
O O12 0.954811 0.081168 0.180033
O O13 0.000000 0.500000 0.000000
O O14 0.631678 0.356788 0.342481
O O15 0.649324 0.693593 0.240848
#
# Coordination Sequence:
#
# PCOD8023642 Si02
#       7
#     2   2   2   2   2   2   2
#     4  12  28  46  72 113 150 190 252 312 374 442
#     4  10  23  41  77 106 150 198 245 304 378 440
#     4  11  23  44  69 109 151 196 243 304 376 442
#     4  12  25  46  74 106 144 196 253 302 365 452
#     4  11  22  47  76 108 148 200 250 310 370 441
#     4  12  26  47  74 108 150 194 250 306 371 454
#     4  12  26  50  77 107 149 199 248 310 378 442
#
# _framework density 25.119346
#
# number of rings (size 3 to 8) (size 9 to 14) (size 15 to 20)
#    0.000    0.571    4.286    3.000    4.000    2.286 
#    0.000    0.714    0.000    0.000    0.000    0.000 
#    0.000    0.000    0.000    0.000    0.000    0.000 
#
# Total GULP energy -173566.347707 kJ/mol
# GULP energy per Si atom -12397.596265 kJ/mol
# Density = 2.506217 g / cm^3
# Si number density = 25.119346 Si / 1000 Ang^3
#
#
#
# Elastic Constant Matrix: (Units=GPa)
#
#
# Indices 1 2 3 4 5 6 
#
# 1 103.7980 18.8922 45.2322 -6.4225 8.8875 -0.2475
# 2 18.8922 80.0504 28.9254 -2.5860 5.1269 4.8322
# 3 45.2322 28.9254 180.1681 7.0438 12.0379 -6.7595
# 4 -6.4225 -2.5860 7.0438 24.8966 -2.8336 4.7724
# 5 8.8875 5.1269 12.0379 -2.8336 46.7172 2.7509
# 6 -0.2475 4.8322 -6.7595 4.7724 2.7509 34.6285
#
#
#
# Elastic Compliance Matrix: (Units=1/GPa)
#
#
# Indices 1 2 3 4 5 6 
#
# 1 0.011397 -0.001487 -0.002716 0.003558 -0.001051 -0.000648
# 2 -0.001487 0.013813 -0.001992 0.002058 -0.000443 -0.002575
# 3 -0.002716 -0.001992 0.006859 -0.003421 -0.001368 0.002178
# 4 0.003558 0.002058 -0.003421 0.044003 0.003074 -0.007238
# 5 -0.001051 -0.000443 -0.001368 0.003074 0.022335 -0.002411
# 6 -0.000648 -0.002575 0.002178 -0.007238 -0.002411 0.030847
#
#
# Mechanical properties :
#
#
# Convention : Reuss Voigt Hill
#
# Bulk Modulus (GPa) = 50.81373 61.12401 55.96887
# Shear Modulus (GPa) = 33.73766 39.31290 36.52528
#
# Velocity S-wave (km/s) = 3.66880 3.96036 3.81736
# Velocity P-wave (km/s) = 6.18220 6.73044 6.46214
#
# Compressibility (1/GPa) = 0.01967972
#
# Stress axis : x y z
#
# Youngs Moduli (GPa) = 87.74384 72.39493 145.79863
#
# Poissons Ratio (x) = 0.10765 0.39595
# Poissons Ratio (y) = 0.13048 0.29040
# Poissons Ratio (z) = 0.23829 0.14420
#
# Static dielectric constant tensor:
#      x y z
#    x 4.797210 0.221660 0.260930 
#    y 0.221660 4.320280 -0.130670 
#    z 0.260930 -0.130670 4.732610 
# 
# 
# High freq. dielectric constant tensor:
#      x y z
#    x 2.016010 -0.006830 0.008450 
#    y -0.006830 1.979440 0.002540 
#    z 0.008450 0.002540 2.023680 
# 
# From -- ./inp_files/569110.got.cif
#   From: 2010.06.25/outbox.cif.g09.slc.cpg/sg2_285_cif.got.tgz:569110.got - 2010.06.27 13:26:56.
