data_PCOD8023026
_publ_section_title
;
Structure prediction by ZEFSAII (Michael W. Deem and Ramdas Pophale) SiO2 
 PCOD8023026
Probable space group: P -1
;
_chemical_formula_sum "Si O2"
_cell_formula_units_Z 14
_cell_length_a 12.054462
_cell_length_b 18.419832
_cell_length_c 16.398981
_cell_angle_alpha 153.321476
_cell_angle_beta 155.183590
_cell_angle_gamma 40.847182
_cell_volume 656.770136
_symmetry_space_group_name_H-M "P -1"
_symmetry_group_IT_number 2
_symmetry_cell_setting 'triclinic'
loop_
_space_group_symop_operation_xyz
x,y,z
-x,-y,-z
loop_
_atom_site_type_symbol
_atom_site_label
_atom_site_fract_x
_atom_site_fract_y
_atom_site_fract_z
Si Si1 0.784153 0.115770 0.837687
Si Si2 0.874068 0.129247 0.222520
Si Si3 0.514825 0.190833 0.310778
Si Si4 0.006756 0.653968 0.329880
Si Si5 0.957050 0.679377 0.928015
Si Si6 0.012635 0.689962 0.681612
Si Si7 0.423549 0.657579 0.320151
O O1 0.500000 0.000000 0.500000
O O2 0.993717 0.005110 0.863443
O O3 0.898096 0.281949 0.024806
O O4 0.766951 0.182546 0.984422
O O5 0.038286 0.223149 0.505341
O O6 0.874842 0.265894 0.290641
O O7 0.569823 0.010738 0.928047
O O8 0.808644 0.237507 0.509582
O O9 0.287494 0.232130 0.139562
O O10 0.531176 0.304484 0.516281
O O11 0.159955 0.523516 0.341053
O O12 0.711212 0.546018 0.987218
O O13 0.204534 0.751249 0.232117
O O14 0.710551 0.716027 0.520805
O O15 0.000000 0.500000 0.500000
#
# Coordination Sequence:
#
# PCOD8023026 Si02
#       7
#     2   2   2   2   2   2   2
#     4  11  23  39  65  92 131 165 207 261 320 373
#     4  11  24  39  64  92 130 165 203 265 320 367
#     4  11  21  44  66  93 127 167 214 259 313 368
#     4  10  23  40  65  93 129 167 210 260 308 376
#     4   9  21  38  67  91 124 163 212 252 314 366
#     4  12  25  42  64  95 129 165 213 261 313 385
#     4  10  23  40  67  94 126 165 216 253 317 369
#
# _framework density 21.31644
#
# number of rings (size 3 to 8) (size 9 to 14) (size 15 to 20)
#    0.857    0.571    2.857    3.429    4.000    0.571 
#    0.000    0.000    0.000    3.429    0.000    0.000 
#    0.000    0.000    0.000    0.000    0.000    0.000 
#
# Total GULP energy -173500.099535 kJ/mol
# GULP energy per Si atom -12392.864252 kJ/mol
# Density = 2.126792 g / cm^3
# Si number density = 21.316440 Si / 1000 Ang^3
#
#
#
# Elastic Constant Matrix: (Units=GPa)
#
#
# Indices 1 2 3 4 5 6 
#
# 1 91.4241 16.2085 47.4564 8.2605 1.2322 23.0777
# 2 16.2085 68.7362 22.4986 4.7398 -0.6060 16.7003
# 3 47.4564 22.4986 149.5758 3.4719 -8.7828 13.3160
# 4 8.2605 4.7398 3.4719 38.5064 2.2977 6.7084
# 5 1.2322 -0.6060 -8.7828 2.2977 40.9514 9.5043
# 6 23.0777 16.7003 13.3160 6.7084 9.5043 25.2635
#
#
#
# Elastic Compliance Matrix: (Units=1/GPa)
#
#
# Indices 1 2 3 4 5 6 
#
# 1 0.016431 0.000910 -0.003965 -0.000956 0.001974 -0.014010
# 2 0.000910 0.018062 -0.001681 -0.000188 0.002889 -0.012922
# 3 -0.003965 -0.001681 0.008350 0.000271 0.001983 -0.000486
# 4 -0.000956 -0.000188 0.000271 0.027287 0.000040 -0.006406
# 5 0.001974 0.002889 0.001983 0.000040 0.028413 -0.015458
# 6 -0.014010 -0.012922 -0.000486 -0.006406 -0.015458 0.068695
#
#
# Mechanical properties :
#
#
# Convention : Reuss Voigt Hill
#
# Bulk Modulus (GPa) = 29.96555 53.56259 41.76407
# Shear Modulus (GPa) = 26.61939 35.84910 31.23424
#
# Velocity S-wave (km/s) = 3.53763 4.10537 3.83203
# Velocity P-wave (km/s) = 5.54747 6.90319 6.26213
#
# Compressibility (1/GPa) = 0.03337166
#
# Stress axis : x y z
#
# Youngs Moduli (GPa) = 60.86099 55.36470 119.76429
#
# Poissons Ratio (x) = -0.05041 0.47483
# Poissons Ratio (y) = -0.05541 0.20136
# Poissons Ratio (z) = 0.24129 0.09308
#
# Static dielectric constant tensor:
#      x y z
#    x 1.816060 -0.353990 -0.970520 
#    y -0.353990 3.487180 -0.302790 
#    z -0.970520 -0.302790 3.327050 
# 
# 
# High freq. dielectric constant tensor:
#      x y z
#    x 1.826710 0.021890 0.004950 
#    y 0.021890 1.810470 0.006880 
#    z 0.004950 0.006880 1.847290 
# 
# From -- ./inp_files/523491.got.cif
#   From: 2010.06.25/outbox.cif.g09.slc.cpg/sg2_262_cif.got.tgz:523491.got - 2010.06.27 13:26:56.
