data_PCOD8023569
_publ_section_title
;
Structure prediction by ZEFSAII (Michael W. Deem and Ramdas Pophale) SiO2 
 PCOD8023569
Probable space group: P -1
;
_chemical_formula_sum "Si O2"
_cell_formula_units_Z 16
_cell_length_a 26.133506
_cell_length_b 9.706863
_cell_length_c 6.821919
_cell_angle_alpha 130.670305
_cell_angle_beta 41.639238
_cell_angle_gamma 138.331484
_cell_volume 747.139901
_symmetry_space_group_name_H-M "P -1"
_symmetry_group_IT_number 2
_symmetry_cell_setting 'triclinic'
loop_
_space_group_symop_operation_xyz
x,y,z
-x,-y,-z
loop_
_atom_site_type_symbol
_atom_site_label
_atom_site_fract_x
_atom_site_fract_y
_atom_site_fract_z
Si Si1 0.586214 0.691469 0.320481
Si Si2 0.951067 0.244610 0.878406
Si Si3 0.222251 0.293013 0.794762
Si Si4 0.977136 0.942083 0.789604
Si Si5 0.321474 0.683552 0.133878
Si Si6 0.465940 0.798321 0.538539
Si Si7 0.671866 0.481835 0.645424
Si Si8 0.247415 0.963091 0.601825
O O1 0.500000 0.500000 0.500000
O O2 0.549436 0.774091 0.330701
O O3 0.655476 0.888823 0.436926
O O4 0.648047 0.616322 0.978406
O O5 0.968078 0.165818 0.548213
O O6 0.994016 0.154294 0.827130
O O7 0.842982 0.134744 0.099103
O O8 0.000000 0.500000 0.000000
O O9 0.235116 0.374010 0.606744
O O10 0.236404 0.091321 0.573453
O O11 0.126384 0.238290 0.095677
O O12 0.288163 0.455798 0.921065
O O13 0.000000 0.000000 0.000000
O O14 0.321498 0.679111 0.369691
O O15 0.257205 0.767710 0.318208
O O16 0.421941 0.824897 0.889248
O O17 0.398032 0.610457 0.417388
O O18 0.500000 0.000000 0.500000
#
# Coordination Sequence:
#
# PCOD8023569 Si02
#       8
#     2   2   2   2   2   2   2   2
#     4  12  23  41  64  92 129 175 217 264 321 379
#     4  10  23  45  68 100 134 171 216 272 334 395
#     4  10  23  43  63  96 126 166 214 267 323 387
#     4  10  23  41  70  97 132 171 212 269 336 403
#     4  11  23  44  63  92 129 168 222 268 318 382
#     4  11  25  39  59  91 125 171 220 265 321 377
#     4  11  23  41  65  87 128 171 216 269 319 376
#     4  11  24  41  69  94 129 173 212 268 325 387
#
# _framework density 21.414998000000001
#
# number of rings (size 3 to 8) (size 9 to 14) (size 15 to 20)
#    0.000    1.250    2.500    2.625    5.250    3.500 
#    0.000    0.000    0.000    0.000    0.000    0.000 
#    0.000    0.000    0.000    0.000    0.000    0.000 
#
# Total GULP energy -198263.933936 kJ/mol
# GULP energy per Si atom -12391.495871 kJ/mol
# Density = 2.136626 g / cm^3
# Si number density = 21.414998 Si / 1000 Ang^3
#
#
#
# Elastic Constant Matrix: (Units=GPa)
#
#
# Indices 1 2 3 4 5 6 
#
# 1 77.8269 34.2835 25.1405 -5.1607 7.2604 -9.4142
# 2 34.2835 115.4714 43.3264 -13.2772 -0.4951 -12.2686
# 3 25.1405 43.3264 105.6132 -4.7331 4.6659 -8.1075
# 4 -5.1607 -13.2772 -4.7331 37.6477 -6.9098 -4.1057
# 5 7.2604 -0.4951 4.6659 -6.9098 40.7761 -2.4268
# 6 -9.4142 -12.2686 -8.1075 -4.1057 -2.4268 31.5621
#
#
#
# Elastic Compliance Matrix: (Units=1/GPa)
#
#
# Indices 1 2 3 4 5 6 
#
# 1 0.015624 -0.003592 -0.001916 0.000489 -0.002366 0.002654
# 2 -0.003592 0.011933 -0.003700 0.003992 0.002081 0.003296
# 3 -0.001916 -0.003700 0.011543 -0.000209 -0.001009 0.000851
# 4 0.000489 0.003992 -0.000209 0.029639 0.005360 0.005912
# 5 -0.002366 0.002081 -0.001009 0.005360 0.026146 0.002551
# 6 0.002654 0.003296 0.000851 0.005912 0.002551 0.034940
#
#
# Mechanical properties :
#
#
# Convention : Reuss Voigt Hill
#
# Bulk Modulus (GPa) = 48.34494 56.04582 52.19538
# Shear Modulus (GPa) = 32.22965 35.07458 33.65212
#
# Velocity S-wave (km/s) = 3.88365 4.05143 3.96842
# Velocity P-wave (km/s) = 6.53717 6.93639 6.73974
#
# Compressibility (1/GPa) = 0.02068469
#
# Stress axis : x y z
#
# Youngs Moduli (GPa) = 64.00306 83.79983 86.63226
#
# Poissons Ratio (x) = 0.30101 0.16594
# Poissons Ratio (y) = 0.22990 0.32057
# Poissons Ratio (z) = 0.12260 0.31009
#
# Static dielectric constant tensor:
#      x y z
#    x 2.886930 2.307310 0.263140 
#    y 2.307310 -17.584670 -0.697980 
#    z 0.263140 -0.697980 3.897310 
# 
# 
# High freq. dielectric constant tensor:
#      x y z
#    x 1.834710 -0.008540 -0.009160 
#    y -0.008540 1.849100 -0.008690 
#    z -0.009160 -0.008690 1.842560 
# 
# From -- ./inp_files/48133.got.cif
#   From: 2010.06.25/outbox.cif.g09.slc.cpg/sg2_25_cif.got.tgz:48133.got - 2010.06.27 13:26:56.
