data_PCOD8023883
_publ_section_title
;
Structure prediction by ZEFSAII (Michael W. Deem and Ramdas Pophale) SiO2 
 PCOD8023883
Probable space group: P -1
;
_chemical_formula_sum "Si O2"
_cell_formula_units_Z 14
_cell_length_a 24.482010
_cell_length_b 7.956115
_cell_length_c 24.785565
_cell_angle_alpha 139.690115
_cell_angle_beta 168.467966
_cell_angle_gamma 40.808457
_cell_volume 622.603438
_symmetry_space_group_name_H-M "P -1"
_symmetry_group_IT_number 2
_symmetry_cell_setting 'triclinic'
loop_
_space_group_symop_operation_xyz
x,y,z
-x,-y,-z
loop_
_atom_site_type_symbol
_atom_site_label
_atom_site_fract_x
_atom_site_fract_y
_atom_site_fract_z
Si Si1 0.366590 0.053427 0.117690
Si Si2 0.560188 0.210356 0.718611
Si Si3 0.331708 0.222957 0.006838
Si Si4 0.496101 0.624771 0.413960
Si Si5 0.101908 0.804285 0.504629
Si Si6 0.839254 0.785770 0.572136
Si Si7 0.948580 0.718619 0.958831
O O1 0.355877 0.054293 0.043033
O O2 0.413768 0.333284 0.255970
O O3 0.615815 0.850680 0.325492
O O4 0.087195 0.967962 0.851796
O O5 0.698272 0.469894 0.934054
O O6 0.459966 0.233221 0.565440
O O7 0.295073 0.164888 0.486830
O O8 0.788256 0.974273 0.891059
O O9 0.584007 0.155962 0.194547
O O10 0.061667 0.140416 0.695662
O O11 0.774498 0.614222 0.714949
O O12 0.246098 0.788289 0.242456
O O13 0.053751 0.513534 0.406490
O O14 0.000000 0.000000 0.500000
O O15 0.000000 0.500000 0.000000
#
# Coordination Sequence:
#
# PCOD8023883 Si02
#       7
#     2   2   2   2   2   2   2
#     4  11  23  42  64  95 127 164 212 256 309 369
#     4  10  24  43  65  92 124 168 215 255 311 378
#     4  10  23  42  67  92 128 169 205 253 311 375
#     4  11  25  42  64  89 127 168 209 262 314 366
#     4  11  23  43  67  96 127 164 206 251 308 377
#     4  11  23  41  66  94 124 163 207 258 309 372
#     4  12  25  41  62  94 126 164 212 269 315 357
#
# _framework density 22.486225000000001
#
# number of rings (size 3 to 8) (size 9 to 14) (size 15 to 20)
#    0.000    1.143    0.000    6.000    0.000   12.571 
#    0.000    4.286    0.000    0.000    0.000    0.000 
#    0.000    0.000    0.000    0.000    0.000    0.000 
#
# Total GULP energy -173705.936718 kJ/mol
# GULP energy per Si atom -12407.566908 kJ/mol
# Density = 2.243505 g / cm^3
# Si number density = 22.486225 Si / 1000 Ang^3
#
#
#
# Elastic Constant Matrix: (Units=GPa)
#
#
# Indices 1 2 3 4 5 6 
#
# 1 1488.6523 -552.8934 425.0964 -112.0278 88.2183 126.3075
# 2 -552.8934 407.3025 -155.9396 23.0868 -45.8261 -47.7587
# 3 425.0964 -155.9396 207.0345 -45.3322 14.0630 51.4573
# 4 -112.0278 23.0868 -45.3322 38.0832 2.7063 -4.5304
# 5 88.2183 -45.8261 14.0630 2.7063 45.5692 3.3732
# 6 126.3075 -47.7587 51.4573 -4.5304 3.3732 48.3074
#
#
#
# Elastic Compliance Matrix: (Units=1/GPa)
#
#
# Indices 1 2 3 4 5 6 
#
# 1 0.002817 0.002025 -0.002821 0.003668 -0.002628 -0.001829
# 2 0.002025 0.005320 0.000622 0.003341 0.001073 -0.000459
# 3 -0.002821 0.000622 0.014216 0.007337 0.001752 -0.006585
# 4 0.003668 0.003341 0.007337 0.043186 -0.007867 -0.009504
# 5 -0.002628 0.001073 0.001752 -0.007867 0.027787 0.003388
# 6 -0.001829 -0.000459 -0.006585 -0.009504 0.003388 0.030916
#
#
# Mechanical properties :
#
#
# Convention : Reuss Voigt Hill
#
# Bulk Modulus (GPa) = 45.44940 170.61288 108.03114
# Shear Modulus (GPa) = 37.90045 185.50702 111.70374
#
# Velocity S-wave (km/s) = 4.10993 9.09270 7.05580
# Velocity P-wave (km/s) = 6.54049 13.64827 10.70171
#
# Compressibility (1/GPa) = 0.02200249
#
# Stress axis : x y z
#
# Youngs Moduli (GPa) = 355.04736 187.98750 70.34362
#
# Poissons Ratio (x) = -0.38067 0.19847
# Poissons Ratio (y) = -0.71896 -0.04374
# Poissons Ratio (z) = 1.00176 -0.11688
#
# Static dielectric constant tensor:
#      x y z
#    x 4.160370 0.187500 0.009740 
#    y 0.187500 4.080560 -0.131530 
#    z 0.009740 -0.131530 4.088530 
# 
# 
# High freq. dielectric constant tensor:
#      x y z
#    x 1.891960 0.014930 -0.001610 
#    y 0.014930 1.882550 -0.008190 
#    z -0.001610 -0.008190 1.901330 
# 
# From -- ./inp_files/621117.got.cif
#   From: 2010.06.25/outbox.cif.g09.slc.cpg/sg2_311_cif.got.tgz:621117.got - 2010.06.27 13:26:56.
