data_PCOD8023681
_publ_section_title
;
Structure prediction by ZEFSAII (Michael W. Deem and Ramdas Pophale) SiO2 
 PCOD8023681
Probable space group: P -1
;
_chemical_formula_sum "Si O2"
_cell_formula_units_Z 12
_cell_length_a 9.349562
_cell_length_b 9.275718
_cell_length_c 12.094138
_cell_angle_alpha 36.472168
_cell_angle_beta 87.386548
_cell_angle_gamma 67.911949
_cell_volume 511.089750
_symmetry_space_group_name_H-M "P -1"
_symmetry_group_IT_number 2
_symmetry_cell_setting 'triclinic'
loop_
_space_group_symop_operation_xyz
x,y,z
-x,-y,-z
loop_
_atom_site_type_symbol
_atom_site_label
_atom_site_fract_x
_atom_site_fract_y
_atom_site_fract_z
Si Si1 0.630612 0.930961 0.758223
Si Si2 0.237371 0.334194 0.756573
Si Si3 0.515086 0.674289 0.093743
Si Si4 0.706442 0.582989 0.763424
Si Si5 0.273410 0.486992 0.432893
Si Si6 0.912249 0.840558 0.959047
O O1 0.641340 0.870322 0.663734
O O2 0.816908 0.845190 0.847808
O O3 0.482680 0.276012 0.580452
O O4 0.582651 0.721992 0.946848
O O5 0.327352 0.476809 0.727970
O O6 0.170302 0.477443 0.548504
O O7 0.084898 0.373066 0.815112
O O8 0.368087 0.984372 0.959619
O O9 0.444138 0.474278 0.200419
O O10 0.746784 0.644046 0.600220
O O11 0.884772 0.299000 0.986125
O O12 0.194381 0.824590 0.199179
#
# Coordination Sequence:
#
# PCOD8023681 Si02
#       6
#     2   2   2   2   2   2
#     4  10  23  42  63  88 125 167 200 244 307 368
#     4   9  20  39  61  91 118 163 203 247 299 359
#     4   9  19  37  64  86 122 160 206 244 297 364
#     4  12  23  38  63  97 125 154 200 262 308 346
#     4  11  23  39  67  90 119 163 211 246 290 373
#     4  11  23  42  65  88 126 161 201 252 306 357
#
# _framework density 23.479244000000001
#
# number of rings (size 3 to 8) (size 9 to 14) (size 15 to 20)
#    0.000    1.667    1.667    3.500    2.333    0.667 
#    3.000    0.000    0.000    3.000    0.000    0.000 
#    0.000    0.000    0.000    0.000    0.000    0.000 
#
# Total GULP energy -148705.052769 kJ/mol
# GULP energy per Si atom -12392.087731 kJ/mol
# Density = 2.342580 g / cm^3
# Si number density = 23.479244 Si / 1000 Ang^3
#
#
#
# Elastic Constant Matrix: (Units=GPa)
#
#
# Indices 1 2 3 4 5 6 
#
# 1 55.7021 21.0941 16.7959 -10.7181 -3.0885 -5.3037
# 2 21.0941 106.0336 14.8840 10.7098 -7.9228 13.0008
# 3 16.7959 14.8840 65.8834 2.8068 -2.6393 -5.8748
# 4 -10.7181 10.7098 2.8068 34.8393 -5.5810 -0.1301
# 5 -3.0885 -7.9228 -2.6393 -5.5810 17.8728 -3.5103
# 6 -5.3037 13.0008 -5.8748 -0.1301 -3.5103 11.7250
#
#
#
# Elastic Compliance Matrix: (Units=1/GPa)
#
#
# Indices 1 2 3 4 5 6 
#
# 1 0.027207 -0.008378 -0.003191 0.012725 0.008973 0.022826
# 2 -0.008378 0.014858 -0.002990 -0.007307 -0.001992 -0.022440
# 3 -0.003191 -0.002990 0.017856 -0.001021 0.002724 0.011624
# 4 0.012725 -0.007307 -0.001021 0.037250 0.013965 0.017941
# 5 0.008973 -0.001992 0.002724 0.013965 0.066841 0.027799
# 6 0.022826 -0.022440 0.011624 0.017941 0.027799 0.134841
#
#
# Mechanical properties :
#
#
# Convention : Reuss Voigt Hill
#
# Bulk Modulus (GPa) = 32.46393 37.01858 34.74125
# Shear Modulus (GPa) = 14.78241 24.54376 19.66309
#
# Velocity S-wave (km/s) = 2.51189 3.23668 2.89704
# Velocity P-wave (km/s) = 4.71906 5.45608 5.10090
#
# Compressibility (1/GPa) = 0.03080341
#
# Stress axis : x y z
#
# Youngs Moduli (GPa) = 36.75542 67.30362 56.00243
#
# Poissons Ratio (x) = 0.56388 0.17868
# Poissons Ratio (y) = 0.30794 0.16746
# Poissons Ratio (z) = 0.11727 0.20126
#
# Static dielectric constant tensor:
#      x y z
#    x 4.158560 0.036210 0.146000 
#    y 0.036210 4.148380 0.353900 
#    z 0.146000 0.353900 4.069070 
# 
# 
# High freq. dielectric constant tensor:
#      x y z
#    x 1.914540 0.003190 0.012830 
#    y 0.003190 1.924730 0.025100 
#    z 0.012830 0.025100 1.912930 
# 
# From -- ./inp_files/173550.got.cif
#   From: 2010.06.25/outbox.cif.g09.slc.cpg/sg2_87_cif.got.tgz:173550.got - 2010.06.27 13:26:56.
