data_PCOD8023267
_publ_section_title
;
Structure prediction by ZEFSAII (Michael W. Deem and Ramdas Pophale) SiO2 
 PCOD8023267
Probable space group: P -1
;
_chemical_formula_sum "Si O2"
_cell_formula_units_Z 14
_cell_length_a 10.748902
_cell_length_b 8.788137
_cell_length_c 9.902254
_cell_angle_alpha 61.541801
_cell_angle_beta 58.862892
_cell_angle_gamma 98.984709
_cell_volume 594.693826
_symmetry_space_group_name_H-M "P -1"
_symmetry_group_IT_number 2
_symmetry_cell_setting 'triclinic'
loop_
_space_group_symop_operation_xyz
x,y,z
-x,-y,-z
loop_
_atom_site_type_symbol
_atom_site_label
_atom_site_fract_x
_atom_site_fract_y
_atom_site_fract_z
Si Si1 0.549627 0.724863 0.678790
Si Si2 0.368767 0.591942 0.342242
Si Si3 0.557582 0.889998 0.341595
Si Si4 0.965614 0.503377 0.289179
Si Si5 0.639474 0.276095 0.989996
Si Si6 0.911438 0.075178 0.414671
Si Si7 0.044306 0.874889 0.929257
O O1 0.619324 0.602245 0.613579
O O2 0.466739 0.799139 0.577191
O O3 0.711216 0.906837 0.590432
O O4 0.400633 0.595638 0.931608
O O5 0.494753 0.706237 0.348355
O O6 0.171359 0.521251 0.511334
O O7 0.436234 0.734432 0.110560
O O8 0.753958 0.008965 0.220329
O O9 0.524666 0.051572 0.218715
O O10 0.922866 0.282731 0.362733
O O11 0.159537 0.634748 0.181346
O O12 0.951911 0.634317 0.120040
O O13 0.006942 0.112624 0.200881
O O14 0.000000 0.000000 0.500000
O O15 0.000000 0.000000 0.000000
#
# Coordination Sequence:
#
# PCOD8023267 Si02
#       7
#     2   2   2   2   2   2   2
#     4  11  24  44  64  93 129 167 212 264 317 381
#     4  12  24  42  66  95 127 168 213 264 319 376
#     4  10  23  41  64  91 126 168 210 257 319 385
#     4  11  24  42  66  96 131 171 212 261 321 383
#     4  11  24  42  65  94 127 164 213 266 316 375
#     4  11  24  42  66  97 129 169 215 266 318 377
#     4  10  23  43  66  96 132 169 213 264 320 383
#
# _framework density 23.541525
#
# number of rings (size 3 to 8) (size 9 to 14) (size 15 to 20)
#    0.000    1.143    0.000    6.000    0.000    8.000 
#    0.000    0.000    0.000    0.000    0.000    0.000 
#    0.000    0.000    0.000    0.000    0.000    0.000 
#
# Total GULP energy -173487.666136 kJ/mol
# GULP energy per Si atom -12391.976153 kJ/mol
# Density = 2.348794 g / cm^3
# Si number density = 23.541525 Si / 1000 Ang^3
#
#
#
# Elastic Constant Matrix: (Units=GPa)
#
#
# Indices 1 2 3 4 5 6 
#
# 1 98.9029 57.3407 63.5547 7.1333 36.1892 -2.8872
# 2 57.3407 110.5553 44.1286 2.4078 3.6192 -11.4461
# 3 63.5547 44.1286 137.0646 27.0491 27.5450 1.6180
# 4 7.1333 2.4078 27.0491 46.1803 0.0254 1.5496
# 5 36.1892 3.6192 27.5450 0.0254 41.2305 10.2869
# 6 -2.8872 -11.4461 1.6180 1.5496 10.2869 41.3369
#
#
#
# Elastic Compliance Matrix: (Units=1/GPa)
#
#
# Indices 1 2 3 4 5 6 
#
# 1 0.027681 -0.011280 -0.004800 -0.001009 -0.021173 0.004305
# 2 -0.011280 0.015502 -0.002147 0.002150 0.009700 0.001094
# 3 -0.004800 -0.002147 0.012194 -0.006278 -0.003676 -0.000257
# 4 -0.001009 0.002150 -0.006278 0.025422 0.005247 -0.001488
# 5 -0.021173 0.009700 -0.003676 0.005247 0.047074 -0.010560
# 6 0.004305 0.001094 -0.000257 -0.001488 -0.010560 0.027489
#
#
# Mechanical properties :
#
#
# Convention : Reuss Voigt Hill
#
# Bulk Modulus (GPa) = 52.84985 75.17453 64.01219
# Shear Modulus (GPa) = 25.23662 37.84945 31.54303
#
# Velocity S-wave (km/s) = 3.27770 4.01406 3.66442
# Velocity P-wave (km/s) = 6.06818 7.31338 6.71969
#
# Compressibility (1/GPa) = 0.01892153
#
# Stress axis : x y z
#
# Youngs Moduli (GPa) = 36.12537 64.50882 82.00924
#
# Poissons Ratio (x) = 0.72768 0.39368
# Poissons Ratio (y) = 0.40751 0.17606
# Poissons Ratio (z) = 0.17342 0.13849
#
# Static dielectric constant tensor:
#      x y z
#    x 4.279960 -0.083140 0.315590 
#    y -0.083140 4.204560 0.055260 
#    z 0.315590 0.055260 4.752810 
# 
# 
# High freq. dielectric constant tensor:
#      x y z
#    x 1.931080 -0.008790 0.012060 
#    y -0.008790 1.935190 0.009430 
#    z 0.012060 0.009430 1.948000 
# 
# From -- ./inp_files/184882.got.cif
#   From: 2010.06.25/outbox.cif.g09.slc.cpg/sg2_93_cif.got.tgz:184882.got - 2010.06.27 13:26:56.
