data_PCOD8023763
_publ_section_title
;
Structure prediction by ZEFSAII (Michael W. Deem and Ramdas Pophale) SiO2 
 PCOD8023763
Probable space group: P -1
;
_chemical_formula_sum "Si O2"
_cell_formula_units_Z 10
_cell_length_a 11.648733
_cell_length_b 4.826253
_cell_length_c 18.486916
_cell_angle_alpha 117.819033
_cell_angle_beta 30.392091
_cell_angle_gamma 117.802659
_cell_volume 460.278632
_symmetry_space_group_name_H-M "P -1"
_symmetry_group_IT_number 2
_symmetry_cell_setting 'triclinic'
loop_
_space_group_symop_operation_xyz
x,y,z
-x,-y,-z
loop_
_atom_site_type_symbol
_atom_site_label
_atom_site_fract_x
_atom_site_fract_y
_atom_site_fract_z
Si Si1 0.299396 0.848474 0.349068
Si Si2 0.788651 0.117963 0.088909
Si Si3 0.877844 0.514233 0.468235
Si Si4 0.249693 0.595887 0.639698
Si Si5 0.115454 0.258906 0.808708
O O1 0.246699 0.785104 0.455244
O O2 0.148621 0.580505 0.349507
O O3 0.566586 0.854043 0.184938
O O4 0.237682 0.190993 0.405183
O O5 0.738319 0.449792 0.191562
O O6 0.863063 0.170475 0.970759
O O7 0.000000 0.000000 0.000000
O O8 0.853116 0.451017 0.389528
O O9 0.500000 0.500000 0.500000
O O10 0.084536 0.371438 0.756748
O O11 0.259105 0.964894 0.700173
#
# Coordination Sequence:
#
# PCOD8023763 Si02
#       5
#     2   2   2   2   2
#     4  10  23  42  66  91 122 167 216 255 309 368
#     4  11  24  41  67  90 130 166 216 259 303 378
#     4  10  23  42  65  93 124 165 210 262 312 370
#     4  12  24  39  64  93 134 163 207 264 320 370
#     4  11  25  40  60  98 124 168 211 254 322 369
#
# _framework density 21.725968000000002
#
# number of rings (size 3 to 8) (size 9 to 14) (size 15 to 20)
#    0.000    1.200    2.000    3.000    8.400    0.000 
#    0.000    2.000    0.000    0.000    0.000    0.000 
#    0.000    0.000    0.000    0.000    0.000    0.000 
#
# Total GULP energy -124002.825941 kJ/mol
# GULP energy per Si atom -12400.282594 kJ/mol
# Density = 2.167652 g / cm^3
# Si number density = 21.725968 Si / 1000 Ang^3
#
#
#
# Elastic Constant Matrix: (Units=GPa)
#
#
# Indices 1 2 3 4 5 6 
#
# 1 148.6917 50.4150 84.6003 -27.4183 22.8272 -7.0331
# 2 50.4150 105.8570 69.9172 -11.8901 -3.8668 -11.6014
# 3 84.6003 69.9172 127.7287 -27.0239 9.9899 8.7620
# 4 -27.4183 -11.8901 -27.0239 58.9317 -8.2438 -2.8313
# 5 22.8272 -3.8668 9.9899 -8.2438 39.7884 -2.2076
# 6 -7.0331 -11.6014 8.7620 -2.8313 -2.2076 34.8416
#
#
#
# Elastic Compliance Matrix: (Units=1/GPa)
#
#
# Indices 1 2 3 4 5 6 
#
# 1 0.012378 -0.000489 -0.007467 0.001776 -0.004681 0.004061
# 2 -0.000489 0.017638 -0.010385 -0.000312 0.005019 0.008678
# 3 -0.007467 -0.010385 0.019864 0.002833 -0.001671 -0.009836
# 4 0.001776 -0.000312 0.002833 0.019419 0.002333 0.001268
# 5 -0.004681 0.005019 -0.001671 0.002333 0.029387 0.003198
# 6 0.004061 0.008678 -0.009836 0.001268 0.003198 0.035190
#
#
# Mechanical properties :
#
#
# Convention : Reuss Voigt Hill
#
# Bulk Modulus (GPa) = 75.76996 88.01583 81.89290
# Shear Modulus (GPa) = 28.57816 38.53533 33.55675
#
# Velocity S-wave (km/s) = 3.63077 4.21610 3.93433
# Velocity P-wave (km/s) = 7.24760 8.01875 7.64291
#
# Compressibility (1/GPa) = 0.01319784
#
# Stress axis : x y z
#
# Youngs Moduli (GPa) = 80.78700 56.69531 50.34118
#
# Poissons Ratio (x) = 0.02775 0.37592
# Poissons Ratio (y) = 0.03954 0.52278
# Poissons Ratio (z) = 0.60327 0.58876
#
# Static dielectric constant tensor:
#      x y z
#    x 4.075220 -0.332860 0.249460 
#    y -0.332860 4.217190 -0.115510 
#    z 0.249460 -0.115510 4.037400 
# 
# 
# High freq. dielectric constant tensor:
#      x y z
#    x 1.850520 -0.032050 0.011790 
#    y -0.032050 1.858230 -0.004820 
#    z 0.011790 -0.004820 1.843820 
# 
# From -- ./inp_files/108198.got.cif
#   From: 2010.06.25/outbox.cif.g09.slc.cpg/sg2_55_cif.got.tgz:108198.got - 2010.06.27 13:26:56.
