data_PCOD8023750
_publ_section_title
;
Structure prediction by ZEFSAII (Michael W. Deem and Ramdas Pophale) SiO2 
 PCOD8023750
Probable space group: P -1
;
_chemical_formula_sum "Si O2"
_cell_formula_units_Z 16
_cell_length_a 22.239504
_cell_length_b 14.429729
_cell_length_c 6.408994
_cell_angle_alpha 87.209755
_cell_angle_beta 93.600889
_cell_angle_gamma 159.512136
_cell_volume 718.142325
_symmetry_space_group_name_H-M "P -1"
_symmetry_group_IT_number 2
_symmetry_cell_setting 'triclinic'
loop_
_space_group_symop_operation_xyz
x,y,z
-x,-y,-z
loop_
_atom_site_type_symbol
_atom_site_label
_atom_site_fract_x
_atom_site_fract_y
_atom_site_fract_z
Si Si1 0.759710 0.733487 0.457062
Si Si2 0.896591 0.384874 0.689800
Si Si3 0.944688 0.859100 0.199834
Si Si4 0.812289 0.111541 0.018447
Si Si5 0.670457 0.359339 0.986814
Si Si6 0.441072 0.605771 0.187544
Si Si7 0.691099 0.743862 0.055626
Si Si8 0.603974 0.104148 0.697692
O O1 0.806984 0.715308 0.324787
O O2 0.579748 0.451849 0.566864
O O3 0.732138 0.785176 0.304241
O O4 0.904201 0.959227 0.638476
O O5 0.741253 0.230444 0.615016
O O6 0.000000 0.500000 0.500000
O O7 0.023106 0.623315 0.841355
O O8 0.814252 0.175243 0.802585
O O9 0.851509 0.633179 0.114403
O O10 0.000000 0.000000 0.000000
O O11 0.637796 0.877807 0.135236
O O12 0.818031 0.009468 0.976047
O O13 0.619159 0.376125 0.845466
O O14 0.700064 0.320662 0.831311
O O15 0.522619 0.130332 0.148034
O O16 0.299103 0.339097 0.057720
O O17 0.500000 0.500000 0.000000
O O18 0.500000 0.000000 0.500000
#
# Coordination Sequence:
#
# PCOD8023750 Si02
#       8
#     2   2   2   2   2   2   2   2
#     4  11  23  38  69 105 139 187 235 273 371 431
#     4  11  26  47  72  99 139 193 236 293 362 420
#     4  11  23  41  64 103 140 188 222 293 357 432
#     4  10  25  45  70  95 142 183 237 296 350 418
#     4  11  24  45  70 101 146 183 233 306 358 421
#     4  11  22  43  74 100 140 187 233 297 359 427
#     4  10  23  42  65 104 139 179 232 289 345 427
#     4  11  28  45  73 108 135 187 249 298 363 433
#
# _framework density 22.279706999999998
#
# number of rings (size 3 to 8) (size 9 to 14) (size 15 to 20)
#    0.000    1.250    3.750    0.000    3.500    9.000 
#    0.000    0.000    0.000    0.000    0.000    0.000 
#    0.000    0.000    0.000    0.000    0.000    0.000 
#
# Total GULP energy -198332.914404 kJ/mol
# GULP energy per Si atom -12395.807150 kJ/mol
# Density = 2.222900 g / cm^3
# Si number density = 22.279707 Si / 1000 Ang^3
#
#
#
# Elastic Constant Matrix: (Units=GPa)
#
#
# Indices 1 2 3 4 5 6 
#
# 1 111.8260 60.8720 68.0547 -14.1180 17.3809 2.3753
# 2 60.8720 113.0880 65.4237 -5.1499 2.5341 -19.7363
# 3 68.0547 65.4237 137.1347 -6.7081 11.0644 6.3691
# 4 -14.1180 -5.1499 -6.7081 42.8923 7.8881 -0.5113
# 5 17.3809 2.5341 11.0644 7.8881 40.3961 -5.1630
# 6 2.3753 -19.7363 6.3691 -0.5113 -5.1630 44.3236
#
#
#
# Elastic Compliance Matrix: (Units=1/GPa)
#
#
# Indices 1 2 3 4 5 6 
#
# 1 0.017376 -0.007392 -0.004008 0.005544 -0.007568 -0.004464
# 2 -0.007392 0.017586 -0.005696 -0.002067 0.005272 0.009635
# 3 -0.004008 -0.005696 0.012363 0.000229 -0.001901 -0.004317
# 4 0.005544 -0.002067 0.000229 0.026319 -0.007693 -0.001843
# 5 -0.007568 0.005272 -0.001901 -0.007693 0.030533 0.006494
# 6 -0.004464 0.009635 -0.004317 -0.001843 0.006494 0.028447
#
#
# Mechanical properties :
#
#
# Convention : Reuss Voigt Hill
#
# Bulk Modulus (GPa) = 76.13016 83.41661 79.77339
# Shear Modulus (GPa) = 29.20706 36.70227 32.95467
#
# Velocity S-wave (km/s) = 3.62460 4.06315 3.85012
# Velocity P-wave (km/s) = 7.19453 7.71584 7.45974
#
# Compressibility (1/GPa) = 0.01313540
#
# Stress axis : x y z
#
# Youngs Moduli (GPa) = 57.55100 56.86467 80.88559
#
# Poissons Ratio (x) = 0.42032 0.32415
# Poissons Ratio (y) = 0.42539 0.46069
# Poissons Ratio (z) = 0.23064 0.32387
#
# Static dielectric constant tensor:
#      x y z
#    x 4.277960 0.009800 0.432370 
#    y 0.009800 4.282730 -0.180720 
#    z 0.432370 -0.180720 3.744560 
# 
# 
# High freq. dielectric constant tensor:
#      x y z
#    x 1.881180 0.000120 0.002700 
#    y 0.000120 1.886010 -0.003400 
#    z 0.002700 -0.003400 1.882330 
# 
# From -- ./inp_files/124210.got.cif
#   From: 2010.06.25/outbox.cif.g09.slc.cpg/sg2_63_cif.got.tgz:124210.got - 2010.06.27 13:26:56.
