data_PCOD8023307
_publ_section_title
;
Structure prediction by ZEFSAII (Michael W. Deem and Ramdas Pophale) SiO2 
 PCOD8023307
Probable space group: P -1
;
_chemical_formula_sum "Si O2"
_cell_formula_units_Z 14
_cell_length_a 5.076118
_cell_length_b 27.612536
_cell_length_c 14.267675
_cell_angle_alpha 159.336541
_cell_angle_beta 120.199297
_cell_angle_gamma 57.472944
_cell_volume 594.996580
_symmetry_space_group_name_H-M "P -1"
_symmetry_group_IT_number 2
_symmetry_cell_setting 'triclinic'
loop_
_space_group_symop_operation_xyz
x,y,z
-x,-y,-z
loop_
_atom_site_type_symbol
_atom_site_label
_atom_site_fract_x
_atom_site_fract_y
_atom_site_fract_z
Si Si1 0.621099 0.636202 0.296153
Si Si2 0.328557 0.899536 0.606497
Si Si3 0.195440 0.925363 0.069637
Si Si4 0.692917 0.341102 0.525428
Si Si5 0.671207 0.486183 0.379058
Si Si6 0.530816 0.273116 0.088095
Si Si7 0.152566 0.089169 0.618756
O O1 0.538700 0.752594 0.411213
O O2 0.451374 0.695393 0.469081
O O3 0.997331 0.596549 0.298323
O O4 0.500000 0.500000 0.000000
O O5 0.059782 0.868678 0.434008
O O6 0.548176 0.986289 0.750138
O O7 0.155056 0.979805 0.813252
O O8 0.214274 0.805006 0.778423
O O9 0.248641 0.864978 0.076857
O O10 0.419465 0.462828 0.650454
O O11 0.635817 0.326038 0.101959
O O12 0.438763 0.602614 0.610510
O O13 0.000000 0.500000 0.500000
O O14 0.191867 0.236219 0.941619
O O15 0.500000 0.000000 0.500000
O O16 0.000000 0.000000 0.500000
#
# Coordination Sequence:
#
# PCOD8023307 Si02
#       7
#     2   2   2   2   2   2   2
#     4  12  29  51  70 100 143 185 239 289 343 423
#     4  12  25  45  71 102 140 188 233 288 349 413
#     4  11  24  44  75 104 140 173 239 293 346 419
#     4  11  27  47  74 103 138 187 237 290 349 406
#     4  10  25  41  73 104 139 187 231 285 354 412
#     4  10  23  41  65 105 146 173 230 283 349 421
#     4  12  24  41  67 104 140 182 221 280 362 411
#
# _framework density 23.529544000000001
#
# number of rings (size 3 to 8) (size 9 to 14) (size 15 to 20)
#    0.000    0.857    2.857    2.143   14.000    3.429 
#    0.000    0.000    0.000    0.000    0.000    0.000 
#    0.000    0.000    0.000    0.000    0.000    0.000 
#
# Total GULP energy -173512.431861 kJ/mol
# GULP energy per Si atom -12393.745133 kJ/mol
# Density = 2.347599 g / cm^3
# Si number density = 23.529544 Si / 1000 Ang^3
#
#
#
# Elastic Constant Matrix: (Units=GPa)
#
#
# Indices 1 2 3 4 5 6 
#
# 1 113.8283 38.2262 18.5584 10.4554 26.4027 -5.8115
# 2 38.2262 144.5619 50.7418 9.7928 16.4405 -7.0517
# 3 18.5584 50.7418 99.8811 9.5068 37.3286 4.6109
# 4 10.4554 9.7928 9.5068 32.7026 2.7759 4.9129
# 5 26.4027 16.4405 37.3286 2.7759 41.8518 -3.9667
# 6 -5.8115 -7.0517 4.6109 4.9129 -3.9667 38.1724
#
#
#
# Elastic Compliance Matrix: (Units=1/GPa)
#
#
# Indices 1 2 3 4 5 6 
#
# 1 0.011513 -0.002808 0.002645 -0.002971 -0.008280 0.000436
# 2 -0.002808 0.009402 -0.005502 -0.000963 0.003280 0.002439
# 3 0.002645 -0.005502 0.019004 -0.002660 -0.016689 -0.004301
# 4 -0.002971 -0.000963 -0.002660 0.033073 0.002019 -0.004356
# 5 -0.008280 0.003280 -0.016689 0.002019 0.043110 0.005581
# 6 0.000436 0.002439 -0.004301 -0.004356 0.005581 0.028374
#
#
# Mechanical properties :
#
#
# Convention : Reuss Voigt Hill
#
# Bulk Modulus (GPa) = 34.97801 63.70269 49.34035
# Shear Modulus (GPa) = 30.24133 39.26167 34.75150
#
# Velocity S-wave (km/s) = 3.58893 4.08930 3.84725
# Velocity P-wave (km/s) = 5.66319 7.03056 6.38359
#
# Compressibility (1/GPa) = 0.02858939
#
# Stress axis : x y z
#
# Youngs Moduli (GPa) = 86.85859 106.35678 52.61945
#
# Poissons Ratio (x) = 0.29870 -0.13917
# Poissons Ratio (y) = 0.24394 0.28949
# Poissons Ratio (z) = -0.22973 0.58513
#
# Static dielectric constant tensor:
#      x y z
#    x 4.096310 0.150170 0.087280 
#    y 0.150170 4.503900 -0.108320 
#    z 0.087280 -0.108320 5.117130 
# 
# 
# High freq. dielectric constant tensor:
#      x y z
#    x 1.933020 0.002950 0.011050 
#    y 0.002950 1.935550 0.002880 
#    z 0.011050 0.002880 1.940630 
# 
# From -- ./inp_files/486226.got.cif
#   From: 2010.06.25/outbox.cif.g09.slc.cpg/sg2_244_cif.got.tgz:486226.got - 2010.06.27 13:26:56.
