data_PCOD8023034
_publ_section_title
;
Structure prediction by ZEFSAII (Michael W. Deem and Ramdas Pophale) SiO2 
 PCOD8023034
Probable space group: P -1
;
_chemical_formula_sum "Si O2"
_cell_formula_units_Z 16
_cell_length_a 8.900940
_cell_length_b 14.640868
_cell_length_c 12.276956
_cell_angle_alpha 57.531439
_cell_angle_beta 34.115051
_cell_angle_gamma 69.100361
_cell_volume 743.929765
_symmetry_space_group_name_H-M "P -1"
_symmetry_group_IT_number 2
_symmetry_cell_setting 'triclinic'
loop_
_space_group_symop_operation_xyz
x,y,z
-x,-y,-z
loop_
_atom_site_type_symbol
_atom_site_label
_atom_site_fract_x
_atom_site_fract_y
_atom_site_fract_z
Si Si1 0.200244 0.425875 0.235013
Si Si2 0.214102 0.787217 0.080330
Si Si3 0.753162 0.538417 0.184105
Si Si4 0.289644 0.302153 0.066528
Si Si5 0.870045 0.105017 0.489891
Si Si6 0.820926 0.588823 0.353334
Si Si7 0.461500 0.041444 0.375401
Si Si8 0.011173 0.189511 0.573442
O O1 0.130333 0.380392 0.184159
O O2 0.165872 0.317946 0.403292
O O3 0.981594 0.496783 0.363320
O O4 0.500000 0.500000 0.000000
O O5 0.942514 0.706596 0.255668
O O6 0.158736 0.841828 0.194219
O O7 0.456811 0.719935 0.998640
O O8 0.281961 0.879768 0.886165
O O9 0.864919 0.592030 0.195772
O O10 0.500478 0.436831 0.411071
O O11 0.630036 0.634054 0.134300
O O12 0.000000 0.500000 0.000000
O O13 0.086723 0.188987 0.234945
O O14 0.811436 0.162829 0.603574
O O15 0.608700 0.065034 0.594933
O O16 0.000000 0.000000 0.500000
O O17 0.226243 0.111456 0.479830
O O18 0.500000 0.000000 0.500000
#
# Coordination Sequence:
#
# PCOD8023034 Si02
#       8
#     2   2   2   2   2   2   2   2
#     4  11  19  38  68  94 133 174 217 271 322 382
#     4  12  24  42  69 100 129 170 229 273 327 394
#     4  11  25  42  62  91 138 182 212 268 338 389
#     4  11  21  39  67  95 123 177 220 264 329 380
#     4   9  19  44  65  90 124 165 220 269 326 382
#     4  11  25  41  62 100 136 173 225 267 325 406
#     4  11  24  45  67  93 133 171 217 277 334 391
#     4  10  23  40  65  97 125 169 225 266 327 391
#
# _framework density 21.507408000000002
#
# number of rings (size 3 to 8) (size 9 to 14) (size 15 to 20)
#    0.000    1.250    6.250    0.750    3.500    3.000 
#    0.000    0.000    0.000    0.000    0.000    0.000 
#    0.000    0.000    0.000    0.000    0.000    0.000 
#
# Total GULP energy -198281.135958 kJ/mol
# GULP energy per Si atom -12392.570997 kJ/mol
# Density = 2.145846 g / cm^3
# Si number density = 21.507408 Si / 1000 Ang^3
#
#
#
# Elastic Constant Matrix: (Units=GPa)
#
#
# Indices 1 2 3 4 5 6 
#
# 1 108.9098 32.2442 60.6183 -13.3038 14.3304 23.9406
# 2 32.2442 72.9391 54.2840 -5.3594 -1.5526 23.4559
# 3 60.6183 54.2840 126.2415 -2.4317 16.8774 18.4285
# 4 -13.3038 -5.3594 -2.4317 40.5292 1.0153 -2.7157
# 5 14.3304 -1.5526 16.8774 1.0153 44.1374 -2.5038
# 6 23.9406 23.4559 18.4285 -2.7157 -2.5038 32.3275
#
#
#
# Elastic Compliance Matrix: (Units=1/GPa)
#
#
# Indices 1 2 3 4 5 6 
#
# 1 0.014896 0.000450 -0.005666 0.004151 -0.003205 -0.008027
# 2 0.000450 0.024824 -0.009515 0.001933 0.003613 -0.012479
# 3 -0.005666 -0.009515 0.014927 -0.001980 -0.004038 0.002111
# 4 0.004151 0.001933 -0.001980 0.026120 -0.001194 -0.001247
# 5 -0.003205 0.003613 -0.004038 -0.001194 0.025619 0.003937
# 6 -0.008027 -0.012479 0.002111 -0.001247 0.003937 0.044929
#
#
# Mechanical properties :
#
#
# Convention : Reuss Voigt Hill
#
# Bulk Modulus (GPa) = 39.70524 66.93150 53.31837
# Shear Modulus (GPa) = 26.43123 34.12839 30.27981
#
# Velocity S-wave (km/s) = 3.50942 3.98781 3.75624
# Velocity P-wave (km/s) = 5.90954 7.23818 6.60734
#
# Compressibility (1/GPa) = 0.02518559
#
# Stress axis : x y z
#
# Youngs Moduli (GPa) = 67.13397 40.28318 66.99398
#
# Poissons Ratio (x) = -0.01813 0.37958
# Poissons Ratio (y) = -0.03022 0.63743
# Poissons Ratio (z) = 0.38037 0.38328
#
# Static dielectric constant tensor:
#      x y z
#    x 3.808590 0.013490 0.268300 
#    y 0.013490 3.735110 -0.090070 
#    z 0.268300 -0.090070 4.001880 
# 
# 
# High freq. dielectric constant tensor:
#      x y z
#    x 1.835060 0.014060 0.012050 
#    y 0.014060 1.839030 -0.009880 
#    z 0.012050 -0.009880 1.847640 
# 
# From -- ./inp_files/397154.got.cif
#   From: 2010.06.25/outbox.cif.g09.slc.cpg/sg2_199_cif.got.tgz:397154.got - 2010.06.27 13:26:56.
