data_PCOD8023798
_publ_section_title
;
Structure prediction by ZEFSAII (Michael W. Deem and Ramdas Pophale) SiO2 
 PCOD8023798
Probable space group: P -1
;
_chemical_formula_sum "Si O2"
_cell_formula_units_Z 16
_cell_length_a 5.591365
_cell_length_b 19.067470
_cell_length_c 9.470297
_cell_angle_alpha 44.180551
_cell_angle_beta 82.279007
_cell_angle_gamma 94.481596
_cell_volume 674.650905
_symmetry_space_group_name_H-M "P -1"
_symmetry_group_IT_number 2
_symmetry_cell_setting 'triclinic'
loop_
_space_group_symop_operation_xyz
x,y,z
-x,-y,-z
loop_
_atom_site_type_symbol
_atom_site_label
_atom_site_fract_x
_atom_site_fract_y
_atom_site_fract_z
Si Si1 0.553696 0.427660 0.906248
Si Si2 0.078495 0.127009 0.149890
Si Si3 0.500049 0.678704 0.214260
Si Si4 0.659792 0.207707 0.533600
Si Si5 0.989382 0.388463 0.100334
Si Si6 0.299580 0.949992 0.473178
Si Si7 0.333295 0.341197 0.473993
Si Si8 0.837383 0.197561 0.827461
O O1 0.579403 0.415520 0.753185
O O2 0.644807 0.549849 0.766694
O O3 0.260151 0.383135 0.029228
O O4 0.748115 0.366675 0.044404
O O5 0.936279 0.116915 0.325176
O O6 0.236176 0.041296 0.253767
O O7 0.234583 0.246197 0.959844
O O8 0.915072 0.108409 0.043687
O O9 0.491732 0.631670 0.440040
O O10 0.311982 0.752266 0.119924
O O11 0.598151 0.122500 0.538080
O O12 0.432374 0.263202 0.476767
O O13 0.681474 0.152431 0.763477
O O14 0.917486 0.296107 0.355115
O O15 0.000000 0.500000 0.000000
O O16 0.500000 0.000000 0.500000
O O17 0.059435 0.290235 0.620813
#
# Coordination Sequence:
#
# PCOD8023798 Si02
#       8
#     2   2   2   2   2   2   2   2
#     4  12  26  41  71 102 142 192 243 295 352 418
#     4  10  23  45  69 100 133 175 229 296 350 425
#     4  10  23  42  68  98 137 183 233 288 349 419
#     4  11  25  43  68 100 139 189 226 294 359 420
#     4  12  26  44  68 102 145 189 239 294 353 423
#     4  11  25  44  72 102 135 171 233 292 358 428
#     4  10  23  42  65  99 141 184 231 287 350 424
#     4  10  23  44  68  94 142 182 233 287 351 426
#
# _framework density 23.715969000000001
#
# number of rings (size 3 to 8) (size 9 to 14) (size 15 to 20)
#    0.000    1.250    1.250    3.000   10.500    3.000 
#    0.000    8.750    0.000    0.000    0.000    0.000 
#    0.000    0.000    0.000    0.000    0.000    0.000 
#
# Total GULP energy -198336.654422 kJ/mol
# GULP energy per Si atom -12396.040901 kJ/mol
# Density = 2.366199 g / cm^3
# Si number density = 23.715969 Si / 1000 Ang^3
#
#
#
# Elastic Constant Matrix: (Units=GPa)
#
#
# Indices 1 2 3 4 5 6 
#
# 1 104.9005 23.0694 18.0396 10.6535 13.8527 -12.0603
# 2 23.0694 144.8088 16.2151 16.1556 14.1686 -9.0000
# 3 18.0396 16.2151 86.4655 1.0226 27.5367 -5.8193
# 4 10.6535 16.1556 1.0226 28.1907 0.1891 -3.8891
# 5 13.8527 14.1686 27.5367 0.1891 43.0888 0.9094
# 6 -12.0603 -9.0000 -5.8193 -3.8891 0.9094 20.2529
#
#
#
# Elastic Compliance Matrix: (Units=1/GPa)
#
#
# Indices 1 2 3 4 5 6 
#
# 1 0.011175 -0.000715 -0.000852 -0.002983 -0.002919 0.005650
# 2 -0.000715 0.007850 -0.000458 -0.003884 -0.002090 0.002279
# 3 -0.000852 -0.000458 0.015060 0.000675 -0.009291 0.004163
# 4 -0.002983 -0.003884 0.000675 0.039368 0.001544 0.004182
# 5 -0.002919 -0.002090 -0.009291 0.001544 0.030900 -0.006427
# 6 0.005650 0.002279 0.004163 0.004182 -0.006427 0.056041
#
#
# Mechanical properties :
#
#
# Convention : Reuss Voigt Hill
#
# Bulk Modulus (GPa) = 33.29578 50.09145 41.69361
# Shear Modulus (GPa) = 28.66062 36.89652 32.77857
#
# Velocity S-wave (km/s) = 3.48011 3.94860 3.72174
# Velocity P-wave (km/s) = 5.49710 6.47733 6.00724
#
# Compressibility (1/GPa) = 0.03003384
#
# Stress axis : x y z
#
# Youngs Moduli (GPa) = 89.48806 127.38404 66.40115
#
# Poissons Ratio (x) = 0.09111 0.05658
# Poissons Ratio (y) = 0.06401 0.03042
# Poissons Ratio (z) = 0.07626 0.05836
#
# Static dielectric constant tensor:
#      x y z
#    x 4.534440 -0.032390 0.219920 
#    y -0.032390 3.977030 0.292610 
#    z 0.219920 0.292610 4.548180 
# 
# 
# High freq. dielectric constant tensor:
#      x y z
#    x 1.950110 -0.005490 0.009660 
#    y -0.005490 1.919790 0.018650 
#    z 0.009660 0.018650 1.947690 
# 
# From -- ./inp_files/37968.got.cif
#   From: 2010.06.25/outbox.cif.g09.slc.cpg/sg2_19_cif.got.tgz:37968.got - 2010.06.27 13:26:56.
