data_PCOD8023618
_publ_section_title
;
Structure prediction by ZEFSAII (Michael W. Deem and Ramdas Pophale) SiO2 
 PCOD8023618
Probable space group: P -1
;
_chemical_formula_sum "Si O2"
_cell_formula_units_Z 14
_cell_length_a 7.897145
_cell_length_b 22.324543
_cell_length_c 8.539161
_cell_angle_alpha 30.363840
_cell_angle_beta 117.806650
_cell_angle_gamma 119.616830
_cell_volume 658.810607
_symmetry_space_group_name_H-M "P -1"
_symmetry_group_IT_number 2
_symmetry_cell_setting 'triclinic'
loop_
_space_group_symop_operation_xyz
x,y,z
-x,-y,-z
loop_
_atom_site_type_symbol
_atom_site_label
_atom_site_fract_x
_atom_site_fract_y
_atom_site_fract_z
Si Si1 0.114568 0.932896 0.320443
Si Si2 0.812992 0.707191 0.663346
Si Si3 0.394211 0.760577 0.318406
Si Si4 0.884070 0.464965 0.372897
Si Si5 0.502581 0.974729 0.243168
Si Si6 0.005546 0.292005 0.603244
Si Si7 0.169513 0.088732 0.289298
O O1 0.293684 0.900862 0.374320
O O2 0.969422 0.809355 0.593412
O O3 0.207934 0.022637 0.295199
O O4 0.000000 0.000000 0.000000
O O5 0.600494 0.738688 0.520282
O O6 0.887498 0.704030 0.524523
O O7 0.796281 0.576933 0.025101
O O8 0.296538 0.649490 0.412202
O O9 0.231336 0.764248 0.378817
O O10 0.435820 0.890508 0.955397
O O11 0.000000 0.500000 0.500000
O O12 0.026743 0.425900 0.388785
O O13 0.649264 0.892056 0.554667
O O14 0.500000 0.000000 0.000000
O O15 0.111655 0.215878 0.940921
O O16 0.000000 0.000000 0.500000
#
# Coordination Sequence:
#
# PCOD8023618 Si02
#       7
#     2   2   2   2   2   2   2
#     4  12  24  40  67 102 136 177 220 279 346 406
#     4  12  23  45  71  95 138 177 227 277 335 405
#     4  10  23  41  72  93 133 174 227 269 338 393
#     4  10  25  45  69  97 133 180 231 279 334 388
#     4  12  24  42  67 102 136 178 223 275 349 412
#     4  10  23  43  67  98 131 178 223 277 334 396
#     4  12  23  41  65  96 142 175 222 282 335 406
#
# _framework density 21.250416999999999
#
# number of rings (size 3 to 8) (size 9 to 14) (size 15 to 20)
#    0.857    0.000    4.286    3.000    4.000    0.000 
#    0.000    0.714    0.000    0.000    0.000    0.000 
#    0.000    0.000    0.000    0.000    0.000    0.000 
#
# Total GULP energy -173456.505009 kJ/mol
# GULP energy per Si atom -12389.750358 kJ/mol
# Density = 2.120205 g / cm^3
# Si number density = 21.250417 Si / 1000 Ang^3
#
#
#
# Elastic Constant Matrix: (Units=GPa)
#
#
# Indices 1 2 3 4 5 6 
#
# 1 114.6484 25.9735 32.1380 21.7348 19.4491 23.5327
# 2 25.9735 76.7671 14.7826 -0.5070 4.8211 15.9697
# 3 32.1380 14.7826 102.4155 2.6680 22.4773 14.0234
# 4 21.7348 -0.5070 2.6680 44.5672 3.3414 -0.9223
# 5 19.4491 4.8211 22.4773 3.3414 34.0682 1.9988
# 6 23.5327 15.9697 14.0234 -0.9223 1.9988 36.6491
#
#
#
# Elastic Compliance Matrix: (Units=1/GPa)
#
#
# Indices 1 2 3 4 5 6 
#
# 1 0.013097 -0.002474 -0.001569 -0.006075 -0.005108 -0.006605
# 2 -0.002474 0.014984 -0.000778 0.001333 -0.000055 -0.004606
# 3 -0.001569 -0.000778 0.012294 0.000482 -0.006979 -0.002965
# 4 -0.006075 0.001333 0.000482 0.025447 0.000245 0.003763
# 5 -0.005108 -0.000055 -0.006979 0.000245 0.036623 0.003983
# 6 -0.006605 -0.004606 -0.002965 0.003763 0.003983 0.034546
#
#
# Mechanical properties :
#
#
# Convention : Reuss Voigt Hill
#
# Bulk Modulus (GPa) = 32.53983 48.84658 40.69320
# Shear Modulus (GPa) = 31.87207 37.78603 34.82905
#
# Velocity S-wave (km/s) = 3.87697 4.22136 4.05283
# Velocity P-wave (km/s) = 5.94870 6.84076 6.41026
#
# Compressibility (1/GPa) = 0.03073157
#
# Stress axis : x y z
#
# Youngs Moduli (GPa) = 76.35528 66.73841 81.34170
#
# Poissons Ratio (x) = 0.16513 0.12761
# Poissons Ratio (y) = 0.18892 0.06331
# Poissons Ratio (z) = 0.11979 0.05194
#
# Static dielectric constant tensor:
#      x y z
#    x 3.834090 0.094060 0.016180 
#    y 0.094060 3.696570 -0.166580 
#    z 0.016180 -0.166580 4.180150 
# 
# 
# High freq. dielectric constant tensor:
#      x y z
#    x 1.836210 0.003100 0.015530 
#    y 0.003100 1.826870 -0.006070 
#    z 0.015530 -0.006070 1.829630 
# 
# From -- ./inp_files/225195.got.cif
#   From: 2010.06.25/outbox.cif.g09.slc.cpg/sg2_113_cif.got.tgz:225195.got - 2010.06.27 13:26:56.
