data_PCOD8023441
_publ_section_title
;
Structure prediction by ZEFSAII (Michael W. Deem and Ramdas Pophale) SiO2 
 PCOD8023441
Probable space group: P -1
;
_chemical_formula_sum "Si O2"
_cell_formula_units_Z 16
_cell_length_a 11.779017
_cell_length_b 13.532896
_cell_length_c 11.819290
_cell_angle_alpha 21.885371
_cell_angle_beta 81.609038
_cell_angle_gamma 79.794461
_cell_volume 690.290282
_symmetry_space_group_name_H-M "P -1"
_symmetry_group_IT_number 2
_symmetry_cell_setting 'triclinic'
loop_
_space_group_symop_operation_xyz
x,y,z
-x,-y,-z
loop_
_atom_site_type_symbol
_atom_site_label
_atom_site_fract_x
_atom_site_fract_y
_atom_site_fract_z
Si Si1 0.048236 0.091863 0.698939
Si Si2 0.905357 0.612788 0.246891
Si Si3 0.211923 0.366401 0.532069
Si Si4 0.208921 0.095125 0.474764
Si Si5 0.547423 0.722318 0.331166
Si Si6 0.730256 0.822035 0.861435
Si Si7 0.569645 0.367972 0.328699
Si Si8 0.325620 0.540074 0.113000
O O1 0.156074 0.130945 0.724520
O O2 0.088235 0.086012 0.568132
O O3 0.950131 0.342467 0.460896
O O4 0.006465 0.806584 0.037521
O O5 0.876778 0.517400 0.479867
O O6 0.803259 0.780070 0.011417
O O7 0.316525 0.261119 0.710293
O O8 0.262292 0.563099 0.222940
O O9 0.183984 0.177696 0.259624
O O10 0.281803 0.305607 0.297663
O O11 0.287657 0.813848 0.764336
O O12 0.500000 0.500000 0.500000
O O13 0.510935 0.695898 0.490717
O O14 0.500000 0.000000 0.000000
O O15 0.645815 0.095534 0.574573
O O16 0.653833 0.581840 0.119690
O O17 0.465497 0.490990 0.131421
#
# Coordination Sequence:
#
# PCOD8023441 Si02
#       8
#     2   2   2   2   2   2   2   2
#     4  11  25  43  65  91 125 167 218 269 314 367
#     4  12  25  42  65  95 126 165 214 267 322 371
#     4  10  23  42  67  95 128 163 208 261 316 377
#     4  11  24  44  64  93 126 167 216 263 318 371
#     4  11  23  39  64  95 135 172 200 246 313 390
#     4  12  26  42  65  93 132 169 212 264 311 381
#     4  11  23  41  63  98 130 167 211 253 318 377
#     4  10  23  41  67  95 128 166 208 258 313 384
#
# _framework density 23.178656
#
# number of rings (size 3 to 8) (size 9 to 14) (size 15 to 20)
#    0.000    1.000    0.000    6.750    0.000   13.000 
#    0.000    0.000    0.000    0.000    0.000    0.000 
#    0.000    0.000    0.000    0.000    0.000    0.000 
#
# Total GULP energy -198247.277532 kJ/mol
# GULP energy per Si atom -12390.454846 kJ/mol
# Density = 2.312590 g / cm^3
# Si number density = 23.178656 Si / 1000 Ang^3
#
#
#
# Elastic Constant Matrix: (Units=GPa)
#
#
# Indices 1 2 3 4 5 6 
#
# 1 96.3622 11.7172 11.6219 6.0508 -17.9486 5.8868
# 2 11.7172 103.6228 16.7646 0.2183 1.1391 -4.5831
# 3 11.6219 16.7646 78.0428 -17.7885 -5.7703 10.2873
# 4 6.0508 0.2183 -17.7885 47.0556 -2.7908 1.1526
# 5 -17.9486 1.1391 -5.7703 -2.7908 29.2033 -3.7220
# 6 5.8868 -4.5831 10.2873 1.1526 -3.7220 29.0341
#
#
#
# Elastic Compliance Matrix: (Units=1/GPa)
#
#
# Indices 1 2 3 4 5 6 
#
# 1 0.012157 -0.001311 -0.001200 -0.001566 0.006972 -0.001291
# 2 -0.001311 0.010383 -0.002752 -0.001076 -0.001510 0.002729
# 3 -0.001200 -0.002752 0.016011 0.006505 0.002414 -0.005813
# 4 -0.001566 -0.001076 0.006505 0.024123 0.002311 -0.002819
# 5 0.006972 -0.001510 0.002414 0.002311 0.039600 0.002477
# 6 -0.001291 0.002729 -0.005813 -0.002819 0.002477 0.037624
#
#
# Mechanical properties :
#
#
# Convention : Reuss Voigt Hill
#
# Bulk Modulus (GPa) = 35.68160 39.80390 37.74275
# Shear Modulus (GPa) = 31.29566 36.92022 34.10794
#
# Velocity S-wave (km/s) = 3.67848 3.99539 3.84021
# Velocity P-wave (km/s) = 5.78526 6.20436 5.99847
#
# Compressibility (1/GPa) = 0.02802565
#
# Stress axis : x y z
#
# Youngs Moduli (GPa) = 82.25418 96.30749 62.45781
#
# Poissons Ratio (x) = 0.12626 0.07495
# Poissons Ratio (y) = 0.10783 0.17188
# Poissons Ratio (z) = 0.09871 0.26503
#
# Static dielectric constant tensor:
#      x y z
#    x 3.890070 -0.342620 -0.245570 
#    y -0.342620 4.371350 0.193630 
#    z -0.245570 0.193630 3.853920 
# 
# 
# High freq. dielectric constant tensor:
#      x y z
#    x 1.923730 -0.009460 -0.006630 
#    y -0.009460 1.924510 0.009020 
#    z -0.006630 0.009020 1.924900 
# 
# From -- ./inp_files/433619.got.cif
#   From: 2010.06.25/outbox.cif.g09.slc.cpg/sg2_217_cif.got.tgz:433619.got - 2010.06.27 13:26:56.
