data_PCOD8023846
_publ_section_title
;
Structure prediction by ZEFSAII (Michael W. Deem and Ramdas Pophale) SiO2 
 PCOD8023846
Probable space group: P -1
;
_chemical_formula_sum "Si O2"
_cell_formula_units_Z 16
_cell_length_a 12.309945
_cell_length_b 9.717288
_cell_length_c 21.477415
_cell_angle_alpha 143.093065
_cell_angle_beta 28.081790
_cell_angle_gamma 133.663423
_cell_volume 725.211571
_symmetry_space_group_name_H-M "P -1"
_symmetry_group_IT_number 2
_symmetry_cell_setting 'triclinic'
loop_
_space_group_symop_operation_xyz
x,y,z
-x,-y,-z
loop_
_atom_site_type_symbol
_atom_site_label
_atom_site_fract_x
_atom_site_fract_y
_atom_site_fract_z
Si Si1 0.130602 0.562390 0.535175
Si Si2 0.266016 0.134454 0.095955
Si Si3 0.560830 0.178526 0.436206
Si Si4 0.295459 0.702335 0.007877
Si Si5 0.605984 0.290696 0.657545
Si Si6 0.983064 0.165566 0.128452
Si Si7 0.985921 0.093298 0.472122
Si Si8 0.055579 0.353287 0.736825
O O1 0.328045 0.690751 0.516665
O O2 0.182317 0.605983 0.451640
O O3 0.880637 0.667706 0.720433
O O4 0.160310 0.294165 0.442452
O O5 0.530911 0.203211 0.993179
O O6 0.186068 0.107439 0.055117
O O7 0.229839 0.891630 0.058157
O O8 0.731437 0.148249 0.279900
O O9 0.332008 0.330159 0.588246
O O10 0.501791 0.926989 0.399960
O O11 0.404282 0.480660 0.837955
O O12 0.057704 0.622203 0.128812
O O13 0.724504 0.195163 0.627041
O O14 0.021697 0.426488 0.184797
O O15 0.000000 0.000000 0.000000
O O16 0.053631 0.875821 0.316531
O O17 0.000000 0.000000 0.500000
#
# Coordination Sequence:
#
# PCOD8023846 Si02
#       8
#     2   2   2   2   2   2   2   2
#     4  11  22  43  71  97 130 174 225 275 331 390
#     4  10  23  42  66  97 135 175 218 278 334 389
#     4  10  23  44  69  98 133 172 222 278 331 396
#     4  11  24  42  65  98 138 171 224 277 331 392
#     4  11  23  40  69  99 129 172 223 273 329 394
#     4  11  24  46  70  97 135 177 222 276 338 400
#     4  11  23  41  65  96 130 170 222 270 327 393
#     4  11  25  44  66  98 134 175 220 272 331 402
#
# _framework density 22.062526999999999
#
# number of rings (size 3 to 8) (size 9 to 14) (size 15 to 20)
#    0.000    1.250    1.250    4.875    3.500    3.500 
#    4.500    3.750    0.000    0.000    0.000    0.000 
#    0.000    0.000    0.000    0.000    0.000    0.000 
#
# Total GULP energy -198414.699878 kJ/mol
# GULP energy per Si atom -12400.918742 kJ/mol
# Density = 2.201231 g / cm^3
# Si number density = 22.062527 Si / 1000 Ang^3
#
#
#
# Elastic Constant Matrix: (Units=GPa)
#
#
# Indices 1 2 3 4 5 6 
#
# 1 87.5651 24.6323 37.4378 9.7981 -19.7021 -18.4560
# 2 24.6323 145.4442 39.5472 20.0276 -18.5393 -14.9200
# 3 37.4378 39.5472 101.3417 6.1719 0.0837 -11.5280
# 4 9.7981 20.0276 6.1719 41.7303 -0.9667 -2.7094
# 5 -19.7021 -18.5393 0.0837 -0.9667 22.3627 -0.9058
# 6 -18.4560 -14.9200 -11.5280 -2.7094 -0.9058 37.7586
#
#
#
# Elastic Compliance Matrix: (Units=1/GPa)
#
#
# Indices 1 2 3 4 5 6 
#
# 1 0.020984 0.002652 -0.007511 -0.004005 0.020915 0.009226
# 2 0.002652 0.009877 -0.004142 -0.004255 0.010514 0.003881
# 3 -0.007511 -0.004142 0.014052 0.001364 -0.010092 -0.001162
# 4 -0.004005 -0.004255 0.001364 0.026511 -0.005975 -0.001464
# 5 0.020915 0.010514 -0.010092 -0.005975 0.072150 0.012598
# 6 0.009226 0.003881 -0.001162 -0.001464 0.012598 0.032370
#
#
# Mechanical properties :
#
#
# Convention : Reuss Voigt Hill
#
# Bulk Modulus (GPa) = 37.15942 59.73172 48.44557
# Shear Modulus (GPa) = 24.64106 35.88588 30.26347
#
# Velocity S-wave (km/s) = 3.34559 4.03743 3.70768
# Velocity P-wave (km/s) = 5.63944 6.99050 6.35100
#
# Compressibility (1/GPa) = 0.02691107
#
# Stress axis : x y z
#
# Youngs Moduli (GPa) = 47.65629 101.24797 71.16574
#
# Poissons Ratio (x) = -0.26854 0.53450
# Poissons Ratio (y) = -0.12640 0.29478
# Poissons Ratio (z) = 0.35793 0.41938
#
# Static dielectric constant tensor:
#      x y z
#    x 4.043540 0.029620 0.105330 
#    y 0.029620 4.224970 0.087760 
#    z 0.105330 0.087760 4.080350 
# 
# 
# High freq. dielectric constant tensor:
#      x y z
#    x 1.863570 0.004130 -0.000860 
#    y 0.004130 1.888110 0.010530 
#    z -0.000860 0.010530 1.865240 
# 
# From -- ./inp_files/158698.got.cif
#   From: 2010.06.25/outbox.cif.g09.slc.cpg/sg2_80_cif.got.tgz:158698.got - 2010.06.27 13:26:56.
