data_PCOD8023889
_publ_section_title
;
Structure prediction by ZEFSAII (Michael W. Deem and Ramdas Pophale) SiO2 
 PCOD8023889
Probable space group: P -1
;
_chemical_formula_sum "Si O2"
_cell_formula_units_Z 16
_cell_length_a 13.185315
_cell_length_b 9.665677
_cell_length_c 5.317934
_cell_angle_alpha 78.842757
_cell_angle_beta 100.793315
_cell_angle_gamma 83.846742
_cell_volume 645.897738
_symmetry_space_group_name_H-M "P -1"
_symmetry_group_IT_number 2
_symmetry_cell_setting 'triclinic'
loop_
_space_group_symop_operation_xyz
x,y,z
-x,-y,-z
loop_
_atom_site_type_symbol
_atom_site_label
_atom_site_fract_x
_atom_site_fract_y
_atom_site_fract_z
Si Si1 0.495062 0.334176 0.016007
Si Si2 0.051750 0.641093 0.454254
Si Si3 0.688005 0.152998 0.353324
Si Si4 0.374611 0.336878 0.447947
Si Si5 0.260893 0.636783 0.329748
Si Si6 0.887504 0.189922 0.167724
Si Si7 0.783484 0.864722 0.524958
Si Si8 0.086485 0.110459 0.922456
O O1 0.610194 0.239285 0.082995
O O2 0.441682 0.276047 0.258672
O O3 0.500000 0.500000 0.000000
O O4 0.434753 0.300774 0.749830
O O5 0.176838 0.593571 0.509522
O O6 0.027298 0.735243 0.664472
O O7 0.000000 0.500000 0.500000
O O8 0.008967 0.751793 0.166337
O O9 0.676610 0.241084 0.576964
O O10 0.811542 0.125746 0.349331
O O11 0.677803 0.986163 0.438658
O O12 0.349759 0.507729 0.346408
O O13 0.263312 0.281699 0.414508
O O14 0.192632 0.688606 0.042450
O O15 0.945754 0.051765 0.085916
O O16 0.841751 0.854231 0.287309
O O17 0.855107 0.890106 0.786908
#
# Coordination Sequence:
#
# PCOD8023889 Si02
#       8
#     2   2   2   2   2   2   2   2
#     4  12  25  43  70  99 132 173 224 270 320 400
#     4  11  26  41  64  99 132 173 220 277 323 386
#     4  10  23  43  67  95 131 172 220 265 330 390
#     4  12  27  42  69 100 134 172 219 275 332 380
#     4  11  23  42  67  92 131 176 220 267 328 393
#     4  10  23  42  67  94 129 178 217 270 325 394
#     4  11  25  45  68  98 136 174 212 277 331 385
#     4  11  24  45  69  95 135 176 222 263 327 395
#
# _framework density 24.771723000000001
#
# number of rings (size 3 to 8) (size 9 to 14) (size 15 to 20)
#    0.000    1.000    2.500    3.000    7.000    2.000 
#    0.000    0.000    0.000    0.000    0.000    0.000 
#    0.000    0.000    0.000    0.000    0.000    0.000 
#
# Total GULP energy -198363.642959 kJ/mol
# GULP energy per Si atom -12397.727685 kJ/mol
# Density = 2.471534 g / cm^3
# Si number density = 24.771723 Si / 1000 Ang^3
#
#
#
# Elastic Constant Matrix: (Units=GPa)
#
#
# Indices 1 2 3 4 5 6 
#
# 1 68.5210 31.2310 26.1905 10.0800 2.9448 -10.5046
# 2 31.2310 101.9513 34.4426 -2.2645 6.9265 -8.4575
# 3 26.1905 34.4426 153.7120 9.3330 13.0486 -7.8570
# 4 10.0800 -2.2645 9.3330 44.3032 -5.3449 7.9952
# 5 2.9448 6.9265 13.0486 -5.3449 40.4169 -4.8590
# 6 -10.5046 -8.4575 -7.8570 7.9952 -4.8590 43.3686
#
#
#
# Elastic Compliance Matrix: (Units=1/GPa)
#
#
# Indices 1 2 3 4 5 6 
#
# 1 0.018857 -0.005000 -0.001560 -0.004998 -0.000168 0.004213
# 2 -0.005000 0.012108 -0.001897 0.001998 -0.000792 0.000350
# 3 -0.001560 -0.001897 0.007516 -0.001707 -0.002131 0.000690
# 4 -0.004998 0.001998 -0.001707 0.025556 0.003295 -0.005472
# 5 -0.000168 -0.000792 -0.002131 0.003295 0.026224 0.001750
# 6 0.004213 0.000350 0.000690 -0.005472 0.001750 0.025477
#
#
# Mechanical properties :
#
#
# Convention : Reuss Voigt Hill
#
# Bulk Modulus (GPa) = 46.36450 56.43473 51.39961
# Shear Modulus (GPa) = 35.75471 41.10574 38.43023
#
# Velocity S-wave (km/s) = 3.80329 4.07797 3.94302
# Velocity P-wave (km/s) = 6.16798 6.70854 6.44393
#
# Compressibility (1/GPa) = 0.02156823
#
# Stress axis : x y z
#
# Youngs Moduli (GPa) = 53.02976 82.58722 133.04300
#
# Poissons Ratio (x) = 0.41292 0.20750
# Poissons Ratio (y) = 0.26514 0.25244
# Poissons Ratio (z) = 0.08271 0.15670
#
# Static dielectric constant tensor:
#      x y z
#    x 4.843880 -0.366860 -0.181510 
#    y -0.366860 4.702000 0.043920 
#    z -0.181510 0.043920 4.472150 
# 
# 
# High freq. dielectric constant tensor:
#      x y z
#    x 1.992970 -0.016300 -0.011510 
#    y -0.016300 1.991500 -0.001720 
#    z -0.011510 -0.001720 1.998500 
# 
# From -- ./inp_files/39452.got.cif
#   From: 2010.06.25/outbox.cif.g09.slc.cpg/sg2_20_cif.got.tgz:39452.got - 2010.06.27 13:26:56.
