data_PCOD8023625
_publ_section_title
;
Structure prediction by ZEFSAII (Michael W. Deem and Ramdas Pophale) SiO2 
 PCOD8023625
Probable space group: P -1
;
_chemical_formula_sum "Si O2"
_cell_formula_units_Z 14
_cell_length_a 9.368009
_cell_length_b 9.300650
_cell_length_c 8.800647
_cell_angle_alpha 69.187734
_cell_angle_beta 75.083360
_cell_angle_gamma 64.144164
_cell_volume 640.200514
_symmetry_space_group_name_H-M "P -1"
_symmetry_group_IT_number 2
_symmetry_cell_setting 'triclinic'
loop_
_space_group_symop_operation_xyz
x,y,z
-x,-y,-z
loop_
_atom_site_type_symbol
_atom_site_label
_atom_site_fract_x
_atom_site_fract_y
_atom_site_fract_z
Si Si1 0.532105 0.037958 0.645471
Si Si2 0.982408 0.669791 0.360794
Si Si3 0.287399 0.312726 0.779706
Si Si4 0.543525 0.739075 0.943783
Si Si5 0.732382 0.386130 0.899040
Si Si6 0.105327 0.105822 0.415968
Si Si7 0.916035 0.381453 0.135530
O O1 0.480149 0.912215 0.807548
O O2 0.714883 0.012391 0.628764
O O3 0.500000 0.000000 0.500000
O O4 0.427021 0.229764 0.648521
O O5 0.869899 0.715283 0.224838
O O6 0.899911 0.812356 0.450558
O O7 0.000000 0.500000 0.500000
O O8 0.156646 0.657009 0.264299
O O9 0.226910 0.513166 0.746274
O O10 0.351732 0.234162 0.956172
O O11 0.649576 0.586920 0.863039
O O12 0.394072 0.699495 0.060825
O O13 0.835959 0.311676 0.050819
O O14 0.046811 0.234357 0.245555
O O15 0.000000 0.000000 0.500000
O O16 0.000000 0.500000 0.000000
#
# Coordination Sequence:
#
# PCOD8023625 Si02
#       7
#     2   2   2   2   2   2   2
#     4  12  26  44  66  95 142 180 218 284 351 404
#     4  12  22  44  71 102 132 183 234 276 340 417
#     4  11  23  42  69  97 128 184 227 269 340 414
#     4  10  24  44  65 102 136 175 227 285 347 403
#     4  10  23  41  72  99 132 174 235 286 329 412
#     4  12  28  45  68 105 144 174 230 294 348 401
#     4  11  21  44  73  98 131 186 233 275 339 422
#
# _framework density 21.868148000000001
#
# number of rings (size 3 to 8) (size 9 to 14) (size 15 to 20)
#    0.000    0.857    4.286    3.000    4.000    0.000 
#    0.000    2.857    0.000    0.000    0.000    0.000 
#    0.000    0.000    0.000    0.000    0.000    0.000 
#
# Total GULP energy -173553.551256 kJ/mol
# GULP energy per Si atom -12396.682233 kJ/mol
# Density = 2.181837 g / cm^3
# Si number density = 21.868148 Si / 1000 Ang^3
#
#
#
# Elastic Constant Matrix: (Units=GPa)
#
#
# Indices 1 2 3 4 5 6 
#
# 1 122.8833 38.2350 52.5082 -11.1475 -5.2586 -11.3176
# 2 38.2350 75.9513 32.0572 14.3976 -13.8082 -12.0829
# 3 52.5082 32.0572 89.6810 -3.3830 -6.1225 -1.9593
# 4 -11.1475 14.3976 -3.3830 32.6750 -6.6068 -7.8060
# 5 -5.2586 -13.8082 -6.1225 -6.6068 45.9956 9.1951
# 6 -11.3176 -12.0829 -1.9593 -7.8060 9.1951 41.4957
#
#
#
# Elastic Compliance Matrix: (Units=1/GPa)
#
#
# Indices 1 2 3 4 5 6 
#
# 1 0.012933 -0.005054 -0.005471 0.006741 -0.000431 0.003161
# 2 -0.005054 0.020349 -0.004443 -0.010100 0.003141 0.001741
# 3 -0.005471 -0.004443 0.016007 0.001442 0.000764 -0.001928
# 4 0.006741 -0.010100 0.001442 0.039388 0.002421 0.005839
# 5 -0.000431 0.003141 0.000764 0.002421 0.023885 -0.004004
# 6 0.003161 0.001741 -0.001928 0.005839 -0.004004 0.027362
#
#
# Mechanical properties :
#
#
# Convention : Reuss Voigt Hill
#
# Bulk Modulus (GPa) = 51.67842 59.34626 55.51234
# Shear Modulus (GPa) = 28.35904 35.08093 31.71999
#
# Velocity S-wave (km/s) = 3.60505 4.00959 3.81269
# Velocity P-wave (km/s) = 6.40403 6.97373 6.69494
#
# Compressibility (1/GPa) = 0.01935044
#
# Stress axis : x y z
#
# Youngs Moduli (GPa) = 77.32433 49.14356 62.47392
#
# Poissons Ratio (x) = 0.24839 0.34182
# Poissons Ratio (y) = 0.39083 0.27757
# Poissons Ratio (z) = 0.42307 0.21834
#
# Static dielectric constant tensor:
#      x y z
#    x 4.140170 -0.327630 0.069660 
#    y -0.327630 3.981100 0.255800 
#    z 0.069660 0.255800 3.777510 
# 
# 
# High freq. dielectric constant tensor:
#      x y z
#    x 1.874380 -0.015760 0.013130 
#    y -0.015760 1.853020 0.024450 
#    z 0.013130 0.024450 1.850140 
# 
# From -- ./inp_files/157126.got.cif
#   From: 2010.06.25/outbox.cif.g09.slc.cpg/sg2_79_cif.got.tgz:157126.got - 2010.06.27 13:26:56.
