data_PCOD8023695
_publ_section_title
;
Structure prediction by ZEFSAII (Michael W. Deem and Ramdas Pophale) SiO2 
 PCOD8023695
Probable space group: P -1
;
_chemical_formula_sum "Si O2"
_cell_formula_units_Z 16
_cell_length_a 9.214821
_cell_length_b 12.636285
_cell_length_c 12.006492
_cell_angle_alpha 47.120524
_cell_angle_beta 57.483621
_cell_angle_gamma 43.820644
_cell_volume 706.351708
_symmetry_space_group_name_H-M "P -1"
_symmetry_group_IT_number 2
_symmetry_cell_setting 'triclinic'
loop_
_space_group_symop_operation_xyz
x,y,z
-x,-y,-z
loop_
_atom_site_type_symbol
_atom_site_label
_atom_site_fract_x
_atom_site_fract_y
_atom_site_fract_z
Si Si1 0.143945 0.113510 0.056733
Si Si2 0.314732 0.541798 0.464961
Si Si3 0.137150 0.323956 0.719089
Si Si4 0.864571 0.819513 0.410231
Si Si5 0.211789 0.310065 0.063043
Si Si6 0.374562 0.743216 0.128812
Si Si7 0.720512 0.665057 0.735283
Si Si8 0.716523 0.201269 0.127416
O O1 0.206987 0.155609 0.117204
O O2 0.887855 0.232545 0.077537
O O3 0.237508 0.907682 0.153232
O O4 0.238581 0.159690 0.880300
O O5 0.500000 0.500000 0.500000
O O6 0.301701 0.373893 0.591362
O O7 0.369474 0.581289 0.292298
O O8 0.080954 0.715856 0.468684
O O9 0.072860 0.283749 0.658628
O O10 0.926731 0.474669 0.760863
O O11 0.691927 0.804708 0.555402
O O12 0.768762 0.019996 0.285045
O O13 0.264937 0.260461 0.205424
O O14 0.386553 0.321091 0.921787
O O15 0.000000 0.500000 0.000000
O O16 0.269218 0.803990 0.008021
O O17 0.519032 0.652780 0.833235
#
# Coordination Sequence:
#
# PCOD8023695 Si02
#       8
#     2   2   2   2   2   2   2   2
#     4  12  22  43  70  99 128 173 226 268 320 394
#     4  11  23  39  63  99 131 168 214 269 323 381
#     4  11  23  43  71  96 131 173 222 271 327 389
#     4  11  22  45  68  95 133 173 220 270 330 389
#     4  11  24  43  62  95 137 179 207 267 331 390
#     4  11  23  43  72  94 134 170 225 268 324 388
#     4  10  23  42  63  93 136 176 210 269 336 386
#     4  11  23  42  68 101 129 169 221 282 322 381
#
# _framework density 22.651606999999998
#
# number of rings (size 3 to 8) (size 9 to 14) (size 15 to 20)
#    0.000    1.000    3.750    4.125    1.750    0.500 
#    4.500    0.625    0.000    0.000    0.000    0.000 
#    0.000    0.000    0.000    0.000    0.000    0.000 
#
# Total GULP energy -198373.639307 kJ/mol
# GULP energy per Si atom -12398.352457 kJ/mol
# Density = 2.260005 g / cm^3
# Si number density = 22.651607 Si / 1000 Ang^3
#
#
#
# Elastic Constant Matrix: (Units=GPa)
#
#
# Indices 1 2 3 4 5 6 
#
# 1 91.7608 18.9104 11.1579 17.0681 -10.3382 -9.2499
# 2 18.9104 52.3192 5.9553 22.0123 -2.5836 1.1699
# 3 11.1579 5.9553 109.4507 8.6685 -6.6105 6.7379
# 4 17.0681 22.0123 8.6685 33.2578 -3.0061 -1.6956
# 5 -10.3382 -2.5836 -6.6105 -3.0061 34.9755 2.7261
# 6 -9.2499 1.1699 6.7379 -1.6956 2.7261 30.6313
#
#
#
# Elastic Compliance Matrix: (Units=1/GPa)
#
#
# Indices 1 2 3 4 5 6 
#
# 1 0.013060 -0.002813 -0.000910 -0.004155 0.002830 0.003770
# 2 -0.002813 0.027232 0.000315 -0.016808 0.000020 -0.002891
# 3 -0.000910 0.000315 0.009651 -0.002250 0.001594 -0.002676
# 4 -0.004155 -0.016808 -0.002250 0.044092 0.000719 0.002259
# 5 0.002830 0.000020 0.001594 0.000719 0.029958 -0.002123
# 6 0.003770 -0.002891 -0.002676 0.002259 -0.002123 0.034798
#
#
# Mechanical properties :
#
#
# Convention : Reuss Voigt Hill
#
# Bulk Modulus (GPa) = 23.18738 36.17532 29.68135
# Shear Modulus (GPa) = 27.78058 34.27340 31.02699
#
# Velocity S-wave (km/s) = 3.50584 3.89404 3.70503
# Velocity P-wave (km/s) = 5.16204 6.01856 5.60668
#
# Compressibility (1/GPa) = 0.04312691
#
# Stress axis : x y z
#
# Youngs Moduli (GPa) = 76.56943 36.72212 103.61245
#
# Poissons Ratio (x) = 0.10330 0.09433
# Poissons Ratio (y) = 0.21540 -0.03269
# Poissons Ratio (z) = 0.06971 -0.01159
#
# Static dielectric constant tensor:
#      x y z
#    x 4.243230 -0.151120 -0.209950 
#    y -0.151120 3.878000 0.106090 
#    z -0.209950 0.106090 4.446500 
# 
# 
# High freq. dielectric constant tensor:
#      x y z
#    x 1.896540 -0.014650 -0.013030 
#    y -0.014650 1.873230 0.001110 
#    z -0.013030 0.001110 1.909030 
# 
# From -- ./inp_files/392006.got.cif
#   From: 2010.06.25/outbox.cif.g09.slc.cpg/sg2_197_cif.got.tgz:392006.got - 2010.06.27 13:26:56.
