data_PCOD8023845
_publ_section_title
;
Structure prediction by ZEFSAII (Michael W. Deem and Ramdas Pophale) SiO2 
 PCOD8023845
Probable space group: P -1
;
_chemical_formula_sum "Si O2"
_cell_formula_units_Z 16
_cell_length_a 28.088306
_cell_length_b 8.432966
_cell_length_c 15.212700
_cell_angle_alpha 131.517506
_cell_angle_beta 161.719882
_cell_angle_gamma 40.476633
_cell_volume 701.736342
_symmetry_space_group_name_H-M "P -1"
_symmetry_group_IT_number 2
_symmetry_cell_setting 'triclinic'
loop_
_space_group_symop_operation_xyz
x,y,z
-x,-y,-z
loop_
_atom_site_type_symbol
_atom_site_label
_atom_site_fract_x
_atom_site_fract_y
_atom_site_fract_z
Si Si1 0.918261 0.882626 0.205492
Si Si2 0.401882 0.628417 0.593940
Si Si3 0.825789 0.736449 0.328747
Si Si4 0.120788 0.199287 0.092929
Si Si5 0.769038 0.398399 0.225424
Si Si6 0.930601 0.948577 0.729912
Si Si7 0.746383 0.600712 0.860957
Si Si8 0.515807 0.829939 0.708934
O O1 0.130040 0.680633 0.532189
O O2 0.869498 0.159726 0.247133
O O3 0.891259 0.879664 0.054659
O O4 0.781660 0.823041 0.992224
O O5 0.345908 0.430701 0.399228
O O6 0.479794 0.670538 0.656445
O O7 0.235768 0.897903 0.437758
O O8 0.555650 0.497400 0.892077
O O9 0.775194 0.629263 0.283151
O O10 0.864289 0.939015 0.511188
O O11 0.000000 0.500000 0.500000
O O12 0.654288 0.891675 0.018619
O O13 0.328470 0.088959 0.445311
O O14 0.000000 0.500000 0.000000
O O15 0.041905 0.080498 0.974590
O O16 0.057847 0.661517 0.881290
O O17 0.617782 0.653509 0.738276
#
# Coordination Sequence:
#
# PCOD8023845 Si02
#       8
#     2   2   2   2   2   2   2   2
#     4  11  24  43  68  97 141 174 220 276 341 395
#     4  11  25  41  70 101 135 171 232 280 330 396
#     4  11  21  43  71 101 131 171 234 277 324 398
#     4  12  28  44  65  99 143 178 216 278 344 394
#     4  10  23  42  66  97 133 177 219 276 339 390
#     4  12  25  44  70  99 134 181 223 273 337 395
#     4  12  23  43  71 100 132 176 227 272 331 404
#     4  11  25  42  72 101 134 175 231 277 331 397
#
# _framework density 22.800585999999999
#
# number of rings (size 3 to 8) (size 9 to 14) (size 15 to 20)
#    0.000    0.750    3.750    3.000    3.500    7.000 
#    0.000    1.250    0.000    0.000    0.000    0.000 
#    0.000    0.000    0.000    0.000    0.000    0.000 
#
# Total GULP energy -198411.157895 kJ/mol
# GULP energy per Si atom -12400.697368 kJ/mol
# Density = 2.274869 g / cm^3
# Si number density = 22.800586 Si / 1000 Ang^3
#
#
#
# Elastic Constant Matrix: (Units=GPa)
#
#
# Indices 1 2 3 4 5 6 
#
# 1 57.7364 1.4763 29.6279 -5.7531 1.7909 -9.5219
# 2 1.4763 65.8007 27.5309 1.5628 3.6891 -4.4033
# 3 29.6279 27.5309 184.8165 -10.2068 -17.9487 -7.0135
# 4 -5.7531 1.5628 -10.2068 41.0064 -3.0116 -3.0446
# 5 1.7909 3.6891 -17.9487 -3.0116 34.4820 -4.7113
# 6 -9.5219 -4.4033 -7.0135 -3.0446 -4.7113 26.7743
#
#
#
# Elastic Compliance Matrix: (Units=1/GPa)
#
#
# Indices 1 2 3 4 5 6 
#
# 1 0.020329 0.001394 -0.003264 0.002341 -0.001804 0.006553
# 2 0.001394 0.016778 -0.003055 -0.001322 -0.003338 0.001717
# 3 -0.003264 -0.003055 0.006963 0.001802 0.004435 0.001146
# 4 0.002341 -0.001322 0.001802 0.025847 0.003858 0.004705
# 5 -0.001804 -0.003338 0.004435 0.003858 0.032945 0.006207
# 6 0.006553 0.001717 0.001146 0.004705 0.006207 0.041889
#
#
# Mechanical properties :
#
#
# Convention : Reuss Voigt Hill
#
# Bulk Modulus (GPa) = 29.22300 47.29153 38.25727
# Shear Modulus (GPa) = 30.11922 37.10044 33.60983
#
# Velocity S-wave (km/s) = 3.63848 4.03820 3.84354
# Velocity P-wave (km/s) = 5.52231 6.52143 6.04256
#
# Compressibility (1/GPa) = 0.03421962
#
# Stress axis : x y z
#
# Youngs Moduli (GPa) = 49.19027 59.60301 143.62170
#
# Poissons Ratio (x) = -0.08306 0.46876
# Poissons Ratio (y) = -0.06855 0.43872
# Poissons Ratio (z) = 0.16055 0.18207
#
# Static dielectric constant tensor:
#      x y z
#    x 3.991200 -0.036090 -0.182630 
#    y -0.036090 4.003370 0.245470 
#    z -0.182630 0.245470 4.787280 
# 
# 
# High freq. dielectric constant tensor:
#      x y z
#    x 1.883080 -0.005620 -0.009840 
#    y -0.005620 1.886280 0.010350 
#    z -0.009840 0.010350 1.927520 
# 
# From -- ./inp_files/308435.got.cif
#   From: 2010.06.25/outbox.cif.g09.slc.cpg/sg2_155_cif.got.tgz:308435.got - 2010.06.27 13:26:56.
