data_PCOD8023519
_publ_section_title
;
Structure prediction by ZEFSAII (Michael W. Deem and Ramdas Pophale) SiO2 
 PCOD8023519
Probable space group: P -1
;
_chemical_formula_sum "Si O2"
_cell_formula_units_Z 12
_cell_length_a 12.166964
_cell_length_b 9.970900
_cell_length_c 8.727423
_cell_angle_alpha 74.605315
_cell_angle_beta 144.146301
_cell_angle_gamma 117.945343
_cell_volume 534.280779
_symmetry_space_group_name_H-M "P -1"
_symmetry_group_IT_number 2
_symmetry_cell_setting 'triclinic'
loop_
_space_group_symop_operation_xyz
x,y,z
-x,-y,-z
loop_
_atom_site_type_symbol
_atom_site_label
_atom_site_fract_x
_atom_site_fract_y
_atom_site_fract_z
Si Si1 0.351592 0.016005 0.026737
Si Si2 0.504515 0.364484 0.153688
Si Si3 0.045303 0.590088 0.367226
Si Si4 0.005783 0.095925 0.125153
Si Si5 0.293283 0.401165 0.200654
Si Si6 0.209334 0.926534 0.566338
O O1 0.405298 0.198063 0.004650
O O2 0.565775 0.000946 0.285356
O O3 0.224653 0.911619 0.770577
O O4 0.225651 0.941407 0.063419
O O5 0.743000 0.407494 0.462764
O O6 0.365516 0.335754 0.156362
O O7 0.500000 0.500000 0.000000
O O8 0.067058 0.761228 0.377460
O O9 0.000000 0.500000 0.500000
O O10 0.845375 0.513648 0.047460
O O11 0.138385 0.275494 0.182696
O O12 0.111674 0.045440 0.397072
O O13 0.000000 0.000000 0.000000
O O14 0.500000 0.500000 0.500000
#
# Coordination Sequence:
#
# PCOD8023519 Si02
#       6
#     2   2   2   2   2   2
#     4  10  23  42  70 102 130 175 229 281 335 408
#     4  11  23  42  70  98 138 179 225 283 340 405
#     4  11  23  43  71  97 136 180 228 277 339 409
#     4  12  23  42  68  95 139 173 223 275 343 406
#     4  12  28  44  65 104 140 182 225 284 347 397
#     4  10  23  41  69 104 128 174 231 276 338 404
#
# _framework density 22.460100000000001
#
# number of rings (size 3 to 8) (size 9 to 14) (size 15 to 20)
#    0.000    1.000    5.000    0.500    2.333    5.333 
#    0.000    0.000    0.000    0.000    0.000    0.000 
#    0.000    0.000    0.000    0.000    0.000    0.000 
#
# Total GULP energy -148754.573184 kJ/mol
# GULP energy per Si atom -12396.214432 kJ/mol
# Density = 2.240898 g / cm^3
# Si number density = 22.460100 Si / 1000 Ang^3
#
#
#
# Elastic Constant Matrix: (Units=GPa)
#
#
# Indices 1 2 3 4 5 6 
#
# 1 128.3647 8.8111 28.7734 4.6672 25.7916 16.3283
# 2 8.8111 70.3932 26.7958 -11.1582 12.2499 19.9592
# 3 28.7734 26.7958 145.2173 -9.0800 12.2724 5.6309
# 4 4.6672 -11.1582 -9.0800 30.6439 -2.8904 2.8245
# 5 25.7916 12.2499 12.2724 -2.8904 32.4933 1.9499
# 6 16.3283 19.9592 5.6309 2.8245 1.9499 38.5958
#
#
#
# Elastic Compliance Matrix: (Units=1/GPa)
#
#
# Indices 1 2 3 4 5 6 
#
# 1 0.010294 0.001721 -0.001610 -0.001770 -0.008101 -0.004471
# 2 0.001721 0.020387 -0.002681 0.006744 -0.006778 -0.011031
# 3 -0.001610 -0.002681 0.007807 0.001449 -0.000582 0.000852
# 4 -0.001770 0.006744 0.001449 0.036494 0.001905 -0.005717
# 5 -0.008101 -0.006778 -0.000582 0.001905 0.039858 0.004864
# 6 -0.004471 -0.011031 0.000852 -0.005717 0.004864 0.033554
#
#
# Mechanical properties :
#
#
# Convention : Reuss Voigt Hill
#
# Bulk Modulus (GPa) = 29.98593 52.52617 41.25605
# Shear Modulus (GPa) = 30.36759 38.98627 34.67693
#
# Velocity S-wave (km/s) = 3.68104 4.17081 3.93356
# Velocity P-wave (km/s) = 5.60771 6.82872 6.24812
#
# Compressibility (1/GPa) = 0.03334897
#
# Stress axis : x y z
#
# Youngs Moduli (GPa) = 97.14614 49.05027 128.09614
#
# Poissons Ratio (x) = -0.08443 0.20623
# Poissons Ratio (y) = -0.16722 0.34339
# Poissons Ratio (z) = 0.15640 0.13149
#
# Static dielectric constant tensor:
#      x y z
#    x 4.336090 0.080120 0.308690 
#    y 0.080120 4.483080 -0.168670 
#    z 0.308690 -0.168670 4.389440 
# 
# 
# High freq. dielectric constant tensor:
#      x y z
#    x 1.896290 0.005880 0.019680 
#    y 0.005880 1.866920 -0.005400 
#    z 0.019680 -0.005400 1.893190 
# 
# From -- ./inp_files/174250.got.cif
#   From: 2010.06.25/outbox.cif.g09.slc.cpg/sg2_88_cif.got.tgz:174250.got - 2010.06.27 13:26:56.
