data_PCOD8023746
_publ_section_title
;
Structure prediction by ZEFSAII (Michael W. Deem and Ramdas Pophale) SiO2 
 PCOD8023746
Probable space group: P -1
;
_chemical_formula_sum "Si O2"
_cell_formula_units_Z 16
_cell_length_a 14.372302
_cell_length_b 6.510571
_cell_length_c 23.791155
_cell_angle_alpha 106.454820
_cell_angle_beta 18.891352
_cell_angle_gamma 106.954280
_cell_volume 689.260254
_symmetry_space_group_name_H-M "P -1"
_symmetry_group_IT_number 2
_symmetry_cell_setting 'triclinic'
loop_
_space_group_symop_operation_xyz
x,y,z
-x,-y,-z
loop_
_atom_site_type_symbol
_atom_site_label
_atom_site_fract_x
_atom_site_fract_y
_atom_site_fract_z
Si Si1 0.186810 0.628167 0.575464
Si Si2 0.047501 0.533820 0.191905
Si Si3 0.796653 0.748547 0.253130
Si Si4 0.270107 0.055994 0.287506
Si Si5 0.260387 0.250230 0.422999
Si Si6 0.602025 0.797436 0.894803
Si Si7 0.166518 0.134822 0.019926
Si Si8 0.875584 0.347454 0.108763
O O1 0.461202 0.799842 0.444111
O O2 0.212279 0.485938 0.493213
O O3 0.141816 0.477318 0.644300
O O4 0.918121 0.768373 0.734098
O O5 0.042907 0.302576 0.146777
O O6 0.924183 0.728868 0.241480
O O7 0.382297 0.595195 0.019745
O O8 0.777529 0.503210 0.224874
O O9 0.995632 0.905364 0.112203
O O10 0.969277 0.926076 0.431653
O O11 0.212901 0.234608 0.381434
O O12 0.405813 0.178790 0.166048
O O13 0.492264 0.886779 0.170008
O O14 0.592464 0.197441 0.239911
O O15 0.500000 0.000000 0.000000
O O16 0.106779 0.200003 0.994118
O O17 0.000000 0.500000 0.000000
#
# Coordination Sequence:
#
# PCOD8023746 Si02
#       8
#     2   2   2   2   2   2   2   2
#     4  11  24  43  66  98 138 175 222 283 334 394
#     4  11  23  44  69  97 135 174 225 279 334 396
#     4  10  23  42  65 102 131 178 220 274 341 394
#     4  11  23  43  67  98 135 178 224 276 323 409
#     4  10  24  44  64  98 135 176 221 273 338 388
#     4  12  25  43  70  98 133 176 229 274 335 398
#     4  11  23  43  71  99 135 177 224 270 341 394
#     4  10  23  42  68  98 137 176 222 277 325 403
#
# _framework density 23.213293
#
# number of rings (size 3 to 8) (size 9 to 14) (size 15 to 20)
#    0.000    1.250    1.250    3.750    3.500    3.000 
#    9.000    0.000    0.000    0.000    0.000    0.000 
#    0.000    0.000    0.000    0.000    0.000    0.000 
#
# Total GULP energy -198373.933040 kJ/mol
# GULP energy per Si atom -12398.370815 kJ/mol
# Density = 2.316046 g / cm^3
# Si number density = 23.213293 Si / 1000 Ang^3
#
#
#
# Elastic Constant Matrix: (Units=GPa)
#
#
# Indices 1 2 3 4 5 6 
#
# 1 105.3562 35.6241 46.4602 -5.2781 -5.9004 -14.7950
# 2 35.6241 70.4376 30.1970 -9.2919 -7.9852 -2.2699
# 3 46.4602 30.1970 128.3767 -16.8768 -21.3680 -4.9828
# 4 -5.2781 -9.2919 -16.8768 36.2653 3.4245 1.8656
# 5 -5.9004 -7.9852 -21.3680 3.4245 54.9858 1.1741
# 6 -14.7950 -2.2699 -4.9828 1.8656 1.1741 43.4088
#
#
#
# Elastic Compliance Matrix: (Units=1/GPa)
#
#
# Indices 1 2 3 4 5 6 
#
# 1 0.013375 -0.005291 -0.003743 -0.001278 -0.000792 0.003929
# 2 -0.005291 0.018138 -0.001806 0.002986 0.001205 -0.001223
# 3 -0.003743 -0.001806 0.010567 0.003626 0.003225 -0.000400
# 4 -0.001278 0.002986 0.003626 0.029913 -0.000133 -0.001145
# 5 -0.000792 0.001205 0.003225 -0.000133 0.019546 -0.000360
# 6 0.003929 -0.001223 -0.000400 -0.001145 -0.000360 0.024325
#
#
# Mechanical properties :
#
#
# Convention : Reuss Voigt Hill
#
# Bulk Modulus (GPa) = 49.02193 58.74813 53.88503
# Shear Modulus (GPa) = 34.63942 39.72457 37.18200
#
# Velocity S-wave (km/s) = 3.86712 4.14126 4.00653
# Velocity P-wave (km/s) = 6.41119 6.94475 6.68330
#
# Compressibility (1/GPa) = 0.02039903
#
# Stress axis : x y z
#
# Youngs Moduli (GPa) = 74.76771 55.13157 94.63380
#
# Poissons Ratio (x) = 0.29173 0.35423
# Poissons Ratio (y) = 0.39563 0.17091
# Poissons Ratio (z) = 0.27987 0.09957
#
# Static dielectric constant tensor:
#      x y z
#    x 4.721530 0.267940 -0.352660 
#    y 0.267940 3.967790 -0.156010 
#    z -0.352660 -0.156010 4.424850 
# 
# 
# High freq. dielectric constant tensor:
#      x y z
#    x 1.931230 0.011640 -0.006140 
#    y 0.011640 1.895560 -0.005680 
#    z -0.006140 -0.005680 1.929010 
# 
# From -- ./inp_files/611300.got.cif
#   From: 2010.06.25/outbox.cif.g09.slc.cpg/sg2_306_cif.got.tgz:611300.got - 2010.06.27 13:26:56.
