data_PCOD8023731
_publ_section_title
;
Structure prediction by ZEFSAII (Michael W. Deem and Ramdas Pophale) SiO2 
 PCOD8023731
Probable space group: P -1
;
_chemical_formula_sum "Si O2"
_cell_formula_units_Z 16
_cell_length_a 15.684177
_cell_length_b 7.808045
_cell_length_c 10.012529
_cell_angle_alpha 83.382539
_cell_angle_beta 53.021619
_cell_angle_gamma 117.517414
_cell_volume 722.694925
_symmetry_space_group_name_H-M "P -1"
_symmetry_group_IT_number 2
_symmetry_cell_setting 'triclinic'
loop_
_space_group_symop_operation_xyz
x,y,z
-x,-y,-z
loop_
_atom_site_type_symbol
_atom_site_label
_atom_site_fract_x
_atom_site_fract_y
_atom_site_fract_z
Si Si1 0.099585 0.277783 0.650755
Si Si2 0.184756 0.168934 0.083350
Si Si3 0.705827 0.656677 0.748952
Si Si4 0.433680 0.146800 0.072677
Si Si5 0.383502 0.108457 0.833865
Si Si6 0.655712 0.209339 0.593993
Si Si7 0.947338 0.725985 0.013720
Si Si8 0.781608 0.191412 0.233804
O O1 0.179850 0.223798 0.489405
O O2 0.185042 0.551721 0.536754
O O3 0.087487 0.201783 0.824569
O O4 0.934879 0.115226 0.767442
O O5 0.218292 0.283606 0.185306
O O6 0.110555 0.240338 0.063964
O O7 0.329991 0.251430 0.867208
O O8 0.630468 0.759754 0.795785
O O9 0.596763 0.377196 0.859134
O O10 0.426172 0.970101 0.188656
O O11 0.345085 0.012374 0.032046
O O12 0.300863 0.909361 0.819658
O O13 0.554723 0.261477 0.636771
O O14 0.669982 0.085604 0.472152
O O15 0.867964 0.460165 0.123849
O O16 0.117111 0.865578 0.833362
#
# Coordination Sequence:
#
# PCOD8023731 Si02
#       8
#     2   2   2   2   2   2   2   2
#     4  11  22  42  64  96 126 168 213 259 316 381
#     4  11  24  41  68  93 130 172 207 266 317 375
#     4  10  23  42  64  97 129 164 219 259 312 387
#     4  10  23  43  65  93 132 169 205 269 322 366
#     4  11  22  42  64  96 126 168 213 259 316 381
#     4  11  24  41  68  93 130 172 207 266 317 375
#     4  10  23  43  65  93 132 169 205 269 322 366
#     4  10  23  42  64  97 129 164 219 259 312 387
#
# _framework density 22.139355999999999
#
# number of rings (size 3 to 8) (size 9 to 14) (size 15 to 20)
#    0.000    1.500    2.500    1.500    3.500    0.000 
#    0.000    5.000    0.000    0.000    0.000    0.000 
#    0.000    0.000    0.000    0.000    0.000    0.000 
#
# Total GULP energy -198289.094780 kJ/mol
# GULP energy per Si atom -12393.068424 kJ/mol
# Density = 2.208897 g / cm^3
# Si number density = 22.139356 Si / 1000 Ang^3
#
#
#
# Elastic Constant Matrix: (Units=GPa)
#
#
# Indices 1 2 3 4 5 6 
#
# 1 130.3166 39.7750 41.8998 3.2570 -10.1295 9.1848
# 2 39.7750 40.5729 17.3826 22.9416 -4.3806 17.3044
# 3 41.8998 17.3826 106.7568 22.4719 -7.6958 6.1715
# 4 3.2570 22.9416 22.4719 37.4260 0.6799 3.3317
# 5 -10.1295 -4.3806 -7.6958 0.6799 22.8554 6.1658
# 6 9.1848 17.3044 6.1715 3.3317 6.1658 34.2650
#
#
#
# Elastic Compliance Matrix: (Units=1/GPa)
#
#
# Indices 1 2 3 4 5 6 
#
# 1 0.018283 -0.032451 -0.007470 0.021842 -0.004384 0.011498
# 2 -0.032451 0.116358 0.014140 -0.073002 0.028515 -0.050644
# 3 -0.007470 0.014140 0.014283 -0.016060 0.006669 -0.007349
# 4 0.021842 -0.073002 -0.016060 0.076901 -0.020113 0.030047
# 5 -0.004384 0.028515 0.006669 -0.020113 0.056213 -0.022586
# 6 0.011498 -0.050644 -0.007349 0.030047 -0.022586 0.054145
#
#
# Mechanical properties :
#
#
# Convention : Reuss Voigt Hill
#
# Bulk Modulus (GPa) = 10.27091 52.86234 31.56663
# Shear Modulus (GPa) = 11.89912 30.81520 21.35716
#
# Velocity S-wave (km/s) = 2.32084 3.73483 3.10928
# Velocity P-wave (km/s) = 3.43963 6.52131 5.21338
#
# Compressibility (1/GPa) = 0.09736237
#
# Stress axis : x y z
#
# Youngs Moduli (GPa) = 54.69571 8.59416 70.01355
#
# Poissons Ratio (x) = 0.27888 0.52302
# Poissons Ratio (y) = 1.77490 -0.98999
# Poissons Ratio (z) = 0.40859 -0.12152
#
# Static dielectric constant tensor:
#      x y z
#    x 3.945580 0.153740 -0.320990 
#    y 0.153740 4.158220 0.313010 
#    z -0.320990 0.313010 4.202210 
# 
# 
# High freq. dielectric constant tensor:
#      x y z
#    x 1.858960 0.013270 -0.017950 
#    y 0.013270 1.880510 0.030300 
#    z -0.017950 0.030300 1.871570 
# 
# From -- ./inp_files/188564.got.cif
#   From: 2010.06.25/outbox.cif.g09.slc.cpg/sg2_95_cif.got.tgz:188564.got - 2010.06.27 13:26:56.
