data_PCOD8023868
_publ_section_title
;
Structure prediction by ZEFSAII (Michael W. Deem and Ramdas Pophale) SiO2 
 PCOD8023868
Probable space group: P -1
;
_chemical_formula_sum "Si O2"
_cell_formula_units_Z 12
_cell_length_a 5.614358
_cell_length_b 5.822297
_cell_length_c 14.173085
_cell_angle_alpha 87.659397
_cell_angle_beta 87.306239
_cell_angle_gamma 70.765486
_cell_volume 436.792914
_symmetry_space_group_name_H-M "P -1"
_symmetry_group_IT_number 2
_symmetry_cell_setting 'triclinic'
loop_
_space_group_symop_operation_xyz
x,y,z
-x,-y,-z
loop_
_atom_site_type_symbol
_atom_site_label
_atom_site_fract_x
_atom_site_fract_y
_atom_site_fract_z
Si Si1 0.762652 0.162315 0.446379
Si Si2 0.651960 0.401116 0.778723
Si Si3 0.959690 0.687117 0.703837
Si Si4 0.464249 0.737855 0.936492
Si Si5 0.089568 0.074186 0.105272
Si Si6 0.514140 0.139905 0.631813
O O1 0.544887 0.265073 0.528259
O O2 0.807854 0.374269 0.375899
O O3 0.695575 0.987079 0.373747
O O4 0.000000 0.000000 0.500000
O O5 0.854627 0.460170 0.704345
O O6 0.504952 0.656136 0.827791
O O7 0.450031 0.327025 0.718919
O O8 0.792305 0.200837 0.856451
O O9 0.017711 0.733125 0.810993
O O10 0.774387 0.939076 0.662151
O O11 0.675216 0.868517 0.953879
O O12 0.165389 0.903153 0.953636
O O13 0.500000 0.500000 0.000000
#
# Coordination Sequence:
#
# PCOD8023868 Si02
#       6
#     2   2   2   2   2   2
#     4   9  18  36  61  87 134 169 220 285 325 381
#     4  10  23  42  67 101 131 183 224 270 345 404
#     4   9  20  37  60  93 129 175 221 274 329 396
#     4  11  25  47  71 102 139 174 222 283 339 407
#     4  10  24  43  69 102 139 174 223 282 334 404
#     4   9  19  39  59  92 130 173 224 281 325 392
#
# _framework density 27.472974000000001
#
# number of rings (size 3 to 8) (size 9 to 14) (size 15 to 20)
#    0.000    2.333    0.000    0.500    7.000    4.667 
#   12.000    7.500    0.000    0.000    0.000    0.000 
#    0.000    0.000    0.000    0.000    0.000    0.000 
#
# Total GULP energy -148720.238965 kJ/mol
# GULP energy per Si atom -12393.353247 kJ/mol
# Density = 2.741044 g / cm^3
# Si number density = 27.472974 Si / 1000 Ang^3
#
#
#
# Elastic Constant Matrix: (Units=GPa)
#
#
# Indices 1 2 3 4 5 6 
#
# 1 178.5242 47.4394 87.2406 0.1049 5.5979 34.2988
# 2 47.4394 57.3677 38.3415 -9.5243 -2.7765 21.9975
# 3 87.2406 38.3415 107.3232 -9.9187 -8.2918 21.9065
# 4 0.1049 -9.5243 -9.9187 64.6189 12.4594 -6.6852
# 5 5.5979 -2.7765 -8.2918 12.4594 60.4923 -2.8828
# 6 34.2988 21.9975 21.9065 -6.6852 -2.8828 52.4199
#
#
#
# Elastic Compliance Matrix: (Units=1/GPa)
#
#
# Indices 1 2 3 4 5 6 
#
# 1 0.010553 -0.003197 -0.007137 -0.001510 -0.001928 -0.002880
# 2 -0.003197 0.026535 -0.005330 0.002430 -0.000028 -0.006508
# 3 -0.007137 -0.005330 0.017353 0.001404 0.002504 -0.000028
# 4 -0.001510 0.002430 0.001404 0.016759 -0.002943 0.001357
# 5 -0.001928 -0.000028 0.002504 -0.002943 0.017697 0.000824
# 6 -0.002880 -0.006508 -0.000028 0.001357 0.000824 0.023922
#
#
# Mechanical properties :
#
#
# Convention : Reuss Voigt Hill
#
# Bulk Modulus (GPa) = 43.26737 76.58423 59.92580
# Shear Modulus (GPa) = 32.92691 46.85248 39.88970
#
# Velocity S-wave (km/s) = 3.46572 4.13413 3.81459
# Velocity P-wave (km/s) = 5.63899 7.12213 6.42351
#
# Compressibility (1/GPa) = 0.02311210
#
# Stress axis : x y z
#
# Youngs Moduli (GPa) = 94.75696 37.68647 57.62811
#
# Poissons Ratio (x) = 0.12047 0.41131
# Poissons Ratio (y) = 0.30289 0.30718
# Poissons Ratio (z) = 0.67631 0.20089
#
# Static dielectric constant tensor:
#      x y z
#    x 5.320080 0.110050 -0.406090 
#    y 0.110050 4.741510 0.393100 
#    z -0.406090 0.393100 5.909610 
# 
# 
# High freq. dielectric constant tensor:
#      x y z
#    x 2.116240 0.003360 -0.004210 
#    y 0.003360 2.100560 0.009730 
#    z -0.004210 0.009730 2.136750 
# 
# From -- ./inp_files/5244.got.cif
#   From: 2010.06.25/outbox.cif.g09.slc.cpg/sg2_3_cif.got.tgz:5244.got - 2010.06.27 13:26:56.
