data_PCOD8023619
_publ_section_title
;
Structure prediction by ZEFSAII (Michael W. Deem and Ramdas Pophale) SiO2 
 PCOD8023619
Probable space group: P -1
;
_chemical_formula_sum "Si O2"
_cell_formula_units_Z 12
_cell_length_a 9.759536
_cell_length_b 10.649464
_cell_length_c 8.232370
_cell_angle_alpha 101.402752
_cell_angle_beta 133.958641
_cell_angle_gamma 65.109286
_cell_volume 552.825339
_symmetry_space_group_name_H-M "P -1"
_symmetry_group_IT_number 2
_symmetry_cell_setting 'triclinic'
loop_
_space_group_symop_operation_xyz
x,y,z
-x,-y,-z
loop_
_atom_site_type_symbol
_atom_site_label
_atom_site_fract_x
_atom_site_fract_y
_atom_site_fract_z
Si Si1 0.024856 0.115833 0.439153
Si Si2 0.387147 0.127716 0.559699
Si Si3 0.851858 0.571670 0.661461
Si Si4 0.274649 0.520275 0.137701
Si Si5 0.308604 0.599072 0.714590
Si Si6 0.284288 0.758771 0.040852
O O1 0.265051 0.086243 0.593270
O O2 0.897438 0.261771 0.463689
O O3 0.000000 0.000000 0.500000
O O4 0.922543 0.123036 0.176805
O O5 0.227051 0.260287 0.361486
O O6 0.558414 0.168283 0.796096
O O7 0.500000 0.000000 0.500000
O O8 0.754242 0.517246 0.713087
O O9 0.769412 0.525742 0.416222
O O10 0.100583 0.507916 0.869526
O O11 0.501819 0.409409 0.245933
O O12 0.254681 0.683262 0.161567
O O13 0.371303 0.617524 0.958475
#
# Coordination Sequence:
#
# PCOD8023619 Si02
#       6
#     2   2   2   2   2   2
#     4  10  26  46  65 100 129 179 221 276 332 389
#     4  12  27  44  67  97 139 180 220 269 336 403
#     4  11  24  41  69 102 136 171 225 268 339 390
#     4  11  22  41  65 107 130 174 214 278 335 393
#     4  10  23  41  72  95 135 167 223 283 321 395
#     4  10  24  42  69  96 129 171 222 273 334 382
#
# _framework density 21.706675000000001
#
# number of rings (size 3 to 8) (size 9 to 14) (size 15 to 20)
#    1.000    0.333    3.333    1.000    4.667    2.667 
#    6.000    0.000    0.000    0.000    0.000    0.000 
#    0.000    0.000    0.000    0.000    0.000    0.000 
#
# Total GULP energy -148695.424275 kJ/mol
# GULP energy per Si atom -12391.285356 kJ/mol
# Density = 2.165727 g / cm^3
# Si number density = 21.706675 Si / 1000 Ang^3
#
#
#
# Elastic Constant Matrix: (Units=GPa)
#
#
# Indices 1 2 3 4 5 6 
#
# 1 146.2601 57.5073 37.2584 1.4671 24.7061 28.7087
# 2 57.5073 121.4025 32.7496 5.0090 3.2216 4.5577
# 3 37.2584 32.7496 87.7838 22.4069 12.2457 2.8821
# 4 1.4671 5.0090 22.4069 33.3756 9.1723 1.4307
# 5 24.7061 3.2216 12.2457 9.1723 37.0359 -11.1115
# 6 28.7087 4.5577 2.8821 1.4307 -11.1115 39.1811
#
#
#
# Elastic Compliance Matrix: (Units=1/GPa)
#
#
# Indices 1 2 3 4 5 6 
#
# 1 0.015291 -0.005594 -0.003745 0.007356 -0.014714 -0.014719
# 2 -0.005594 0.011267 -0.002321 -0.001522 0.005246 0.004502
# 3 -0.003745 -0.002321 0.016434 -0.010804 0.000658 0.002386
# 4 0.007356 -0.001522 -0.010804 0.041537 -0.014505 -0.010049
# 5 -0.014714 0.005246 0.000658 -0.014505 0.046923 0.023959
# 6 -0.014719 0.004502 0.002386 -0.010049 0.023959 0.042770
#
#
# Mechanical properties :
#
#
# Convention : Reuss Voigt Hill
#
# Bulk Modulus (GPa) = 50.82766 67.83078 59.32922
# Shear Modulus (GPa) = 24.49782 37.11391 30.80586
#
# Velocity S-wave (km/s) = 3.36309 4.13945 3.77130
# Velocity P-wave (km/s) = 6.20862 7.35958 6.80846
#
# Compressibility (1/GPa) = 0.01967433
#
# Stress axis : x y z
#
# Youngs Moduli (GPa) = 65.39643 88.75298 60.84761
#
# Poissons Ratio (x) = 0.49644 0.22789
# Poissons Ratio (y) = 0.36580 0.14120
# Poissons Ratio (z) = 0.24493 0.20596
#
# Static dielectric constant tensor:
#      x y z
#    x 3.923330 0.075950 0.199390 
#    y 0.075950 3.833210 -0.109340 
#    z 0.199390 -0.109340 4.023580 
# 
# 
# High freq. dielectric constant tensor:
#      x y z
#    x 1.857160 0.010730 0.021090 
#    y 0.010730 1.833780 -0.007650 
#    z 0.021090 -0.007650 1.859850 
# 
# From -- ./inp_files/165236.got.cif
#   From: 2010.06.25/outbox.cif.g09.slc.cpg/sg2_83_cif.got.tgz:165236.got - 2010.06.27 13:26:56.
