data_PCOD8023399
_publ_section_title
;
Structure prediction by ZEFSAII (Michael W. Deem and Ramdas Pophale) SiO2 
 PCOD8023399
Probable space group: P -1
;
_chemical_formula_sum "Si O2"
_cell_formula_units_Z 16
_cell_length_a 15.604008
_cell_length_b 8.467206
_cell_length_c 12.309028
_cell_angle_alpha 116.032754
_cell_angle_beta 151.650224
_cell_angle_gamma 63.071732
_cell_volume 685.389755
_symmetry_space_group_name_H-M "P -1"
_symmetry_group_IT_number 2
_symmetry_cell_setting 'triclinic'
loop_
_space_group_symop_operation_xyz
x,y,z
-x,-y,-z
loop_
_atom_site_type_symbol
_atom_site_label
_atom_site_fract_x
_atom_site_fract_y
_atom_site_fract_z
Si Si1 0.332673 0.133059 0.537478
Si Si2 0.240587 0.640444 0.457368
Si Si3 0.311721 0.500527 0.729359
Si Si4 0.987706 0.043468 0.805851
Si Si5 0.293323 0.059637 0.836469
Si Si6 0.435477 0.213187 0.238314
Si Si7 0.240655 0.278705 0.259031
Si Si8 0.926514 0.190337 0.356644
O O1 0.286128 0.297834 0.617936
O O2 0.376042 0.196086 0.482887
O O3 0.160097 0.030369 0.307724
O O4 0.500932 0.996386 0.729258
O O5 0.308991 0.607534 0.645676
O O6 0.094340 0.819646 0.340463
O O7 0.410830 0.669096 0.581382
O O8 0.150892 0.475694 0.258707
O O9 0.147305 0.598031 0.651978
O O10 0.500000 0.500000 0.000000
O O11 0.107847 0.882054 0.824928
O O12 0.095243 0.146651 0.041795
O O13 0.145966 0.153410 0.612604
O O14 0.204887 0.893729 0.731718
O O15 0.301200 0.207285 0.984150
O O16 0.500000 0.000000 0.000000
O O17 0.340245 0.304302 0.265599
#
# Coordination Sequence:
#
# PCOD8023399 Si02
#       8
#     2   2   2   2   2   2   2   2
#     4  10  24  41  63  93 132 176 215 269 330 399
#     4  10  23  41  66  97 127 167 220 276 327 395
#     4  11  24  43  68  97 139 173 217 277 339 388
#     4  11  22  42  66  93 129 172 219 269 331 391
#     4  11  21  38  67 100 131 170 217 275 335 392
#     4  11  21  40  67  95 126 171 220 267 333 393
#     4  11  22  40  65  94 131 167 220 272 328 393
#     4  11  23  40  66  99 132 171 224 269 329 410
#
# _framework density 23.344380999999998
#
# number of rings (size 3 to 8) (size 9 to 14) (size 15 to 20)
#    0.000    1.250    1.250    6.000    0.000    1.500 
#    0.000    0.625    0.000    0.000    0.000    0.000 
#    0.000    0.000    0.000    0.000    0.000    0.000 
#
# Total GULP energy -198323.192185 kJ/mol
# GULP energy per Si atom -12395.199512 kJ/mol
# Density = 2.329125 g / cm^3
# Si number density = 23.344381 Si / 1000 Ang^3
#
#
#
# Elastic Constant Matrix: (Units=GPa)
#
#
# Indices 1 2 3 4 5 6 
#
# 1 87.2381 21.2990 22.8818 6.0085 -12.0308 -18.6000
# 2 21.2990 67.2281 27.1559 10.7302 -18.3301 -23.2349
# 3 22.8818 27.1559 112.9019 17.1466 -7.3368 -15.8720
# 4 6.0085 10.7302 17.1466 34.4480 -7.2313 -3.1220
# 5 -12.0308 -18.3301 -7.3368 -7.2313 41.4170 3.3900
# 6 -18.6000 -23.2349 -15.8720 -3.1220 3.3900 37.7326
#
#
#
# Elastic Compliance Matrix: (Units=1/GPa)
#
#
# Indices 1 2 3 4 5 6 
#
# 1 0.013628 -0.001154 -0.001561 -0.000209 0.002719 0.005090
# 2 -0.001154 0.022902 -0.002715 -0.002890 0.007878 0.011445
# 3 -0.001561 -0.002715 0.010665 -0.004165 -0.000637 0.001758
# 4 -0.000209 -0.002890 -0.004165 0.032709 0.003737 -0.001264
# 5 0.002719 0.007878 -0.000637 0.003737 0.028661 0.003658
# 6 0.005090 0.011445 0.001758 -0.001264 0.003658 0.036365
#
#
# Mechanical properties :
#
#
# Convention : Reuss Voigt Hill
#
# Bulk Modulus (GPa) = 27.52055 45.56018 36.54037
# Shear Modulus (GPa) = 29.77959 35.78828 32.78394
#
# Velocity S-wave (km/s) = 3.57552 3.91968 3.75155
# Velocity P-wave (km/s) = 5.37218 6.32804 5.86960
#
# Compressibility (1/GPa) = 0.03633648
#
# Stress axis : x y z
#
# Youngs Moduli (GPa) = 73.37637 43.66503 93.76652
#
# Poissons Ratio (x) = 0.05037 0.14634
# Poissons Ratio (y) = 0.08465 0.25456
# Poissons Ratio (z) = 0.11452 0.11854
#
# Static dielectric constant tensor:
#      x y z
#    x 4.071240 -0.044770 -0.124730 
#    y -0.044770 4.311250 0.131200 
#    z -0.124730 0.131200 4.203850 
# 
# 
# High freq. dielectric constant tensor:
#      x y z
#    x 1.923360 -0.004970 -0.013780 
#    y -0.004970 1.923350 0.018570 
#    z -0.013780 0.018570 1.919310 
# 
# From -- ./inp_files/447955.got.cif
#   From: 2010.06.25/outbox.cif.g09.slc.cpg/sg2_224_cif.got.tgz:447955.got - 2010.06.27 13:26:56.
