data_PCOD8023152
_publ_section_title
;
Structure prediction by ZEFSAII (Michael W. Deem and Ramdas Pophale) SiO2 
 PCOD8023152
Probable space group: P -1
;
_chemical_formula_sum "Si O2"
_cell_formula_units_Z 16
_cell_length_a 9.027922
_cell_length_b 7.880565
_cell_length_c 13.972448
_cell_angle_alpha 77.587696
_cell_angle_beta 68.569105
_cell_angle_gamma 123.272380
_cell_volume 654.232048
_symmetry_space_group_name_H-M "P -1"
_symmetry_group_IT_number 2
_symmetry_cell_setting 'triclinic'
loop_
_space_group_symop_operation_xyz
x,y,z
-x,-y,-z
loop_
_atom_site_type_symbol
_atom_site_label
_atom_site_fract_x
_atom_site_fract_y
_atom_site_fract_z
Si Si1 0.402225 0.021329 0.683043
Si Si2 0.179118 0.558405 0.377536
Si Si3 0.700883 0.115408 0.868667
Si Si4 0.458033 0.267080 0.320202
Si Si5 0.091401 0.283677 0.855109
Si Si6 0.968877 0.794506 0.911019
Si Si7 0.874852 0.049255 0.411726
Si Si8 0.751534 0.792650 0.806418
O O1 0.594720 0.306850 0.631193
O O2 0.521537 0.924660 0.676167
O O3 0.195666 0.869646 0.822533
O O4 0.307936 0.983023 0.603052
O O5 0.274143 0.753451 0.248062
O O6 0.000000 0.500000 0.500000
O O7 0.066729 0.312422 0.380752
O O8 0.676026 0.898428 0.871376
O O9 0.922197 0.301426 0.855902
O O10 0.500000 0.000000 0.000000
O O11 0.682892 0.512018 0.279816
O O12 0.253521 0.151616 0.451661
O O13 0.418812 0.351841 0.222857
O O14 0.013846 0.032397 0.884656
O O15 0.125319 0.353516 0.951083
O O16 0.779081 0.644852 0.889792
O O17 0.999830 0.001228 0.322136
#
# Coordination Sequence:
#
# PCOD8023152 Si02
#       8
#     2   2   2   2   2   2   2   2
#     4  11  23  42  68  97 134 178 231 279 341 408
#     4  12  24  42  72 100 139 186 227 283 350 403
#     4  11  23  46  69 101 135 177 234 290 334 414
#     4  12  23  41  66 100 135 176 227 286 337 406
#     4  10  23  40  70  92 136 174 226 281 348 401
#     4   9  22  46  61  95 132 178 225 277 343 418
#     4  11  25  45  66 101 144 178 229 281 343 417
#     4  10  23  45  65  95 138 173 223 285 340 404
#
# _framework density 24.456154000000002
#
# number of rings (size 3 to 8) (size 9 to 14) (size 15 to 20)
#    0.000    1.250    2.500    2.250    3.500    1.000 
#    4.500    1.875    0.000    0.000    0.000    0.000 
#    0.000    0.000    0.000    0.000    0.000    0.000 
#
# Total GULP energy -198223.547177 kJ/mol
# GULP energy per Si atom -12388.971699 kJ/mol
# Density = 2.440049 g / cm^3
# Si number density = 24.456154 Si / 1000 Ang^3
#
#
#
# Elastic Constant Matrix: (Units=GPa)
#
#
# Indices 1 2 3 4 5 6 
#
# 1 88.1213 27.2813 16.9715 7.3897 -11.5132 24.0041
# 2 27.2813 73.3873 23.6922 -6.5802 1.1687 33.6080
# 3 16.9715 23.6922 101.9668 12.2421 -15.3619 -8.9200
# 4 7.3897 -6.5802 12.2421 39.9972 3.8395 -6.0722
# 5 -11.5132 1.1687 -15.3619 3.8395 40.4106 9.4501
# 6 24.0041 33.6080 -8.9200 -6.0722 9.4501 30.7240
#
#
#
# Elastic Compliance Matrix: (Units=1/GPa)
#
#
# Indices 1 2 3 4 5 6 
#
# 1 0.020279 0.006891 -0.005084 -0.006628 0.011201 -0.029613
# 2 0.006891 0.043126 -0.015112 0.000556 0.008846 -0.059557
# 3 -0.005084 -0.015112 0.016646 -0.002849 -0.000222 0.024840
# 4 -0.006628 0.000556 -0.002849 0.029898 -0.008712 0.012331
# 5 0.011201 0.008846 -0.000222 -0.008712 0.035721 -0.031200
# 6 -0.029613 -0.059557 0.024840 0.012331 -0.031200 0.140077
#
#
# Mechanical properties :
#
#
# Convention : Reuss Voigt Hill
#
# Bulk Modulus (GPa) = 18.71131 44.37395 31.54263
# Shear Modulus (GPa) = 15.14366 35.26172 25.20269
#
# Velocity S-wave (km/s) = 2.49111 3.80127 3.21366
# Velocity P-wave (km/s) = 3.99271 6.11963 5.16680
#
# Compressibility (1/GPa) = 0.05344362
#
# Stress axis : x y z
#
# Youngs Moduli (GPa) = 49.31120 23.18762 60.07372
#
# Poissons Ratio (x) = -0.15979 0.30541
# Poissons Ratio (y) = -0.33982 0.90781
# Poissons Ratio (z) = 0.25069 0.35040
#
# Static dielectric constant tensor:
#      x y z
#    x 4.800530 0.540550 0.004910 
#    y 0.540550 4.405420 0.352460 
#    z 0.004910 0.352460 4.608020 
# 
# 
# High freq. dielectric constant tensor:
#      x y z
#    x 1.983520 0.028330 -0.011800 
#    y 0.028330 1.954020 0.017630 
#    z -0.011800 0.017630 1.982050 
# 
# From -- ./inp_files/381958.got.cif
#   From: 2010.06.25/outbox.cif.g09.slc.cpg/sg2_191_cif.got.tgz:381958.got - 2010.06.27 13:26:56.
