data_PCOD8023604
_publ_section_title
;
Structure prediction by ZEFSAII (Michael W. Deem and Ramdas Pophale) SiO2 
 PCOD8023604
Probable space group: P -1
;
_chemical_formula_sum "Si O2"
_cell_formula_units_Z 14
_cell_length_a 10.028651
_cell_length_b 5.276409
_cell_length_c 20.364100
_cell_angle_alpha 113.091728
_cell_angle_beta 142.698525
_cell_angle_gamma 67.073815
_cell_volume 594.854062
_symmetry_space_group_name_H-M "P -1"
_symmetry_group_IT_number 2
_symmetry_cell_setting 'triclinic'
loop_
_space_group_symop_operation_xyz
x,y,z
-x,-y,-z
loop_
_atom_site_type_symbol
_atom_site_label
_atom_site_fract_x
_atom_site_fract_y
_atom_site_fract_z
Si Si1 0.759102 0.914099 0.519602
Si Si2 0.404504 0.619753 0.407408
Si Si3 0.494091 0.776169 0.185647
Si Si4 0.369710 0.067764 0.295861
Si Si5 0.773044 0.208747 0.272658
Si Si6 0.053227 0.034651 0.819361
Si Si7 0.728164 0.412525 0.042977
O O1 0.762527 0.107393 0.606681
O O2 0.628961 0.055439 0.419230
O O3 0.618072 0.667194 0.453785
O O4 0.016906 0.799234 0.595910
O O5 0.500000 0.500000 0.500000
O O6 0.272764 0.397342 0.295264
O O7 0.643476 0.520366 0.254774
O O8 0.355007 0.957406 0.205512
O O9 0.631452 0.972654 0.216830
O O10 0.318948 0.657110 0.057958
O O11 0.218933 0.910670 0.271937
O O12 0.856852 0.155348 0.225840
O O13 0.139350 0.863332 0.900741
O O14 0.134108 0.331177 0.877097
O O15 0.500000 0.500000 0.000000
#
# Coordination Sequence:
#
# PCOD8023604 Si02
#       7
#     2   2   2   2   2   2   2
#     4  10  23  41  71  99 144 182 243 282 338 427
#     4   9  19  40  64  96 138 178 227 294 333 399
#     4  12  29  46  70 104 153 178 239 295 361 404
#     4  11  28  44  68 109 145 185 227 300 348 425
#     4  12  25  45  74 106 134 200 233 284 354 426
#     4  12  25  44  82 101 133 188 246 279 361 415
#     4  12  24  48  73 106 136 182 238 305 338 421
#
# _framework density 23.535181999999999
#
# number of rings (size 3 to 8) (size 9 to 14) (size 15 to 20)
#    0.000    0.857    2.857    3.857   12.000    2.286 
#    0.000    0.000    0.000    0.000    0.000    0.000 
#    0.000    0.000    0.000    0.000    0.000    0.000 
#
# Total GULP energy -173549.383120 kJ/mol
# GULP energy per Si atom -12396.384509 kJ/mol
# Density = 2.348162 g / cm^3
# Si number density = 23.535182 Si / 1000 Ang^3
#
#
#
# Elastic Constant Matrix: (Units=GPa)
#
#
# Indices 1 2 3 4 5 6 
#
# 1 89.3375 22.5385 28.8222 17.9038 -7.1598 -7.2920
# 2 22.5385 120.2587 41.1055 9.4841 9.9440 13.0165
# 3 28.8222 41.1055 79.3991 10.8207 1.4240 -16.2493
# 4 17.9038 9.4841 10.8207 42.7022 -1.7668 -2.3523
# 5 -7.1598 9.9440 1.4240 -1.7668 41.8273 10.9884
# 6 -7.2920 13.0165 -16.2493 -2.3523 10.9884 28.8021
#
#
#
# Elastic Compliance Matrix: (Units=1/GPa)
#
#
# Indices 1 2 3 4 5 6 
#
# 1 0.013839 -0.001274 -0.003650 -0.004454 0.002415 0.000735
# 2 -0.001274 0.012529 -0.008067 -0.000792 -0.000190 -0.010529
# 3 -0.003650 -0.008067 0.021693 -0.001434 -0.003785 0.016287
# 4 -0.004454 -0.000792 -0.001434 0.025864 0.000475 0.000352
# 5 0.002415 -0.000190 -0.003785 0.000475 0.027655 -0.011950
# 6 0.000735 -0.010529 0.016287 0.000352 -0.011950 0.053441
#
#
# Mechanical properties :
#
#
# Convention : Reuss Voigt Hill
#
# Bulk Modulus (GPa) = 45.29379 52.65861 48.97620
# Shear Modulus (GPa) = 26.54473 35.76827 31.15650
#
# Velocity S-wave (km/s) = 3.36203 3.90266 3.64239
# Velocity P-wave (km/s) = 5.86156 6.53687 6.20841
#
# Compressibility (1/GPa) = 0.02207808
#
# Stress axis : x y z
#
# Youngs Moduli (GPa) = 72.26208 79.81176 46.09872
#
# Poissons Ratio (x) = 0.10169 0.16825
# Poissons Ratio (y) = 0.09207 0.37190
# Poissons Ratio (z) = 0.26373 0.64388
#
# Static dielectric constant tensor:
#      x y z
#    x 4.087970 -0.045640 -0.028410 
#    y -0.045640 4.330380 0.253230 
#    z -0.028410 0.253230 4.516380 
# 
# 
# High freq. dielectric constant tensor:
#      x y z
#    x 1.914480 0.015530 -0.001810 
#    y 0.015530 1.948600 -0.003830 
#    z -0.001810 -0.003830 1.940760 
# 
# From -- ./inp_files/126303.got.cif
#   From: 2010.06.25/outbox.cif.g09.slc.cpg/sg2_64_cif.got.tgz:126303.got - 2010.06.27 13:26:56.
