data_PCOD8023578
_publ_section_title
;
Structure prediction by ZEFSAII (Michael W. Deem and Ramdas Pophale) SiO2 
 PCOD8023578
Probable space group: P -1
;
_chemical_formula_sum "Si O2"
_cell_formula_units_Z 12
_cell_length_a 14.383149
_cell_length_b 9.187239
_cell_length_c 13.992856
_cell_angle_alpha 50.273968
_cell_angle_beta 159.586862
_cell_angle_gamma 129.410756
_cell_volume 491.553440
_symmetry_space_group_name_H-M "P -1"
_symmetry_group_IT_number 2
_symmetry_cell_setting 'triclinic'
loop_
_space_group_symop_operation_xyz
x,y,z
-x,-y,-z
loop_
_atom_site_type_symbol
_atom_site_label
_atom_site_fract_x
_atom_site_fract_y
_atom_site_fract_z
Si Si1 0.655884 0.327717 0.747763
Si Si2 0.451647 0.906153 0.694372
Si Si3 0.974239 0.839283 0.122420
Si Si4 0.244928 0.821774 0.729526
Si Si5 0.983376 0.490268 0.830019
Si Si6 0.307723 0.248480 0.680067
O O1 0.500000 0.500000 0.500000
O O2 0.890104 0.339098 0.888286
O O3 0.463684 0.129318 0.638165
O O4 0.783662 0.350144 0.968811
O O5 0.332426 0.782313 0.722254
O O6 0.263339 0.851987 0.445456
O O7 0.749356 0.861515 0.975506
O O8 0.903109 0.630781 0.094016
O O9 0.000000 0.000000 0.000000
O O10 0.931821 0.750395 0.473743
O O11 0.305041 0.046160 0.712241
O O12 0.412735 0.702731 0.013685
O O13 0.734511 0.596621 0.507747
#
# Coordination Sequence:
#
# PCOD8023578 Si02
#       6
#     2   2   2   2   2   2
#     4  11  25  41  71 101 137 172 231 293 335 399
#     4  12  26  45  71  98 140 181 227 274 346 410
#     4  12  26  46  67 101 143 185 217 274 349 419
#     4  10  23  43  67 101 132 179 226 281 343 387
#     4  11  26  43  67 105 135 177 230 282 343 397
#     4  10  23  41  70  99 134 174 230 287 328 401
#
# _framework density 24.412400999999999
#
# number of rings (size 3 to 8) (size 9 to 14) (size 15 to 20)
#    0.000    1.000    1.667    3.500   16.333    0.000 
#    0.000    5.000    0.000    0.000    0.000    0.000 
#    0.000    0.000    0.000    0.000    0.000    0.000 
#
# Total GULP energy -148852.930784 kJ/mol
# GULP energy per Si atom -12404.410899 kJ/mol
# Density = 2.435684 g / cm^3
# Si number density = 24.412401 Si / 1000 Ang^3
#
#
#
# Elastic Constant Matrix: (Units=GPa)
#
#
# Indices 1 2 3 4 5 6 
#
# 1 121.7457 27.4658 24.0608 -2.7470 -14.9002 -4.6776
# 2 27.4658 77.4772 19.2863 -1.0835 -15.8897 -21.4194
# 3 24.0608 19.2863 105.1275 -14.8494 -10.5222 -18.1320
# 4 -2.7470 -1.0835 -14.8494 34.8963 4.6813 -3.9289
# 5 -14.9002 -15.8897 -10.5222 4.6813 44.3817 -2.1823
# 6 -4.6776 -21.4194 -18.1320 -3.9289 -2.1823 29.2973
#
#
#
# Elastic Compliance Matrix: (Units=1/GPa)
#
#
# Indices 1 2 3 4 5 6 
#
# 1 0.009375 -0.003054 -0.001816 -0.000548 0.001592 -0.001815
# 2 -0.003054 0.019258 0.000530 0.001344 0.006571 0.014589
# 3 -0.001816 0.000530 0.012389 0.005814 0.002333 0.008719
# 4 -0.000548 0.001344 0.005814 0.032286 -0.001301 0.008726
# 5 0.001592 0.006571 0.002333 -0.001301 0.026517 0.008302
# 6 -0.001815 0.014589 0.008719 0.008726 0.008302 0.051694
#
#
# Mechanical properties :
#
#
# Convention : Reuss Voigt Hill
#
# Bulk Modulus (GPa) = 30.92145 49.55291 40.23718
# Shear Modulus (GPa) = 29.24321 37.28422 33.26371
#
# Velocity S-wave (km/s) = 3.46480 3.91226 3.69531
# Velocity P-wave (km/s) = 5.35726 6.38358 5.89281
#
# Compressibility (1/GPa) = 0.03234001
#
# Stress axis : x y z
#
# Youngs Moduli (GPa) = 106.67176 51.92763 80.71518
#
# Poissons Ratio (x) = 0.15860 0.14661
# Poissons Ratio (y) = 0.32580 -0.04277
# Poissons Ratio (z) = 0.19376 -0.02752
#
# Static dielectric constant tensor:
#      x y z
#    x 4.948770 0.058390 0.126110 
#    y 0.058390 4.141170 -0.021750 
#    z 0.126110 -0.021750 4.473810 
# 
# 
# High freq. dielectric constant tensor:
#      x y z
#    x 1.991290 0.006010 0.004780 
#    y 0.006010 1.946930 -0.002070 
#    z 0.004780 -0.002070 1.975540 
# 
# From -- ./inp_files/84541.got.cif
#   From: 2010.06.25/outbox.cif.g09.slc.cpg/sg2_43_cif.got.tgz:84541.got - 2010.06.27 13:26:56.
