data_PCOD8023534
_publ_section_title
;
Structure prediction by ZEFSAII (Michael W. Deem and Ramdas Pophale) SiO2 
 PCOD8023534
Probable space group: P -1
;
_chemical_formula_sum "Si O2"
_cell_formula_units_Z 14
_cell_length_a 11.489025
_cell_length_b 14.056594
_cell_length_c 9.107312
_cell_angle_alpha 68.745339
_cell_angle_beta 77.144841
_cell_angle_gamma 29.902150
_cell_volume 669.886100
_symmetry_space_group_name_H-M "P -1"
_symmetry_group_IT_number 2
_symmetry_cell_setting 'triclinic'
loop_
_space_group_symop_operation_xyz
x,y,z
-x,-y,-z
loop_
_atom_site_type_symbol
_atom_site_label
_atom_site_fract_x
_atom_site_fract_y
_atom_site_fract_z
Si Si1 0.760269 0.616331 0.466975
Si Si2 0.401572 0.406562 0.223579
Si Si3 0.744360 0.517532 0.244710
Si Si4 0.620373 0.382846 0.681507
Si Si5 0.500641 0.110305 0.871742
Si Si6 0.905676 0.062984 0.157470
Si Si7 0.029416 0.758015 0.907204
O O1 0.643132 0.658462 0.623945
O O2 0.810708 0.481334 0.419773
O O3 0.573764 0.830188 0.314644
O O4 0.000000 0.500000 0.500000
O O5 0.410465 0.505032 0.255453
O O6 0.645801 0.205474 0.176571
O O7 0.182137 0.577410 0.078079
O O8 0.512391 0.619520 0.220501
O O9 0.681091 0.678444 0.111111
O O10 0.963753 0.305131 0.216221
O O11 0.500000 0.500000 0.500000
O O12 0.896334 0.152442 0.696588
O O13 0.758003 0.965711 0.913100
O O14 0.500000 0.000000 0.000000
O O15 0.876206 0.197111 0.159267
O O16 0.000000 0.000000 0.000000
#
# Coordination Sequence:
#
# PCOD8023534 Si02
#       7
#     2   2   2   2   2   2   2
#     4  10  23  49  68  98 137 177 232 289 339 408
#     4  12  25  40  71 102 141 184 222 282 354 400
#     4  10  23  41  69  96 135 173 231 282 340 405
#     4  12  22  42  65 101 141 174 221 287 348 412
#     4  10  23  44  69  93 133 181 236 282 338 400
#     4  12  24  40  64 103 142 180 228 273 339 419
#     4  12  23  41  68  98 137 181 229 280 340 411
#
# _framework density 20.899075
#
# number of rings (size 3 to 8) (size 9 to 14) (size 15 to 20)
#    0.857    0.000    5.714    2.143    0.000    2.286 
#    0.000    0.714    0.000    0.000    0.000    0.000 
#    0.000    0.000    0.000    0.000    0.000    0.000 
#
# Total GULP energy -173478.754540 kJ/mol
# GULP energy per Si atom -12391.339610 kJ/mol
# Density = 2.085151 g / cm^3
# Si number density = 20.899075 Si / 1000 Ang^3
#
#
#
# Elastic Constant Matrix: (Units=GPa)
#
#
# Indices 1 2 3 4 5 6 
#
# 1 95.0907 34.1428 28.8286 4.6593 -8.0199 -12.8179
# 2 34.1428 111.5765 51.8391 -3.0073 1.2174 0.7457
# 3 28.8286 51.8391 122.5462 -12.3860 -6.5923 -11.9274
# 4 4.6593 -3.0073 -12.3860 41.1286 0.9435 6.7024
# 5 -8.0199 1.2174 -6.5923 0.9435 40.2882 -5.9554
# 6 -12.8179 0.7457 -11.9274 6.7024 -5.9554 32.6642
#
#
#
# Elastic Compliance Matrix: (Units=1/GPa)
#
#
# Indices 1 2 3 4 5 6 
#
# 1 0.013533 -0.003804 -0.001091 -0.003255 0.003642 0.006331
# 2 -0.003804 0.012452 -0.004851 0.000614 -0.002554 -0.004140
# 3 -0.001091 -0.004851 0.011199 0.002492 0.002246 0.003670
# 4 -0.003255 0.000614 0.002492 0.026521 -0.001789 -0.006150
# 5 0.003642 -0.002554 0.002246 -0.001789 0.027160 0.007627
# 6 0.006331 -0.004140 0.003670 -0.006150 0.007627 0.037186
#
#
# Mechanical properties :
#
#
# Convention : Reuss Voigt Hill
#
# Bulk Modulus (GPa) = 56.52348 62.09273 59.30810
# Shear Modulus (GPa) = 32.58578 37.10972 34.84775
#
# Velocity S-wave (km/s) = 3.95295 4.21843 4.08785
# Velocity P-wave (km/s) = 6.92380 7.31452 7.12184
#
# Compressibility (1/GPa) = 0.01769176
#
# Stress axis : x y z
#
# Youngs Moduli (GPa) = 73.89324 80.30634 89.29498
#
# Poissons Ratio (x) = 0.30548 0.09745
# Poissons Ratio (y) = 0.28108 0.43317
# Poissons Ratio (z) = 0.08065 0.38956
#
# Static dielectric constant tensor:
#      x y z
#    x 3.810320 -0.270740 -0.061230 
#    y -0.270740 3.889020 -0.376930 
#    z -0.061230 -0.376930 3.763950 
# 
# 
# High freq. dielectric constant tensor:
#      x y z
#    x 1.814400 0.000540 0.005700 
#    y 0.000540 1.814350 -0.010070 
#    z 0.005700 -0.010070 1.814890 
# 
# From -- ./inp_files/272495.got.cif
#   From: 2010.06.25/outbox.cif.g09.slc.cpg/sg2_137_cif.got.tgz:272495.got - 2010.06.27 13:26:56.
