data_PCOD8023101
_publ_section_title
;
Structure prediction by ZEFSAII (Michael W. Deem and Ramdas Pophale) SiO2 
 PCOD8023101
Probable space group: P -1
;
_chemical_formula_sum "Si O2"
_cell_formula_units_Z 16
_cell_length_a 13.061847
_cell_length_b 9.085218
_cell_length_c 8.144982
_cell_angle_alpha 51.985644
_cell_angle_beta 88.762163
_cell_angle_gamma 102.243637
_cell_volume 729.505228
_symmetry_space_group_name_H-M "P -1"
_symmetry_group_IT_number 2
_symmetry_cell_setting 'triclinic'
loop_
_space_group_symop_operation_xyz
x,y,z
-x,-y,-z
loop_
_atom_site_type_symbol
_atom_site_label
_atom_site_fract_x
_atom_site_fract_y
_atom_site_fract_z
Si Si1 0.768573 0.247911 0.514902
Si Si2 0.692379 0.479722 0.928276
Si Si3 0.031296 0.992877 0.813878
Si Si4 0.448234 0.778788 0.618684
Si Si5 0.196533 0.144164 0.149495
Si Si6 0.802993 0.661497 0.332918
Si Si7 0.887325 0.334416 0.109538
Si Si8 0.405715 0.407989 0.444225
O O1 0.647607 0.250764 0.486095
O O2 0.814238 0.441721 0.490762
O O3 0.841082 0.260038 0.341913
O O4 0.762084 0.046400 0.748840
O O5 0.729129 0.709033 0.823547
O O6 0.640072 0.451281 0.768525
O O7 0.598395 0.351677 0.132971
O O8 0.798662 0.410973 0.967696
O O9 0.099264 0.842897 0.878853
O O10 0.928234 0.942660 0.731636
O O11 0.107057 0.212559 0.632022
O O12 0.000000 0.000000 0.000000
O O13 0.551557 0.728006 0.582746
O O14 0.500000 0.000000 0.500000
O O15 0.188747 0.268058 0.903558
O O16 0.693016 0.700708 0.365190
O O17 0.000000 0.500000 0.000000
O O18 0.500000 0.500000 0.500000
#
# Coordination Sequence:
#
# PCOD8023101 Si02
#       8
#     2   2   2   2   2   2   2   2
#     4  11  24  42  71  97 138 188 237 282 342 424
#     4  11  24  43  74 101 137 187 233 287 348 421
#     4  10  23  40  68 103 144 182 220 289 352 405
#     4  11  24  46  68  99 135 183 239 287 343 419
#     4  11  22  46  72 100 140 190 227 280 356 420
#     4  11  24  46  64 103 149 178 229 301 343 410
#     4  11  21  43  72 103 143 181 236 286 338 426
#     4  12  25  44  69  96 140 182 230 297 353 393
#
# _framework density 21.932673000000001
#
# number of rings (size 3 to 8) (size 9 to 14) (size 15 to 20)
#    0.000    1.000    5.000    1.875    5.250    5.000 
#    0.000    1.250    0.000    0.000    0.000    0.000 
#    0.000    0.000    0.000    0.000    0.000    0.000 
#
# Total GULP energy -198260.495463 kJ/mol
# GULP energy per Si atom -12391.280966 kJ/mol
# Density = 2.188275 g / cm^3
# Si number density = 21.932673 Si / 1000 Ang^3
#
#
#
# Elastic Constant Matrix: (Units=GPa)
#
#
# Indices 1 2 3 4 5 6 
#
# 1 120.0802 56.9932 29.3608 -5.7730 -9.9779 -4.6778
# 2 56.9932 133.5428 50.7838 -24.8321 -6.8057 3.3418
# 3 29.3608 50.7838 57.3606 -21.3271 12.1677 8.0382
# 4 -5.7730 -24.8321 -21.3271 36.2324 0.9507 0.0702
# 5 -9.9779 -6.8057 12.1677 0.9507 38.9444 -3.4890
# 6 -4.6778 3.3418 8.0382 0.0702 -3.4890 51.2141
#
#
#
# Elastic Compliance Matrix: (Units=1/GPa)
#
#
# Indices 1 2 3 4 5 6 
#
# 1 0.011598 -0.003322 -0.005771 -0.003949 0.004514 0.002495
# 2 -0.003322 0.013611 -0.010581 0.002442 0.004845 0.000796
# 3 -0.005771 -0.010581 0.040353 0.016041 -0.016986 -0.007349
# 4 -0.003949 0.002442 0.016041 0.038273 -0.006850 -0.003557
# 5 0.004514 0.004845 -0.016986 -0.006850 0.033608 0.005061
# 6 0.002495 0.000796 -0.007349 -0.003557 0.005061 0.021205
#
#
# Mechanical properties :
#
#
# Convention : Reuss Voigt Hill
#
# Bulk Modulus (GPa) = 38.14874 65.02882 51.58878
# Shear Modulus (GPa) = 24.18570 36.86791 30.52680
#
# Velocity S-wave (km/s) = 3.32433 4.10440 3.73479
# Velocity P-wave (km/s) = 5.67153 7.22323 6.49389
#
# Compressibility (1/GPa) = 0.02621319
#
# Stress axis : x y z
#
# Youngs Moduli (GPa) = 86.22284 73.47035 24.78141
#
# Poissons Ratio (x) = 0.24405 0.14301
# Poissons Ratio (y) = 0.28642 0.26222
# Poissons Ratio (z) = 0.49759 0.77742
#
# Static dielectric constant tensor:
#      x y z
#    x 3.792590 0.075760 -0.157140 
#    y 0.075760 4.114280 -0.136920 
#    z -0.157140 -0.136920 3.862890 
# 
# 
# High freq. dielectric constant tensor:
#      x y z
#    x 1.884390 0.000940 -0.008860 
#    y 0.000940 1.866360 -0.009880 
#    z -0.008860 -0.009880 1.845640 
# 
# From -- ./inp_files/227689.got.cif
#   From: 2010.06.25/outbox.cif.g09.slc.cpg/sg2_114_cif.got.tgz:227689.got - 2010.06.27 13:26:56.
