data_PCOD8023413
_publ_section_title
;
Structure prediction by ZEFSAII (Michael W. Deem and Ramdas Pophale) SiO2 
 PCOD8023413
Probable space group: P -1
;
_chemical_formula_sum "Si O2"
_cell_formula_units_Z 16
_cell_length_a 8.905682
_cell_length_b 19.673570
_cell_length_c 12.662062
_cell_angle_alpha 28.214967
_cell_angle_beta 132.172805
_cell_angle_gamma 136.711850
_cell_volume 716.090087
_symmetry_space_group_name_H-M "P -1"
_symmetry_group_IT_number 2
_symmetry_cell_setting 'triclinic'
loop_
_space_group_symop_operation_xyz
x,y,z
-x,-y,-z
loop_
_atom_site_type_symbol
_atom_site_label
_atom_site_fract_x
_atom_site_fract_y
_atom_site_fract_z
Si Si1 0.918942 0.134692 0.747924
Si Si2 0.959189 0.687370 0.651041
Si Si3 0.049940 0.962652 0.456975
Si Si4 0.434107 0.919653 0.777420
Si Si5 0.839076 0.339431 0.594987
Si Si6 0.346175 0.465043 0.874250
Si Si7 0.883936 0.205207 0.004401
Si Si8 0.365367 0.635410 0.999858
O O1 0.032624 0.214303 0.584402
O O2 0.973543 0.268246 0.679890
O O3 0.656420 0.059997 0.718619
O O4 0.000000 0.000000 0.000000
O O5 0.752313 0.524016 0.771199
O O6 0.923512 0.783677 0.603370
O O7 0.184590 0.659065 0.806147
O O8 0.308599 0.991909 0.537155
O O9 0.985329 0.077470 0.194545
O O10 0.000000 0.000000 0.500000
O O11 0.475809 0.777350 0.938343
O O12 0.288474 0.852255 0.904361
O O13 0.646889 0.371711 0.396792
O O14 0.000000 0.500000 0.500000
O O15 0.752031 0.226547 0.810182
O O16 0.091524 0.361098 0.925198
O O17 0.432759 0.371741 0.960692
O O18 0.500000 0.500000 0.000000
#
# Coordination Sequence:
#
# PCOD8023413 Si02
#       8
#     2   2   2   2   2   2   2   2
#     4  12  27  44  70  99 141 184 232 287 357 418
#     4  10  23  41  66  98 142 174 228 289 340 414
#     4   9  20  38  67  96 135 174 228 279 346 401
#     4  10  25  42  68 103 134 181 233 286 350 413
#     4  10  25  44  67  98 139 179 234 285 348 411
#     4  11  25  39  73 100 135 181 235 285 347 412
#     4  10  23  44  69  94 144 178 226 289 348 408
#     4  10  24  41  68 101 133 175 232 283 346 405
#
# _framework density 22.343558999999999
#
# number of rings (size 3 to 8) (size 9 to 14) (size 15 to 20)
#    0.000    1.750    0.000    1.500   19.250    3.500 
#    0.000    1.250    0.000    0.000    0.000    0.000 
#    0.000    0.000    0.000    0.000    0.000    0.000 
#
# Total GULP energy -198338.768365 kJ/mol
# GULP energy per Si atom -12396.173023 kJ/mol
# Density = 2.229270 g / cm^3
# Si number density = 22.343559 Si / 1000 Ang^3
#
#
#
# Elastic Constant Matrix: (Units=GPa)
#
#
# Indices 1 2 3 4 5 6 
#
# 1 88.0198 30.4370 33.0677 -6.6935 2.8303 -21.2495
# 2 30.4370 87.1003 37.3948 -7.4443 5.2454 -14.9889
# 3 33.0677 37.3948 164.0460 11.2776 9.1336 -19.4575
# 4 -6.6935 -7.4443 11.2776 36.5847 -7.5230 3.8508
# 5 2.8303 5.2454 9.1336 -7.5230 38.0218 -8.8006
# 6 -21.2495 -14.9889 -19.4575 3.8508 -8.8006 37.8921
#
#
#
# Elastic Compliance Matrix: (Units=1/GPa)
#
#
# Indices 1 2 3 4 5 6 
#
# 1 0.014767 -0.003241 -0.001743 0.002263 0.001663 0.006260
# 2 -0.003241 0.014340 -0.002543 0.002864 -0.000039 0.002249
# 3 -0.001743 -0.002543 0.007601 -0.003718 -0.001637 0.001917
# 4 0.002263 0.002864 -0.003718 0.030871 0.006156 -0.001215
# 5 0.001663 -0.000039 -0.001637 0.006156 0.029238 0.006242
# 6 0.006260 0.002249 0.001917 -0.001215 0.006242 0.033348
#
#
# Mechanical properties :
#
#
# Convention : Reuss Voigt Hill
#
# Bulk Modulus (GPa) = 46.18627 60.10723 53.14675
# Shear Modulus (GPa) = 32.80013 38.38415 35.59214
#
# Velocity S-wave (km/s) = 3.83559 4.14926 3.99551
# Velocity P-wave (km/s) = 6.35071 7.06505 6.71738
#
# Compressibility (1/GPa) = 0.02165145
#
# Stress axis : x y z
#
# Youngs Moduli (GPa) = 67.71983 69.73629 131.55780
#
# Poissons Ratio (x) = 0.22603 0.22936
# Poissons Ratio (y) = 0.21949 0.33462
# Poissons Ratio (z) = 0.11807 0.17737
#
# Static dielectric constant tensor:
#      x y z
#    x 3.873060 -0.160060 0.276160 
#    y -0.160060 3.969560 0.063850 
#    z 0.276160 0.063850 4.997350 
# 
# 
# High freq. dielectric constant tensor:
#      x y z
#    x 1.867240 -0.015790 0.009670 
#    y -0.015790 1.871850 -0.006620 
#    z 0.009670 -0.006620 1.901150 
# 
# From -- ./inp_files/402741.got.cif
#   From: 2010.06.25/outbox.cif.g09.slc.cpg/sg2_202_cif.got.tgz:402741.got - 2010.06.27 13:26:56.
