data_PCOD8023065
_publ_section_title
;
Structure prediction by ZEFSAII (Michael W. Deem and Ramdas Pophale) SiO2 
 PCOD8023065
Probable space group: P -1
;
_chemical_formula_sum "Si O2"
_cell_formula_units_Z 16
_cell_length_a 12.076798
_cell_length_b 7.961873
_cell_length_c 14.581794
_cell_angle_alpha 107.483665
_cell_angle_beta 148.596190
_cell_angle_gamma 70.982219
_cell_volume 689.999926
_symmetry_space_group_name_H-M "P -1"
_symmetry_group_IT_number 2
_symmetry_cell_setting 'triclinic'
loop_
_space_group_symop_operation_xyz
x,y,z
-x,-y,-z
loop_
_atom_site_type_symbol
_atom_site_label
_atom_site_fract_x
_atom_site_fract_y
_atom_site_fract_z
Si Si1 0.037050 0.123269 0.675106
Si Si2 0.642412 0.094967 0.016162
Si Si3 0.383794 0.294239 0.626730
Si Si4 0.255350 0.364320 0.752513
Si Si5 0.046934 0.669787 0.772551
Si Si6 0.575621 0.064669 0.322626
Si Si7 0.014966 0.590655 0.161191
Si Si8 0.654870 0.560851 0.765855
O O1 0.069812 0.246993 0.631744
O O2 0.836007 0.021525 0.491657
O O3 0.976603 0.237665 0.742816
O O4 0.260154 0.991662 0.833311
O O5 0.847451 0.149601 0.113503
O O6 0.473434 0.273440 0.942171
O O7 0.529013 0.953628 0.854228
O O8 0.282483 0.371619 0.663822
O O9 0.201638 0.290651 0.421824
O O10 0.550204 0.418891 0.728815
O O11 0.497077 0.090252 0.688930
O O12 0.185411 0.561159 0.772202
O O13 0.067100 0.567506 0.865626
O O14 0.513289 0.264351 0.349227
O O15 0.252623 0.530467 0.278010
O O16 0.846763 0.635491 0.967650
#
# Coordination Sequence:
#
# PCOD8023065 Si02
#       8
#     2   2   2   2   2   2   2   2
#     4  11  22  44  65  98 134 173 221 270 333 392
#     4  11  22  41  63  99 134 173 223 269 328 395
#     4  11  24  43  66 101 137 173 223 273 328 398
#     4  10  23  40  66  96 131 181 216 272 330 389
#     4  11  22  43  66  96 136 173 224 272 329 399
#     4  11  24  43  69  98 136 174 222 275 328 392
#     4  10  23  43  71  96 130 175 222 274 334 396
#     4  11  23  46  69  98 134 174 220 280 332 389
#
# _framework density 23.188407000000002
#
# number of rings (size 3 to 8) (size 9 to 14) (size 15 to 20)
#    0.000    1.250    2.500    4.125    0.000    5.000 
#    9.000    3.125    0.000    0.000    0.000    0.000 
#    0.000    0.000    0.000    0.000    0.000    0.000 
#
# Total GULP energy -198382.514865 kJ/mol
# GULP energy per Si atom -12398.907179 kJ/mol
# Density = 2.313563 g / cm^3
# Si number density = 23.188407 Si / 1000 Ang^3
#
#
#
# Elastic Constant Matrix: (Units=GPa)
#
#
# Indices 1 2 3 4 5 6 
#
# 1 80.8027 20.7646 -5.1159 14.4229 2.3520 -4.0308
# 2 20.7646 81.6837 12.2021 0.5771 6.2997 13.9147
# 3 -5.1159 12.2021 106.4745 4.2482 8.2536 -5.0812
# 4 14.4229 0.5771 4.2482 34.0639 6.6220 8.2991
# 5 2.3520 6.2997 8.2536 6.6220 24.8053 -2.1665
# 6 -4.0308 13.9147 -5.0812 8.2991 -2.1665 24.7236
#
#
#
# Elastic Compliance Matrix: (Units=1/GPa)
#
#
# Indices 1 2 3 4 5 6 
#
# 1 0.016440 -0.006451 0.002206 -0.010261 0.003000 0.010472
# 2 -0.006451 0.017150 -0.002786 0.007452 -0.006056 -0.014309
# 3 0.002206 -0.002786 0.010304 -0.003042 -0.001688 0.004919
# 4 -0.010261 0.007452 -0.003042 0.041742 -0.012941 -0.021638
# 5 0.003000 -0.006056 -0.001688 -0.012941 0.046630 0.011981
# 6 0.010472 -0.014309 0.004919 -0.021638 0.011981 0.059532
#
#
# Mechanical properties :
#
#
# Convention : Reuss Voigt Hill
#
# Bulk Modulus (GPa) = 33.52187 36.07359 34.79773
# Shear Modulus (GPa) = 23.16901 32.79256 27.98078
#
# Velocity S-wave (km/s) = 3.16438 3.76464 3.47749
# Velocity P-wave (km/s) = 5.27625 5.87258 5.58238
#
# Compressibility (1/GPa) = 0.02983128
#
# Stress axis : x y z
#
# Youngs Moduli (GPa) = 60.82746 58.30754 97.04792
#
# Poissons Ratio (x) = 0.37616 -0.21407
# Poissons Ratio (y) = 0.39242 0.27039
# Poissons Ratio (z) = -0.13418 0.16245
#
# Static dielectric constant tensor:
#      x y z
#    x 3.967880 0.090020 0.133130 
#    y 0.090020 4.177060 -0.110450 
#    z 0.133130 -0.110450 4.217360 
# 
# 
# High freq. dielectric constant tensor:
#      x y z
#    x 1.894410 0.016550 0.007930 
#    y 0.016550 1.914770 -0.002340 
#    z 0.007930 -0.002340 1.929110 
# 
# From -- ./inp_files/306008.got.cif
#   From: 2010.06.25/outbox.cif.g09.slc.cpg/sg2_154_cif.got.tgz:306008.got - 2010.06.27 13:26:56.
