data_PCOD8023719
_publ_section_title
;
Structure prediction by ZEFSAII (Michael W. Deem and Ramdas Pophale) SiO2 
 PCOD8023719
Probable space group: P -1
;
_chemical_formula_sum "Si O2"
_cell_formula_units_Z 14
_cell_length_a 11.634324
_cell_length_b 4.906518
_cell_length_c 11.436972
_cell_angle_alpha 96.267982
_cell_angle_beta 88.483897
_cell_angle_gamma 65.414646
_cell_volume 588.263028
_symmetry_space_group_name_H-M "P -1"
_symmetry_group_IT_number 2
_symmetry_cell_setting 'triclinic'
loop_
_space_group_symop_operation_xyz
x,y,z
-x,-y,-z
loop_
_atom_site_type_symbol
_atom_site_label
_atom_site_fract_x
_atom_site_fract_y
_atom_site_fract_z
Si Si1 0.959383 0.955363 0.767576
Si Si2 0.206775 0.834271 0.622976
Si Si3 0.732348 0.309908 0.642542
Si Si4 0.851844 0.222185 0.044216
Si Si5 0.692884 0.708327 0.260709
Si Si6 0.196909 0.269403 0.104667
Si Si7 0.402974 0.050765 0.263758
O O1 0.072806 0.836210 0.666484
O O2 0.014145 0.966077 0.898799
O O3 0.894194 0.723523 0.781489
O O4 0.846231 0.257386 0.730200
O O5 0.208827 0.874958 0.486019
O O6 0.311762 0.502262 0.641011
O O7 0.226341 0.102845 0.700320
O O8 0.656241 0.663907 0.633076
O O9 0.628904 0.212774 0.696433
O O10 0.757306 0.484432 0.141827
O O11 0.862617 0.397998 0.934801
O O12 0.793278 0.986680 0.002520
O O13 0.552411 0.940156 0.241216
O O14 0.339753 0.169331 0.143981
#
# Coordination Sequence:
#
# PCOD8023719 Si02
#       7
#     2   2   2   2   2   2   2
#     4  10  23  42  64  94 128 158 207 258 306 372
#     4  11  24  42  66  93 125 165 204 255 314 365
#     4  11  24  42  66  93 125 165 204 255 314 365
#     4  11  23  40  64  93 126 165 204 253 312 366
#     4  11  25  43  63  93 127 162 211 257 301 368
#     4  11  23  40  64  93 126 165 204 253 312 366
#     4  11  25  43  63  93 127 162 211 257 301 368
#
# _framework density 23.798877999999998
#
# number of rings (size 3 to 8) (size 9 to 14) (size 15 to 20)
#    0.000    1.143    0.000    6.429    0.000   13.714 
#    0.000    7.143    0.000    0.000    0.000    0.000 
#    0.000    0.000    0.000    0.000    0.000    0.000 
#
# Total GULP energy -173565.124622 kJ/mol
# GULP energy per Si atom -12397.508902 kJ/mol
# Density = 2.374471 g / cm^3
# Si number density = 23.798878 Si / 1000 Ang^3
#
#
#
# Elastic Constant Matrix: (Units=GPa)
#
#
# Indices 1 2 3 4 5 6 
#
# 1 101.6522 44.9211 47.9135 2.4763 6.3960 -22.9420
# 2 44.9211 128.9910 38.7979 -1.3517 5.0823 -17.0738
# 3 47.9135 38.7979 116.2514 0.6366 1.2347 -16.9113
# 4 2.4763 -1.3517 0.6366 35.9543 6.7181 1.1961
# 5 6.3960 5.0823 1.2347 6.7181 20.8890 2.1987
# 6 -22.9420 -17.0738 -16.9113 1.1961 2.1987 41.2962
#
#
#
# Elastic Compliance Matrix: (Units=1/GPa)
#
#
# Indices 1 2 3 4 5 6 
#
# 1 0.014600 -0.002958 -0.004202 -0.000491 -0.003912 0.005390
# 2 -0.002958 0.009605 -0.001726 0.000873 -0.001788 0.001691
# 3 -0.004202 -0.001726 0.011113 -0.000200 0.000961 0.001458
# 4 -0.000491 0.000873 -0.000200 0.029681 -0.009560 -0.000344
# 5 -0.003912 -0.001788 0.000961 -0.009560 0.053056 -0.005067
# 6 0.005390 0.001691 0.001458 -0.000344 -0.005067 0.028785
#
#
# Mechanical properties :
#
#
# Convention : Reuss Voigt Hill
#
# Bulk Modulus (GPa) = 56.99508 67.79550 62.39529
# Shear Modulus (GPa) = 29.33225 33.97870 31.65548
#
# Velocity S-wave (km/s) = 3.51451 3.78265 3.65104
# Velocity P-wave (km/s) = 6.36158 6.90120 6.63688
#
# Compressibility (1/GPa) = 0.01754538
#
# Stress axis : x y z
#
# Youngs Moduli (GPa) = 68.49479 104.10931 89.98561
#
# Poissons Ratio (x) = 0.30797 0.37810
# Poissons Ratio (y) = 0.20262 0.15534
# Poissons Ratio (z) = 0.28780 0.17972
#
# Static dielectric constant tensor:
#      x y z
#    x 4.126500 -0.045250 0.172710 
#    y -0.045250 4.473440 -0.276300 
#    z 0.172710 -0.276300 4.291710 
# 
# 
# High freq. dielectric constant tensor:
#      x y z
#    x 1.934530 0.001440 0.009310 
#    y 0.001440 1.967350 -0.003040 
#    z 0.009310 -0.003040 1.949250 
# 
# From -- ./inp_files/123291.got.cif
#   From: 2010.06.25/outbox.cif.g09.slc.cpg/sg2_62_cif.got.tgz:123291.got - 2010.06.27 13:26:56.
