data_PCOD8023789
_publ_section_title
;
Structure prediction by ZEFSAII (Michael W. Deem and Ramdas Pophale) SiO2 
 PCOD8023789
Probable space group: P -1
;
_chemical_formula_sum "Si O2"
_cell_formula_units_Z 14
_cell_length_a 15.609298
_cell_length_b 12.378388
_cell_length_c 19.413041
_cell_angle_alpha 156.278483
_cell_angle_beta 27.764868
_cell_angle_gamma 152.440450
_cell_volume 641.839487
_symmetry_space_group_name_H-M "P -1"
_symmetry_group_IT_number 2
_symmetry_cell_setting 'triclinic'
loop_
_space_group_symop_operation_xyz
x,y,z
-x,-y,-z
loop_
_atom_site_type_symbol
_atom_site_label
_atom_site_fract_x
_atom_site_fract_y
_atom_site_fract_z
Si Si1 0.179774 0.783026 0.437973
Si Si2 0.273765 0.758348 0.209403
Si Si3 0.245498 0.327305 0.323236
Si Si4 0.293559 0.275278 0.757785
Si Si5 0.981591 0.857176 0.003127
Si Si6 0.705648 0.118939 0.882933
Si Si7 0.324491 0.295692 0.097039
O O1 0.247443 0.911647 0.387654
O O2 0.295133 0.587343 0.266491
O O3 0.939563 0.571174 0.484914
O O4 0.222404 0.058516 0.617710
O O5 0.329022 0.967255 0.224453
O O6 0.439832 0.628010 0.030926
O O7 0.066660 0.483326 0.176179
O O8 0.462288 0.594208 0.338544
O O9 0.251666 0.195325 0.167329
O O10 0.174192 0.056571 0.271126
O O11 0.192511 0.109965 0.804655
O O12 0.206036 0.528834 0.962175
O O13 0.199417 0.014800 0.975356
O O14 0.000000 0.000000 0.000000
O O15 0.500000 0.000000 0.000000
#
# Coordination Sequence:
#
# PCOD8023789 Si02
#       7
#     2   2   2   2   2   2   2
#     4  12  26  38  63 103 132 161 214 265 328 375
#     4  11  24  44  65  95 131 170 214 265 313 382
#     4  11  23  43  68  92 132 168 215 267 309 381
#     4  10  23  42  65  97 123 174 209 264 322 367
#     4  11  22  39  64  95 124 170 218 248 315 388
#     4   9  19  45  70  86 124 176 220 254 312 381
#     4  12  23  41  67  93 131 176 204 260 325 385
#
# _framework density 21.812308000000002
#
# number of rings (size 3 to 8) (size 9 to 14) (size 15 to 20)
#    0.000    1.143    7.143    0.857    0.000    4.000 
#    0.000    2.857    0.000    0.000    0.000    0.000 
#    0.000    0.000    0.000    0.000    0.000    0.000 
#
# Total GULP energy -173457.788851 kJ/mol
# GULP energy per Si atom -12389.842061 kJ/mol
# Density = 2.176266 g / cm^3
# Si number density = 21.812308 Si / 1000 Ang^3
#
#
#
# Elastic Constant Matrix: (Units=GPa)
#
#
# Indices 1 2 3 4 5 6 
#
# 1 131.4065 54.2642 46.0903 0.3665 38.3523 -12.7039
# 2 54.2642 83.0619 25.8650 -1.8303 18.2812 -14.7055
# 3 46.0903 25.8650 77.5951 -7.4820 29.7651 -10.3293
# 4 0.3665 -1.8303 -7.4820 24.9827 -6.2124 10.2290
# 5 38.3523 18.2812 29.7651 -6.2124 47.0843 -9.9709
# 6 -12.7039 -14.7055 -10.3293 10.2290 -9.9709 29.6711
#
#
#
# Elastic Compliance Matrix: (Units=1/GPa)
#
#
# Indices 1 2 3 4 5 6 
#
# 1 0.013425 -0.006180 -0.003672 -0.003561 -0.006596 0.000418
# 2 -0.006180 0.017565 -0.001652 -0.001541 0.000354 0.006135
# 3 -0.003672 -0.001652 0.019019 0.003523 -0.007846 0.000379
# 4 -0.003561 -0.001541 0.003523 0.048817 0.004225 -0.016472
# 5 -0.006596 0.000354 -0.007846 0.004225 0.032883 0.004214
# 6 0.000418 0.006135 0.000379 -0.016472 0.004214 0.044149
#
#
# Mechanical properties :
#
#
# Convention : Reuss Voigt Hill
#
# Bulk Modulus (GPa) = 37.03500 60.50028 48.76764
# Shear Modulus (GPa) = 24.05379 31.40388 27.72883
#
# Velocity S-wave (km/s) = 3.32439 3.79850 3.56932
# Velocity P-wave (km/s) = 5.63482 6.85821 6.27640
#
# Compressibility (1/GPa) = 0.02700148
#
# Stress axis : x y z
#
# Youngs Moduli (GPa) = 74.48525 56.93037 52.57952
#
# Poissons Ratio (x) = 0.35184 0.19307
# Poissons Ratio (y) = 0.46033 0.08686
# Poissons Ratio (z) = 0.27351 0.09405
#
# Static dielectric constant tensor:
#      x y z
#    x 5.280060 -1.038810 -0.488810 
#    y -1.038810 5.981470 0.385060 
#    z -0.488810 0.385060 4.284870 
# 
# 
# High freq. dielectric constant tensor:
#      x y z
#    x 1.869220 -0.006570 0.020990 
#    y -0.006570 1.853740 -0.021250 
#    z 0.020990 -0.021250 1.836490 
# 
# From -- ./inp_files/333299.got.cif
#   From: 2010.06.25/outbox.cif.g09.slc.cpg/sg2_167_cif.got.tgz:333299.got - 2010.06.27 13:26:56.
