data_PCOD8023715
_publ_section_title
;
Structure prediction by ZEFSAII (Michael W. Deem and Ramdas Pophale) SiO2 
 PCOD8023715
Probable space group: P -1
;
_chemical_formula_sum "Si O2"
_cell_formula_units_Z 14
_cell_length_a 9.129448
_cell_length_b 12.815292
_cell_length_c 9.474144
_cell_angle_alpha 40.066335
_cell_angle_beta 114.526777
_cell_angle_gamma 105.185143
_cell_volume 646.148304
_symmetry_space_group_name_H-M "P -1"
_symmetry_group_IT_number 2
_symmetry_cell_setting 'triclinic'
loop_
_space_group_symop_operation_xyz
x,y,z
-x,-y,-z
loop_
_atom_site_type_symbol
_atom_site_label
_atom_site_fract_x
_atom_site_fract_y
_atom_site_fract_z
Si Si1 0.223866 0.149982 0.498553
Si Si2 0.372623 0.176783 0.142310
Si Si3 0.083740 0.332737 0.985256
Si Si4 0.568241 0.060726 0.820945
Si Si5 0.912165 0.167542 0.849661
Si Si6 0.011717 0.697402 0.543061
Si Si7 0.277489 0.882791 0.601474
O O1 0.419437 0.161963 0.571759
O O2 0.145676 0.187721 0.582966
O O3 0.203114 0.962450 0.636080
O O4 0.130256 0.276429 0.221149
O O5 0.551601 0.222927 0.199815
O O6 0.365847 0.107135 0.055019
O O7 0.306554 0.039429 0.358094
O O8 0.248077 0.336034 0.953108
O O9 0.992683 0.512424 0.771057
O O10 0.972034 0.211833 0.983811
O O11 0.717592 0.170135 0.781115
O O12 0.500000 0.000000 0.000000
O O13 0.962704 0.298197 0.619459
O O14 0.000000 0.000000 0.000000
O O15 0.165625 0.760741 0.614731
#
# Coordination Sequence:
#
# PCOD8023715 Si02
#       7
#     2   2   2   2   2   2   2
#     4  10  23  42  64  93 129 166 214 263 304 376
#     4   9  18  37  59  91 122 157 210 262 301 364
#     4  11  24  40  64  93 137 166 207 255 324 383
#     4  11  22  40  69  95 120 162 221 267 308 362
#     4  12  23  43  67  93 125 167 217 261 312 374
#     4  12  23  39  66  97 129 169 208 259 321 376
#     4   9  18  36  64  90 120 160 215 257 300 361
#
# _framework density 21.666851999999999
#
# number of rings (size 3 to 8) (size 9 to 14) (size 15 to 20)
#    0.000    1.429    2.857    3.857    0.000    2.857 
#    0.000    0.714    0.000    0.000    0.000    0.000 
#    0.000    0.000    0.000    0.000    0.000    0.000 
#
# Total GULP energy -173493.181910 kJ/mol
# GULP energy per Si atom -12392.370136 kJ/mol
# Density = 2.161754 g / cm^3
# Si number density = 21.666852 Si / 1000 Ang^3
#
#
#
# Elastic Constant Matrix: (Units=GPa)
#
#
# Indices 1 2 3 4 5 6 
#
# 1 100.9834 29.8813 13.1034 15.7821 8.2925 -5.1270
# 2 29.8813 73.5901 21.2140 3.7400 10.6645 -1.0401
# 3 13.1034 21.2140 58.2324 17.8488 0.3088 7.9911
# 4 15.7821 3.7400 17.8488 27.6915 0.1328 -0.1055
# 5 8.2925 10.6645 0.3088 0.1328 28.9658 11.7318
# 6 -5.1270 -1.0401 7.9911 -0.1055 11.7318 38.2030
#
#
#
# Elastic Compliance Matrix: (Units=1/GPa)
#
#
# Indices 1 2 3 4 5 6 
#
# 1 0.012588 -0.004496 0.000639 -0.006956 -0.002850 0.002289
# 2 -0.004496 0.018440 -0.007736 0.005105 -0.006924 0.003657
# 3 0.000639 -0.007736 0.025689 -0.015930 0.005378 -0.007194
# 4 -0.006956 0.005105 -0.015930 0.049672 -0.001176 0.003036
# 5 -0.002850 -0.006924 0.005378 -0.001176 0.043998 -0.015211
# 6 0.002289 0.003657 -0.007194 0.003036 -0.015211 0.032767
#
#
# Mechanical properties :
#
#
# Convention : Reuss Voigt Hill
#
# Bulk Modulus (GPa) = 29.82514 40.13368 34.97941
# Shear Modulus (GPa) = 22.98670 30.21253 26.59961
#
# Velocity S-wave (km/s) = 3.26070 3.73823 3.50760
# Velocity P-wave (km/s) = 5.28881 6.09884 5.70821
#
# Compressibility (1/GPa) = 0.03352876
#
# Stress axis : x y z
#
# Youngs Moduli (GPa) = 79.44290 54.22912 38.92789
#
# Poissons Ratio (x) = 0.24383 -0.02486
# Poissons Ratio (y) = 0.35720 0.30115
# Poissons Ratio (z) = -0.05073 0.41952
#
# Static dielectric constant tensor:
#      x y z
#    x 4.399960 -0.368880 0.272820 
#    y -0.368880 4.102470 0.365980 
#    z 0.272820 0.365980 3.824940 
# 
# 
# High freq. dielectric constant tensor:
#      x y z
#    x 1.862980 -0.015270 0.019130 
#    y -0.015270 1.843810 0.031960 
#    z 0.019130 0.031960 1.824740 
# 
# From -- ./inp_files/174527.got.cif
#   From: 2010.06.25/outbox.cif.g09.slc.cpg/sg2_88_cif.got.tgz:174527.got - 2010.06.27 13:26:56.
