data_PCOD8023550
_publ_section_title
;
Structure prediction by ZEFSAII (Michael W. Deem and Ramdas Pophale) SiO2 
 PCOD8023550
Probable space group: P -1
;
_chemical_formula_sum "Si O2"
_cell_formula_units_Z 14
_cell_length_a 9.494276
_cell_length_b 12.189649
_cell_length_c 10.730883
_cell_angle_alpha 132.096385
_cell_angle_beta 121.584949
_cell_angle_gamma 55.031877
_cell_volume 734.998830
_symmetry_space_group_name_H-M "P -1"
_symmetry_group_IT_number 2
_symmetry_cell_setting 'triclinic'
loop_
_space_group_symop_operation_xyz
x,y,z
-x,-y,-z
loop_
_atom_site_type_symbol
_atom_site_label
_atom_site_fract_x
_atom_site_fract_y
_atom_site_fract_z
Si Si1 0.173156 0.276298 0.822803
Si Si2 0.692648 0.019052 0.214135
Si Si3 0.538949 0.270962 0.900590
Si Si4 0.664433 0.995957 0.917683
Si Si5 0.195468 0.502081 0.214302
Si Si6 0.397822 0.303310 0.379098
Si Si7 0.535162 0.414623 0.755960
O O1 0.168227 0.099569 0.715433
O O2 0.995528 0.374201 0.740101
O O3 0.338109 0.274072 0.812783
O O4 0.173055 0.356593 0.018597
O O5 0.541162 0.936392 0.081221
O O6 0.603059 0.199964 0.357806
O O7 0.772113 0.010465 0.103721
O O8 0.561880 0.413516 0.098859
O O9 0.589071 0.282719 0.789065
O O10 0.680685 0.109290 0.899624
O O11 0.715303 0.814598 0.756083
O O12 0.313447 0.440429 0.344542
O O13 0.288056 0.594323 0.240157
O O14 0.397344 0.381104 0.572140
#
# Coordination Sequence:
#
# PCOD8023550 Si02
#       7
#     2   2   2   2   2   2   2
#     4   9  16  31  51  71  94 128 162 193 231 286
#     4   8  13  27  48  71  92 121 160 196 230 272
#     4   9  18  34  49  70  94 135 159 189 242 293
#     4   8  14  27  50  69  91 121 169 189 224 279
#     4  10  18  29  50  77  95 120 163 204 232 275
#     4  10  17  29  49  77  94 121 165 206 227 273
#     4  10  20  30  47  74 103 123 155 202 243 282
#
# _framework density 19.047649
#
# number of rings (size 3 to 8) (size 9 to 14) (size 15 to 20)
#    0.857    2.000    1.429    2.143    0.000    0.571 
#    0.000    1.429    0.000    0.857    3.714    0.000 
#    0.000    0.000    0.000    0.000    0.000    0.000 
#
# Total GULP energy -173438.853653 kJ/mol
# GULP energy per Si atom -12388.489547 kJ/mol
# Density = 1.900430 g / cm^3
# Si number density = 19.047649 Si / 1000 Ang^3
#
#
#
# Elastic Constant Matrix: (Units=GPa)
#
#
# Indices 1 2 3 4 5 6 
#
# 1 46.7323 52.0417 27.5914 -5.0182 -10.5858 20.1336
# 2 52.0417 139.1832 36.7283 -19.9095 -9.0225 20.4011
# 3 27.5914 36.7283 75.5999 -8.4117 -21.0959 8.4308
# 4 -5.0182 -19.9095 -8.4117 11.6421 5.6926 -5.2763
# 5 -10.5858 -9.0225 -21.0959 5.6926 14.0571 -8.1373
# 6 20.1336 20.4011 8.4308 -5.2763 -8.1373 32.3128
#
#
#
# Elastic Compliance Matrix: (Units=1/GPa)
#
#
# Indices 1 2 3 4 5 6 
#
# 1 0.059681 -0.021015 -0.006614 -0.036543 0.023445 -0.022255
# 2 -0.021015 0.019083 -0.004408 0.032036 -0.022086 0.001865
# 3 -0.006614 -0.004408 0.027648 -0.006652 0.041638 0.009089
# 4 -0.036543 0.032036 -0.006652 0.162588 -0.076019 0.011684
# 5 0.023445 -0.022086 0.041638 -0.076019 0.180317 0.021468
# 6 -0.022255 0.001865 0.009089 0.011684 0.021468 0.048580
#
#
# Mechanical properties :
#
#
# Convention : Reuss Voigt Hill
#
# Bulk Modulus (GPa) = 23.61900 54.91537 39.26718
# Shear Modulus (GPa) = 8.67930 21.27934 14.97932
#
# Velocity S-wave (km/s) = 2.13694 3.34603 2.80735
# Velocity P-wave (km/s) = 4.30297 6.61974 5.58285
#
# Compressibility (1/GPa) = 0.04233880
#
# Stress axis : x y z
#
# Youngs Moduli (GPa) = 16.75568 52.40205 36.16945
#
# Poissons Ratio (x) = 1.10125 0.23921
# Poissons Ratio (y) = 0.35213 0.15942
# Poissons Ratio (z) = 0.11082 0.23097
#
# Static dielectric constant tensor:
#      x y z
#    x 2.993020 0.179640 -0.096450 
#    y 0.179640 3.649240 -0.028840 
#    z -0.096450 -0.028840 3.173870 
# 
# 
# High freq. dielectric constant tensor:
#      x y z
#    x 1.679860 0.021090 -0.017100 
#    y 0.021090 1.754710 -0.000660 
#    z -0.017100 -0.000660 1.710400 
# 
# From -- ./inp_files/385905.got.cif
#   From: 2010.06.25/outbox.cif.g09.slc.cpg/sg2_193_cif.got.tgz:385905.got - 2010.06.27 13:26:56.
