data_PCOD8023780
_publ_section_title
;
Structure prediction by ZEFSAII (Michael W. Deem and Ramdas Pophale) SiO2 
 PCOD8023780
Probable space group: P -1
;
_chemical_formula_sum "Si O2"
_cell_formula_units_Z 14
_cell_length_a 11.582877
_cell_length_b 12.417738
_cell_length_c 15.129725
_cell_angle_alpha 150.097332
_cell_angle_beta 40.172933
_cell_angle_gamma 131.846022
_cell_volume 699.772838
_symmetry_space_group_name_H-M "P -1"
_symmetry_group_IT_number 2
_symmetry_cell_setting 'triclinic'
loop_
_space_group_symop_operation_xyz
x,y,z
-x,-y,-z
loop_
_atom_site_type_symbol
_atom_site_label
_atom_site_fract_x
_atom_site_fract_y
_atom_site_fract_z
Si Si1 0.611143 0.904442 0.993493
Si Si2 0.135557 0.406915 0.049013
Si Si3 0.196113 0.104623 0.954934
Si Si4 0.911805 0.109964 0.545493
Si Si5 0.342611 0.530372 0.846705
Si Si6 0.545511 0.888646 0.613678
Si Si7 0.877456 0.149314 0.898249
O O1 0.508733 0.692245 0.870105
O O2 0.698282 0.024361 0.944448
O O3 0.757859 0.819177 0.917816
O O4 0.482959 0.081136 0.241992
O O5 0.053532 0.635739 0.285078
O O6 0.210928 0.304937 0.021973
O O7 0.291568 0.428378 0.898949
O O8 0.977869 0.249081 0.994871
O O9 0.355065 0.940934 0.714566
O O10 0.000000 0.000000 0.000000
O O11 0.700535 0.063349 0.624665
O O12 0.000000 0.000000 0.500000
O O13 0.000324 0.024675 0.344078
O O14 0.391468 0.348203 0.617501
O O15 0.169593 0.657179 0.003393
#
# Coordination Sequence:
#
# PCOD8023780 Si02
#       7
#     2   2   2   2   2   2   2
#     4  10  24  44  62  95 139 170 218 277 323 390
#     4  12  22  42  70  93 135 178 218 274 325 388
#     4  10  23  47  65  92 138 175 223 277 321 388
#     4  12  23  41  67 105 133 170 223 272 332 397
#     4  12  23  40  69 101 127 177 223 268 342 391
#     4  10  23  42  65  96 132 172 225 269 323 391
#     4  12  24  41  68  99 139 170 216 281 332 392
#
# _framework density 20.006491
#
# number of rings (size 3 to 8) (size 9 to 14) (size 15 to 20)
#    0.857    0.000    5.714    1.714    0.000    5.714 
#    2.571    1.429    0.000    0.000    0.000    0.000 
#    0.000    0.000    0.000    0.000    0.000    0.000 
#
# Total GULP energy -173551.966056 kJ/mol
# GULP energy per Si atom -12396.569004 kJ/mol
# Density = 1.996096 g / cm^3
# Si number density = 20.006491 Si / 1000 Ang^3
#
#
#
# Elastic Constant Matrix: (Units=GPa)
#
#
# Indices 1 2 3 4 5 6 
#
# 1 53.7077 15.3635 13.1155 3.4931 2.7896 6.6818
# 2 15.3635 116.1741 40.2528 -9.2217 1.2681 5.1138
# 3 13.1155 40.2528 113.4552 -6.9163 11.9822 9.6830
# 4 3.4931 -9.2217 -6.9163 31.4789 7.0591 -0.1621
# 5 2.7896 1.2681 11.9822 7.0591 30.4022 4.6949
# 6 6.6818 5.1138 9.6830 -0.1621 4.6949 42.8290
#
#
#
# Elastic Compliance Matrix: (Units=1/GPa)
#
#
# Indices 1 2 3 4 5 6 
#
# 1 0.020170 -0.002294 -0.001497 -0.003248 -0.000018 -0.002545
# 2 -0.002294 0.010234 -0.003260 0.002416 0.000535 -0.000176
# 3 -0.001497 -0.003260 0.010881 0.002583 -0.004407 -0.001344
# 4 -0.003248 0.002416 0.002583 0.035464 -0.009175 0.000774
# 5 -0.000018 0.000535 -0.004407 -0.009175 0.037230 -0.003180
# 6 -0.002545 -0.000176 -0.001344 0.000774 -0.003180 0.024422
#
#
# Mechanical properties :
#
#
# Convention : Reuss Voigt Hill
#
# Bulk Modulus (GPa) = 36.78672 46.75562 41.77117
# Shear Modulus (GPa) = 30.94714 35.24904 33.09809
#
# Velocity S-wave (km/s) = 3.93727 4.20203 4.07180
# Velocity P-wave (km/s) = 6.25274 6.85301 6.55975
#
# Compressibility (1/GPa) = 0.02718372
#
# Stress axis : x y z
#
# Youngs Moduli (GPa) = 49.57879 97.70935 91.90030
#
# Poissons Ratio (x) = 0.22419 0.13753
# Poissons Ratio (y) = 0.11376 0.29959
# Poissons Ratio (z) = 0.07420 0.31853
#
# Static dielectric constant tensor:
#      x y z
#    x 3.711370 0.052190 0.032340 
#    y 0.052190 3.585370 -0.075990 
#    z 0.032340 -0.075990 3.635240 
# 
# 
# High freq. dielectric constant tensor:
#      x y z
#    x 1.782560 0.011600 0.006990 
#    y 0.011600 1.785240 -0.007510 
#    z 0.006990 -0.007510 1.774050 
# 
# From -- ./inp_files/178556.got.cif
#   From: 2010.06.25/outbox.cif.g09.slc.cpg/sg2_90_cif.got.tgz:178556.got - 2010.06.27 13:26:56.
