data_PCOD8023631
_publ_section_title
;
Structure prediction by ZEFSAII (Michael W. Deem and Ramdas Pophale) SiO2 
 PCOD8023631
Probable space group: P -1
;
_chemical_formula_sum "Si O2"
_cell_formula_units_Z 14
_cell_length_a 22.040750
_cell_length_b 12.850405
_cell_length_c 16.030066
_cell_angle_alpha 37.220751
_cell_angle_beta 151.418238
_cell_angle_gamma 161.490537
_cell_volume 669.462739
_symmetry_space_group_name_H-M "P -1"
_symmetry_group_IT_number 2
_symmetry_cell_setting 'triclinic'
loop_
_space_group_symop_operation_xyz
x,y,z
-x,-y,-z
loop_
_atom_site_type_symbol
_atom_site_label
_atom_site_fract_x
_atom_site_fract_y
_atom_site_fract_z
Si Si1 0.997827 0.659442 0.690274
Si Si2 0.072963 0.768671 0.036294
Si Si3 0.992606 0.686445 0.399032
Si Si4 0.921955 0.907055 0.871158
Si Si5 0.780493 0.530809 0.672064
Si Si6 0.580711 0.183134 0.351348
Si Si7 0.654194 0.777364 0.380588
O O1 0.052743 0.530301 0.870658
O O2 0.953400 0.729881 0.671540
O O3 0.751645 0.368827 0.521157
O O4 0.239389 0.012928 0.708987
O O5 0.360569 0.061555 0.178143
O O6 0.071963 0.942288 0.976530
O O7 0.925441 0.613021 0.871059
O O8 0.743826 0.441674 0.306214
O O9 0.000000 0.500000 0.500000
O O10 0.009108 0.824460 0.250177
O O11 0.232510 0.998581 0.545721
O O12 0.634120 0.524134 0.765316
O O13 0.000000 0.000000 0.000000
O O14 0.712933 0.644936 0.540201
O O15 0.529078 0.132164 0.602906
#
# Coordination Sequence:
#
# PCOD8023631 Si02
#       7
#     2   2   2   2   2   2   2
#     4  10  23  42  69  99 129 175 215 271 327 391
#     4  11  24  42  66  99 134 166 224 265 333 378
#     4  11  25  47  70  95 129 178 221 266 334 394
#     4  12  29  43  66  99 134 174 217 280 325 389
#     4  11  21  42  70  96 132 170 218 274 324 390
#     4  10  23  41  73  96 131 174 218 271 324 391
#     4  11  25  45  66  96 132 175 220 267 332 393
#
# _framework density 20.912292000000001
#
# number of rings (size 3 to 8) (size 9 to 14) (size 15 to 20)
#    0.000    1.143    1.429    5.143   10.000    3.429 
#    0.000    0.000    0.000    0.000    0.000    0.000 
#    0.000    0.000    0.000    0.000    0.000    0.000 
#
# Total GULP energy -173661.711866 kJ/mol
# GULP energy per Si atom -12404.407990 kJ/mol
# Density = 2.086469 g / cm^3
# Si number density = 20.912292 Si / 1000 Ang^3
#
#
#
# Elastic Constant Matrix: (Units=GPa)
#
#
# Indices 1 2 3 4 5 6 
#
# 1 133.1830 71.6683 74.7192 0.3895 -10.9492 -8.8439
# 2 71.6683 131.9716 71.7923 -5.6240 5.4906 6.5303
# 3 74.7192 71.7923 119.5346 -7.4571 -3.5002 7.7519
# 4 0.3895 -5.6240 -7.4571 8.5509 2.2514 -7.0847
# 5 -10.9492 5.4906 -3.5002 2.2514 41.1122 -8.3622
# 6 -8.8439 6.5303 7.7519 -7.0847 -8.3622 44.5437
#
#
#
# Elastic Compliance Matrix: (Units=1/GPa)
#
#
# Indices 1 2 3 4 5 6 
#
# 1 0.014903 -0.005156 -0.006837 -0.007551 0.005451 0.004727
# 2 -0.005156 0.013275 -0.004457 0.004281 -0.004229 -0.002307
# 3 -0.006837 -0.004457 0.016042 0.009862 -0.000823 -0.002082
# 4 -0.007551 0.004281 0.009862 0.145320 -0.006011 0.018141
# 5 0.005451 -0.004229 -0.000823 -0.006011 0.027843 0.006116
# 6 0.004727 -0.002307 -0.002082 0.018141 0.006116 0.028123
#
#
# Mechanical properties :
#
#
# Convention : Reuss Voigt Hill
#
# Bulk Modulus (GPa) = 88.33839 91.22764 89.78302
# Shear Modulus (GPa) = 17.71932 29.94198 23.83065
#
# Velocity S-wave (km/s) = 2.91403 3.78800 3.37939
# Velocity P-wave (km/s) = 7.32503 7.92784 7.63239
#
# Compressibility (1/GPa) = 0.01132011
#
# Stress axis : x y z
#
# Youngs Moduli (GPa) = 67.10135 75.33169 62.33644
#
# Poissons Ratio (x) = 0.38845 0.42617
# Poissons Ratio (y) = 0.34601 0.27781
# Poissons Ratio (z) = 0.45874 0.33572
#
# Static dielectric constant tensor:
#      x y z
#    x 4.073980 0.037770 -0.148800 
#    y 0.037770 4.034220 -0.033440 
#    z -0.148800 -0.033440 3.732590 
# 
# 
# High freq. dielectric constant tensor:
#      x y z
#    x 1.839450 0.002390 -0.007960 
#    y 0.002390 1.826870 -0.003680 
#    z -0.007960 -0.003680 1.819530 
# 
# From -- ./inp_files/185240.got.cif
#   From: 2010.06.25/outbox.cif.g09.slc.cpg/sg2_93_cif.got.tgz:185240.got - 2010.06.27 13:26:56.
