data_PCOD8023324
_publ_section_title
;
Structure prediction by ZEFSAII (Michael W. Deem and Ramdas Pophale) SiO2 
 PCOD8023324
Probable space group: P -1
;
_chemical_formula_sum "Si O2"
_cell_formula_units_Z 16
_cell_length_a 15.306770
_cell_length_b 12.001654
_cell_length_c 9.114485
_cell_angle_alpha 38.411470
_cell_angle_beta 46.667685
_cell_angle_gamma 59.876460
_cell_volume 754.320880
_symmetry_space_group_name_H-M "P -1"
_symmetry_group_IT_number 2
_symmetry_cell_setting 'triclinic'
loop_
_space_group_symop_operation_xyz
x,y,z
-x,-y,-z
loop_
_atom_site_type_symbol
_atom_site_label
_atom_site_fract_x
_atom_site_fract_y
_atom_site_fract_z
Si Si1 0.290901 0.657756 0.870930
Si Si2 0.106468 0.147909 0.733415
Si Si3 0.950994 0.558129 0.702564
Si Si4 0.902155 0.855764 0.692811
Si Si5 0.167797 0.327405 0.749997
Si Si6 0.537938 0.609786 0.194633
Si Si7 0.709999 0.950912 0.615136
Si Si8 0.385432 0.557587 0.158762
O O1 0.374278 0.511035 0.867820
O O2 0.338995 0.854826 0.554637
O O3 0.157113 0.601432 0.018747
O O4 0.304423 0.666250 0.025817
O O5 0.054954 0.338270 0.552503
O O6 0.135131 0.153989 0.865974
O O7 0.226163 0.113465 0.540192
O O8 0.000000 0.000000 0.000000
O O9 0.943352 0.713542 0.673758
O O10 0.077126 0.480931 0.668990
O O11 0.808252 0.979484 0.599932
O O12 0.834875 0.730362 0.020458
O O13 0.000000 0.000000 0.500000
O O14 0.303103 0.387414 0.486281
O O15 0.500000 0.500000 0.500000
O O16 0.429098 0.653848 0.162994
O O17 0.605921 0.805511 0.943389
O O18 0.500000 0.500000 0.000000
#
# Coordination Sequence:
#
# PCOD8023324 Si02
#       8
#     2   2   2   2   2   2   2   2
#     4  11  22  44  69  95 133 173 221 274 330 397
#     4  11  21  36  61  97 134 168 211 265 333 396
#     4  11  22  40  64  98 134 174 213 269 347 393
#     4  11  23  42  60  99 139 170 211 274 338 404
#     4  12  22  38  67  95 130 174 219 269 331 397
#     4  11  23  46  69  92 133 178 225 272 330 378
#     4  11  24  43  68  93 134 177 216 274 330 387
#     4  10  23  41  65  95 127 175 223 271 318 382
#
# _framework density 21.211131000000002
#
# number of rings (size 3 to 8) (size 9 to 14) (size 15 to 20)
#    0.000    1.000    3.750    5.250    1.750    1.000 
#    0.000    0.000    0.000    0.000    0.000    0.000 
#    0.000    0.000    0.000    0.000    0.000    0.000 
#
# Total GULP energy -198237.664502 kJ/mol
# GULP energy per Si atom -12389.854031 kJ/mol
# Density = 2.116285 g / cm^3
# Si number density = 21.211131 Si / 1000 Ang^3
#
#
#
# Elastic Constant Matrix: (Units=GPa)
#
#
# Indices 1 2 3 4 5 6 
#
# 1 109.7708 33.4460 34.0963 -6.0323 -5.9659 25.9711
# 2 33.4460 35.5775 28.2782 -13.1159 -4.2578 7.7114
# 3 34.0963 28.2782 139.9012 -14.1690 -8.0915 7.2592
# 4 -6.0323 -13.1159 -14.1690 37.0933 2.5279 0.0546
# 5 -5.9659 -4.2578 -8.0915 2.5279 37.6816 -1.7154
# 6 25.9711 7.7114 7.2592 0.0546 -1.7154 33.1468
#
#
#
# Elastic Compliance Matrix: (Units=1/GPa)
#
#
# Indices 1 2 3 4 5 6 
#
# 1 0.015146 -0.012379 -0.000936 -0.002296 0.000554 -0.008750
# 2 -0.012379 0.049269 -0.005490 0.013208 0.001519 -0.000504
# 3 -0.000936 -0.005490 0.008652 0.001142 0.001020 0.000167
# 4 -0.002296 0.013208 0.001142 0.031751 -0.000830 -0.001619
# 5 0.000554 0.001519 0.001020 -0.000830 0.027090 0.000392
# 6 -0.008750 -0.000504 0.000167 -0.001619 0.000392 0.037128
#
#
# Mechanical properties :
#
#
# Convention : Reuss Voigt Hill
#
# Bulk Modulus (GPa) = 28.20271 52.98783 40.59527
# Shear Modulus (GPa) = 22.88701 34.21294 28.54997
#
# Velocity S-wave (km/s) = 3.28839 4.02054 3.67275
# Velocity P-wave (km/s) = 5.26717 6.82557 6.09637
#
# Compressibility (1/GPa) = 0.03545758
#
# Stress axis : x y z
#
# Youngs Moduli (GPa) = 66.02230 20.29689 115.58479
#
# Poissons Ratio (x) = 0.25125 0.10816
# Poissons Ratio (y) = 0.81727 0.63457
# Poissons Ratio (z) = 0.06178 0.11143
#
# Static dielectric constant tensor:
#      x y z
#    x 6.576790 -1.091870 1.773800 
#    y -1.091870 4.662850 -1.480590 
#    z 1.773800 -1.480590 5.768060 
# 
# 
# High freq. dielectric constant tensor:
#      x y z
#    x 1.845750 0.018730 0.002150 
#    y 0.018730 1.812510 0.002290 
#    z 0.002150 0.002290 1.842700 
# 
# From -- ./inp_files/258141.got.cif
#   From: 2010.06.25/outbox.cif.g09.slc.cpg/sg2_130_cif.got.tgz:258141.got - 2010.06.27 13:26:56.
