data_PCOD8023398
_publ_section_title
;
Structure prediction by ZEFSAII (Michael W. Deem and Ramdas Pophale) SiO2 
 PCOD8023398
Probable space group: P -1
;
_chemical_formula_sum "Si O2"
_cell_formula_units_Z 12
_cell_length_a 21.721874
_cell_length_b 11.776063
_cell_length_c 19.056010
_cell_angle_alpha 29.471822
_cell_angle_beta 161.325993
_cell_angle_gamma 159.214687
_cell_volume 548.939117
_symmetry_space_group_name_H-M "P -1"
_symmetry_group_IT_number 2
_symmetry_cell_setting 'triclinic'
loop_
_space_group_symop_operation_xyz
x,y,z
-x,-y,-z
loop_
_atom_site_type_symbol
_atom_site_label
_atom_site_fract_x
_atom_site_fract_y
_atom_site_fract_z
Si Si1 0.033672 0.438888 0.647085
Si Si2 0.061693 0.330424 0.313395
Si Si3 0.108099 0.328838 0.525356
Si Si4 0.631410 0.684312 0.969531
Si Si5 0.480788 0.286625 0.498678
Si Si6 0.840561 0.572750 0.863715
O O1 0.092986 0.698698 0.625105
O O2 0.000000 0.500000 0.500000
O O3 0.757436 0.093748 0.559459
O O4 0.276930 0.461791 0.897956
O O5 0.056983 0.372604 0.368383
O O6 0.370916 0.587550 0.483738
O O7 0.935478 0.979132 0.346180
O O8 0.885455 0.380467 0.060133
O O9 0.414732 0.637736 0.713650
O O10 0.500000 0.500000 0.000000
O O11 0.883861 0.062461 0.052192
O O12 0.702708 0.389987 0.739612
O O13 0.367230 0.444360 0.308121
#
# Coordination Sequence:
#
# PCOD8023398 Si02
#       6
#     2   2   2   2   2   2
#     4  11  24  40  67  96 126 165 212 270 316 372
#     4  11  25  43  65  91 135 175 210 259 321 382
#     4  11  26  43  62  97 131 172 216 259 317 385
#     4  11  22  40  68  95 127 167 214 267 317 374
#     4  10  23  41  66  97 127 165 216 266 316 380
#     4  10  23  41  66  98 126 170 213 264 320 374
#
# _framework density 21.860347000000001
#
# number of rings (size 3 to 8) (size 9 to 14) (size 15 to 20)
#    0.000    1.333    1.667    2.500    7.000    4.000 
#    0.000    6.667    0.000    0.000    0.000    0.000 
#    0.000    0.000    0.000    0.000    0.000    0.000 
#
# Total GULP energy -148846.143297 kJ/mol
# GULP energy per Si atom -12403.845275 kJ/mol
# Density = 2.181059 g / cm^3
# Si number density = 21.860347 Si / 1000 Ang^3
#
#
#
# Elastic Constant Matrix: (Units=GPa)
#
#
# Indices 1 2 3 4 5 6 
#
# 1 163.9141 49.5164 53.9342 -17.8957 8.6916 -2.6444
# 2 49.5164 62.7078 43.3376 -12.4701 3.6400 13.3513
# 3 53.9342 43.3376 115.8723 -15.3775 7.1634 1.5641
# 4 -17.8957 -12.4701 -15.3775 36.5805 3.0954 1.8299
# 5 8.6916 3.6400 7.1634 3.0954 26.2482 -1.0349
# 6 -2.6444 13.3513 1.5641 1.8299 -1.0349 32.6864
#
#
#
# Elastic Compliance Matrix: (Units=1/GPa)
#
#
# Indices 1 2 3 4 5 6 
#
# 1 0.008763 -0.006136 -0.001517 0.001543 -0.001695 0.003148
# 2 -0.006136 0.029512 -0.007321 0.004700 -0.001110 -0.012499
# 3 -0.001517 -0.007321 0.012446 0.002062 -0.002040 0.002092
# 4 0.001543 0.004700 0.002062 0.031223 -0.005558 -0.003818
# 5 -0.001695 -0.001110 -0.002040 -0.005558 0.040104 0.001995
# 6 0.003148 -0.012499 0.002092 -0.003818 0.001995 0.036131
#
#
# Mechanical properties :
#
#
# Convention : Reuss Voigt Hill
#
# Bulk Modulus (GPa) = 48.13781 70.67454 59.40617
# Shear Modulus (GPa) = 25.63472 32.15007 28.89240
#
# Velocity S-wave (km/s) = 3.42813 3.83913 3.63944
# Velocity P-wave (km/s) = 6.14311 7.21472 6.70037
#
# Compressibility (1/GPa) = 0.02077369
#
# Stress axis : x y z
#
# Youngs Moduli (GPa) = 114.12221 33.88473 80.34946
#
# Poissons Ratio (x) = 0.20792 0.12186
# Poissons Ratio (y) = 0.70026 0.58820
# Poissons Ratio (z) = 0.17308 0.24805
#
# Static dielectric constant tensor:
#      x y z
#    x 4.053730 0.003480 0.404620 
#    y 0.003480 3.849810 -0.149190 
#    z 0.404620 -0.149190 4.058760 
# 
# 
# High freq. dielectric constant tensor:
#      x y z
#    x 1.864190 -0.003280 0.023710 
#    y -0.003280 1.864740 -0.005230 
#    z 0.023710 -0.005230 1.861720 
# 
# From -- ./inp_files/177466.got.cif
#   From: 2010.06.25/outbox.cif.g09.slc.cpg/sg2_89_cif.got.tgz:177466.got - 2010.06.27 13:26:56.
