data_PCOD8023013
_publ_section_title
;
Structure prediction by ZEFSAII (Michael W. Deem and Ramdas Pophale) SiO2 
 PCOD8023013
Probable space group: P -1
;
_chemical_formula_sum "Si O2"
_cell_formula_units_Z 16
_cell_length_a 13.256532
_cell_length_b 9.039400
_cell_length_c 19.111299
_cell_angle_alpha 134.682652
_cell_angle_beta 153.908893
_cell_angle_gamma 48.422949
_cell_volume 712.345959
_symmetry_space_group_name_H-M "P -1"
_symmetry_group_IT_number 2
_symmetry_cell_setting 'triclinic'
loop_
_space_group_symop_operation_xyz
x,y,z
-x,-y,-z
loop_
_atom_site_type_symbol
_atom_site_label
_atom_site_fract_x
_atom_site_fract_y
_atom_site_fract_z
Si Si1 0.611618 0.500804 0.143655
Si Si2 0.289035 0.997320 0.815036
Si Si3 0.719820 0.224992 0.886451
Si Si4 0.939170 0.770256 0.368598
Si Si5 0.158364 0.126498 0.043057
Si Si6 0.940041 0.102797 0.234018
Si Si7 0.433534 0.194519 0.571429
Si Si8 0.417885 0.647386 0.665467
O O1 0.418349 0.559548 0.101895
O O2 0.715259 0.267356 0.146428
O O3 0.804709 0.666840 0.313702
O O4 0.500000 0.500000 0.000000
O O5 0.065575 0.004091 0.728794
O O6 0.336721 0.785988 0.728643
O O7 0.228318 0.202382 0.795470
O O8 0.500000 0.000000 0.000000
O O9 0.548190 0.123036 0.692859
O O10 0.769816 0.083280 0.938676
O O11 0.955001 0.263431 0.004516
O O12 0.191027 0.637257 0.470719
O O13 0.000000 0.000000 0.500000
O O14 0.377270 0.255947 0.215846
O O15 0.064751 0.063063 0.887644
O O16 0.158825 0.232003 0.413457
O O17 0.520000 0.413119 0.672766
O O18 0.500000 0.000000 0.500000
#
# Coordination Sequence:
#
# PCOD8023013 Si02
#       8
#     2   2   2   2   2   2   2   2
#     4  12  23  42  73 103 136 180 236 284 344 421
#     4  11  22  40  71 109 140 176 237 290 353 413
#     4  11  25  44  74 101 138 190 231 284 360 413
#     4  10  23  40  65 103 141 179 221 289 350 414
#     4  11  24  48  72  97 143 186 236 282 351 434
#     4  12  24  44  69 104 141 181 231 296 345 424
#     4  12  27  47  69 100 144 186 239 295 353 414
#     4  11  24  46  69 102 143 187 232 292 351 421
#
# _framework density 22.460996000000002
#
# number of rings (size 3 to 8) (size 9 to 14) (size 15 to 20)
#    0.000    0.750    5.000    3.000    5.250    1.500 
#    0.000    0.625    0.000    0.000    0.000    0.000 
#    0.000    0.000    0.000    0.000    0.000    0.000 
#
# Total GULP energy -198289.806259 kJ/mol
# GULP energy per Si atom -12393.112891 kJ/mol
# Density = 2.240987 g / cm^3
# Si number density = 22.460996 Si / 1000 Ang^3
#
#
#
# Elastic Constant Matrix: (Units=GPa)
#
#
# Indices 1 2 3 4 5 6 
#
# 1 144.6456 40.0454 34.7496 -1.1415 13.8439 -14.0986
# 2 40.0454 69.1228 11.5106 -2.8099 5.7842 -4.9584
# 3 34.7496 11.5106 98.2284 -20.3446 6.4319 -8.8293
# 4 -1.1415 -2.8099 -20.3446 35.0380 2.9159 0.2811
# 5 13.8439 5.7842 6.4319 2.9159 47.3390 -2.0684
# 6 -14.0986 -4.9584 -8.8293 0.2811 -2.0684 36.2079
#
#
#
# Elastic Compliance Matrix: (Units=1/GPa)
#
#
# Indices 1 2 3 4 5 6 
#
# 1 0.009211 -0.004655 -0.002733 -0.001548 -0.001562 0.002205
# 2 -0.004655 0.017323 -0.000018 0.001291 -0.000811 0.000499
# 3 -0.002733 -0.000018 0.012975 0.007539 -0.001340 0.001962
# 4 -0.001548 0.001291 0.007539 0.033190 -0.002730 0.000999
# 5 -0.001562 -0.000811 -0.001340 -0.002730 0.022041 0.000234
# 6 0.002205 0.000499 0.001962 0.000999 0.000234 0.029029
#
#
# Mechanical properties :
#
#
# Convention : Reuss Voigt Hill
#
# Bulk Modulus (GPa) = 40.49142 53.84533 47.16837
# Shear Modulus (GPa) = 34.05672 38.76306 36.40989
#
# Velocity S-wave (km/s) = 3.89814 4.15877 4.03057
# Velocity P-wave (km/s) = 6.19090 6.86188 6.53501
#
# Compressibility (1/GPa) = 0.02469659
#
# Stress axis : x y z
#
# Youngs Moduli (GPa) = 108.56471 57.72663 77.07178
#
# Poissons Ratio (x) = 0.26873 0.21065
# Poissons Ratio (y) = 0.50539 0.00138
# Poissons Ratio (z) = 0.29672 0.00103
#
# Static dielectric constant tensor:
#      x y z
#    x 4.668200 0.384560 0.179180 
#    y 0.384560 4.150500 -0.479070 
#    z 0.179180 -0.479070 5.204790 
# 
# 
# High freq. dielectric constant tensor:
#      x y z
#    x 1.885550 0.008220 0.006380 
#    y 0.008220 1.875990 -0.015840 
#    z 0.006380 -0.015840 1.900680 
# 
# From -- ./inp_files/566999.got.cif
#   From: 2010.06.25/outbox.cif.g09.slc.cpg/sg2_284_cif.got.tgz:566999.got - 2010.06.27 13:26:56.
