data_PCOD8023395
_publ_section_title
;
Structure prediction by ZEFSAII (Michael W. Deem and Ramdas Pophale) SiO2 
 PCOD8023395
Probable space group: P -1
;
_chemical_formula_sum "Si O2"
_cell_formula_units_Z 16
_cell_length_a 8.715562
_cell_length_b 15.122324
_cell_length_c 12.709594
_cell_angle_alpha 28.506252
_cell_angle_beta 99.919354
_cell_angle_gamma 94.614552
_cell_volume 778.493547
_symmetry_space_group_name_H-M "P -1"
_symmetry_group_IT_number 2
_symmetry_cell_setting 'triclinic'
loop_
_space_group_symop_operation_xyz
x,y,z
-x,-y,-z
loop_
_atom_site_type_symbol
_atom_site_label
_atom_site_fract_x
_atom_site_fract_y
_atom_site_fract_z
Si Si1 0.407031 0.466581 0.419361
Si Si2 0.195203 0.108818 0.053131
Si Si3 0.907842 0.973248 0.413099
Si Si4 0.387918 0.876133 0.669936
Si Si5 0.856632 0.194663 0.983623
Si Si6 0.675514 0.918794 0.131410
Si Si7 0.806199 0.235168 0.431232
Si Si8 0.614126 0.593013 0.132551
O O1 0.500000 0.500000 0.500000
O O2 0.250462 0.610760 0.241876
O O3 0.331664 0.278689 0.609437
O O4 0.523070 0.475961 0.325197
O O5 0.231078 0.072768 0.973780
O O6 0.302416 0.253546 0.959077
O O7 0.013273 0.200609 0.929151
O O8 0.223298 0.916867 0.324608
O O9 0.005285 0.794841 0.546753
O O10 0.723993 0.978516 0.417535
O O11 0.000000 0.000000 0.500000
O O12 0.911712 0.156696 0.150042
O O13 0.288557 0.791252 0.657943
O O14 0.500000 0.000000 0.500000
O O15 0.486367 0.700610 0.925266
O O16 0.756615 0.033219 0.107261
O O17 0.500000 0.000000 0.000000
O O18 0.748330 0.445340 0.245791
#
# Coordination Sequence:
#
# PCOD8023395 Si02
#       8
#     2   2   2   2   2   2   2   2
#     4  12  24  42  66  95 135 176 219 282 326 392
#     4  11  24  42  65  94 138 176 216 279 334 398
#     4   9  21  43  68  90 135 174 213 270 338 394
#     4  11  21  40  70  97 129 175 222 284 335 387
#     4  11  24  43  67  96 132 176 224 270 341 397
#     4  12  24  41  67  96 129 174 227 271 334 394
#     4  10  23  41  66  96 132 179 221 275 335 397
#     4  12  23  42  68  98 136 174 231 272 333 402
#
# _framework density 20.552515
#
# number of rings (size 3 to 8) (size 9 to 14) (size 15 to 20)
#    0.000    1.000    5.000    1.500    0.000    3.500 
#    0.000    0.625    0.000    0.000    0.000    0.000 
#    0.000    0.000    0.000    0.000    0.000    0.000 
#
# Total GULP energy -198292.974155 kJ/mol
# GULP energy per Si atom -12393.310885 kJ/mol
# Density = 2.050574 g / cm^3
# Si number density = 20.552515 Si / 1000 Ang^3
#
#
#
# Elastic Constant Matrix: (Units=GPa)
#
#
# Indices 1 2 3 4 5 6 
#
# 1 119.2243 23.0800 53.2692 -3.5987 10.1423 -33.9628
# 2 23.0800 58.0239 53.1331 -1.0862 -2.0565 -16.9543
# 3 53.2692 53.1331 135.0646 -0.1040 14.8312 -15.2483
# 4 -3.5987 -1.0862 -0.1040 33.7780 -4.4225 0.0009
# 5 10.1423 -2.0565 14.8312 -4.4225 42.8890 -3.4852
# 6 -33.9628 -16.9543 -15.2483 0.0009 -3.4852 45.8300
#
#
#
# Elastic Compliance Matrix: (Units=1/GPa)
#
#
# Indices 1 2 3 4 5 6 
#
# 1 0.012600 0.001689 -0.004633 0.001319 -0.000479 0.008384
# 2 0.001689 0.030903 -0.012501 0.001965 0.006340 0.009006
# 3 -0.004633 -0.012501 0.014269 -0.001492 -0.004891 -0.003683
# 4 0.001319 0.001965 -0.001492 0.030268 0.003539 0.001477
# 5 -0.000479 0.006340 -0.004891 0.003539 0.025980 0.002339
# 6 0.008384 0.009006 -0.003683 0.001477 0.002339 0.030317
#
#
# Mechanical properties :
#
#
# Convention : Reuss Voigt Hill
#
# Bulk Modulus (GPa) = 37.20180 63.47527 50.33853
# Shear Modulus (GPa) = 27.14637 36.68810 31.91724
#
# Velocity S-wave (km/s) = 3.63826 4.22962 3.94504
# Velocity P-wave (km/s) = 5.98243 7.40300 6.73030
#
# Compressibility (1/GPa) = 0.02688042
#
# Stress axis : x y z
#
# Youngs Moduli (GPa) = 79.36704 32.35971 70.08152
#
# Poissons Ratio (x) = -0.05464 0.32472
# Poissons Ratio (y) = -0.13402 0.87606
# Poissons Ratio (z) = 0.36774 0.40452
#
# Static dielectric constant tensor:
#      x y z
#    x 4.180960 -0.146010 0.332520 
#    y -0.146010 4.318630 0.514980 
#    z 0.332520 0.514980 4.187000 
# 
# 
# High freq. dielectric constant tensor:
#      x y z
#    x 1.820220 -0.017540 0.016230 
#    y -0.017540 1.801550 0.018340 
#    z 0.016230 0.018340 1.813680 
# 
# From -- ./inp_files/273948.got.cif
#   From: 2010.06.25/outbox.cif.g09.slc.cpg/sg2_137_cif.got.tgz:273948.got - 2010.06.27 13:26:56.
