data_PCOD8023890
_publ_section_title
;
Structure prediction by ZEFSAII (Michael W. Deem and Ramdas Pophale) SiO2 
 PCOD8023890
Probable space group: P -1
;
_chemical_formula_sum "Si O2"
_cell_formula_units_Z 16
_cell_length_a 7.493288
_cell_length_b 15.030049
_cell_length_c 9.309103
_cell_angle_alpha 119.669199
_cell_angle_beta 93.894435
_cell_angle_gamma 124.754349
_cell_volume 652.284798
_symmetry_space_group_name_H-M "P -1"
_symmetry_group_IT_number 2
_symmetry_cell_setting 'triclinic'
loop_
_space_group_symop_operation_xyz
x,y,z
-x,-y,-z
loop_
_atom_site_type_symbol
_atom_site_label
_atom_site_fract_x
_atom_site_fract_y
_atom_site_fract_z
Si Si1 0.314547 0.616625 0.538442
Si Si2 0.478296 0.097783 0.498544
Si Si3 0.013625 0.644913 0.363277
Si Si4 0.752764 0.924207 0.265692
Si Si5 0.515856 0.355254 0.125125
Si Si6 0.170697 0.218111 0.413065
Si Si7 0.872349 0.674698 0.778943
Si Si8 0.602941 0.059375 0.894048
O O1 0.118216 0.627059 0.496377
O O2 0.418873 0.682069 0.755622
O O3 0.537735 0.698300 0.497315
O O4 0.173883 0.451032 0.402652
O O5 0.753793 0.259301 0.656480
O O6 0.274917 0.082438 0.566585
O O7 0.500000 0.000000 0.500000
O O8 0.400260 0.048010 0.286402
O O9 0.775153 0.487137 0.163695
O O10 0.915698 0.720161 0.447057
O O11 0.575816 0.935366 0.191514
O O12 0.669636 0.778947 0.096155
O O13 0.029301 0.060210 0.334096
O O14 0.368468 0.400441 0.194194
O O15 0.106378 0.222865 0.250175
O O16 0.126827 0.779687 0.966379
O O17 0.500000 0.000000 0.000000
#
# Coordination Sequence:
#
# PCOD8023890 Si02
#       8
#     2   2   2   2   2   2   2   2
#     4  11  24  37  66 104 132 170 228 272 330 394
#     4  10  23  42  67  94 132 179 218 266 334 397
#     4  12  21  41  71  90 129 185 216 269 336 391
#     4  11  24  42  63  97 135 177 215 272 332 395
#     4  11  24  38  66  95 137 175 214 276 338 385
#     4  11  21  41  65  94 141 170 214 278 334 380
#     4  11  21  40  60 101 136 167 220 283 327 388
#     4  11  21  37  67  95 125 168 220 271 326 382
#
# _framework density 24.529163
#
# number of rings (size 3 to 8) (size 9 to 14) (size 15 to 20)
#    0.000    1.000    6.250    1.875    3.500    3.500 
#    0.000    2.500    0.000    4.500    0.000    0.000 
#    0.000    0.000    0.000    0.000    0.000    0.000 
#
# Total GULP energy -198311.174955 kJ/mol
# GULP energy per Si atom -12394.448435 kJ/mol
# Density = 2.447333 g / cm^3
# Si number density = 24.529163 Si / 1000 Ang^3
#
#
#
# Elastic Constant Matrix: (Units=GPa)
#
#
# Indices 1 2 3 4 5 6 
#
# 1 56.1650 23.7378 6.6179 5.3343 2.9985 21.0145
# 2 23.7378 147.6359 51.0289 23.8532 -4.6953 40.1238
# 3 6.6179 51.0289 97.4271 6.7091 -10.7114 8.9670
# 4 5.3343 23.8532 6.7091 41.5003 6.3594 4.3150
# 5 2.9985 -4.6953 -10.7114 6.3594 34.5297 2.0709
# 6 21.0145 40.1238 8.9670 4.3150 2.0709 38.5277
#
#
#
# Elastic Compliance Matrix: (Units=1/GPa)
#
#
# Indices 1 2 3 4 5 6 
#
# 1 0.022528 -0.000040 -0.000440 -0.001389 -0.001127 -0.011928
# 2 -0.000040 0.012514 -0.004923 -0.005498 0.001871 -0.011349
# 3 -0.000440 -0.004923 0.013030 0.000054 0.003272 0.002152
# 4 -0.001389 -0.005498 0.000054 0.027962 -0.005980 0.003661
# 5 -0.001127 0.001871 0.003272 -0.005980 0.031617 -0.003125
# 6 -0.011928 -0.011349 0.002152 0.003661 -0.003125 0.043538
#
#
# Mechanical properties :
#
#
# Convention : Reuss Voigt Hill
#
# Bulk Modulus (GPa) = 26.83317 51.55524 39.19420
# Shear Modulus (GPa) = 28.66717 37.56775 33.11746
#
# Velocity S-wave (km/s) = 3.42233 3.91775 3.67839
# Velocity P-wave (km/s) = 5.15553 6.44427 5.83559
#
# Compressibility (1/GPa) = 0.03726731
#
# Stress axis : x y z
#
# Youngs Moduli (GPa) = 44.38859 79.91308 76.74517
#
# Poissons Ratio (x) = 0.00320 0.03375
# Poissons Ratio (y) = 0.00178 0.37778
# Poissons Ratio (z) = 0.01952 0.39337
#
# Static dielectric constant tensor:
#      x y z
#    x 4.574120 0.479620 -0.300280 
#    y 0.479620 4.945040 -0.186500 
#    z -0.300280 -0.186500 4.856000 
# 
# 
# High freq. dielectric constant tensor:
#      x y z
#    x 1.987680 0.021330 0.000330 
#    y 0.021330 1.981540 0.016140 
#    z 0.000330 0.016140 1.942350 
# 
# From -- ./inp_files/218297.got.cif
#   From: 2010.06.25/outbox.cif.g09.slc.cpg/sg2_110_cif.got.tgz:218297.got - 2010.06.27 13:26:56.
