data_PCOD8023394
_publ_section_title
;
Structure prediction by ZEFSAII (Michael W. Deem and Ramdas Pophale) SiO2 
 PCOD8023394
Probable space group: P -1
;
_chemical_formula_sum "Si O2"
_cell_formula_units_Z 16
_cell_length_a 6.540065
_cell_length_b 14.705270
_cell_length_c 12.268356
_cell_angle_alpha 46.500053
_cell_angle_beta 84.237167
_cell_angle_gamma 67.680172
_cell_volume 768.610522
_symmetry_space_group_name_H-M "P -1"
_symmetry_group_IT_number 2
_symmetry_cell_setting 'triclinic'
loop_
_space_group_symop_operation_xyz
x,y,z
-x,-y,-z
loop_
_atom_site_type_symbol
_atom_site_label
_atom_site_fract_x
_atom_site_fract_y
_atom_site_fract_z
Si Si1 0.929975 0.370961 0.858798
Si Si2 0.820159 0.209200 0.355292
Si Si3 0.631381 0.907583 0.907964
Si Si4 0.574337 0.358735 0.051154
Si Si5 0.310393 0.024762 0.397450
Si Si6 0.263510 0.911771 0.079495
Si Si7 0.412818 0.599456 0.322391
Si Si8 0.776763 0.499239 0.207021
O O1 0.789636 0.420040 0.713951
O O2 0.975672 0.501998 0.790216
O O3 0.784609 0.330690 0.984701
O O4 0.167017 0.236194 0.943906
O O5 0.657199 0.235709 0.235808
O O6 0.780403 0.350593 0.303154
O O7 0.081059 0.145320 0.357582
O O8 0.745924 0.108115 0.513392
O O9 0.620036 0.931264 0.758142
O O10 0.657171 0.031840 0.866323
O O11 0.394210 0.910454 0.960432
O O12 0.500000 0.500000 0.000000
O O13 0.351243 0.379459 0.977128
O O14 0.500000 0.000000 0.500000
O O15 0.311799 0.756949 0.237645
O O16 0.000000 0.000000 0.000000
O O17 0.500000 0.500000 0.500000
O O18 0.638932 0.556921 0.275833
#
# Coordination Sequence:
#
# PCOD8023394 Si02
#       8
#     2   2   2   2   2   2   2   2
#     4  11  21  41  68  96 125 175 221 277 327 408
#     4  10  23  42  61 100 134 179 211 273 339 387
#     4  11  24  44  70  98 127 177 239 273 335 412
#     4   9  20  37  64  90 127 168 215 262 320 396
#     4  11  26  42  66  97 139 178 227 274 332 402
#     4  11  24  46  74  97 130 180 232 282 342 407
#     4  11  25  43  66 100 137 170 220 291 346 396
#     4  10  23  41  66  96 130 171 219 271 339 404
#
# _framework density 20.816784999999999
#
# number of rings (size 3 to 8) (size 9 to 14) (size 15 to 20)
#    0.000    1.500    3.750    0.000    3.500    7.500 
#    0.000    0.000    0.000    0.000    0.000    0.000 
#    0.000    0.000    0.000    0.000    0.000    0.000 
#
# Total GULP energy -198295.821241 kJ/mol
# GULP energy per Si atom -12393.488828 kJ/mol
# Density = 2.076941 g / cm^3
# Si number density = 20.816785 Si / 1000 Ang^3
#
#
#
# Elastic Constant Matrix: (Units=GPa)
#
#
# Indices 1 2 3 4 5 6 
#
# 1 104.1717 31.4421 41.5508 0.0039 8.9080 3.3221
# 2 31.4421 80.6458 38.5265 -7.3386 2.0998 -2.3179
# 3 41.5508 38.5265 133.9214 4.9872 13.1758 0.1573
# 4 0.0039 -7.3386 4.9872 37.1184 3.7960 -0.5752
# 5 8.9080 2.0998 13.1758 3.7960 23.6051 -5.2149
# 6 3.3221 -2.3179 0.1573 -0.5752 -5.2149 38.0011
#
#
#
# Elastic Compliance Matrix: (Units=1/GPa)
#
#
# Indices 1 2 3 4 5 6 
#
# 1 0.011930 -0.003487 -0.002376 -0.000067 -0.003228 -0.001690
# 2 -0.003487 0.015891 -0.003800 0.003492 0.001813 0.001592
# 3 -0.002376 -0.003800 0.009763 -0.001654 -0.004092 -0.000651
# 4 -0.000067 0.003492 -0.001654 0.028252 -0.003878 0.000121
# 5 -0.003228 0.001813 -0.004092 -0.003878 0.047857 0.006918
# 6 -0.001690 0.001592 -0.000651 0.000121 0.006918 0.027514
#
#
# Mechanical properties :
#
#
# Convention : Reuss Voigt Hill
#
# Bulk Modulus (GPa) = 54.77257 60.19754 57.48506
# Shear Modulus (GPa) = 30.00891 33.55955 31.78423
#
# Velocity S-wave (km/s) = 3.80092 4.01950 3.91174
# Velocity P-wave (km/s) = 6.75511 7.10791 6.93376
#
# Compressibility (1/GPa) = 0.01825731
#
# Stress axis : x y z
#
# Youngs Moduli (GPa) = 83.82517 62.92906 102.43276
#
# Poissons Ratio (x) = 0.21941 0.24340
# Poissons Ratio (y) = 0.29226 0.38925
# Poissons Ratio (z) = 0.19919 0.23913
#
# Static dielectric constant tensor:
#      x y z
#    x 3.956260 0.085160 0.208130 
#    y 0.085160 3.820760 0.040590 
#    z 0.208130 0.040590 3.288620 
# 
# 
# High freq. dielectric constant tensor:
#      x y z
#    x 1.823640 0.001790 0.007250 
#    y 0.001790 1.825440 -0.005090 
#    z 0.007250 -0.005090 1.807540 
# 
# From -- ./inp_files/84256.got.cif
#   From: 2010.06.25/outbox.cif.g09.slc.cpg/sg2_43_cif.got.tgz:84256.got - 2010.06.27 13:26:56.
