data_PCOD8023844
_publ_section_title
;
Structure prediction by ZEFSAII (Michael W. Deem and Ramdas Pophale) SiO2 
 PCOD8023844
Probable space group: P -1
;
_chemical_formula_sum "Si O2"
_cell_formula_units_Z 16
_cell_length_a 10.416726
_cell_length_b 8.699457
_cell_length_c 9.391841
_cell_angle_alpha 115.790774
_cell_angle_beta 65.587530
_cell_angle_gamma 92.294381
_cell_volume 687.579657
_symmetry_space_group_name_H-M "P -1"
_symmetry_group_IT_number 2
_symmetry_cell_setting 'triclinic'
loop_
_space_group_symop_operation_xyz
x,y,z
-x,-y,-z
loop_
_atom_site_type_symbol
_atom_site_label
_atom_site_fract_x
_atom_site_fract_y
_atom_site_fract_z
Si Si1 0.319182 0.301949 0.302821
Si Si2 0.872333 0.125700 0.806837
Si Si3 0.831876 0.846680 0.920753
Si Si4 0.557406 0.068906 0.255053
Si Si5 0.100659 0.641161 0.859231
Si Si6 0.318305 0.672575 0.525644
Si Si7 0.132985 0.258001 0.626084
Si Si8 0.315419 0.917471 0.384327
O O1 0.259521 0.286266 0.164521
O O2 0.449736 0.144371 0.206836
O O3 0.382616 0.477647 0.369832
O O4 0.176711 0.302810 0.464628
O O5 0.739048 0.102163 0.760003
O O6 0.994519 0.164785 0.658376
O O7 0.915160 0.948484 0.808137
O O8 0.835280 0.285319 0.999129
O O9 0.938991 0.742302 0.945030
O O10 0.719593 0.996593 0.108648
O O11 0.559299 0.232233 0.425501
O O12 0.487047 0.914190 0.296666
O O13 0.188596 0.673889 0.693329
O O14 0.107209 0.435099 0.801648
O O15 0.265635 0.770661 0.443659
O O16 0.259708 0.106441 0.559142
#
# Coordination Sequence:
#
# PCOD8023844 Si02
#       8
#     2   2   2   2   2   2   2   2
#     4  10  24  43  69  98 126 175 216 270 321 380
#     4  12  23  43  65  99 132 174 208 269 329 383
#     4  12  24  42  68  95 135 172 218 262 322 394
#     4  11  23  46  66  92 131 176 219 263 323 386
#     4  11  26  42  67 101 130 172 215 265 328 382
#     4  11  24  44  71  97 129 168 223 272 315 388
#     4  10  23  42  66  97 133 166 212 271 320 385
#     4  11  25  43  70  97 129 174 217 265 328 379
#
# _framework density 23.270033000000002
#
# number of rings (size 3 to 8) (size 9 to 14) (size 15 to 20)
#    0.000    1.000    3.750    3.000    5.250    1.000 
#    0.000    1.875    0.000    0.000    0.000    0.000 
#    0.000    0.000    0.000    0.000    0.000    0.000 
#
# Total GULP energy -198281.576700 kJ/mol
# GULP energy per Si atom -12392.598544 kJ/mol
# Density = 2.321707 g / cm^3
# Si number density = 23.270033 Si / 1000 Ang^3
#
#
#
# Elastic Constant Matrix: (Units=GPa)
#
#
# Indices 1 2 3 4 5 6 
#
# 1 82.2868 32.5876 37.2906 7.6977 -1.4548 6.1896
# 2 32.5876 117.4742 44.3847 5.2025 -5.7399 6.5956
# 3 37.2906 44.3847 74.0606 21.4144 5.6790 -2.6420
# 4 7.6977 5.2025 21.4144 36.1426 5.6993 0.6586
# 5 -1.4548 -5.7399 5.6790 5.6993 29.8977 1.9446
# 6 6.1896 6.5956 -2.6420 0.6586 1.9446 34.9079
#
#
#
# Elastic Compliance Matrix: (Units=1/GPa)
#
#
# Indices 1 2 3 4 5 6 
#
# 1 0.016561 -0.001234 -0.008253 0.001269 0.002120 -0.003470
# 2 -0.001234 0.011959 -0.007658 0.002598 0.003381 -0.002858
# 3 -0.008253 -0.007658 0.026300 -0.012045 -0.004923 0.005402
# 4 0.001269 0.002598 -0.012045 0.034773 -0.003645 -0.002080
# 5 0.002120 0.003381 -0.004923 -0.003645 0.036046 -0.003327
# 6 -0.003470 -0.002858 0.005402 -0.002080 -0.003327 0.030435
#
#
# Mechanical properties :
#
#
# Convention : Reuss Voigt Hill
#
# Bulk Modulus (GPa) = 48.70635 55.81638 52.26137
# Shear Modulus (GPa) = 25.35407 30.82686 28.09046
#
# Velocity S-wave (km/s) = 3.30443 3.64365 3.47818
# Velocity P-wave (km/s) = 5.96115 6.46065 6.21592
#
# Compressibility (1/GPa) = 0.02053120
#
# Stress axis : x y z
#
# Youngs Moduli (GPa) = 60.38324 83.62066 38.02263
#
# Poissons Ratio (x) = 0.10317 0.31378
# Poissons Ratio (y) = 0.07450 0.29118
# Poissons Ratio (z) = 0.49831 0.64037
#
# Static dielectric constant tensor:
#      x y z
#    x 3.859860 0.257700 0.050070 
#    y 0.257700 4.460660 0.110120 
#    z 0.050070 0.110120 4.197920 
# 
# 
# High freq. dielectric constant tensor:
#      x y z
#    x 1.901720 0.024650 0.007740 
#    y 0.024650 1.927570 0.005150 
#    z 0.007740 0.005150 1.915040 
# 
# From -- ./inp_files/243206.got.cif
#   From: 2010.06.25/outbox.cif.g09.slc.cpg/sg2_122_cif.got.tgz:243206.got - 2010.06.27 13:26:56.
