data_PCOD8023564
_publ_section_title
;
Structure prediction by ZEFSAII (Michael W. Deem and Ramdas Pophale) SiO2 
 PCOD8023564
Probable space group: P -1
;
_chemical_formula_sum "Si O2"
_cell_formula_units_Z 12
_cell_length_a 8.691154
_cell_length_b 10.902796
_cell_length_c 9.260820
_cell_angle_alpha 131.159838
_cell_angle_beta 69.931130
_cell_angle_gamma 121.052860
_cell_volume 565.986561
_symmetry_space_group_name_H-M "P -1"
_symmetry_group_IT_number 2
_symmetry_cell_setting 'triclinic'
loop_
_space_group_symop_operation_xyz
x,y,z
-x,-y,-z
loop_
_atom_site_type_symbol
_atom_site_label
_atom_site_fract_x
_atom_site_fract_y
_atom_site_fract_z
Si Si1 0.958968 0.375271 0.778901
Si Si2 0.694382 0.007241 0.477722
Si Si3 0.180469 0.983750 0.878790
Si Si4 0.629856 0.684034 0.768849
Si Si5 0.962227 0.614762 0.716468
Si Si6 0.315575 0.321371 0.583210
O O1 0.906192 0.500601 0.788940
O O2 0.125893 0.333095 0.645428
O O3 0.794087 0.179814 0.682793
O O4 0.000000 0.500000 0.000000
O O5 0.802335 0.018306 0.302582
O O6 0.683129 0.831681 0.429196
O O7 0.500000 0.000000 0.500000
O O8 0.150316 0.791531 0.806255
O O9 0.357922 0.137677 0.012334
O O10 0.000000 0.000000 0.000000
O O11 0.455572 0.513843 0.743785
O O12 0.628978 0.716388 0.623063
O O13 0.802319 0.658880 0.746388
O O14 0.000000 0.500000 0.500000
#
# Coordination Sequence:
#
# PCOD8023564 Si02
#       6
#     2   2   2   2   2   2
#     4  12  27  41  66 102 136 175 217 278 338 393
#     4  12  27  46  69 101 137 178 226 280 335 400
#     4  10  23  41  70  94 128 182 223 265 334 400
#     4  10  23  43  68  98 129 182 219 275 335 399
#     4  11  20  43  66  92 134 173 222 267 332 404
#     4  11  25  44  67  97 141 169 226 282 334 394
#
# _framework density 21.201917999999999
#
# number of rings (size 3 to 8) (size 9 to 14) (size 15 to 20)
#    0.000    1.000    3.333    2.500    9.333    0.667 
#    0.000    1.667    0.000    0.000    0.000    0.000 
#    0.000    0.000    0.000    0.000    0.000    0.000 
#
# Total GULP energy -148681.386564 kJ/mol
# GULP energy per Si atom -12390.115547 kJ/mol
# Density = 2.115366 g / cm^3
# Si number density = 21.201918 Si / 1000 Ang^3
#
#
#
# Elastic Constant Matrix: (Units=GPa)
#
#
# Indices 1 2 3 4 5 6 
#
# 1 73.3910 41.7568 11.7833 10.6439 2.8866 7.1621
# 2 41.7568 152.0067 36.0243 31.6054 5.8901 6.1246
# 3 11.7833 36.0243 106.9185 21.8768 12.0901 17.3094
# 4 10.6439 31.6054 21.8768 52.7840 8.5236 11.6576
# 5 2.8866 5.8901 12.0901 8.5236 28.0929 6.8418
# 6 7.1621 6.1246 17.3094 11.6576 6.8418 37.5067
#
#
#
# Elastic Compliance Matrix: (Units=1/GPa)
#
#
# Indices 1 2 3 4 5 6 
#
# 1 0.016366 -0.004385 0.000113 -0.000167 -0.000181 -0.002376
# 2 -0.004385 0.009033 -0.002002 -0.004072 0.000289 0.001499
# 3 0.000113 -0.002002 0.011410 -0.002260 -0.002909 -0.003727
# 4 -0.000167 -0.004072 -0.002260 0.024144 -0.004268 -0.004986
# 5 -0.000181 0.000289 -0.002909 -0.004268 0.039195 -0.004493
# 6 -0.002376 0.001499 -0.003727 -0.004986 -0.004493 0.030960
#
#
# Mechanical properties :
#
#
# Convention : Reuss Voigt Hill
#
# Bulk Modulus (GPa) = 41.21976 56.82724 49.02350
# Shear Modulus (GPa) = 32.95043 39.86017 36.40530
#
# Velocity S-wave (km/s) = 3.94652 4.34063 4.14826
# Velocity P-wave (km/s) = 6.34432 7.20989 6.79091
#
# Compressibility (1/GPa) = 0.02426021
#
# Stress axis : x y z
#
# Youngs Moduli (GPa) = 61.10359 110.70681 87.64363
#
# Poissons Ratio (x) = 0.48545 -0.00993
# Poissons Ratio (y) = 0.26794 0.17550
# Poissons Ratio (z) = -0.00692 0.22168
#
# Static dielectric constant tensor:
#      x y z
#    x 3.628860 0.230520 0.187310 
#    y 0.230520 4.689220 0.703480 
#    z 0.187310 0.703480 4.298690 
# 
# 
# High freq. dielectric constant tensor:
#      x y z
#    x 1.820660 0.001140 0.007440 
#    y 0.001140 1.853580 0.019140 
#    z 0.007440 0.019140 1.842660 
# 
# From -- ./inp_files/145638.got.cif
#   From: 2010.06.25/outbox.cif.g09.slc.cpg/sg2_73_cif.got.tgz:145638.got - 2010.06.27 13:26:56.
