data_PCOD8023466
_publ_section_title
;
Structure prediction by ZEFSAII (Michael W. Deem and Ramdas Pophale) SiO2 
 PCOD8023466
Probable space group: P -1
;
_chemical_formula_sum "Si O2"
_cell_formula_units_Z 16
_cell_length_a 16.225835
_cell_length_b 10.831307
_cell_length_c 8.881574
_cell_angle_alpha 44.198219
_cell_angle_beta 93.282332
_cell_angle_gamma 124.035326
_cell_volume 724.456786
_symmetry_space_group_name_H-M "P -1"
_symmetry_group_IT_number 2
_symmetry_cell_setting 'triclinic'
loop_
_space_group_symop_operation_xyz
x,y,z
-x,-y,-z
loop_
_atom_site_type_symbol
_atom_site_label
_atom_site_fract_x
_atom_site_fract_y
_atom_site_fract_z
Si Si1 0.405509 0.932690 0.166828
Si Si2 0.960569 0.280306 0.577471
Si Si3 0.853833 0.987169 0.105275
Si Si4 0.198345 0.471552 0.356742
Si Si5 0.067130 0.522297 0.846077
Si Si6 0.555563 0.274838 0.391618
Si Si7 0.695941 0.289455 0.164536
Si Si8 0.396328 0.306754 0.778742
O O1 0.268414 0.693354 0.297491
O O2 0.414731 0.849707 0.397140
O O3 0.500000 0.000000 0.000000
O O4 0.426631 0.174590 0.985568
O O5 0.878791 0.239768 0.470757
O O6 0.000000 0.500000 0.500000
O O7 0.067642 0.357656 0.425093
O O8 0.896819 0.029618 0.896623
O O9 0.814926 0.747197 0.392863
O O10 0.731267 0.912001 0.138420
O O11 0.959900 0.245544 0.989362
O O12 0.272116 0.593330 0.101702
O O13 0.179883 0.576201 0.856603
O O14 0.000000 0.500000 0.000000
O O15 0.634980 0.365243 0.170261
O O16 0.603080 0.532423 0.242675
O O17 0.406065 0.033344 0.564087
O O18 0.500000 0.500000 0.500000
#
# Coordination Sequence:
#
# PCOD8023466 Si02
#       8
#     2   2   2   2   2   2   2   2
#     4  12  22  42  75 102 135 184 237 305 348 406
#     4  10  23  41  68 101 131 180 237 292 345 410
#     4  11  26  42  70 108 131 182 244 295 351 413
#     4  12  22  45  69 100 143 181 236 294 358 426
#     4  11  24  46  68 100 144 189 231 289 361 433
#     4  11  26  47  70 108 142 193 241 294 355 428
#     4  11  26  46  70  99 155 191 230 291 369 431
#     4  12  24  43  76 106 135 179 247 298 351 417
#
# _framework density 22.085512999999999
#
# number of rings (size 3 to 8) (size 9 to 14) (size 15 to 20)
#    0.000    0.750    5.000    1.875    7.000    1.500 
#    2.250    2.500    0.000    0.000    0.000    0.000 
#    0.000    0.000    0.000    0.000    0.000    0.000 
#
# Total GULP energy -198308.422915 kJ/mol
# GULP energy per Si atom -12394.276432 kJ/mol
# Density = 2.203525 g / cm^3
# Si number density = 22.085513 Si / 1000 Ang^3
#
#
#
# Elastic Constant Matrix: (Units=GPa)
#
#
# Indices 1 2 3 4 5 6 
#
# 1 114.3138 40.2210 48.9154 -5.5183 -0.3042 -2.2647
# 2 40.2210 104.2639 41.4333 -2.9564 -1.8966 6.8454
# 3 48.9154 41.4333 108.1197 9.9752 -3.4564 -5.3521
# 4 -5.5183 -2.9564 9.9752 38.2790 -2.6274 -6.9356
# 5 -0.3042 -1.8966 -3.4564 -2.6274 49.5141 -1.8884
# 6 -2.2647 6.8454 -5.3521 -6.9356 -1.8884 37.4686
#
#
#
# Elastic Compliance Matrix: (Units=1/GPa)
#
#
# Indices 1 2 3 4 5 6 
#
# 1 0.011801 -0.002760 -0.004495 0.002847 -0.000154 0.001095
# 2 -0.002760 0.012342 -0.003708 0.001033 0.000147 -0.002753
# 3 -0.004495 -0.003708 0.013173 -0.004042 0.000595 0.001569
# 4 0.002847 0.001033 -0.004042 0.028635 0.001477 0.004781
# 5 -0.000154 0.000147 0.000595 0.001477 0.020372 0.001349
# 6 0.001095 -0.002753 0.001569 0.004781 0.001349 0.028435
#
#
# Mechanical properties :
#
#
# Convention : Reuss Voigt Hill
#
# Bulk Modulus (GPa) = 64.97422 65.31522 65.14472
# Shear Modulus (GPa) = 35.25747 38.12751 36.69249
#
# Velocity S-wave (km/s) = 3.99984 4.15945 4.08043
# Velocity P-wave (km/s) = 7.12846 7.25989 7.19448
#
# Compressibility (1/GPa) = 0.01539072
#
# Stress axis : x y z
#
# Youngs Moduli (GPa) = 84.73839 81.02473 75.91315
#
# Poissons Ratio (x) = 0.22365 0.34120
# Poissons Ratio (y) = 0.23390 0.28146
# Poissons Ratio (z) = 0.38087 0.30042
#
# Static dielectric constant tensor:
#      x y z
#    x 4.116940 0.163990 -0.121000 
#    y 0.163990 4.197810 0.104710 
#    z -0.121000 0.104710 4.443820 
# 
# 
# High freq. dielectric constant tensor:
#      x y z
#    x 1.876150 0.010150 -0.009370 
#    y 0.010150 1.865020 0.012310 
#    z -0.009370 0.012310 1.879940 
# 
# From -- ./inp_files/332743.got.cif
#   From: 2010.06.25/outbox.cif.g09.slc.cpg/sg2_167_cif.got.tgz:332743.got - 2010.06.27 13:26:56.
