data_PCOD8023672
_publ_section_title
;
Structure prediction by ZEFSAII (Michael W. Deem and Ramdas Pophale) SiO2 
 PCOD8023672
Probable space group: P -1
;
_chemical_formula_sum "Si O2"
_cell_formula_units_Z 12
_cell_length_a 11.555012
_cell_length_b 9.038471
_cell_length_c 15.840921
_cell_angle_alpha 31.231167
_cell_angle_beta 141.701402
_cell_angle_gamma 125.238377
_cell_volume 508.336333
_symmetry_space_group_name_H-M "P -1"
_symmetry_group_IT_number 2
_symmetry_cell_setting 'triclinic'
loop_
_space_group_symop_operation_xyz
x,y,z
-x,-y,-z
loop_
_atom_site_type_symbol
_atom_site_label
_atom_site_fract_x
_atom_site_fract_y
_atom_site_fract_z
Si Si1 0.333094 0.672710 0.573246
Si Si2 0.361635 0.102111 0.790516
Si Si3 0.009832 0.653803 0.170580
Si Si4 0.345591 0.195785 0.216274
Si Si5 0.933020 0.256240 0.461303
Si Si6 0.343747 0.094979 0.599218
O O1 0.333039 0.459603 0.598388
O O2 0.540144 0.582167 0.787785
O O3 0.167089 0.637988 0.558503
O O4 0.289533 0.009729 0.351407
O O5 0.445152 0.983652 0.803269
O O6 0.151755 0.041773 0.709865
O O7 0.500000 0.000000 0.000000
O O8 0.951165 0.545328 0.279751
O O9 0.222518 0.446709 0.362736
O O10 0.851125 0.610454 0.033748
O O11 0.000000 0.000000 0.000000
O O12 0.487812 0.965168 0.344600
O O13 0.812668 0.082106 0.422870
#
# Coordination Sequence:
#
# PCOD8023672 Si02
#       6
#     2   2   2   2   2   2
#     4  10  23  42  62  97 132 168 214 276 322 385
#     4  11  23  36  64  99 130 162 216 275 323 376
#     4  11  23  39  70  96 127 173 221 267 325 385
#     4  10  23  44  67  91 135 173 217 267 331 384
#     4  10  23  45  68  91 134 172 224 262 322 400
#     4  10  24  45  67  96 130 177 221 267 315 404
#
# _framework density 23.606418000000001
#
# number of rings (size 3 to 8) (size 9 to 14) (size 15 to 20)
#    0.000    1.667    0.000    4.500    7.000    4.000 
#    3.000    2.500    0.000    0.000    0.000    0.000 
#    0.000    0.000    0.000    0.000    0.000    0.000 
#
# Total GULP energy -148744.112269 kJ/mol
# GULP energy per Si atom -12395.342689 kJ/mol
# Density = 2.355269 g / cm^3
# Si number density = 23.606418 Si / 1000 Ang^3
#
#
#
# Elastic Constant Matrix: (Units=GPa)
#
#
# Indices 1 2 3 4 5 6 
#
# 1 76.8854 20.1519 21.6846 8.0489 -23.2873 -7.7281
# 2 20.1519 98.3642 15.4239 15.6328 -8.2307 -13.8901
# 3 21.6846 15.4239 93.1126 28.2163 -10.6473 7.0870
# 4 8.0489 15.6328 28.2163 50.2948 -1.6840 -2.6273
# 5 -23.2873 -8.2307 -10.6473 -1.6840 26.4125 -1.5943
# 6 -7.7281 -13.8901 7.0870 -2.6273 -1.5943 30.7506
#
#
#
# Elastic Compliance Matrix: (Units=1/GPa)
#
#
# Indices 1 2 3 4 5 6 
#
# 1 0.019656 -0.001371 -0.002872 -0.000267 0.016078 0.005793
# 2 -0.001371 0.011935 -0.001014 -0.002576 0.002250 0.005177
# 3 -0.002872 -0.001014 0.014502 -0.007551 0.002212 -0.005052
# 4 -0.000267 -0.002576 -0.007551 0.025016 -0.002335 0.002526
# 5 0.016078 0.002250 0.002212 -0.002335 0.053911 0.007143
# 6 0.005793 0.005177 -0.005052 0.002526 0.007143 0.038065
#
#
# Mechanical properties :
#
#
# Convention : Reuss Voigt Hill
#
# Bulk Modulus (GPa) = 28.10613 42.54256 35.32434
# Shear Modulus (GPa) = 26.96042 35.56504 31.26273
#
# Velocity S-wave (km/s) = 3.38313 3.88568 3.64309
# Velocity P-wave (km/s) = 5.21467 6.17998 5.71773
#
# Compressibility (1/GPa) = 0.03557942
#
# Stress axis : x y z
#
# Youngs Moduli (GPa) = 50.87624 83.78908 68.95533
#
# Poissons Ratio (x) = 0.11485 0.19803
# Poissons Ratio (y) = 0.06973 0.06992
# Poissons Ratio (z) = 0.14611 0.08496
#
# Static dielectric constant tensor:
#      x y z
#    x 4.095580 -0.026760 0.071190 
#    y -0.026760 4.624130 0.309930 
#    z 0.071190 0.309930 4.233160 
# 
# 
# High freq. dielectric constant tensor:
#      x y z
#    x 1.920730 -0.000140 -0.008820 
#    y -0.000140 1.959690 0.021310 
#    z -0.008820 0.021310 1.926950 
# 
# From -- ./inp_files/153109.got.cif
#   From: 2010.06.25/outbox.cif.g09.slc.cpg/sg2_77_cif.got.tgz:153109.got - 2010.06.27 13:26:56.
