data_PCOD8023943
_publ_section_title
;
Structure prediction by ZEFSAII (Michael W. Deem and Ramdas Pophale) SiO2 
 PCOD8023943
Probable space group: P -1
;
_chemical_formula_sum "Si O2"
_cell_formula_units_Z 14
_cell_length_a 18.736464
_cell_length_b 13.477515
_cell_length_c 9.765383
_cell_angle_alpha 34.982335
_cell_angle_beta 44.489366
_cell_angle_gamma 27.436312
_cell_volume 650.535391
_symmetry_space_group_name_H-M "P -1"
_symmetry_group_IT_number 2
_symmetry_cell_setting 'triclinic'
loop_
_space_group_symop_operation_xyz
x,y,z
-x,-y,-z
loop_
_atom_site_type_symbol
_atom_site_label
_atom_site_fract_x
_atom_site_fract_y
_atom_site_fract_z
Si Si1 0.176354 0.780844 0.059698
Si Si2 0.681204 0.369249 0.242788
Si Si3 0.363353 0.839086 0.233184
Si Si4 0.189179 0.042134 0.988425
Si Si5 0.093713 0.745721 0.749214
Si Si6 0.358004 0.206952 0.856691
Si Si7 0.344997 0.217051 0.554685
O O1 0.230659 0.517076 0.322352
O O2 0.293524 0.699712 0.873385
O O3 0.200765 0.890340 0.021373
O O4 0.000000 0.000000 0.000000
O O5 0.534300 0.681406 0.122350
O O6 0.631153 0.261365 0.515224
O O7 0.842877 0.237064 0.224008
O O8 0.285102 0.835165 0.219351
O O9 0.268721 0.136950 0.051586
O O10 0.249095 0.158223 0.739712
O O11 0.011646 0.275204 0.023390
O O12 0.238025 0.500933 0.739763
O O13 0.000000 0.000000 0.500000
O O14 0.403489 0.193158 0.653690
O O15 0.500000 0.000000 0.000000
O O16 0.500000 0.000000 0.500000
#
# Coordination Sequence:
#
# PCOD8023943 Si02
#       7
#     2   2   2   2   2   2   2
#     4  12  26  45  71 101 144 190 227 284 360 417
#     4  11  23  42  68 100 138 177 236 281 345 420
#     4  10  23  42  68 102 131 179 236 292 343 416
#     4  11  25  46  71 102 142 184 236 295 354 406
#     4  12  23  43  73 102 141 177 231 298 347 408
#     4  11  24  43  73 102 136 182 231 289 354 406
#     4  11  28  47  70 106 145 184 237 287 348 431
#
# _framework density 21.520734999999998
#
# number of rings (size 3 to 8) (size 9 to 14) (size 15 to 20)
#    0.000    0.857    4.286    2.571    0.000    7.429 
#    0.000    0.000    0.000    0.000    0.000    0.000 
#    0.000    0.000    0.000    0.000    0.000    0.000 
#
# Total GULP energy -173436.700082 kJ/mol
# GULP energy per Si atom -12388.335720 kJ/mol
# Density = 2.147175 g / cm^3
# Si number density = 21.520735 Si / 1000 Ang^3
#
#
#
# Elastic Constant Matrix: (Units=GPa)
#
#
# Indices 1 2 3 4 5 6 
#
# 1 124.3247 54.8632 51.3708 -2.2656 10.9741 7.7888
# 2 54.8632 133.7541 76.8659 3.7482 7.0027 4.6472
# 3 51.3708 76.8659 114.0538 2.0893 10.0624 10.7814
# 4 -2.2656 3.7482 2.0893 45.8252 -2.4859 1.4267
# 5 10.9741 7.0027 10.0624 -2.4859 36.2597 4.6422
# 6 7.7888 4.6472 10.7814 1.4267 4.6422 42.0251
#
#
#
# Elastic Compliance Matrix: (Units=1/GPa)
#
#
# Indices 1 2 3 4 5 6 
#
# 1 0.010574 -0.002655 -0.002757 0.000794 -0.001767 -0.000791
# 2 -0.002655 0.012915 -0.007609 -0.000860 0.000231 0.001020
# 3 -0.002757 -0.007609 0.015523 -0.000239 -0.001709 -0.002433
# 4 0.000794 -0.000860 -0.000239 0.022059 0.001622 -0.000919
# 5 -0.001767 0.000231 -0.001709 0.001622 0.028976 -0.002516
# 6 -0.000791 0.001020 -0.002433 -0.000919 -0.002516 0.024762
#
#
# Mechanical properties :
#
#
# Convention : Reuss Voigt Hill
#
# Bulk Modulus (GPa) = 77.10620 82.03695 79.57157
# Shear Modulus (GPa) = 34.44097 37.42416 35.93256
#
# Velocity S-wave (km/s) = 4.00479 4.17463 4.09059
# Velocity P-wave (km/s) = 7.56909 7.83833 7.70489
#
# Compressibility (1/GPa) = 0.01296913
#
# Stress axis : x y z
#
# Youngs Moduli (GPa) = 94.56775 77.43064 64.42094
#
# Poissons Ratio (x) = 0.20559 0.17763
# Poissons Ratio (y) = 0.25109 0.49018
# Poissons Ratio (z) = 0.26076 0.58917
#
# Static dielectric constant tensor:
#      x y z
#    x 4.189020 0.068420 0.168460 
#    y 0.068420 3.598800 -0.040430 
#    z 0.168460 -0.040430 3.976530 
# 
# 
# High freq. dielectric constant tensor:
#      x y z
#    x 1.855340 0.002850 0.010960 
#    y 0.002850 1.852050 0.003630 
#    z 0.010960 0.003630 1.849150 
# 
# From -- ./inp_files/244562.got.cif
#   From: 2010.06.25/outbox.cif.g09.slc.cpg/sg2_123_cif.got.tgz:244562.got - 2010.06.27 13:26:56.
