data_PCOD8023444
_publ_section_title
;
Structure prediction by ZEFSAII (Michael W. Deem and Ramdas Pophale) SiO2 
 PCOD8023444
Probable space group: P -1
;
_chemical_formula_sum "Si O2"
_cell_formula_units_Z 16
_cell_length_a 12.158923
_cell_length_b 10.353404
_cell_length_c 10.586718
_cell_angle_alpha 50.042374
_cell_angle_beta 131.624386
_cell_angle_gamma 122.834315
_cell_volume 747.922126
_symmetry_space_group_name_H-M "P -1"
_symmetry_group_IT_number 2
_symmetry_cell_setting 'triclinic'
loop_
_space_group_symop_operation_xyz
x,y,z
-x,-y,-z
loop_
_atom_site_type_symbol
_atom_site_label
_atom_site_fract_x
_atom_site_fract_y
_atom_site_fract_z
Si Si1 0.426028 0.761036 0.713817
Si Si2 0.817301 0.992792 0.227396
Si Si3 0.569829 0.846837 0.511323
Si Si4 0.278197 0.191859 0.958396
Si Si5 0.717186 0.179661 0.832369
Si Si6 0.853688 0.842450 0.598478
Si Si7 0.952545 0.513912 0.808700
Si Si8 0.874357 0.509626 0.291972
O O1 0.503275 0.744151 0.648602
O O2 0.274872 0.621851 0.697722
O O3 0.385829 0.948206 0.570058
O O4 0.546423 0.727384 0.931851
O O5 0.752900 0.816549 0.211606
O O6 0.794059 0.969009 0.373571
O O7 0.993678 0.056294 0.285584
O O8 0.732369 0.142401 0.018207
O O9 0.450022 0.794758 0.339732
O O10 0.724299 0.783710 0.639467
O O11 0.165011 0.300275 0.865442
O O12 0.248480 0.989922 0.111095
O O13 0.835226 0.347464 0.776488
O O14 0.879440 0.680227 0.639146
O O15 0.083760 0.537633 0.788932
O O16 0.000000 0.500000 0.000000
O O17 0.000000 0.500000 0.500000
#
# Coordination Sequence:
#
# PCOD8023444 Si02
#       8
#     2   2   2   2   2   2   2   2
#     4  10  23  43  64  98 130 168 225 267 331 392
#     4   9  21  41  64  96 131 173 219 262 325 408
#     4  10  23  41  67  95 129 175 214 274 327 390
#     4   9  21  44  64  93 128 173 216 270 323 386
#     4   9  21  44  63  93 136 167 219 270 321 399
#     4  11  23  40  68  94 137 173 216 268 335 390
#     4  12  25  43  63 105 133 170 223 271 328 391
#     4  12  26  41  71  96 134 176 221 278 327 392
#
# _framework density 21.392600999999999
#
# number of rings (size 3 to 8) (size 9 to 14) (size 15 to 20)
#    0.750    1.000    1.250    1.875    7.000    1.500 
#    2.250    0.000    0.000    0.000    0.000    0.000 
#    0.000    0.000    0.000    0.000    0.000    0.000 
#
# Total GULP energy -198243.141579 kJ/mol
# GULP energy per Si atom -12390.196349 kJ/mol
# Density = 2.134391 g / cm^3
# Si number density = 21.392601 Si / 1000 Ang^3
#
#
#
# Elastic Constant Matrix: (Units=GPa)
#
#
# Indices 1 2 3 4 5 6 
#
# 1 121.4084 48.8252 26.6781 9.7751 -1.8450 11.2673
# 2 48.8252 119.5885 45.0653 15.3152 6.9436 18.5462
# 3 26.6781 45.0653 85.9732 27.1792 -3.4857 8.4028
# 4 9.7751 15.3152 27.1792 37.1902 -2.8262 5.0775
# 5 -1.8450 6.9436 -3.4857 -2.8262 30.2254 -2.4342
# 6 11.2673 18.5462 8.4028 5.0775 -2.4342 29.7007
#
#
#
# Elastic Compliance Matrix: (Units=1/GPa)
#
#
# Indices 1 2 3 4 5 6 
#
# 1 0.010042 -0.003584 -0.001023 -0.000166 0.001210 -0.001154
# 2 -0.003584 0.012930 -0.005263 -0.000101 -0.004253 -0.005557
# 3 -0.001023 -0.005263 0.018134 -0.010720 0.002281 0.000564
# 4 -0.000166 -0.000101 -0.010720 0.035322 0.001860 -0.002727
# 5 0.001210 -0.004253 0.002281 0.001860 0.034902 0.004094
# 6 -0.001154 -0.005557 0.000564 -0.002727 0.004094 0.038219
#
#
# Mechanical properties :
#
#
# Convention : Reuss Voigt Hill
#
# Bulk Modulus (GPa) = 46.80324 63.12304 54.96314
# Shear Modulus (GPa) = 28.34272 33.18335 30.76303
#
# Velocity S-wave (km/s) = 3.64384 3.94275 3.79624
# Velocity P-wave (km/s) = 6.29517 7.09211 6.70549
#
# Compressibility (1/GPa) = 0.02136604
#
# Stress axis : x y z
#
# Youngs Moduli (GPa) = 99.58399 77.33744 55.14492
#
# Poissons Ratio (x) = 0.27721 0.05640
# Poissons Ratio (y) = 0.35694 0.29023
# Poissons Ratio (z) = 0.10185 0.40703
#
# Static dielectric constant tensor:
#      x y z
#    x 3.513460 -0.016340 0.075400 
#    y -0.016340 3.930210 0.092630 
#    z 0.075400 0.092630 4.000660 
# 
# 
# High freq. dielectric constant tensor:
#      x y z
#    x 1.807420 0.001960 0.004090 
#    y 0.001960 1.844190 0.011640 
#    z 0.004090 0.011640 1.850610 
# 
# From -- ./inp_files/423080.got.cif
#   From: 2010.06.25/outbox.cif.g09.slc.cpg/sg2_212_cif.got.tgz:423080.got - 2010.06.27 13:26:56.
