data_PCOD8023030
_publ_section_title
;
Structure prediction by ZEFSAII (Michael W. Deem and Ramdas Pophale) SiO2 
 PCOD8023030
Probable space group: P -1
;
_chemical_formula_sum "Si O2"
_cell_formula_units_Z 14
_cell_length_a 15.869519
_cell_length_b 5.290905
_cell_length_c 21.464260
_cell_angle_alpha 75.989821
_cell_angle_beta 159.070313
_cell_angle_gamma 109.130201
_cell_volume 597.206533
_symmetry_space_group_name_H-M "P -1"
_symmetry_group_IT_number 2
_symmetry_cell_setting 'triclinic'
loop_
_space_group_symop_operation_xyz
x,y,z
-x,-y,-z
loop_
_atom_site_type_symbol
_atom_site_label
_atom_site_fract_x
_atom_site_fract_y
_atom_site_fract_z
Si Si1 0.874200 0.699403 0.765028
Si Si2 0.716869 0.942633 0.053503
Si Si3 0.047184 0.851791 0.400446
Si Si4 0.420673 0.357516 0.829632
Si Si5 0.552769 0.167404 0.588023
Si Si6 0.351392 0.422499 0.632519
Si Si7 0.250373 0.183674 0.188515
O O1 0.832121 0.375778 0.760574
O O2 0.674244 0.704886 0.571604
O O3 0.804822 0.773140 0.780852
O O4 0.141172 0.882121 0.917762
O O5 0.905350 0.905523 0.238065
O O6 0.564785 0.645326 0.942809
O O7 0.543606 0.120305 0.948313
O O8 0.854812 0.730943 0.329695
O O9 0.184502 0.624075 0.495565
O O10 0.230533 0.132594 0.534893
O O11 0.408395 0.386141 0.745713
O O12 0.500000 0.000000 0.500000
O O13 0.552090 0.991456 0.660504
O O14 0.619993 0.546264 0.777288
O O15 0.000000 0.000000 0.000000
#
# Coordination Sequence:
#
# PCOD8023030 Si02
#       7
#     2   2   2   2   2   2   2
#     4  10  23  40  65  95 135 177 221 274 329 414
#     4  12  26  43  77 105 140 181 233 286 356 403
#     4  12  26  49  75 103 137 181 242 290 340 419
#     4  12  26  49  71 106 141 180 229 299 353 403
#     4   9  21  39  63  87 134 173 226 268 331 387
#     4  12  27  45  74 103 140 190 230 277 357 417
#     4  11  25  41  63  97 139 175 222 276 333 408
#
# _framework density 23.442475000000002
#
# number of rings (size 3 to 8) (size 9 to 14) (size 15 to 20)
#    0.000    0.857    0.000    6.000   14.000    0.571 
#    0.000    0.000    0.000    0.000    0.000    0.000 
#    0.000    0.000    0.000    0.000    0.000    0.000 
#
# Total GULP energy -173459.351936 kJ/mol
# GULP energy per Si atom -12389.953710 kJ/mol
# Density = 2.338912 g / cm^3
# Si number density = 23.442475 Si / 1000 Ang^3
#
#
#
# Elastic Constant Matrix: (Units=GPa)
#
#
# Indices 1 2 3 4 5 6 
#
# 1 80.7938 23.6254 32.5713 17.7538 -3.1893 21.3167
# 2 23.6254 112.6477 40.1313 22.8241 -17.6396 -11.0577
# 3 32.5713 40.1313 110.5295 33.8239 -14.7726 3.9369
# 4 17.7538 22.8241 33.8239 57.0773 2.9897 2.1270
# 5 -3.1893 -17.6396 -14.7726 2.9897 42.3229 3.1583
# 6 21.3167 -11.0577 3.9369 2.1270 3.1583 46.8264
#
#
#
# Elastic Compliance Matrix: (Units=1/GPa)
#
#
# Indices 1 2 3 4 5 6 
#
# 1 0.017031 -0.002896 -0.003109 -0.001982 -0.000267 -0.008068
# 2 -0.002896 0.011870 -0.002204 -0.002897 0.003853 0.004179
# 3 -0.003109 -0.002204 0.013175 -0.006156 0.003895 -0.000196
# 4 -0.001982 -0.002897 -0.006156 0.023212 -0.005148 0.000029
# 5 -0.000267 0.003853 0.003895 -0.005148 0.027003 -0.000884
# 6 -0.008068 0.004179 -0.000196 0.000029 -0.000884 0.026090
#
#
# Mechanical properties :
#
#
# Convention : Reuss Voigt Hill
#
# Bulk Modulus (GPa) = 38.97299 55.18076 47.07688
# Shear Modulus (GPa) = 34.87928 43.08817 38.98373
#
# Velocity S-wave (km/s) = 3.86147 4.29189 4.08236
# Velocity P-wave (km/s) = 6.04503 6.93904 6.50740
#
# Compressibility (1/GPa) = 0.02565879
#
# Stress axis : x y z
#
# Youngs Moduli (GPa) = 58.71617 84.24382 75.90098
#
# Poissons Ratio (x) = 0.24401 0.23596
# Poissons Ratio (y) = 0.17007 0.16726
# Poissons Ratio (z) = 0.18254 0.18564
#
# Static dielectric constant tensor:
#      x y z
#    x 4.185430 0.175920 0.066220 
#    y 0.175920 6.522640 -1.347420 
#    z 0.066220 -1.347420 5.406870 
# 
# 
# High freq. dielectric constant tensor:
#      x y z
#    x 1.927990 0.009390 -0.006530 
#    y 0.009390 1.952990 0.007590 
#    z -0.006530 0.007590 1.938280 
# 
# From -- ./inp_files/33723.got.cif
#   From: 2010.06.25/outbox.cif.g09.slc.cpg/sg2_17_cif.got.tgz:33723.got - 2010.06.27 13:26:56.
