data_PCOD8023970
_publ_section_title
;
Structure prediction by ZEFSAII (Michael W. Deem and Ramdas Pophale) SiO2 
 PCOD8023970
Probable space group: P -1
;
_chemical_formula_sum "Si O2"
_cell_formula_units_Z 16
_cell_length_a 8.725148
_cell_length_b 9.236533
_cell_length_c 11.402609
_cell_angle_alpha 64.705109
_cell_angle_beta 118.518397
_cell_angle_gamma 111.793452
_cell_volume 713.656415
_symmetry_space_group_name_H-M "P -1"
_symmetry_group_IT_number 2
_symmetry_cell_setting 'triclinic'
loop_
_space_group_symop_operation_xyz
x,y,z
-x,-y,-z
loop_
_atom_site_type_symbol
_atom_site_label
_atom_site_fract_x
_atom_site_fract_y
_atom_site_fract_z
Si Si1 0.717533 0.062983 0.923778
Si Si2 0.754691 0.730775 0.489557
Si Si3 0.494391 0.809834 0.562132
Si Si4 0.997185 0.374982 0.876004
Si Si5 0.028357 0.750556 0.771795
Si Si6 0.319125 0.038468 0.802174
Si Si7 0.847636 0.416903 0.559947
Si Si8 0.772404 0.807691 0.851871
O O1 0.791089 0.977416 0.870260
O O2 0.844139 0.241208 0.933997
O O3 0.520956 0.087559 0.813359
O O4 0.699251 0.942486 0.071301
O O5 0.595737 0.762181 0.502117
O O6 0.781046 0.838311 0.343782
O O7 0.720720 0.539546 0.510156
O O8 0.945594 0.773226 0.607754
O O9 0.285308 0.728197 0.505682
O O10 0.582008 0.755266 0.733361
O O11 0.500000 0.000000 0.500000
O O12 0.947850 0.354679 0.728185
O O13 0.004601 0.558662 0.861527
O O14 0.188613 0.330942 0.994331
O O15 0.926918 0.839569 0.799608
O O16 0.233452 0.848117 0.805179
O O17 0.000000 0.500000 0.500000
#
# Coordination Sequence:
#
# PCOD8023970 Si02
#       8
#     2   2   2   2   2   2   2   2
#     4  11  25  40  66  94 131 175 213 266 327 389
#     4  10  23  42  69  94 132 175 218 265 330 392
#     4  11  24  45  71  98 133 175 223 270 325 396
#     4  11  23  44  69  94 134 171 221 266 330 394
#     4  10  23  42  68  95 126 172 218 273 323 383
#     4  11  23  41  64  97 134 167 218 267 328 383
#     4  11  26  44  68 101 133 174 218 276 330 387
#     4  11  23  40  68  97 126 172 223 261 323 387
#
# _framework density 22.419754000000001
#
# number of rings (size 3 to 8) (size 9 to 14) (size 15 to 20)
#    0.000    1.250    1.250    3.750    1.750    8.000 
#    2.250    1.250    0.000    0.000    0.000    0.000 
#    0.000    0.000    0.000    0.000    0.000    0.000 
#
# Total GULP energy -198360.577065 kJ/mol
# GULP energy per Si atom -12397.536067 kJ/mol
# Density = 2.236873 g / cm^3
# Si number density = 22.419754 Si / 1000 Ang^3
#
#
#
# Elastic Constant Matrix: (Units=GPa)
#
#
# Indices 1 2 3 4 5 6 
#
# 1 74.2884 48.1497 35.0804 2.2151 4.8763 1.8406
# 2 48.1497 129.1145 48.3776 5.6733 8.9371 3.3946
# 3 35.0804 48.3776 183.5624 -6.9160 12.4161 5.9594
# 4 2.2151 5.6733 -6.9160 29.0303 5.6882 6.1447
# 5 4.8763 8.9371 12.4161 5.6882 24.4789 4.0889
# 6 1.8406 3.3946 5.9594 6.1447 4.0889 35.6264
#
#
#
# Elastic Compliance Matrix: (Units=1/GPa)
#
#
# Indices 1 2 3 4 5 6 
#
# 1 0.018338 -0.006076 -0.001907 -0.000620 -0.000340 0.000096
# 2 -0.006076 0.010811 -0.001654 -0.001758 -0.001495 0.000035
# 3 -0.001907 -0.001654 0.006578 0.002804 -0.002837 -0.001002
# 4 -0.000620 -0.001758 0.002804 0.038443 -0.008602 -0.005913
# 5 -0.000340 -0.001495 -0.002837 -0.008602 0.045420 -0.003095
# 6 0.000096 0.000035 -0.001002 -0.005913 -0.003095 0.029603
#
#
# Mechanical properties :
#
#
# Convention : Reuss Voigt Hill
#
# Bulk Modulus (GPa) = 60.77988 72.24232 66.51110
# Shear Modulus (GPa) = 28.74383 34.85095 31.79739
#
# Velocity S-wave (km/s) = 3.58449 3.94696 3.77009
# Velocity P-wave (km/s) = 6.65585 7.28450 6.97726
#
# Compressibility (1/GPa) = 0.01645281
#
# Stress axis : x y z
#
# Youngs Moduli (GPa) = 54.53168 92.50248 152.01819
#
# Poissons Ratio (x) = 0.56204 0.28986
# Poissons Ratio (y) = 0.33133 0.25146
# Poissons Ratio (z) = 0.10398 0.15302
#
# Static dielectric constant tensor:
#      x y z
#    x 3.766670 -0.068880 0.176270 
#    y -0.068880 4.095020 0.227910 
#    z 0.176270 0.227910 4.577460 
# 
# 
# High freq. dielectric constant tensor:
#      x y z
#    x 1.859420 -0.002960 0.006040 
#    y -0.002960 1.879660 0.014590 
#    z 0.006040 0.014590 1.913240 
# 
# From -- ./inp_files/381472.got.cif
#   From: 2010.06.25/outbox.cif.g09.slc.cpg/sg2_191_cif.got.tgz:381472.got - 2010.06.27 13:26:56.
