data_PCOD8023901
_publ_section_title
;
Structure prediction by ZEFSAII (Michael W. Deem and Ramdas Pophale) SiO2 
 PCOD8023901
Probable space group: P -1
;
_chemical_formula_sum "Si O2"
_cell_formula_units_Z 14
_cell_length_a 14.973311
_cell_length_b 15.746450
_cell_length_c 10.177826
_cell_angle_alpha 38.996695
_cell_angle_beta 141.145571
_cell_angle_gamma 152.514991
_cell_volume 663.173416
_symmetry_space_group_name_H-M "P -1"
_symmetry_group_IT_number 2
_symmetry_cell_setting 'triclinic'
loop_
_space_group_symop_operation_xyz
x,y,z
-x,-y,-z
loop_
_atom_site_type_symbol
_atom_site_label
_atom_site_fract_x
_atom_site_fract_y
_atom_site_fract_z
Si Si1 0.637221 0.966844 0.167900
Si Si2 0.034398 0.975444 0.924921
Si Si3 0.412788 0.090933 0.289195
Si Si4 0.611082 0.767941 0.634971
Si Si5 0.943460 0.604943 0.868777
Si Si6 0.579140 0.340844 0.936256
Si Si7 0.691342 0.611648 0.378288
O O1 0.866436 0.170366 0.156866
O O2 0.628695 0.865150 0.405626
O O3 0.555605 0.843981 0.090547
O O4 0.500000 0.000000 0.000000
O O5 0.808228 0.800702 0.818529
O O6 0.137931 0.169071 0.734339
O O7 0.184331 0.946091 0.136521
O O8 0.000000 0.000000 0.000000
O O9 0.404029 0.144371 0.362051
O O10 0.500000 0.000000 0.500000
O O11 0.559513 0.279500 0.138733
O O12 0.408454 0.538911 0.676568
O O13 0.819109 0.497134 0.990676
O O14 0.783882 0.565548 0.636607
O O15 0.000000 0.500000 0.000000
O O16 0.493472 0.434066 0.708763
#
# Coordination Sequence:
#
# PCOD8023901 Si02
#       7
#     2   2   2   2   2   2   2
#     4  12  23  41  69  96 130 172 223 265 334 384
#     4   9  21  39  64  94 125 177 214 265 322 386
#     4  10  23  42  67  95 135 169 218 274 328 385
#     4  11  22  42  70  91 132 181 213 268 328 392
#     4  12  24  40  68  97 132 173 216 271 331 392
#     4  11  25  42  65 101 133 170 218 277 321 389
#     4  11  23  42  65  99 134 167 227 269 324 388
#
# _framework density 21.110617000000001
#
# number of rings (size 3 to 8) (size 9 to 14) (size 15 to 20)
#    0.000    1.143    4.286    1.286    0.000    8.000 
#    0.000    1.429    0.000   12.857    0.000    0.000 
#    0.000    0.000    0.000    0.000    0.000    0.000 
#
# Total GULP energy -173512.839420 kJ/mol
# GULP energy per Si atom -12393.774244 kJ/mol
# Density = 2.106257 g / cm^3
# Si number density = 21.110617 Si / 1000 Ang^3
#
#
#
# Elastic Constant Matrix: (Units=GPa)
#
#
# Indices 1 2 3 4 5 6 
#
# 1 96.4517 21.8085 24.1018 -5.0235 13.8714 17.2427
# 2 21.8085 103.8279 10.6901 11.2102 0.5384 6.4715
# 3 24.1018 10.6901 93.4257 -0.3176 25.4281 10.8089
# 4 -5.0235 11.2102 -0.3176 21.1617 3.9589 3.4813
# 5 13.8714 0.5384 25.4281 3.9589 49.2716 -3.2066
# 6 17.2427 6.4715 10.8089 3.4813 -3.2066 37.4786
#
#
#
# Elastic Compliance Matrix: (Units=1/GPa)
#
#
# Indices 1 2 3 4 5 6 
#
# 1 0.013388 -0.002974 -0.001282 0.006507 -0.004003 -0.006223
# 2 -0.002974 0.011084 -0.001108 -0.007046 0.001893 0.000590
# 3 -0.001282 -0.001108 0.013554 0.002462 -0.007078 -0.003962
# 4 0.006507 -0.007046 0.002462 0.055439 -0.008022 -0.008323
# 5 -0.004003 0.001893 -0.007078 -0.008022 0.026124 0.006536
# 6 -0.006223 0.000590 -0.003962 -0.008323 0.006536 0.031918
#
#
# Mechanical properties :
#
#
# Convention : Reuss Voigt Hill
#
# Bulk Modulus (GPa) = 36.63322 45.21179 40.92251
# Shear Modulus (GPa) = 29.18249 37.38936 33.28593
#
# Velocity S-wave (km/s) = 3.72204 4.21303 3.97512
# Velocity P-wave (km/s) = 5.98850 6.71783 6.36362
#
# Compressibility (1/GPa) = 0.02729762
#
# Stress axis : x y z
#
# Youngs Moduli (GPa) = 74.69558 90.21849 73.77670
#
# Poissons Ratio (x) = 0.26830 0.09458
# Poissons Ratio (y) = 0.22214 0.08178
# Poissons Ratio (z) = 0.09575 0.10001
#
# Static dielectric constant tensor:
#      x y z
#    x 3.927180 0.501110 0.382370 
#    y 0.501110 4.038620 0.102010 
#    z 0.382370 0.102010 3.740370 
# 
# 
# High freq. dielectric constant tensor:
#      x y z
#    x 1.838240 0.014220 0.002400 
#    y 0.014220 1.823190 0.004020 
#    z 0.002400 0.004020 1.836670 
# 
# From -- ./inp_files/273137.got.cif
#   From: 2010.06.25/outbox.cif.g09.slc.cpg/sg2_137_cif.got.tgz:273137.got - 2010.06.27 13:26:56.
