data_PCOD8023740
_publ_section_title
;
Structure prediction by ZEFSAII (Michael W. Deem and Ramdas Pophale) SiO2 
 PCOD8023740
Probable space group: P -1
;
_chemical_formula_sum "Si O2"
_cell_formula_units_Z 16
_cell_length_a 9.037875
_cell_length_b 9.158665
_cell_length_c 16.344001
_cell_angle_alpha 36.272502
_cell_angle_beta 70.542720
_cell_angle_gamma 80.186128
_cell_volume 742.922221
_symmetry_space_group_name_H-M "P -1"
_symmetry_group_IT_number 2
_symmetry_cell_setting 'triclinic'
loop_
_space_group_symop_operation_xyz
x,y,z
-x,-y,-z
loop_
_atom_site_type_symbol
_atom_site_label
_atom_site_fract_x
_atom_site_fract_y
_atom_site_fract_z
Si Si1 0.461678 0.428661 0.672610
Si Si2 0.036411 0.149677 0.340906
Si Si3 0.872708 0.612843 0.183781
Si Si4 0.392595 0.731950 0.134796
Si Si5 0.919446 0.105718 0.858565
Si Si6 0.903974 0.226043 0.624230
Si Si7 0.440326 0.842515 0.363250
Si Si8 0.591274 0.624589 0.847919
O O1 0.316317 0.410471 0.770368
O O2 0.612201 0.413081 0.711256
O O3 0.481809 0.685559 0.503752
O O4 0.443664 0.199007 0.714513
O O5 0.216270 0.297322 0.224047
O O6 0.920219 0.352212 0.264820
O O7 0.993025 0.937899 0.374671
O O8 0.000000 0.000000 0.500000
O O9 0.927802 0.692889 0.230939
O O10 0.941510 0.830667 0.008582
O O11 0.219099 0.781264 0.119961
O O12 0.461894 0.566879 0.128777
O O13 0.500000 0.000000 0.000000
O O14 0.879659 0.087367 0.778546
O O15 0.740698 0.237974 0.600211
O O16 0.000000 0.500000 0.500000
O O17 0.479446 0.121967 0.263917
O O18 0.500000 0.500000 0.000000
#
# Coordination Sequence:
#
# PCOD8023740 Si02
#       8
#     2   2   2   2   2   2   2   2
#     4  11  22  40  68  94 137 170 223 278 335 399
#     4  11  24  44  70  99 138 179 224 277 340 402
#     4  11  23  41  65  99 133 176 219 276 341 400
#     4  12  23  42  69  97 134 179 227 272 337 404
#     4  11  23  40  67  95 131 176 225 271 335 401
#     4  11  23  42  69  97 133 177 230 275 337 402
#     4  10  23  42  64  99 133 176 223 278 336 400
#     4  11  25  42  70 100 135 179 227 277 340 398
#
# _framework density 21.536574999999999
#
# number of rings (size 3 to 8) (size 9 to 14) (size 15 to 20)
#    0.000    1.000    3.750    3.750    1.750    1.000 
#    0.000    3.750    0.000    0.000    0.000    0.000 
#    0.000    0.000    0.000    0.000    0.000    0.000 
#
# Total GULP energy -198296.324444 kJ/mol
# GULP energy per Si atom -12393.520278 kJ/mol
# Density = 2.148756 g / cm^3
# Si number density = 21.536575 Si / 1000 Ang^3
#
#
#
# Elastic Constant Matrix: (Units=GPa)
#
#
# Indices 1 2 3 4 5 6 
#
# 1 64.2944 26.3838 37.2044 -9.4589 12.9787 -6.4013
# 2 26.3838 189.2381 73.2679 -23.9271 13.0938 -8.8725
# 3 37.2044 73.2679 110.4814 -4.1429 15.1871 -0.0950
# 4 -9.4589 -23.9271 -4.1429 41.7161 -3.3790 5.8679
# 5 12.9787 13.0938 15.1871 -3.3790 42.4935 0.8812
# 6 -6.4013 -8.8725 -0.0950 5.8679 0.8812 37.8579
#
#
#
# Elastic Compliance Matrix: (Units=1/GPa)
#
#
# Indices 1 2 3 4 5 6 
#
# 1 0.020849 0.000575 -0.006725 0.003626 -0.003919 0.003173
# 2 0.000575 0.007776 -0.005142 0.003858 -0.000455 0.001320
# 3 -0.006725 -0.005142 0.014873 -0.002894 -0.001870 -0.001813
# 4 0.003626 0.003858 -0.002894 0.027180 0.000956 -0.002725
# 5 -0.003919 -0.000455 -0.001870 0.000956 0.025646 -0.001519
# 6 0.003173 0.001320 -0.001813 -0.002725 -0.001519 0.027713
#
#
# Mechanical properties :
#
#
# Convention : Reuss Voigt Hill
#
# Bulk Modulus (GPa) = 47.81403 70.85847 59.33625
# Shear Modulus (GPa) = 32.55350 39.55735 36.05543
#
# Velocity S-wave (km/s) = 3.89208 4.29038 4.09608
# Velocity P-wave (km/s) = 6.51515 7.58394 7.06977
#
# Compressibility (1/GPa) = 0.02091436
#
# Stress axis : x y z
#
# Youngs Moduli (GPa) = 47.96318 128.59766 67.23524
#
# Poissons Ratio (x) = -0.07398 0.45216
# Poissons Ratio (y) = -0.02759 0.34575
# Poissons Ratio (z) = 0.32256 0.66130
#
# Static dielectric constant tensor:
#      x y z
#    x 4.186040 -0.232950 0.164690 
#    y -0.232950 4.259560 -0.018020 
#    z 0.164690 -0.018020 3.978720 
# 
# 
# High freq. dielectric constant tensor:
#      x y z
#    x 1.833540 -0.014470 0.012330 
#    y -0.014470 1.858820 -0.002470 
#    z 0.012330 -0.002470 1.850610 
# 
# From -- ./inp_files/271527.got.cif
#   From: 2010.06.25/outbox.cif.g09.slc.cpg/sg2_136_cif.got.tgz:271527.got - 2010.06.27 13:26:56.
