data_PCOD8023511
_publ_section_title
;
Structure prediction by ZEFSAII (Michael W. Deem and Ramdas Pophale) SiO2 
 PCOD8023511
Probable space group: P -1
;
_chemical_formula_sum "Si O2"
_cell_formula_units_Z 16
_cell_length_a 8.912999
_cell_length_b 25.164021
_cell_length_c 20.466809
_cell_angle_alpha 20.688333
_cell_angle_beta 29.139106
_cell_angle_gamma 30.311020
_cell_volume 760.684014
_symmetry_space_group_name_H-M "P -1"
_symmetry_group_IT_number 2
_symmetry_cell_setting 'triclinic'
loop_
_space_group_symop_operation_xyz
x,y,z
-x,-y,-z
loop_
_atom_site_type_symbol
_atom_site_label
_atom_site_fract_x
_atom_site_fract_y
_atom_site_fract_z
Si Si1 0.415682 0.884273 0.714852
Si Si2 0.791816 0.409755 0.388195
Si Si3 0.189215 0.941917 0.189208
Si Si4 0.349518 0.450933 0.048615
Si Si5 0.354103 0.001613 0.377120
Si Si6 0.095916 0.604929 0.396944
Si Si7 0.858383 0.077252 0.030234
Si Si8 0.710183 0.653662 0.619210
O O1 0.469167 0.717401 0.853920
O O2 0.040916 0.941670 0.807115
O O3 0.500000 0.000000 0.500000
O O4 0.627409 0.890986 0.690898
O O5 0.440872 0.528985 0.385454
O O6 0.983747 0.448059 0.206947
O O7 0.985805 0.435269 0.349783
O O8 0.748640 0.234771 0.605097
O O9 0.034234 0.963458 0.151839
O O10 0.500000 0.000000 0.000000
O O11 0.500000 0.500000 0.000000
O O12 0.415898 0.570980 0.830382
O O13 0.575959 0.825147 0.504082
O O14 0.483559 0.081289 0.174409
O O15 0.000000 0.000000 0.500000
O O16 0.000000 0.500000 0.500000
O O17 0.827108 0.652432 0.501237
O O18 0.102370 0.750710 0.181501
O O19 0.000000 0.000000 0.000000
#
# Coordination Sequence:
#
# PCOD8023511 Si02
#       8
#     2   2   2   2   2   2   2   2
#     4  11  21  44  68  95 134 174 225 282 328 400
#     4  11  22  46  67  99 131 177 225 276 334 405
#     4  11  23  40  70  99 131 170 233 276 327 397
#     4  10  23  41  68  99 135 167 221 282 340 389
#     4  11  25  43  70  97 137 179 228 274 341 399
#     4  12  27  42  68  99 139 176 224 278 344 397
#     4  11  23  47  64  93 137 179 218 278 334 399
#     4  11  23  47  66  98 134 177 225 281 332 406
#
# _framework density 21.033701000000001
#
# number of rings (size 3 to 8) (size 9 to 14) (size 15 to 20)
#    0.000    1.000    5.000    1.875    7.000    2.000 
#    2.250    1.250    0.000    0.000    0.000    0.000 
#    0.000    0.000    0.000    0.000    0.000    0.000 
#
# Total GULP energy -198287.504763 kJ/mol
# GULP energy per Si atom -12392.969048 kJ/mol
# Density = 2.098583 g / cm^3
# Si number density = 21.033701 Si / 1000 Ang^3
#
#
#
# Elastic Constant Matrix: (Units=GPa)
#
#
# Indices 1 2 3 4 5 6 
#
# 1 68.6041 46.8419 35.3004 7.3467 -6.8551 7.6961
# 2 46.8419 110.3670 54.0836 17.2114 -7.9457 19.0667
# 3 35.3004 54.0836 180.0614 22.1780 -6.0040 8.4460
# 4 7.3467 17.2114 22.1780 55.6037 4.0868 -4.8651
# 5 -6.8551 -7.9457 -6.0040 4.0868 34.6249 -0.4910
# 6 7.6961 19.0667 8.4460 -4.8651 -0.4910 37.0424
#
#
#
# Elastic Compliance Matrix: (Units=1/GPa)
#
#
# Indices 1 2 3 4 5 6 
#
# 1 0.021097 -0.008057 -0.001690 0.000251 0.002008 0.000209
# 2 -0.008057 0.015309 -0.002245 -0.003450 0.001849 -0.006123
# 3 -0.001690 -0.002245 0.006821 -0.001868 0.000549 -0.000287
# 4 0.000251 -0.003450 -0.001868 0.020434 -0.003410 0.004788
# 5 0.002008 0.001849 0.000549 -0.003410 0.030179 -0.001542
# 6 0.000209 -0.006123 -0.000287 0.004788 -0.001542 0.030778
#
#
# Mechanical properties :
#
#
# Convention : Reuss Voigt Hill
#
# Bulk Modulus (GPa) = 51.96239 70.16492 61.06365
# Shear Modulus (GPa) = 32.25469 40.30796 36.28132
#
# Velocity S-wave (km/s) = 3.92021 4.38236 4.15771
# Velocity P-wave (km/s) = 6.72672 7.68359 7.22102
#
# Compressibility (1/GPa) = 0.01924469
#
# Stress axis : x y z
#
# Youngs Moduli (GPa) = 47.39958 65.32042 146.60387
#
# Poissons Ratio (x) = 0.52626 0.24774
# Poissons Ratio (y) = 0.38188 0.32912
# Poissons Ratio (z) = 0.08010 0.14664
#
# Static dielectric constant tensor:
#      x y z
#    x 3.714400 -0.263560 0.252400 
#    y -0.263560 4.519320 -0.110140 
#    z 0.252400 -0.110140 4.288500 
# 
# 
# High freq. dielectric constant tensor:
#      x y z
#    x 1.798250 0.015190 -0.001160 
#    y 0.015190 1.830150 0.014910 
#    z -0.001160 0.014910 1.857790 
# 
# From -- ./inp_files/591928.got.cif
#   From: 2010.06.25/outbox.cif.g09.slc.cpg/sg2_296_cif.got.tgz:591928.got - 2010.06.27 13:26:56.
