data_PCOD8023517
_publ_section_title
;
Structure prediction by ZEFSAII (Michael W. Deem and Ramdas Pophale) SiO2 
 PCOD8023517
Probable space group: P -1
;
_chemical_formula_sum "Si O2"
_cell_formula_units_Z 16
_cell_length_a 9.301017
_cell_length_b 14.140751
_cell_length_c 20.120453
_cell_angle_alpha 160.865094
_cell_angle_beta 128.425246
_cell_angle_gamma 52.919760
_cell_volume 678.288214
_symmetry_space_group_name_H-M "P -1"
_symmetry_group_IT_number 2
_symmetry_cell_setting 'triclinic'
loop_
_space_group_symop_operation_xyz
x,y,z
-x,-y,-z
loop_
_atom_site_type_symbol
_atom_site_label
_atom_site_fract_x
_atom_site_fract_y
_atom_site_fract_z
Si Si1 0.884624 0.651446 0.924154
Si Si2 0.577609 0.082271 0.147496
Si Si3 0.450984 0.145627 0.872107
Si Si4 0.697566 0.317936 0.755754
Si Si5 0.695622 0.432379 0.592965
Si Si6 0.791351 0.019600 0.799282
Si Si7 0.028643 0.293976 0.241069
Si Si8 0.699448 0.758255 0.463505
O O1 0.858094 0.422825 0.823653
O O2 0.805762 0.514748 0.744354
O O3 0.096388 0.710723 0.014670
O O4 0.791770 0.971619 0.130768
O O5 0.515053 0.419335 0.366449
O O6 0.494093 0.915606 0.075506
O O7 0.500000 0.000000 0.000000
O O8 0.636181 0.171126 0.901701
O O9 0.323523 0.907718 0.646218
O O10 0.336876 0.455662 0.042873
O O11 0.509219 0.312236 0.656185
O O12 0.762537 0.007935 0.597868
O O13 0.804897 0.538315 0.630781
O O14 0.920331 0.784319 0.720345
O O15 0.701176 0.856670 0.605156
O O16 0.837624 0.482881 0.308732
O O17 0.000000 0.000000 0.000000
#
# Coordination Sequence:
#
# PCOD8023517 Si02
#       8
#     2   2   2   2   2   2   2   2
#     4  10  23  41  69 101 138 186 230 285 353 410
#     4   9  20  37  61  93 138 184 225 272 340 420
#     4  11  23  42  69  99 140 184 235 284 341 419
#     4  10  25  52  72  94 139 194 242 282 336 424
#     4  11  22  40  66 102 140 185 229 281 359 410
#     4  12  25  42  71 112 142 177 230 296 360 407
#     4  12  25  44  70 110 145 176 223 302 355 415
#     4  11  27  47  74  99 139 190 239 285 353 409
#
# _framework density 23.588794
#
# number of rings (size 3 to 8) (size 9 to 14) (size 15 to 20)
#    0.000    1.250    2.500    2.250    5.250    3.000 
#    0.000    1.875    0.000    0.000    0.000    0.000 
#    0.000    0.000    0.000    0.000    0.000    0.000 
#
# Total GULP energy -198351.262379 kJ/mol
# GULP energy per Si atom -12396.953899 kJ/mol
# Density = 2.353510 g / cm^3
# Si number density = 23.588794 Si / 1000 Ang^3
#
#
#
# Elastic Constant Matrix: (Units=GPa)
#
#
# Indices 1 2 3 4 5 6 
#
# 1 153.6381 26.7149 49.9457 -4.8940 8.2065 12.9847
# 2 26.7149 70.3952 30.6944 -0.5280 -7.9869 9.2275
# 3 49.9457 30.6944 122.6197 -3.4595 2.3309 2.2116
# 4 -4.8940 -0.5280 -3.4595 26.2593 8.2463 1.5590
# 5 8.2065 -7.9869 2.3309 8.2463 34.0413 -8.9012
# 6 12.9847 9.2275 2.2116 1.5590 -8.9012 19.4770
#
#
#
# Elastic Compliance Matrix: (Units=1/GPa)
#
#
# Indices 1 2 3 4 5 6 
#
# 1 0.008686 -0.001666 -0.002807 0.003198 -0.004950 -0.007201
# 2 -0.001666 0.017533 -0.003732 -0.001355 0.003812 -0.004921
# 3 -0.002807 -0.003732 0.010225 0.000783 -0.000519 0.002178
# 4 0.003198 -0.001355 0.000783 0.044163 -0.014966 -0.011953
# 5 -0.004950 0.003812 -0.000519 -0.014966 0.040709 0.021355
# 6 -0.007201 -0.004921 0.002178 -0.011953 0.021355 0.068943
#
#
# Mechanical properties :
#
#
# Convention : Reuss Voigt Hill
#
# Bulk Modulus (GPa) = 49.91541 62.37367 56.14454
# Shear Modulus (GPa) = 23.43601 31.90872 27.67237
#
# Velocity S-wave (km/s) = 3.15544 3.68191 3.42879
# Velocity P-wave (km/s) = 5.87216 6.67643 6.28717
#
# Compressibility (1/GPa) = 0.02003389
#
# Stress axis : x y z
#
# Youngs Moduli (GPa) = 115.13123 57.03680 97.79599
#
# Poissons Ratio (x) = 0.09504 0.27448
# Poissons Ratio (y) = 0.19184 0.36498
# Poissons Ratio (z) = 0.32313 0.21286
#
# Static dielectric constant tensor:
#      x y z
#    x 4.466990 0.107920 -0.218950 
#    y 0.107920 4.183200 0.086250 
#    z -0.218950 0.086250 4.386630 
# 
# 
# High freq. dielectric constant tensor:
#      x y z
#    x 1.943930 0.011970 -0.006680 
#    y 0.011970 1.918410 -0.005110 
#    z -0.006680 -0.005110 1.938850 
# 
# From -- ./inp_files/590572.got.cif
#   From: 2010.06.25/outbox.cif.g09.slc.cpg/sg2_296_cif.got.tgz:590572.got - 2010.06.27 13:26:56.
