data_PCOD8023628
_publ_section_title
;
Structure prediction by ZEFSAII (Michael W. Deem and Ramdas Pophale) SiO2 
 PCOD8023628
Probable space group: P -1
;
_chemical_formula_sum "Si O2"
_cell_formula_units_Z 14
_cell_length_a 14.315446
_cell_length_b 8.535841
_cell_length_c 8.064544
_cell_angle_alpha 100.159132
_cell_angle_beta 136.300919
_cell_angle_gamma 62.474851
_cell_volume 583.398752
_symmetry_space_group_name_H-M "P -1"
_symmetry_group_IT_number 2
_symmetry_cell_setting 'triclinic'
loop_
_space_group_symop_operation_xyz
x,y,z
-x,-y,-z
loop_
_atom_site_type_symbol
_atom_site_label
_atom_site_fract_x
_atom_site_fract_y
_atom_site_fract_z
Si Si1 0.481470 0.081255 0.173505
Si Si2 0.636596 0.173617 0.960380
Si Si3 0.915298 0.193530 0.205064
Si Si4 0.044852 0.597679 0.432604
Si Si5 0.781684 0.586282 0.951754
Si Si6 0.684309 0.520739 0.474971
Si Si7 0.753649 0.123893 0.476159
O O1 0.349722 0.294106 0.058203
O O2 0.644633 0.067806 0.433851
O O3 0.428641 0.963608 0.199666
O O4 0.500000 0.000000 0.000000
O O5 0.494346 0.378916 0.792849
O O6 0.778024 0.142765 0.016987
O O7 0.697362 0.144420 0.219467
O O8 0.952811 0.227588 0.450107
O O9 0.862008 0.374185 0.062630
O O10 0.069093 0.028534 0.294343
O O11 0.211999 0.468745 0.540366
O O12 0.000000 0.500000 0.500000
O O13 0.910819 0.654040 0.132166
O O14 0.706335 0.621127 0.680710
O O15 0.736541 0.313424 0.553415
#
# Coordination Sequence:
#
# PCOD8023628 Si02
#       7
#     2   2   2   2   2   2   2
#     4  10  24  42  70 101 138 181 235 287 339 419
#     4  11  24  42  71 104 139 181 239 294 346 414
#     4  11  24  44  74 102 137 185 237 292 340 423
#     4  10  23  41  73 100 136 183 237 287 342 414
#     4  11  26  46  68 103 144 187 230 289 359 412
#     4  12  26  43  71 103 147 184 229 293 355 416
#     4  11  24  42  71 107 137 185 242 284 346 415
#
# _framework density 23.997308
#
# number of rings (size 3 to 8) (size 9 to 14) (size 15 to 20)
#    0.000    1.143    1.429    3.857   14.000    3.429 
#    0.000    0.000    0.000    0.000    0.000    0.000 
#    0.000    0.000    0.000    0.000    0.000    0.000 
#
# Total GULP energy -173569.675245 kJ/mol
# GULP energy per Si atom -12397.833946 kJ/mol
# Density = 2.394269 g / cm^3
# Si number density = 23.997308 Si / 1000 Ang^3
#
#
#
# Elastic Constant Matrix: (Units=GPa)
#
#
# Indices 1 2 3 4 5 6 
#
# 1 108.9382 55.3748 60.8371 1.7983 54.7196 13.7083
# 2 55.3748 119.3665 47.4728 -22.4001 23.1279 -1.3878
# 3 60.8371 47.4728 99.3199 -13.3066 41.3571 -4.2572
# 4 1.7983 -22.4001 -13.3066 43.3983 -7.8837 12.8509
# 5 54.7196 23.1279 41.3571 -7.8837 55.9900 3.6140
# 6 13.7083 -1.3878 -4.2572 12.8509 3.6140 32.4341
#
#
#
# Elastic Compliance Matrix: (Units=1/GPa)
#
#
# Indices 1 2 3 4 5 6 
#
# 1 0.028233 -0.008417 -0.006377 -0.008969 -0.020195 -0.007326
# 2 -0.008417 0.013690 -0.002712 0.007557 0.005627 0.000166
# 3 -0.006377 -0.002712 0.018335 0.001892 -0.006243 0.004932
# 4 -0.008969 0.007557 0.001892 0.032432 0.009429 -0.009538
# 5 -0.020195 0.005627 -0.006243 0.009429 0.041236 -0.000373
# 6 -0.007326 0.000166 0.004932 -0.009538 -0.000373 0.038403
#
#
# Mechanical properties :
#
#
# Convention : Reuss Voigt Hill
#
# Bulk Modulus (GPa) = 39.60734 72.77710 56.19222
# Shear Modulus (GPa) = 23.17424 37.29382 30.23403
#
# Velocity S-wave (km/s) = 3.11095 3.94646 3.55335
# Velocity P-wave (km/s) = 5.42630 7.15256 6.34838
#
# Compressibility (1/GPa) = 0.02524785
#
# Stress axis : x y z
#
# Youngs Moduli (GPa) = 35.41918 73.04445 54.53992
#
# Poissons Ratio (x) = 0.61479 0.34781
# Poissons Ratio (y) = 0.29811 0.14789
# Poissons Ratio (z) = 0.22587 0.19807
#
# Static dielectric constant tensor:
#      x y z
#    x 4.472570 0.299240 0.656070 
#    y 0.299240 4.527990 0.445230 
#    z 0.656070 0.445230 4.642280 
# 
# 
# High freq. dielectric constant tensor:
#      x y z
#    x 1.942370 0.003070 0.033150 
#    y 0.003070 1.953190 0.006680 
#    z 0.033150 0.006680 1.949780 
# 
# From -- ./inp_files/158880.got.cif
#   From: 2010.06.25/outbox.cif.g09.slc.cpg/sg2_80_cif.got.tgz:158880.got - 2010.06.27 13:26:56.
