data_PCOD8023928
_publ_section_title
;
Structure prediction by ZEFSAII (Michael W. Deem and Ramdas Pophale) SiO2 
 PCOD8023928
Probable space group: P -1
;
_chemical_formula_sum "Si O2"
_cell_formula_units_Z 16
_cell_length_a 15.108609
_cell_length_b 8.683612
_cell_length_c 7.749640
_cell_angle_alpha 62.737247
_cell_angle_beta 64.405670
_cell_angle_gamma 56.122466
_cell_volume 728.538592
_symmetry_space_group_name_H-M "P -1"
_symmetry_group_IT_number 2
_symmetry_cell_setting 'triclinic'
loop_
_space_group_symop_operation_xyz
x,y,z
-x,-y,-z
loop_
_atom_site_type_symbol
_atom_site_label
_atom_site_fract_x
_atom_site_fract_y
_atom_site_fract_z
Si Si1 0.464459 0.834826 0.149822
Si Si2 0.368886 0.596265 0.879433
Si Si3 0.157813 0.624656 0.880033
Si Si4 0.733467 0.188772 0.815752
Si Si5 0.034256 0.990602 0.171951
Si Si6 0.500471 0.807248 0.524503
Si Si7 0.088641 0.569908 0.343695
Si Si8 0.249678 0.488316 0.534242
O O1 0.550619 0.629138 0.104790
O O2 0.345561 0.904152 0.126464
O O3 0.448576 0.827190 0.369859
O O4 0.500000 0.000000 0.000000
O O5 0.261342 0.666171 0.814272
O O6 0.430087 0.731470 0.738006
O O7 0.326617 0.630950 0.093363
O O8 0.194205 0.469326 0.772169
O O9 0.119697 0.550866 0.122767
O O10 0.060084 0.812359 0.773714
O O11 0.844784 0.020744 0.892803
O O12 0.761095 0.292891 0.578625
O O13 0.039233 0.790908 0.341929
O O14 0.000000 0.000000 0.000000
O O15 0.624837 0.656046 0.488844
O O16 0.500000 0.000000 0.500000
O O17 0.194520 0.440715 0.438268
O O18 0.000000 0.500000 0.500000
#
# Coordination Sequence:
#
# PCOD8023928 Si02
#       8
#     2   2   2   2   2   2   2   2
#     4  12  26  43  66 106 140 179 245 288 347 429
#     4  12  22  44  74  98 142 187 222 296 357 409
#     4  11  22  43  72  99 135 187 229 285 351 419
#     4  11  22  41  74 100 136 189 228 292 352 415
#     4   9  19  42  68  97 130 177 235 271 347 425
#     4  12  27  44  68 103 139 188 238 292 356 420
#     4  10  23  42  67  99 137 179 230 296 345 411
#     4  11  23  44  69  98 137 184 238 281 359 420
#
# _framework density 21.961776
#
# number of rings (size 3 to 8) (size 9 to 14) (size 15 to 20)
#    0.000    1.000    6.250    2.250    1.750    3.500 
#    4.500    3.750    0.000    0.000    0.000    0.000 
#    0.000    0.000    0.000    0.000    0.000    0.000 
#
# Total GULP energy -198276.599777 kJ/mol
# GULP energy per Si atom -12392.287486 kJ/mol
# Density = 2.191179 g / cm^3
# Si number density = 21.961776 Si / 1000 Ang^3
#
#
#
# Elastic Constant Matrix: (Units=GPa)
#
#
# Indices 1 2 3 4 5 6 
#
# 1 186.3507 68.2460 51.6853 -3.0357 -8.3650 -17.2673
# 2 68.2460 65.0904 38.8268 0.3592 -6.5182 -13.4711
# 3 51.6853 38.8268 108.0345 10.7897 -5.7270 -3.1057
# 4 -3.0357 0.3592 10.7897 30.7112 8.3528 -5.9868
# 5 -8.3650 -6.5182 -5.7270 8.3528 41.2883 0.4520
# 6 -17.2673 -13.4711 -3.1057 -5.9868 0.4520 30.9423
#
#
#
# Elastic Compliance Matrix: (Units=1/GPa)
#
#
# Indices 1 2 3 4 5 6 
#
# 1 0.008952 -0.008178 -0.001484 0.001843 -0.000074 0.001644
# 2 -0.008178 0.029768 -0.006706 0.002370 0.001544 0.008159
# 3 -0.001484 -0.006706 0.012935 -0.005758 0.001639 -0.003588
# 4 0.001843 0.002370 -0.005758 0.038678 -0.007975 0.009082
# 5 -0.000074 0.001544 0.001639 -0.007975 0.026302 -0.001132
# 6 0.001644 0.008159 -0.003588 0.009082 -0.001132 0.038201
#
#
# Mechanical properties :
#
#
# Convention : Reuss Voigt Hill
#
# Bulk Modulus (GPa) = 52.85885 75.22131 64.04008
# Shear Modulus (GPa) = 25.78913 33.96952 29.87932
#
# Velocity S-wave (km/s) = 3.43048 3.93715 3.69252
# Velocity P-wave (km/s) = 6.30966 7.41576 6.88496
#
# Compressibility (1/GPa) = 0.01891831
#
# Stress axis : x y z
#
# Youngs Moduli (GPa) = 111.70916 33.59312 77.30673
#
# Poissons Ratio (x) = 0.27472 0.11475
# Poissons Ratio (y) = 0.91353 0.51845
# Poissons Ratio (z) = 0.16582 0.22529
#
# Static dielectric constant tensor:
#      x y z
#    x 4.455780 -0.471080 0.182050 
#    y -0.471080 4.205120 0.135080 
#    z 0.182050 0.135080 4.069480 
# 
# 
# High freq. dielectric constant tensor:
#      x y z
#    x 1.886650 -0.013860 0.010200 
#    y -0.013860 1.842250 0.013000 
#    z 0.010200 0.013000 1.863100 
# 
# From -- ./inp_files/297588.got.cif
#   From: 2010.06.25/outbox.cif.g09.slc.cpg/sg2_149_cif.got.tgz:297588.got - 2010.06.27 13:26:56.
