data_PCOD8023295
_publ_section_title
;
Structure prediction by ZEFSAII (Michael W. Deem and Ramdas Pophale) SiO2 
 PCOD8023295
Probable space group: P -1
;
_chemical_formula_sum "Si O2"
_cell_formula_units_Z 14
_cell_length_a 12.507718
_cell_length_b 11.546471
_cell_length_c 5.076285
_cell_angle_alpha 91.346488
_cell_angle_beta 51.068099
_cell_angle_gamma 96.669978
_cell_volume 565.263845
_symmetry_space_group_name_H-M "P -1"
_symmetry_group_IT_number 2
_symmetry_cell_setting 'triclinic'
loop_
_space_group_symop_operation_xyz
x,y,z
-x,-y,-z
loop_
_atom_site_type_symbol
_atom_site_label
_atom_site_fract_x
_atom_site_fract_y
_atom_site_fract_z
Si Si1 0.821452 0.369717 0.921363
Si Si2 0.766866 0.670500 0.128908
Si Si3 0.877607 0.554555 0.442220
Si Si4 0.573161 0.129718 0.900780
Si Si5 0.901812 0.921693 0.945952
Si Si6 0.467045 0.718075 0.524470
Si Si7 0.838456 0.118002 0.744050
O O1 0.830229 0.421601 0.610647
O O2 0.827348 0.232854 0.934220
O O3 0.955613 0.431420 0.878145
O O4 0.667935 0.383056 0.273431
O O5 0.795200 0.579180 0.308211
O O6 0.603506 0.653928 0.322477
O O7 0.846672 0.640108 0.737967
O O8 0.815020 0.801569 0.176719
O O9 0.526799 0.205428 0.741935
O O10 0.737993 0.117226 0.645760
O O11 0.536375 0.192791 0.226367
O O12 0.500000 0.000000 0.000000
O O13 0.001215 0.878154 0.570614
O O14 0.795281 0.002091 0.984335
O O15 0.000000 0.000000 0.000000
#
# Coordination Sequence:
#
# PCOD8023295 Si02
#       7
#     2   2   2   2   2   2   2
#     4  10  24  48  68 104 132 185 230 283 341 403
#     4  12  26  46  68 106 135 182 227 284 342 409
#     4  11  26  45  75  95 141 179 232 286 335 405
#     4  11  24  41  66  97 137 185 223 275 336 411
#     4  11  24  38  67  97 137 177 220 281 340 402
#     4  11  26  42  70  97 141 175 230 282 340 403
#     4  10  23  41  64  97 132 176 226 277 332 410
#
# _framework density 24.767196999999999
#
# number of rings (size 3 to 8) (size 9 to 14) (size 15 to 20)
#    0.000    1.143    1.429    3.000   10.000    5.714 
#    0.000    0.000    0.000    0.000    0.000    0.000 
#    0.000    0.000    0.000    0.000    0.000    0.000 
#
# Total GULP energy -173508.693951 kJ/mol
# GULP energy per Si atom -12393.478139 kJ/mol
# Density = 2.471083 g / cm^3
# Si number density = 24.767197 Si / 1000 Ang^3
#
#
#
# Elastic Constant Matrix: (Units=GPa)
#
#
# Indices 1 2 3 4 5 6 
#
# 1 168.4703 45.1676 60.8007 -7.3557 -4.4339 -35.6599
# 2 45.1676 100.1785 26.2920 -3.9485 -13.5357 -20.0527
# 3 60.8007 26.2920 113.9130 -23.3220 -3.3744 -16.1609
# 4 -7.3557 -3.9485 -23.3220 32.0325 -1.5975 8.0834
# 5 -4.4339 -13.5357 -3.3744 -1.5975 53.0659 -3.7884
# 6 -35.6599 -20.0527 -16.1609 8.0834 -3.7884 55.5016
#
#
#
# Elastic Compliance Matrix: (Units=1/GPa)
#
#
# Indices 1 2 3 4 5 6 
#
# 1 0.008719 -0.002141 -0.004041 -0.002202 0.000143 0.003982
# 2 -0.002141 0.012272 -0.001282 -0.000508 0.003067 0.002969
# 3 -0.004041 -0.001282 0.012901 0.008454 0.000374 -0.000509
# 4 -0.002202 -0.000508 0.008454 0.038019 0.001040 -0.004603
# 5 0.000143 0.003067 0.000374 0.001040 0.019873 0.002514
# 6 0.003982 0.002969 -0.000509 -0.004603 0.002514 0.022342
#
#
# Mechanical properties :
#
#
# Convention : Reuss Voigt Hill
#
# Bulk Modulus (GPa) = 52.72981 71.89805 62.31393
# Shear Modulus (GPa) = 36.93429 44.80676 40.87053
#
# Velocity S-wave (km/s) = 3.86587 4.25799 4.06666
# Velocity P-wave (km/s) = 6.42363 7.29839 6.87494
#
# Compressibility (1/GPa) = 0.01896461
#
# Stress axis : x y z
#
# Youngs Moduli (GPa) = 114.69688 81.48370 77.51247
#
# Poissons Ratio (x) = 0.17443 0.31323
# Poissons Ratio (y) = 0.24553 0.09938
# Poissons Ratio (z) = 0.46349 0.10447
#
# Static dielectric constant tensor:
#      x y z
#    x 4.775950 -0.225780 -0.401590 
#    y -0.225780 4.761620 -0.020930 
#    z -0.401590 -0.020930 4.611070 
# 
# 
# High freq. dielectric constant tensor:
#      x y z
#    x 1.992570 -0.011690 -0.008810 
#    y -0.011690 2.004140 -0.000930 
#    z -0.008810 -0.000930 1.975550 
# 
# From -- ./inp_files/60619.got.cif
#   From: 2010.06.25/outbox.cif.g09.slc.cpg/sg2_31_cif.got.tgz:60619.got - 2010.06.27 13:26:56.
