data_PCOD8023463
_publ_section_title
;
Structure prediction by ZEFSAII (Michael W. Deem and Ramdas Pophale) SiO2 
 PCOD8023463
Probable space group: P -1
;
_chemical_formula_sum "Si O2"
_cell_formula_units_Z 16
_cell_length_a 9.519463
_cell_length_b 8.677122
_cell_length_c 11.412476
_cell_angle_alpha 100.658602
_cell_angle_beta 126.102485
_cell_angle_gamma 92.468016
_cell_volume 734.666300
_symmetry_space_group_name_H-M "P -1"
_symmetry_group_IT_number 2
_symmetry_cell_setting 'triclinic'
loop_
_space_group_symop_operation_xyz
x,y,z
-x,-y,-z
loop_
_atom_site_type_symbol
_atom_site_label
_atom_site_fract_x
_atom_site_fract_y
_atom_site_fract_z
Si Si1 0.026595 0.913815 0.379528
Si Si2 0.770015 0.799498 0.573230
Si Si3 0.240959 0.097745 0.962138
Si Si4 0.228821 0.738330 0.987541
Si Si5 0.836685 0.686909 0.839178
Si Si6 0.398197 0.672527 0.835041
Si Si7 0.937641 0.314844 0.453269
Si Si8 0.552513 0.404551 0.748440
O O1 0.044245 0.737958 0.409292
O O2 0.859985 0.902656 0.210294
O O3 0.206107 0.009984 0.417358
O O4 0.000000 0.000000 0.500000
O O5 0.773563 0.778430 0.710739
O O6 0.591263 0.694899 0.422065
O O7 0.948073 0.760167 0.596650
O O8 0.155459 0.199919 0.028512
O O9 0.442373 0.179013 0.048316
O O10 0.232313 0.921228 0.982401
O O11 0.359053 0.724307 0.157421
O O12 0.290209 0.637983 0.897413
O O13 0.031294 0.649655 0.911181
O O14 0.700666 0.520330 0.762731
O O15 0.270685 0.730153 0.684389
O O16 0.457721 0.508937 0.804884
O O17 0.000000 0.500000 0.500000
#
# Coordination Sequence:
#
# PCOD8023463 Si02
#       8
#     2   2   2   2   2   2   2   2
#     4  10  23  41  68 100 132 174 220 279 340 393
#     4  11  22  44  67  94 139 182 220 274 334 403
#     4  11  25  45  71 100 137 173 227 283 333 405
#     4  12  23  42  69  97 137 176 226 276 342 395
#     4  11  24  47  66  95 139 183 223 273 339 401
#     4  11  24  42  68 104 133 175 224 285 334 396
#     4  11  22  41  69 102 137 171 220 282 341 391
#     4  11  26  41  66 101 137 177 227 280 330 399
#
# _framework density 21.778597000000001
#
# number of rings (size 3 to 8) (size 9 to 14) (size 15 to 20)
#    0.000    1.000    3.750    2.625    5.250    2.000 
#    2.250    0.625    0.000    0.000    0.000    0.000 
#    0.000    0.000    0.000    0.000    0.000    0.000 
#
# Total GULP energy -198382.026571 kJ/mol
# GULP energy per Si atom -12398.876661 kJ/mol
# Density = 2.172903 g / cm^3
# Si number density = 21.778597 Si / 1000 Ang^3
#
#
#
# Elastic Constant Matrix: (Units=GPa)
#
#
# Indices 1 2 3 4 5 6 
#
# 1 122.7851 33.6257 58.7453 -2.6883 13.7209 11.0004
# 2 33.6257 121.7946 66.7027 -18.4567 5.6458 26.1474
# 3 58.7453 66.7027 183.6751 -12.3946 14.0232 17.3410
# 4 -2.6883 -18.4567 -12.3946 38.5607 9.0996 -1.4385
# 5 13.7209 5.6458 14.0232 9.0996 37.1843 -2.5858
# 6 11.0004 26.1474 17.3410 -1.4385 -2.5858 21.7115
#
#
#
# Elastic Compliance Matrix: (Units=1/GPa)
#
#
# Indices 1 2 3 4 5 6 
#
# 1 0.010091 -0.000702 -0.002495 0.000151 -0.002894 -0.002609
# 2 -0.000702 0.014134 -0.002899 0.006020 -0.003264 -0.014341
# 3 -0.002495 -0.002899 0.007677 0.001312 -0.001962 -0.001523
# 4 0.000151 0.006020 0.001312 0.031241 -0.009628 -0.007451
# 5 -0.002894 -0.003264 -0.001962 -0.009628 0.032260 0.010168
# 6 -0.002609 -0.014341 -0.001523 -0.007451 0.010168 0.066585
#
#
# Mechanical properties :
#
#
# Convention : Reuss Voigt Hill
#
# Bulk Modulus (GPa) = 50.73586 82.93357 66.83472
# Shear Modulus (GPa) = 27.66246 37.43671 32.54959
#
# Velocity S-wave (km/s) = 3.56781 4.15054 3.87016
# Velocity P-wave (km/s) = 6.34973 7.81872 7.12220
#
# Compressibility (1/GPa) = 0.01970992
#
# Stress axis : x y z
#
# Youngs Moduli (GPa) = 99.10063 70.74913 130.25561
#
# Poissons Ratio (x) = 0.04970 0.32496
# Poissons Ratio (y) = 0.06962 0.37761
# Poissons Ratio (z) = 0.24723 0.20510
#
# Static dielectric constant tensor:
#      x y z
#    x 4.038340 0.202540 0.102550 
#    y 0.202540 3.693550 0.245480 
#    z 0.102550 0.245480 3.967290 
# 
# 
# High freq. dielectric constant tensor:
#      x y z
#    x 1.850570 0.018080 0.004510 
#    y 0.018080 1.860730 -0.002870 
#    z 0.004510 -0.002870 1.870550 
# 
# From -- ./inp_files/243955.got.cif
#   From: 2010.06.25/outbox.cif.g09.slc.cpg/sg2_122_cif.got.tgz:243955.got - 2010.06.27 13:26:56.
