data_PCOD8023512
_publ_section_title
;
Structure prediction by ZEFSAII (Michael W. Deem and Ramdas Pophale) SiO2 
 PCOD8023512
Probable space group: P -1
;
_chemical_formula_sum "Si O2"
_cell_formula_units_Z 12
_cell_length_a 9.243644
_cell_length_b 9.111855
_cell_length_c 12.168020
_cell_angle_alpha 131.107191
_cell_angle_beta 73.588600
_cell_angle_gamma 135.754560
_cell_volume 502.999515
_symmetry_space_group_name_H-M "P -1"
_symmetry_group_IT_number 2
_symmetry_cell_setting 'triclinic'
loop_
_space_group_symop_operation_xyz
x,y,z
-x,-y,-z
loop_
_atom_site_type_symbol
_atom_site_label
_atom_site_fract_x
_atom_site_fract_y
_atom_site_fract_z
Si Si1 0.731193 0.777996 0.251878
Si Si2 0.972755 0.072975 0.923537
Si Si3 0.517186 0.238316 0.156287
Si Si4 0.791117 0.262798 0.554085
Si Si5 0.718120 0.266536 0.326504
Si Si6 0.620576 0.325969 0.819216
O O1 0.936169 0.973993 0.218442
O O2 0.704039 0.547651 0.207527
O O3 0.490790 0.575500 0.144551
O O4 0.776517 0.013577 0.430871
O O5 0.136046 0.416214 0.055842
O O6 0.722934 0.891674 0.861307
O O7 0.000000 0.000000 0.000000
O O8 0.604185 0.327458 0.308166
O O9 0.500000 0.000000 0.000000
O O10 0.745894 0.334179 0.484005
O O11 0.621511 0.183041 0.642391
O O12 0.039188 0.555843 0.686089
O O13 0.548151 0.923815 0.178004
#
# Coordination Sequence:
#
# PCOD8023512 Si02
#       6
#     2   2   2   2   2   2
#     4  11  25  44  70 106 138 183 233 283 344 417
#     4  12  27  43  74 101 139 185 234 281 347 411
#     4  12  27  44  69 106 144 180 230 291 348 404
#     4  10  24  45  74 100 139 189 230 278 349 416
#     4  10  23  41  68  99 139 175 231 279 338 404
#     4  11  23  44  74 103 137 187 234 277 344 421
#
# _framework density 23.856881000000001
#
# number of rings (size 3 to 8) (size 9 to 14) (size 15 to 20)
#    0.000    1.000    1.667    4.500   11.667    6.000 
#    0.000    5.833    0.000    0.000    0.000    0.000 
#    0.000    0.000    0.000    0.000    0.000    0.000 
#
# Total GULP energy -148668.624920 kJ/mol
# GULP energy per Si atom -12389.052077 kJ/mol
# Density = 2.380258 g / cm^3
# Si number density = 23.856881 Si / 1000 Ang^3
#
#
#
# Elastic Constant Matrix: (Units=GPa)
#
#
# Indices 1 2 3 4 5 6 
#
# 1 143.2167 72.9362 38.2371 -10.1557 20.7886 -0.2962
# 2 72.9362 145.3915 34.2073 20.6494 7.5250 -8.3227
# 3 38.2371 34.2073 69.9792 9.1822 0.4463 -7.3254
# 4 -10.1557 20.6494 9.1822 24.1748 2.8995 0.7183
# 5 20.7886 7.5250 0.4463 2.8995 50.5925 1.2789
# 6 -0.2962 -8.3227 -7.3254 0.7183 1.2789 45.7407
#
#
#
# Elastic Compliance Matrix: (Units=1/GPa)
#
#
# Indices 1 2 3 4 5 6 
#
# 1 0.014816 -0.008069 -0.006524 0.016353 -0.005704 -0.002514
# 2 -0.008069 0.013021 0.000256 -0.014944 0.002169 0.002532
# 3 -0.006524 0.000256 0.019464 -0.010809 0.003009 0.003207
# 4 0.016353 -0.014944 -0.010809 0.066226 -0.008066 -0.005159
# 5 -0.005704 0.002169 0.003009 -0.008066 0.022214 0.000345
# 6 -0.002514 0.002532 0.003207 -0.005159 0.000345 0.022892
#
#
# Mechanical properties :
#
#
# Convention : Reuss Voigt Hill
#
# Bulk Modulus (GPa) = 53.68338 72.14985 62.91662
# Shear Modulus (GPa) = 25.83799 38.31539 32.07669
#
# Velocity S-wave (km/s) = 3.29453 4.01191 3.67078
# Velocity P-wave (km/s) = 6.08465 7.19506 6.66303
#
# Compressibility (1/GPa) = 0.01862774
#
# Stress axis : x y z
#
# Youngs Moduli (GPa) = 67.49617 76.80196 51.37655
#
# Poissons Ratio (x) = 0.61969 0.33517
# Poissons Ratio (y) = 0.54460 -0.01316
# Poissons Ratio (z) = 0.44033 -0.01967
#
# Static dielectric constant tensor:
#      x y z
#    x 4.265040 0.172650 0.248910 
#    y 0.172650 4.639150 0.116710 
#    z 0.248910 0.116710 4.208770 
# 
# 
# High freq. dielectric constant tensor:
#      x y z
#    x 1.928470 0.017020 0.010670 
#    y 0.017020 1.970860 0.013410 
#    z 0.010670 0.013410 1.941340 
# 
# From -- ./inp_files/383529.got.cif
#   From: 2010.06.25/outbox.cif.g09.slc.cpg/sg2_192_cif.got.tgz:383529.got - 2010.06.27 13:26:56.
