data_PCOD8023601
_publ_section_title
;
Structure prediction by ZEFSAII (Michael W. Deem and Ramdas Pophale) SiO2 
 PCOD8023601
Probable space group: P -1
;
_chemical_formula_sum "Si O2"
_cell_formula_units_Z 16
_cell_length_a 13.019044
_cell_length_b 11.538918
_cell_length_c 9.634106
_cell_angle_alpha 53.276394
_cell_angle_beta 48.215405
_cell_angle_gamma 48.835952
_cell_volume 779.009260
_symmetry_space_group_name_H-M "P -1"
_symmetry_group_IT_number 2
_symmetry_cell_setting 'triclinic'
loop_
_space_group_symop_operation_xyz
x,y,z
-x,-y,-z
loop_
_atom_site_type_symbol
_atom_site_label
_atom_site_fract_x
_atom_site_fract_y
_atom_site_fract_z
Si Si1 0.090773 0.596146 0.891625
Si Si2 0.848750 0.726964 0.567370
Si Si3 0.436919 0.439777 0.728023
Si Si4 0.077781 0.117197 0.346784
Si Si5 0.616738 0.371450 0.086161
Si Si6 0.934269 0.365644 0.805597
Si Si7 0.500144 0.121630 0.296700
Si Si8 0.598490 0.071339 0.939134
O O1 0.266526 0.463406 0.830698
O O2 0.057003 0.727089 0.710013
O O3 0.033677 0.687800 0.024719
O O4 0.000000 0.500000 0.000000
O O5 0.873067 0.842429 0.575926
O O6 0.920640 0.545596 0.686513
O O7 0.673640 0.766594 0.668862
O O8 0.927703 0.744498 0.340676
O O9 0.500000 0.500000 0.500000
O O10 0.423320 0.564953 0.768878
O O11 0.542987 0.257679 0.811226
O O12 0.226301 0.035575 0.176922
O O13 0.000000 0.000000 0.500000
O O14 0.593117 0.211309 0.215299
O O15 0.500000 0.500000 0.000000
O O16 0.785095 0.345129 0.905440
O O17 0.500000 0.000000 0.500000
O O18 0.586207 0.043164 0.133551
O O19 0.500000 0.000000 0.000000
#
# Coordination Sequence:
#
# PCOD8023601 Si02
#       8
#     2   2   2   2   2   2   2   2
#     4  11  22  43  68  98 127 173 228 269 325 400
#     4  11  23  45  64 100 135 173 223 282 333 401
#     4  11  25  42  71 102 131 172 231 280 328 405
#     4  12  27  43  68 100 142 176 218 275 350 408
#     4  11  22  44  69  96 131 177 232 279 331 398
#     4  10  23  41  71  96 131 171 229 285 327 386
#     4  12  27  44  68 100 137 180 228 278 343 408
#     4  12  25  46  68  96 144 182 216 286 349 394
#
# _framework density 20.538909
#
# number of rings (size 3 to 8) (size 9 to 14) (size 15 to 20)
#    0.000    0.750    5.000    2.250    5.250    4.000 
#    0.000    1.250    0.000    0.000    0.000    0.000 
#    0.000    0.000    0.000    0.000    0.000    0.000 
#
# Total GULP energy -198374.804474 kJ/mol
# GULP energy per Si atom -12398.425280 kJ/mol
# Density = 2.049216 g / cm^3
# Si number density = 20.538909 Si / 1000 Ang^3
#
#
#
# Elastic Constant Matrix: (Units=GPa)
#
#
# Indices 1 2 3 4 5 6 
#
# 1 125.1223 23.7117 40.5503 7.1555 -14.9569 20.3231
# 2 23.7117 67.0742 24.5880 2.0706 -0.7536 13.8184
# 3 40.5503 24.5880 124.0669 11.6293 0.3261 16.6726
# 4 7.1555 2.0706 11.6293 50.0650 1.0471 -3.0706
# 5 -14.9569 -0.7536 0.3261 1.0471 36.7457 -8.2810
# 6 20.3231 13.8184 16.6726 -3.0706 -8.2810 39.0279
#
#
#
# Elastic Compliance Matrix: (Units=1/GPa)
#
#
# Indices 1 2 3 4 5 6 
#
# 1 0.010101 -0.002022 -0.002429 -0.001043 0.003479 -0.002850
# 2 -0.002022 0.017325 -0.002150 -0.000173 -0.001454 -0.004485
# 3 -0.002429 -0.002150 0.009830 -0.001977 -0.001668 -0.002683
# 4 -0.001043 -0.000173 -0.001977 0.020781 -0.000323 0.003016
# 5 0.003479 -0.001454 -0.001668 -0.000323 0.029918 0.005739
# 6 -0.002850 -0.004485 -0.002683 0.003016 0.005739 0.031296
#
#
# Mechanical properties :
#
#
# Convention : Reuss Voigt Hill
#
# Bulk Modulus (GPa) = 41.57238 54.88484 48.22861
# Shear Modulus (GPa) = 35.59456 40.32860 37.96158
#
# Velocity S-wave (km/s) = 4.16748 4.43597 4.30382
# Velocity P-wave (km/s) = 6.59105 7.28131 6.94476
#
# Compressibility (1/GPa) = 0.02405443
#
# Stress axis : x y z
#
# Youngs Moduli (GPa) = 98.99931 57.72101 101.72521
#
# Poissons Ratio (x) = 0.11671 0.24710
# Poissons Ratio (y) = 0.20017 0.21870
# Poissons Ratio (z) = 0.24047 0.12409
#
# Static dielectric constant tensor:
#      x y z
#    x 3.577270 -0.023920 0.246380 
#    y -0.023920 3.533350 0.236860 
#    z 0.246380 0.236860 3.780630 
# 
# 
# High freq. dielectric constant tensor:
#      x y z
#    x 1.822330 0.005060 -0.002520 
#    y 0.005060 1.794930 0.003900 
#    z -0.002520 0.003900 1.818900 
# 
# From -- ./inp_files/261956.got.cif
#   From: 2010.06.25/outbox.cif.g09.slc.cpg/sg2_131_cif.got.tgz:261956.got - 2010.06.27 13:26:56.
