data_PCOD8023331
_publ_section_title
;
Structure prediction by ZEFSAII (Michael W. Deem and Ramdas Pophale) SiO2 
 PCOD8023331
Probable space group: P -1
;
_chemical_formula_sum "Si O2"
_cell_formula_units_Z 16
_cell_length_a 25.383028
_cell_length_b 8.499471
_cell_length_c 7.800582
_cell_angle_alpha 128.431874
_cell_angle_beta 120.687053
_cell_angle_gamma 36.454407
_cell_volume 783.121036
_symmetry_space_group_name_H-M "P -1"
_symmetry_group_IT_number 2
_symmetry_cell_setting 'triclinic'
loop_
_space_group_symop_operation_xyz
x,y,z
-x,-y,-z
loop_
_atom_site_type_symbol
_atom_site_label
_atom_site_fract_x
_atom_site_fract_y
_atom_site_fract_z
Si Si1 0.472588 0.107676 0.335921
Si Si2 0.346636 0.152395 0.660062
Si Si3 0.663631 0.856257 0.991698
Si Si4 0.330893 0.793468 0.552363
Si Si5 0.141923 0.076648 0.492181
Si Si6 0.216499 0.514694 0.382322
Si Si7 0.007553 0.379339 0.190370
Si Si8 0.044809 0.701545 0.287854
O O1 0.555975 0.984571 0.283681
O O2 0.500000 0.000000 0.500000
O O3 0.433882 0.992380 0.118211
O O4 0.393983 0.454346 0.427974
O O5 0.286615 0.372224 0.555023
O O6 0.352933 0.892256 0.496427
O O7 0.307599 0.311818 0.889958
O O8 0.735665 0.637166 0.820602
O O9 0.656189 0.114749 0.184310
O O10 0.229803 0.962948 0.480551
O O11 0.087255 0.377969 0.706917
O O12 0.081984 0.124467 0.272954
O O13 0.164087 0.848156 0.508981
O O14 0.149222 0.493913 0.295023
O O15 0.036689 0.531189 0.281749
O O16 0.001294 0.235228 0.928466
O O17 0.000000 0.000000 0.500000
#
# Coordination Sequence:
#
# PCOD8023331 Si02
#       8
#     2   2   2   2   2   2   2   2
#     4  12  21  44  68  96 136 166 219 269 318 394
#     4  10  24  42  65  96 131 171 217 268 318 391
#     4  10  24  41  67  94 129 175 214 262 330 381
#     4  10  23  41  65  96 131 171 215 265 326 381
#     4  11  21  43  66  95 132 172 217 274 325 390
#     4  12  22  44  68  96 130 171 222 266 324 387
#     4  10  24  42  65  96 133 169 218 272 331 388
#     4  11  23  43  65  96 129 173 217 269 328 395
#
# _framework density 20.431069000000001
#
# number of rings (size 3 to 8) (size 9 to 14) (size 15 to 20)
#    0.750    0.500    3.750    2.250    0.000    2.000 
#    0.000    1.250    0.000    0.000    0.000    0.000 
#    0.000    0.000    0.000    0.000    0.000    0.000 
#
# Total GULP energy -198363.318237 kJ/mol
# GULP energy per Si atom -12397.707390 kJ/mol
# Density = 2.038457 g / cm^3
# Si number density = 20.431069 Si / 1000 Ang^3
#
#
#
# Elastic Constant Matrix: (Units=GPa)
#
#
# Indices 1 2 3 4 5 6 
#
# 1 85.4435 31.4446 13.9849 0.9514 -11.6259 -29.6984
# 2 31.4446 115.6502 40.9572 -11.1346 -6.7887 -11.7302
# 3 13.9849 40.9572 106.8814 -16.1751 -11.1579 -8.2050
# 4 0.9514 -11.1346 -16.1751 16.1662 2.5514 -1.5515
# 5 -11.6259 -6.7887 -11.1579 2.5514 38.7732 -4.8792
# 6 -29.6984 -11.7302 -8.2050 -1.5515 -4.8792 36.3925
#
#
#
# Elastic Compliance Matrix: (Units=1/GPa)
#
#
# Indices 1 2 3 4 5 6 
#
# 1 0.019506 -0.003701 0.000403 -0.002969 0.007487 0.015693
# 2 -0.003701 0.011208 -0.003103 0.004894 -0.000356 0.000054
# 3 0.000403 -0.003103 0.012576 0.010252 0.002898 0.002990
# 4 -0.002969 0.004894 0.010252 0.076336 -0.001539 0.004513
# 5 0.007487 -0.000356 0.002898 -0.001539 0.030248 0.010638
# 6 0.015693 0.000054 0.002990 0.004513 0.010638 0.042595
#
#
# Mechanical properties :
#
#
# Convention : Reuss Voigt Hill
#
# Bulk Modulus (GPa) = 32.80001 53.41649 43.10825
# Shear Modulus (GPa) = 23.20907 33.03893 28.12400
#
# Velocity S-wave (km/s) = 3.37407 4.02567 3.71419
# Velocity P-wave (km/s) = 5.59178 6.91444 6.28799
#
# Compressibility (1/GPa) = 0.03048780
#
# Stress axis : x y z
#
# Youngs Moduli (GPa) = 51.26583 89.22477 79.51657
#
# Poissons Ratio (x) = 0.33022 -0.03203
# Poissons Ratio (y) = 0.18973 0.24674
# Poissons Ratio (z) = -0.02065 0.27686
#
# Static dielectric constant tensor:
#      x y z
#    x 4.006960 -0.136240 0.042910 
#    y -0.136240 3.575550 -0.126280 
#    z 0.042910 -0.126280 3.644860 
# 
# 
# High freq. dielectric constant tensor:
#      x y z
#    x 1.817870 -0.010980 -0.000790 
#    y -0.010980 1.790290 -0.013350 
#    z -0.000790 -0.013350 1.791040 
# 
# From -- ./inp_files/356538.got.cif
#   From: 2010.06.25/outbox.cif.g09.slc.cpg/sg2_179_cif.got.tgz:356538.got - 2010.06.27 13:26:56.
