data_PCOD8023301
_publ_section_title
;
Structure prediction by ZEFSAII (Michael W. Deem and Ramdas Pophale) SiO2 
 PCOD8023301
Probable space group: P -1
;
_chemical_formula_sum "Si O2"
_cell_formula_units_Z 16
_cell_length_a 11.734660
_cell_length_b 5.177278
_cell_length_c 16.429086
_cell_angle_alpha 85.188687
_cell_angle_beta 57.493097
_cell_angle_gamma 56.967820
_cell_volume 674.131276
_symmetry_space_group_name_H-M "P -1"
_symmetry_group_IT_number 2
_symmetry_cell_setting 'triclinic'
loop_
_space_group_symop_operation_xyz
x,y,z
-x,-y,-z
loop_
_atom_site_type_symbol
_atom_site_label
_atom_site_fract_x
_atom_site_fract_y
_atom_site_fract_z
Si Si1 0.410215 0.701392 0.315108
Si Si2 0.608704 0.901720 0.836585
Si Si3 0.725134 0.869776 0.966134
Si Si4 0.679630 0.706429 0.407073
Si Si5 0.144801 0.615311 0.358847
Si Si6 0.061371 0.889184 0.070208
Si Si7 0.810563 0.799995 0.502457
Si Si8 0.728488 0.168506 0.288276
O O1 0.446177 0.846989 0.221817
O O2 0.238118 0.740516 0.364676
O O3 0.579467 0.343886 0.273198
O O4 0.374447 0.869551 0.413917
O O5 0.677774 0.971309 0.887235
O O6 0.758231 0.541856 0.759077
O O7 0.445672 0.918846 0.921324
O O8 0.814536 0.494169 0.957732
O O9 0.843934 0.961839 0.944619
O O10 0.798255 0.587963 0.445105
O O11 0.691698 0.407217 0.371261
O O12 0.500000 0.000000 0.500000
O O13 0.744457 0.852456 0.316481
O O14 0.145396 0.356138 0.420372
O O15 0.942571 0.873836 0.417858
O O16 0.902535 0.047277 0.185011
O O17 0.000000 0.000000 0.000000
#
# Coordination Sequence:
#
# PCOD8023301 Si02
#       8
#     2   2   2   2   2   2   2   2
#     4  11  23  43  68 100 139 186 235 282 352 420
#     4  10  26  43  72 101 135 184 228 299 348 421
#     4  11  27  49  73 106 140 177 237 291 363 405
#     4  12  25  46  68 105 144 190 235 291 340 421
#     4  10  23  41  68  97 136 184 237 283 355 409
#     4  12  28  50  75 106 144 184 233 296 349 423
#     4  10  23  41  64  99 140 183 234 288 346 412
#     4  12  28  43  75 103 141 193 236 282 359 417
#
# _framework density 23.734252000000001
#
# number of rings (size 3 to 8) (size 9 to 14) (size 15 to 20)
#    0.000    1.000    1.250    3.375   12.250    1.000 
#    0.000    0.000    0.000    0.000    0.000    0.000 
#    0.000    0.000    0.000    0.000    0.000    0.000 
#
# Total GULP energy -198300.584729 kJ/mol
# GULP energy per Si atom -12393.786546 kJ/mol
# Density = 2.368023 g / cm^3
# Si number density = 23.734252 Si / 1000 Ang^3
#
#
#
# Elastic Constant Matrix: (Units=GPa)
#
#
# Indices 1 2 3 4 5 6 
#
# 1 90.8607 13.0997 19.4433 -14.4484 -9.9066 1.7604
# 2 13.0997 68.1911 21.8099 -0.3726 -4.6795 7.2964
# 3 19.4433 21.8099 139.7354 0.0678 -8.3230 -11.7035
# 4 -14.4484 -0.3726 0.0678 25.3750 -4.1246 -1.8636
# 5 -9.9066 -4.6795 -8.3230 -4.1246 38.8261 -2.6239
# 6 1.7604 7.2964 -11.7035 -1.8636 -2.6239 36.8935
#
#
#
# Elastic Compliance Matrix: (Units=1/GPa)
#
#
# Indices 1 2 3 4 5 6 
#
# 1 0.013256 -0.001813 -0.001345 0.008131 0.003738 -0.000024
# 2 -0.001813 0.016300 -0.002589 -0.000984 0.000574 -0.003967
# 3 -0.001345 -0.002589 0.008092 -0.000385 0.001256 0.003213
# 4 0.008131 -0.000984 -0.000385 0.045320 0.006854 0.002461
# 5 0.003738 0.000574 0.001256 0.006854 0.027941 0.002440
# 6 -0.000024 -0.003967 0.003213 0.002461 0.002440 0.029208
#
#
# Mechanical properties :
#
#
# Convention : Reuss Voigt Hill
#
# Bulk Modulus (GPa) = 38.23652 45.27700 41.75676
# Shear Modulus (GPa) = 31.18609 36.51452 33.85031
#
# Velocity S-wave (km/s) = 3.62880 3.92659 3.78063
# Velocity P-wave (km/s) = 5.80542 6.29886 6.05716
#
# Compressibility (1/GPa) = 0.02615301
#
# Stress axis : x y z
#
# Youngs Moduli (GPa) = 75.43817 61.35109 123.58283
#
# Poissons Ratio (x) = 0.11122 0.16620
# Poissons Ratio (y) = 0.13676 0.32000
# Poissons Ratio (z) = 0.10145 0.15886
#
# Static dielectric constant tensor:
#      x y z
#    x 4.409380 -0.239000 -0.109540 
#    y -0.239000 4.070610 0.172160 
#    z -0.109540 0.172160 4.623780 
# 
# 
# High freq. dielectric constant tensor:
#      x y z
#    x 1.954500 -0.007600 -0.006730 
#    y -0.007600 1.925870 0.001200 
#    z -0.006730 0.001200 1.960590 
# 
# From -- ./inp_files/81523.got.cif
#   From: 2010.06.25/outbox.cif.g09.slc.cpg/sg2_41_cif.got.tgz:81523.got - 2010.06.27 13:26:56.
