data_PCOD8023950
_publ_section_title
;
Structure prediction by ZEFSAII (Michael W. Deem and Ramdas Pophale) SiO2 
 PCOD8023950
Probable space group: P -1
;
_chemical_formula_sum "Si O2"
_cell_formula_units_Z 16
_cell_length_a 12.085941
_cell_length_b 6.286690
_cell_length_c 13.839122
_cell_angle_alpha 80.408767
_cell_angle_beta 124.087786
_cell_angle_gamma 129.476104
_cell_volume 641.910375
_symmetry_space_group_name_H-M "P -1"
_symmetry_group_IT_number 2
_symmetry_cell_setting 'triclinic'
loop_
_space_group_symop_operation_xyz
x,y,z
-x,-y,-z
loop_
_atom_site_type_symbol
_atom_site_label
_atom_site_fract_x
_atom_site_fract_y
_atom_site_fract_z
Si Si1 0.081905 0.093933 0.222829
Si Si2 0.119407 0.416906 0.379630
Si Si3 0.281924 0.981933 0.741528
Si Si4 0.484672 0.585792 0.878079
Si Si5 0.219761 0.842369 0.235005
Si Si6 0.751504 0.438302 0.102057
Si Si7 0.385982 0.799912 0.651803
Si Si8 0.851484 0.209700 0.008784
O O1 0.174568 0.265563 0.355512
O O2 0.226724 0.111933 0.230562
O O3 0.926267 0.756645 0.190520
O O4 0.014812 0.246695 0.131264
O O5 0.119850 0.628770 0.294097
O O6 0.252553 0.584847 0.519611
O O7 0.920633 0.151715 0.340500
O O8 0.301936 0.792310 0.829118
O O9 0.326247 0.967845 0.653039
O O10 0.434031 0.296694 0.835582
O O11 0.409919 0.555788 0.956028
O O12 0.377410 0.618119 0.746378
O O13 0.693511 0.864196 0.948688
O O14 0.104690 0.672857 0.091559
O O15 0.417041 0.959233 0.314754
O O16 0.776314 0.341263 0.019250
#
# Coordination Sequence:
#
# PCOD8023950 Si02
#       8
#     2   2   2   2   2   2   2   2
#     4  12  24  41  68  97 139 176 227 267 334 395
#     4  12  24  46  70 100 133 178 224 278 336 395
#     4  11  22  45  70 102 135 172 222 277 337 398
#     4  10  23  42  68 103 136 169 224 273 339 395
#     4  11  26  46  66  99 135 177 228 274 332 396
#     4  11  21  42  65 101 136 176 216 275 335 394
#     4  10  26  44  72  99 134 176 221 282 334 393
#     4  11  24  42  66 101 134 180 218 277 328 398
#
# _framework density 24.925598999999998
#
# number of rings (size 3 to 8) (size 9 to 14) (size 15 to 20)
#    0.000    1.000    3.750    1.500    0.000   12.000 
#    0.000    0.000    0.000    0.000    0.000    0.000 
#    0.000    0.000    0.000    0.000    0.000    0.000 
#
# Total GULP energy -198292.908718 kJ/mol
# GULP energy per Si atom -12393.306795 kJ/mol
# Density = 2.486887 g / cm^3
# Si number density = 24.925599 Si / 1000 Ang^3
#
#
#
# Elastic Constant Matrix: (Units=GPa)
#
#
# Indices 1 2 3 4 5 6 
#
# 1 148.6321 25.9707 50.6830 5.4521 -15.6504 -7.8029
# 2 25.9707 111.4332 32.1770 11.8244 -14.1524 0.3632
# 3 50.6830 32.1770 151.0939 31.6953 -32.1644 -10.4813
# 4 5.4521 11.8244 31.6953 33.0804 -3.4058 -4.6375
# 5 -15.6504 -14.1524 -32.1644 -3.4058 31.5525 5.3087
# 6 -7.8029 0.3632 -10.4813 -4.6375 5.3087 36.0710
#
#
#
# Elastic Compliance Matrix: (Units=1/GPa)
#
#
# Indices 1 2 3 4 5 6 
#
# 1 0.007871 -0.001198 -0.002506 0.001770 0.000819 0.001093
# 2 -0.001198 0.010132 -0.000577 -0.002723 0.003297 -0.001364
# 3 -0.002506 -0.000577 0.011542 -0.009457 0.009201 0.000247
# 4 0.001770 -0.002723 -0.009457 0.039843 -0.006308 0.003713
# 5 0.000819 0.003297 0.009201 -0.006308 0.043004 -0.004323
# 6 0.001093 -0.001364 0.000247 0.003713 -0.004323 0.029159
#
#
# Mechanical properties :
#
#
# Convention : Reuss Voigt Hill
#
# Bulk Modulus (GPa) = 47.66129 69.86897 58.76513
# Shear Modulus (GPa) = 31.82535 40.29600 36.06067
#
# Velocity S-wave (km/s) = 3.57713 4.02512 3.80772
# Velocity P-wave (km/s) = 6.01864 7.04940 6.55431
#
# Compressibility (1/GPa) = 0.02098139
#
# Stress axis : x y z
#
# Youngs Moduli (GPa) = 127.05462 98.69643 86.64261
#
# Poissons Ratio (x) = 0.11824 0.21713
# Poissons Ratio (y) = 0.15222 0.05003
# Poissons Ratio (z) = 0.31841 0.05699
#
# Static dielectric constant tensor:
#      x y z
#    x 5.361120 -0.264700 -0.201050 
#    y -0.264700 4.822680 0.058390 
#    z -0.201050 0.058390 4.517110 
# 
# 
# High freq. dielectric constant tensor:
#      x y z
#    x 2.013570 -0.007540 -0.009190 
#    y -0.007540 2.014770 0.014340 
#    z -0.009190 0.014340 1.984670 
# 
# From -- ./inp_files/80948.got.cif
#   From: 2010.06.25/outbox.cif.g09.slc.cpg/sg2_41_cif.got.tgz:80948.got - 2010.06.27 13:26:56.
