data_PCOD8023181
_publ_section_title
;
Structure prediction by ZEFSAII (Michael W. Deem and Ramdas Pophale) SiO2 
 PCOD8023181
Probable space group: P -1
;
_chemical_formula_sum "Si O2"
_cell_formula_units_Z 16
_cell_length_a 8.525133
_cell_length_b 20.362378
_cell_length_c 9.154670
_cell_angle_alpha 79.129004
_cell_angle_beta 48.358567
_cell_angle_gamma 115.530778
_cell_volume 760.707441
_symmetry_space_group_name_H-M "P -1"
_symmetry_group_IT_number 2
_symmetry_cell_setting 'triclinic'
loop_
_space_group_symop_operation_xyz
x,y,z
-x,-y,-z
loop_
_atom_site_type_symbol
_atom_site_label
_atom_site_fract_x
_atom_site_fract_y
_atom_site_fract_z
Si Si1 0.720885 0.406745 0.812136
Si Si2 0.895265 0.932375 0.236501
Si Si3 0.716384 0.770488 0.223576
Si Si4 0.934977 0.444287 0.205767
Si Si5 0.301578 0.044904 0.211401
Si Si6 0.655562 0.251848 0.785535
Si Si7 0.781840 0.612914 0.838210
Si Si8 0.427623 0.920609 0.681355
O O1 0.698372 0.321989 0.845607
O O2 0.000000 0.500000 0.500000
O O3 0.828413 0.455194 0.883471
O O4 0.372302 0.356793 0.010465
O O5 0.765496 0.828998 0.310688
O O6 0.609883 0.900525 0.512440
O O7 0.189636 0.988881 0.146061
O O8 0.000000 0.000000 0.000000
O O9 0.440089 0.647478 0.473276
O O10 0.624779 0.796199 0.134021
O O11 0.047213 0.812895 0.961568
O O12 0.033228 0.389233 0.157388
O O13 0.000000 0.500000 0.000000
O O14 0.465325 0.035244 0.235099
O O15 0.561431 0.165350 0.973276
O O16 0.000000 0.000000 0.500000
O O17 0.980884 0.312317 0.473034
O O18 0.500000 0.500000 0.000000
O O19 0.500000 0.000000 0.500000
#
# Coordination Sequence:
#
# PCOD8023181 Si02
#       8
#     2   2   2   2   2   2   2   2
#     4  11  20  41  67  89 122 167 211 255 314 374
#     4  11  21  42  65  88 128 162 202 261 316 365
#     4  11  22  40  63  90 125 162 205 258 314 367
#     4  10  23  41  60  92 132 160 207 266 305 370
#     4  10  23  42  63  93 126 162 211 259 307 380
#     4  11  21  40  66  91 123 165 208 260 314 375
#     4   9  19  37  65  89 122 161 205 252 312 367
#     4  11  23  41  64  91 126 165 209 258 311 374
#
# _framework density 21.033051
#
# number of rings (size 3 to 8) (size 9 to 14) (size 15 to 20)
#    0.000    1.500    6.250    0.750    0.000    6.500 
#    0.000    0.625    0.000    0.000    0.000    0.000 
#    0.000    0.000    0.000    0.000    0.000    0.000 
#
# Total GULP energy -198231.632650 kJ/mol
# GULP energy per Si atom -12389.477041 kJ/mol
# Density = 2.098518 g / cm^3
# Si number density = 21.033051 Si / 1000 Ang^3
#
#
#
# Elastic Constant Matrix: (Units=GPa)
#
#
# Indices 1 2 3 4 5 6 
#
# 1 114.1078 31.5643 63.2829 0.5873 15.8984 20.8585
# 2 31.5643 97.9023 22.2620 2.1174 -0.5713 3.0921
# 3 63.2829 22.2620 135.5896 2.5194 -8.7342 -8.6022
# 4 0.5873 2.1174 2.5194 34.6179 -3.6399 -2.8022
# 5 15.8984 -0.5713 -8.7342 -3.6399 45.9984 2.4149
# 6 20.8585 3.0921 -8.6022 -2.8022 2.4149 32.5615
#
#
#
# Elastic Compliance Matrix: (Units=1/GPa)
#
#
# Indices 1 2 3 4 5 6 
#
# 1 0.018431 -0.003402 -0.009365 -0.001314 -0.007586 -0.013509
# 2 -0.003402 0.011326 -0.000126 -0.000422 0.001210 0.000944
# 3 -0.009365 -0.000126 0.012665 0.000522 0.005208 0.009016
# 4 -0.001314 -0.000422 0.000522 0.029453 0.002703 0.003354
# 5 -0.007586 0.001210 0.005208 0.002703 0.025345 0.004473
# 6 -0.013509 0.000944 0.009016 0.003354 0.004473 0.041614
#
#
# Mechanical properties :
#
#
# Convention : Reuss Voigt Hill
#
# Bulk Modulus (GPa) = 60.11180 64.64646 62.37913
# Shear Modulus (GPa) = 29.38331 38.00161 33.69246
#
# Velocity S-wave (km/s) = 3.74171 4.25521 4.00669
# Velocity P-wave (km/s) = 6.87815 7.41247 7.15030
#
# Compressibility (1/GPa) = 0.01663567
#
# Stress axis : x y z
#
# Youngs Moduli (GPa) = 54.25501 88.29127 78.96055
#
# Poissons Ratio (x) = 0.30038 0.73947
# Poissons Ratio (y) = 0.18458 0.00996
# Poissons Ratio (z) = 0.50810 0.01113
#
# Static dielectric constant tensor:
#      x y z
#    x 4.472480 0.020670 -0.358550 
#    y 0.020670 3.673820 0.238270 
#    z -0.358550 0.238270 4.144360 
# 
# 
# High freq. dielectric constant tensor:
#      x y z
#    x 1.819350 0.012860 -0.010030 
#    y 0.012860 1.810620 0.000920 
#    z -0.010030 0.000920 1.837200 
# 
# From -- ./inp_files/223579.got.cif
#   From: 2010.06.25/outbox.cif.g09.slc.cpg/sg2_112_cif.got.tgz:223579.got - 2010.06.27 13:26:56.
