data_PCOD8023278
_publ_section_title
;
Structure prediction by ZEFSAII (Michael W. Deem and Ramdas Pophale) SiO2 
 PCOD8023278
Probable space group: P -1
;
_chemical_formula_sum "Si O2"
_cell_formula_units_Z 16
_cell_length_a 6.309186
_cell_length_b 24.067689
_cell_length_c 7.776643
_cell_angle_alpha 53.512572
_cell_angle_beta 111.141210
_cell_angle_gamma 77.712196
_cell_volume 727.677806
_symmetry_space_group_name_H-M "P -1"
_symmetry_group_IT_number 2
_symmetry_cell_setting 'triclinic'
loop_
_space_group_symop_operation_xyz
x,y,z
-x,-y,-z
loop_
_atom_site_type_symbol
_atom_site_label
_atom_site_fract_x
_atom_site_fract_y
_atom_site_fract_z
Si Si1 0.207041 0.211024 0.304567
Si Si2 0.945497 0.752264 0.427775
Si Si3 0.680242 0.105966 0.076105
Si Si4 0.841342 0.516977 0.597344
Si Si5 0.205614 0.567512 0.713669
Si Si6 0.227635 0.615928 0.255766
Si Si7 0.803657 0.150170 0.676660
Si Si8 0.089215 0.078496 0.536510
O O1 0.043202 0.249210 0.361977
O O2 0.501511 0.196820 0.418790
O O3 0.237282 0.123958 0.437157
O O4 0.008485 0.284555 0.976002
O O5 0.073226 0.658855 0.582505
O O6 0.136643 0.782488 0.364854
O O7 0.634112 0.814813 0.152182
O O8 0.825196 0.113684 0.271128
O O9 0.827123 0.100002 0.948551
O O10 0.691328 0.020737 0.247951
O O11 0.523973 0.598177 0.330497
O O12 0.849210 0.433839 0.808384
O O13 0.000000 0.500000 0.500000
O O14 0.996677 0.539282 0.739877
O O15 0.258724 0.569975 0.525716
O O16 0.500000 0.500000 0.000000
O O17 0.014450 0.091860 0.693586
#
# Coordination Sequence:
#
# PCOD8023278 Si02
#       8
#     2   2   2   2   2   2   2   2
#     4  10  24  40  66  93 127 166 213 259 315 382
#     4  10  25  41  62  93 132 164 212 267 313 378
#     4  10  23  43  65  96 129 169 215 264 317 379
#     4   9  22  41  62  87 117 161 206 260 305 378
#     4  11  26  40  63  94 126 164 208 265 315 374
#     4  10  23  41  66  90 120 168 210 257 319 380
#     4  10  23  41  64  94 130 175 208 261 318 378
#     4  10  23  41  67  96 129 167 216 264 314 382
#
# _framework density 21.987753000000001
#
# number of rings (size 3 to 8) (size 9 to 14) (size 15 to 20)
#    0.000    2.000    0.000    0.375   12.250    9.000 
#    0.000    2.500    0.000    0.000    0.000    0.000 
#    0.000    0.000    0.000    0.000    0.000    0.000 
#
# Total GULP energy -198333.279020 kJ/mol
# GULP energy per Si atom -12395.829939 kJ/mol
# Density = 2.193771 g / cm^3
# Si number density = 21.987753 Si / 1000 Ang^3
#
#
#
# Elastic Constant Matrix: (Units=GPa)
#
#
# Indices 1 2 3 4 5 6 
#
# 1 79.2019 31.8809 27.6193 -4.1651 7.7013 27.7521
# 2 31.8809 124.0613 43.5490 -13.9972 7.8911 32.4646
# 3 27.6193 43.5490 119.0411 -13.2738 5.0778 15.6157
# 4 -4.1651 -13.9972 -13.2738 34.1352 -2.3706 -0.2357
# 5 7.7013 7.8911 5.0778 -2.3706 25.5490 3.5741
# 6 27.7521 32.4646 15.6157 -0.2357 3.5741 38.7811
#
#
#
# Elastic Compliance Matrix: (Units=1/GPa)
#
#
# Indices 1 2 3 4 5 6 
#
# 1 0.017888 -0.000622 -0.002251 0.000758 -0.003132 -0.011080
# 2 -0.000622 0.011787 -0.002630 0.003577 -0.001450 -0.008208
# 3 -0.002251 -0.002630 0.010221 0.002601 -0.000262 -0.000263
# 4 0.000758 0.003577 0.002601 0.031956 0.001752 -0.004552
# 5 -0.003132 -0.001450 -0.000262 0.001752 0.040773 -0.000186
# 6 -0.011080 -0.008208 -0.000263 -0.004552 -0.000186 0.040681
#
#
# Mechanical properties :
#
#
# Convention : Reuss Voigt Hill
#
# Bulk Modulus (GPa) = 34.61536 58.71142 46.66339
# Shear Modulus (GPa) = 28.74479 34.31007 31.52743
#
# Velocity S-wave (km/s) = 3.61960 3.95450 3.79075
# Velocity P-wave (km/s) = 5.76592 6.90004 6.35832
#
# Compressibility (1/GPa) = 0.02888891
#
# Stress axis : x y z
#
# Youngs Moduli (GPa) = 55.90197 84.83588 97.84061
#
# Poissons Ratio (x) = 0.05281 0.22024
# Poissons Ratio (y) = 0.03480 0.25736
# Poissons Ratio (z) = 0.12584 0.22315
#
# Static dielectric constant tensor:
#      x y z
#    x 4.229730 0.541170 0.011410 
#    y 0.541170 4.632880 0.308250 
#    z 0.011410 0.308250 4.010780 
# 
# 
# High freq. dielectric constant tensor:
#      x y z
#    x 1.866230 0.013750 0.001740 
#    y 0.013750 1.874000 -0.000020 
#    z 0.001740 -0.000020 1.859090 
# 
# From -- ./inp_files/53407.got.cif
#   From: 2010.06.25/outbox.cif.g09.slc.cpg/sg2_27_cif.got.tgz:53407.got - 2010.06.27 13:26:56.
