data_PCOD8023302
_publ_section_title
;
Structure prediction by ZEFSAII (Michael W. Deem and Ramdas Pophale) SiO2 
 PCOD8023302
Probable space group: P -1
;
_chemical_formula_sum "Si O2"
_cell_formula_units_Z 16
_cell_length_a 9.280187
_cell_length_b 8.834891
_cell_length_c 14.958118
_cell_angle_alpha 69.359440
_cell_angle_beta 78.188622
_cell_angle_gamma 127.191508
_cell_volume 757.214693
_symmetry_space_group_name_H-M "P -1"
_symmetry_group_IT_number 2
_symmetry_cell_setting 'triclinic'
loop_
_space_group_symop_operation_xyz
x,y,z
-x,-y,-z
loop_
_atom_site_type_symbol
_atom_site_label
_atom_site_fract_x
_atom_site_fract_y
_atom_site_fract_z
Si Si1 0.910130 0.251974 0.041186
Si Si2 0.651008 0.982934 0.445088
Si Si3 0.800649 0.805613 0.928305
Si Si4 0.862203 0.497762 0.709472
Si Si5 0.537013 0.440410 0.327545
Si Si6 0.004323 0.295499 0.818175
Si Si7 0.458718 0.194443 0.705203
Si Si8 0.592139 0.519798 0.840908
O O1 0.079292 0.264338 0.058604
O O2 0.672836 0.020535 0.160935
O O3 0.000000 0.500000 0.000000
O O4 0.898786 0.231834 0.941039
O O5 0.607483 0.773351 0.538365
O O6 0.594463 0.923185 0.359843
O O7 0.500000 0.000000 0.500000
O O8 0.903095 0.225404 0.384191
O O9 0.665091 0.686804 0.879554
O O10 0.656379 0.731807 0.050182
O O11 0.965009 0.083755 0.832226
O O12 0.716713 0.393960 0.658683
O O13 0.735071 0.475855 0.813989
O O14 0.896233 0.336609 0.757306
O O15 0.733754 0.480044 0.265266
O O16 0.612366 0.674586 0.310397
O O17 0.395795 0.359420 0.273724
#
# Coordination Sequence:
#
# PCOD8023302 Si02
#       8
#     2   2   2   2   2   2   2   2
#     4  12  24  40  72 101 143 182 220 274 344 415
#     4  12  26  47  72  96 136 180 232 288 340 397
#     4  11  22  39  67 100 138 177 220 270 340 415
#     4  11  26  46  66 104 136 177 230 287 335 404
#     4  11  23  45  70  95 132 180 228 275 334 406
#     4  12  22  41  68 100 134 177 219 274 342 403
#     4  11  26  46  71 102 135 180 230 277 343 401
#     4  10  23  41  65 100 137 171 224 279 335 405
#
# _framework density 21.130071999999998
#
# number of rings (size 3 to 8) (size 9 to 14) (size 15 to 20)
#    0.000    0.750    3.750    4.500    0.000    7.500 
#    2.250    0.000    0.000    0.000    0.000    0.000 
#    0.000    0.000    0.000    0.000    0.000    0.000 
#
# Total GULP energy -198375.898918 kJ/mol
# GULP energy per Si atom -12398.493682 kJ/mol
# Density = 2.108198 g / cm^3
# Si number density = 21.130072 Si / 1000 Ang^3
#
#
#
# Elastic Constant Matrix: (Units=GPa)
#
#
# Indices 1 2 3 4 5 6 
#
# 1 131.8701 41.2472 46.3492 -11.2955 -1.0930 -6.4324
# 2 41.2472 104.5242 53.3714 -10.8448 -0.3080 1.8529
# 3 46.3492 53.3714 110.9298 -9.5544 3.9814 2.0832
# 4 -11.2955 -10.8448 -9.5544 37.4594 -3.4218 2.9378
# 5 -1.0930 -0.3080 3.9814 -3.4218 34.9194 -6.8859
# 6 -6.4324 1.8529 2.0832 2.9378 -6.8859 39.4965
#
#
#
# Elastic Compliance Matrix: (Units=1/GPa)
#
#
# Indices 1 2 3 4 5 6 
#
# 1 0.009496 -0.002155 -0.002881 0.001459 0.001122 0.001887
# 2 -0.002155 0.013385 -0.005382 0.001974 0.000716 -0.000717
# 3 -0.002881 -0.005382 0.012966 0.000817 -0.001787 -0.001273
# 4 0.001459 0.001974 0.000817 0.028261 0.002428 -0.001577
# 5 0.001122 0.000716 -0.001787 0.002428 0.030170 0.005323
# 6 0.001887 -0.000717 -0.001273 -0.001577 0.005323 0.026772
#
#
# Mechanical properties :
#
#
# Convention : Reuss Voigt Hill
#
# Bulk Modulus (GPa) = 66.61284 69.91775 68.26529
# Shear Modulus (GPa) = 34.03906 36.13216 35.08561
#
# Velocity S-wave (km/s) = 4.01799 4.13969 4.07929
# Velocity P-wave (km/s) = 7.28830 7.48401 7.38680
#
# Compressibility (1/GPa) = 0.01501212
#
# Stress axis : x y z
#
# Youngs Moduli (GPa) = 105.30552 74.70902 77.12406
#
# Poissons Ratio (x) = 0.16101 0.22218
# Poissons Ratio (y) = 0.22694 0.41506
# Poissons Ratio (z) = 0.30337 0.40207
#
# Static dielectric constant tensor:
#      x y z
#    x 3.880970 -0.042190 -0.092270 
#    y -0.042190 4.191700 -0.337250 
#    z -0.092270 -0.337250 4.144130 
# 
# 
# High freq. dielectric constant tensor:
#      x y z
#    x 1.836770 -0.003020 -0.002250 
#    y -0.003020 1.831910 -0.003730 
#    z -0.002250 -0.003730 1.828280 
# 
# From -- ./inp_files/188228.got.cif
#   From: 2010.06.25/outbox.cif.g09.slc.cpg/sg2_95_cif.got.tgz:188228.got - 2010.06.27 13:26:56.
