data_PCOD8023967
_publ_section_title
;
Structure prediction by ZEFSAII (Michael W. Deem and Ramdas Pophale) SiO2 
 PCOD8023967
Probable space group: P -1
;
_chemical_formula_sum "Si O2"
_cell_formula_units_Z 16
_cell_length_a 5.387012
_cell_length_b 7.294619
_cell_length_c 21.353880
_cell_angle_alpha 46.324824
_cell_angle_beta 84.469452
_cell_angle_gamma 100.914346
_cell_volume 564.634567
_symmetry_space_group_name_H-M "P -1"
_symmetry_group_IT_number 2
_symmetry_cell_setting 'triclinic'
loop_
_space_group_symop_operation_xyz
x,y,z
-x,-y,-z
loop_
_atom_site_type_symbol
_atom_site_label
_atom_site_fract_x
_atom_site_fract_y
_atom_site_fract_z
Si Si1 0.466213 0.540390 0.294496
Si Si2 0.257577 0.159572 0.995098
Si Si3 0.606752 0.621769 0.534921
Si Si4 0.658985 0.012187 0.717643
Si Si5 0.851891 0.333643 0.137419
Si Si6 0.047761 0.917452 0.181896
Si Si7 0.276877 0.555967 0.168620
Si Si8 0.234602 0.901456 0.443013
O O1 0.431458 0.605989 0.354358
O O2 0.277559 0.623344 0.228745
O O3 0.766120 0.681998 0.228705
O O4 0.375392 0.218631 0.375474
O O5 0.243096 0.968133 0.102570
O O6 0.256381 0.457487 0.945510
O O7 0.520319 0.206273 0.935260
O O8 0.000000 0.000000 0.000000
O O9 0.500000 0.500000 0.500000
O O10 0.396344 0.776517 0.516073
O O11 0.917403 0.815120 0.483141
O O12 0.367920 0.952859 0.768547
O O13 0.647354 0.711378 0.771120
O O14 0.854486 0.154875 0.736464
O O15 0.731970 0.185484 0.610113
O O16 0.988209 0.486079 0.161875
O O17 0.034862 0.222593 0.115203
#
# Coordination Sequence:
#
# PCOD8023967 Si02
#       8
#     2   2   2   2   2   2   2   2
#     4  11  24  46  70 105 140 185 235 294 360 427
#     4  11  22  42  63  98 139 179 233 290 357 418
#     4  12  27  49  77 109 146 190 238 301 360 437
#     4   9  22  41  69  97 132 184 228 293 348 422
#     4  10  23  42  68  94 134 190 230 290 355 418
#     4  11  23  43  66 101 137 178 243 287 350 430
#     4   9  21  43  66  94 135 178 231 289 345 430
#     4  11  26  49  75 106 150 190 237 297 365 432
#
# _framework density 28.336908999999999
#
# number of rings (size 3 to 8) (size 9 to 14) (size 15 to 20)
#    0.000    1.500    1.250    2.250    7.000    6.000 
#    9.000    0.000    0.000    0.000    0.000    0.000 
#    0.000    0.000    0.000    0.000    0.000    0.000 
#
# Total GULP energy -198308.325208 kJ/mol
# GULP energy per Si atom -12394.270325 kJ/mol
# Density = 2.827241 g / cm^3
# Si number density = 28.336909 Si / 1000 Ang^3
#
#
#
# Elastic Constant Matrix: (Units=GPa)
#
#
# Indices 1 2 3 4 5 6 
#
# 1 112.1968 29.0607 60.0953 -1.3940 6.0385 26.5289
# 2 29.0607 115.7365 58.6384 6.2720 -3.6616 6.5472
# 3 60.0953 58.6384 184.4628 13.4475 21.4403 17.3446
# 4 -1.3940 6.2720 13.4475 49.7331 4.0293 -7.7048
# 5 6.0385 -3.6616 21.4403 4.0293 57.5066 -3.7846
# 6 26.5289 6.5472 17.3446 -7.7048 -3.7846 50.0698
#
#
#
# Elastic Compliance Matrix: (Units=1/GPa)
#
#
# Indices 1 2 3 4 5 6 
#
# 1 0.012127 -0.001265 -0.003034 0.000568 -0.000603 -0.005167
# 2 -0.001265 0.010661 -0.003218 -0.000608 0.002084 0.000455
# 3 -0.003034 -0.003218 0.008009 -0.001808 -0.002827 -0.001238
# 4 0.000568 -0.000608 -0.001808 0.021306 -0.000678 0.003632
# 5 -0.000603 0.002084 -0.002827 -0.000678 0.018841 0.002346
# 6 -0.005167 0.000455 -0.001238 0.003632 0.002346 0.023815
#
#
# Mechanical properties :
#
#
# Convention : Reuss Voigt Hill
#
# Bulk Modulus (GPa) = 63.43694 78.66498 71.05096
# Shear Modulus (GPa) = 43.45970 49.10202 46.28086
#
# Velocity S-wave (km/s) = 3.92047 4.16720 4.04572
# Velocity P-wave (km/s) = 6.55200 7.13967 6.85214
#
# Compressibility (1/GPa) = 0.01576368
#
# Stress axis : x y z
#
# Youngs Moduli (GPa) = 82.46049 93.79659 124.85616
#
# Poissons Ratio (x) = 0.11868 0.37883
# Poissons Ratio (y) = 0.10434 0.40173
# Poissons Ratio (z) = 0.25019 0.30179
#
# Static dielectric constant tensor:
#      x y z
#    x 5.720120 -0.406250 0.440890 
#    y -0.406250 5.821720 0.298010 
#    z 0.440890 0.298010 5.964880 
# 
# 
# High freq. dielectric constant tensor:
#      x y z
#    x 2.168150 -0.030350 0.031430 
#    y -0.030350 2.184920 -0.008600 
#    z 0.031430 -0.008600 2.170120 
# 
# From -- ./inp_files/603987.got.cif
#   From: 2010.06.25/outbox.cif.g09.slc.cpg/sg2_302_cif.got.tgz:603987.got - 2010.06.27 13:26:56.
