data_PCOD8023197
_publ_section_title
;
Structure prediction by ZEFSAII (Michael W. Deem and Ramdas Pophale) SiO2 
 PCOD8023197
Probable space group: P -1
;
_chemical_formula_sum "Si O2"
_cell_formula_units_Z 16
_cell_length_a 8.500198
_cell_length_b 15.101563
_cell_length_c 14.719715
_cell_angle_alpha 150.382840
_cell_angle_beta 91.580218
_cell_angle_gamma 71.042942
_cell_volume 740.337526
_symmetry_space_group_name_H-M "P -1"
_symmetry_group_IT_number 2
_symmetry_cell_setting 'triclinic'
loop_
_space_group_symop_operation_xyz
x,y,z
-x,-y,-z
loop_
_atom_site_type_symbol
_atom_site_label
_atom_site_fract_x
_atom_site_fract_y
_atom_site_fract_z
Si Si1 0.235036 0.920743 0.497685
Si Si2 0.144925 0.405213 0.163693
Si Si3 0.628753 0.534836 0.097166
Si Si4 0.913297 0.343912 0.790495
Si Si5 0.984478 0.149764 0.866612
Si Si6 0.552853 0.059264 0.959671
Si Si7 0.129235 0.432216 0.531831
Si Si8 0.850439 0.168735 0.073299
O O1 0.477364 0.765065 0.359657
O O2 0.174384 0.794957 0.322699
O O3 0.142331 0.166527 0.669607
O O4 0.142584 0.947632 0.620945
O O5 0.122094 0.575225 0.240635
O O6 0.003466 0.551186 0.374544
O O7 0.366456 0.232585 0.049245
O O8 0.078675 0.276147 0.996377
O O9 0.500000 0.500000 0.000000
O O10 0.783174 0.543479 0.042833
O O11 0.761781 0.323798 0.979433
O O12 0.960497 0.062287 0.883462
O O13 0.683126 0.827556 0.699381
O O14 0.657186 0.177837 0.085557
O O15 0.500000 0.000000 0.000000
O O16 0.200287 0.587175 0.690487
O O17 0.000000 0.500000 0.500000
O O18 0.000000 0.000000 0.000000
#
# Coordination Sequence:
#
# PCOD8023197 Si02
#       8
#     2   2   2   2   2   2   2   2
#     4   9  19  37  64  89 125 171 218 264 332 400
#     4  11  25  42  62  98 134 172 225 279 330 408
#     4   9  19  37  62  91 129 164 217 274 322 400
#     4   9  20  37  59  92 127 167 213 275 326 389
#     4  10  23  41  61  94 134 167 222 280 326 399
#     4  12  25  45  68  97 135 177 226 277 335 403
#     4  11  23  47  67  96 139 173 225 286 337 395
#     4  11  24  43  72 100 134 181 224 281 340 397
#
# _framework density 21.611764999999998
#
# number of rings (size 3 to 8) (size 9 to 14) (size 15 to 20)
#    0.000    1.750    2.500    1.500    5.250    5.500 
#    0.000    1.250    0.000    0.000    0.000    0.000 
#    0.000    0.000    0.000    0.000    0.000    0.000 
#
# Total GULP energy -198232.842167 kJ/mol
# GULP energy per Si atom -12389.552635 kJ/mol
# Density = 2.156258 g / cm^3
# Si number density = 21.611765 Si / 1000 Ang^3
#
#
#
# Elastic Constant Matrix: (Units=GPa)
#
#
# Indices 1 2 3 4 5 6 
#
# 1 82.0918 41.4328 59.9535 6.1096 -9.9958 2.2910
# 2 41.4328 167.3576 52.7077 -0.4751 -25.3881 16.8057
# 3 59.9535 52.7077 137.9373 -9.6528 -39.7227 15.9471
# 4 6.1096 -0.4751 -9.6528 30.3112 0.5321 -0.5693
# 5 -9.9958 -25.3881 -39.7227 0.5321 45.7447 -5.8617
# 6 2.2910 16.8057 15.9471 -0.5693 -5.8617 30.5659
#
#
#
# Elastic Compliance Matrix: (Units=1/GPa)
#
#
# Indices 1 2 3 4 5 6 
#
# 1 0.021473 -0.003274 -0.010832 -0.007640 -0.005856 0.004577
# 2 -0.003274 0.007629 -0.000244 0.000590 0.002882 -0.003258
# 3 -0.010832 -0.000244 0.016298 0.007078 0.010883 -0.005338
# 4 -0.007640 0.000590 0.007078 0.036685 0.004125 -0.001970
# 5 -0.005856 0.002882 0.010883 0.004125 0.031493 -0.000708
# 6 0.004577 -0.003258 -0.005338 -0.001970 -0.000708 0.036777
#
#
# Mechanical properties :
#
#
# Convention : Reuss Voigt Hill
#
# Bulk Modulus (GPa) = 59.88466 77.28608 68.58537
# Shear Modulus (GPa) = 27.08265 36.87722 31.97993
#
# Velocity S-wave (km/s) = 3.54382 4.13528 3.85092
# Velocity P-wave (km/s) = 6.67190 7.65764 7.18170
#
# Compressibility (1/GPa) = 0.01669877
#
# Stress axis : x y z
#
# Youngs Moduli (GPa) = 46.57074 131.08349 61.35883
#
# Poissons Ratio (x) = 0.42919 0.66464
# Poissons Ratio (y) = 0.15248 0.01497
# Poissons Ratio (z) = 0.50445 0.03198
#
# Static dielectric constant tensor:
#      x y z
#    x 4.347120 -0.000410 -0.431230 
#    y -0.000410 3.932000 -0.137940 
#    z -0.431230 -0.137940 4.648540 
# 
# 
# High freq. dielectric constant tensor:
#      x y z
#    x 1.844320 -0.003440 -0.011880 
#    y -0.003440 1.857950 -0.011690 
#    z -0.011880 -0.011690 1.854260 
# 
# From -- ./inp_files/227422.got.cif
#   From: 2010.06.25/outbox.cif.g09.slc.cpg/sg2_114_cif.got.tgz:227422.got - 2010.06.27 13:26:56.
