data_PCOD8023821
_publ_section_title
;
Structure prediction by ZEFSAII (Michael W. Deem and Ramdas Pophale) SiO2 
 PCOD8023821
Probable space group: P -1
;
_chemical_formula_sum "Si O2"
_cell_formula_units_Z 16
_cell_length_a 8.760186
_cell_length_b 14.125786
_cell_length_c 11.529241
_cell_angle_alpha 36.174373
_cell_angle_beta 93.391266
_cell_angle_gamma 105.383207
_cell_volume 781.234180
_symmetry_space_group_name_H-M "P -1"
_symmetry_group_IT_number 2
_symmetry_cell_setting 'triclinic'
loop_
_space_group_symop_operation_xyz
x,y,z
-x,-y,-z
loop_
_atom_site_type_symbol
_atom_site_label
_atom_site_fract_x
_atom_site_fract_y
_atom_site_fract_z
Si Si1 0.505026 0.338374 0.945261
Si Si2 0.825637 0.057712 0.199054
Si Si3 0.603206 0.166494 0.914108
Si Si4 0.066301 0.601639 0.785202
Si Si5 0.347145 0.844953 0.693888
Si Si6 0.792757 0.674560 0.562460
Si Si7 0.827688 0.519487 0.480646
Si Si8 0.161750 0.335848 0.906602
O O1 0.490529 0.207287 0.966953
O O2 0.617249 0.532512 0.726607
O O3 0.325220 0.331941 0.979273
O O4 0.586455 0.288802 0.109653
O O5 0.764719 0.096242 0.282169
O O6 0.770001 0.854624 0.386560
O O7 0.751448 0.133209 0.016975
O O8 0.022220 0.148021 0.106239
O O9 0.681360 0.332145 0.670599
O O10 0.500000 0.000000 0.000000
O O11 0.236525 0.758409 0.663280
O O12 0.097240 0.477035 0.815815
O O13 0.933321 0.674092 0.658474
O O14 0.000000 0.500000 0.000000
O O15 0.500000 0.000000 0.500000
O O16 0.839455 0.642648 0.467179
O O17 0.793628 0.617439 0.271561
O O18 0.000000 0.500000 0.500000
#
# Coordination Sequence:
#
# PCOD8023821 Si02
#       8
#     2   2   2   2   2   2   2   2
#     4  10  25  44  63  99 134 166 219 269 327 388
#     4  11  25  44  63  99 134 166 220 275 323 383
#     4  10  23  42  66  92 136 174 213 268 321 383
#     4  12  23  46  70  90 130 179 212 267 334 382
#     4  11  26  46  67  94 133 171 223 273 321 387
#     4  11  25  43  68  98 133 172 216 268 329 389
#     4  11  22  44  67  95 133 175 215 263 325 393
#     4  12  25  42  70  98 131 174 220 267 327 391
#
# _framework density 20.480415000000001
#
# number of rings (size 3 to 8) (size 9 to 14) (size 15 to 20)
#    0.000    1.000    5.000    0.750    7.000    5.500 
#    0.000    0.000    0.000    0.000    0.000    0.000 
#    0.000    0.000    0.000    0.000    0.000    0.000 
#
# Total GULP energy -198490.332119 kJ/mol
# GULP energy per Si atom -12405.645757 kJ/mol
# Density = 2.043380 g / cm^3
# Si number density = 20.480415 Si / 1000 Ang^3
#
#
#
# Elastic Constant Matrix: (Units=GPa)
#
#
# Indices 1 2 3 4 5 6 
#
# 1 99.2173 12.2474 27.6191 -2.6446 -4.4932 9.8561
# 2 12.2474 85.3915 37.2960 -4.4586 -5.5962 17.1186
# 3 27.6191 37.2960 101.6798 -6.2201 -8.5737 -5.2100
# 4 -2.6446 -4.4586 -6.2201 36.0313 -2.8508 -6.2557
# 5 -4.4932 -5.5962 -8.5737 -2.8508 32.1547 -10.2968
# 6 9.8561 17.1186 -5.2100 -6.2557 -10.2968 23.9054
#
#
#
# Elastic Compliance Matrix: (Units=1/GPa)
#
#
# Indices 1 2 3 4 5 6 
#
# 1 0.011826 0.001755 -0.004535 -0.001307 -0.002038 -0.008341
# 2 0.001755 0.018679 -0.008916 -0.002816 -0.005225 -0.019030
# 3 -0.004535 -0.008916 0.016127 0.004808 0.007787 0.016382
# 4 -0.001307 -0.002816 0.004808 0.031479 0.008343 0.015435
# 5 -0.002038 -0.005225 0.007787 0.008343 0.041100 0.026165
# 6 -0.008341 -0.019030 0.016382 0.015435 0.026165 0.077777
#
#
# Mechanical properties :
#
#
# Convention : Reuss Voigt Hill
#
# Bulk Modulus (GPa) = 43.03013 48.95708 45.99361
# Shear Modulus (GPa) = 21.91752 32.36001 27.13876
#
# Velocity S-wave (km/s) = 3.27489 3.97929 3.64415
# Velocity P-wave (km/s) = 5.94608 6.71336 6.34134
#
# Compressibility (1/GPa) = 0.02323953
#
# Stress axis : x y z
#
# Youngs Moduli (GPa) = 84.55831 53.53682 62.00729
#
# Poissons Ratio (x) = -0.09395 0.28122
# Poissons Ratio (y) = -0.14839 0.55285
# Poissons Ratio (z) = 0.38349 0.47733
#
# Static dielectric constant tensor:
#      x y z
#    x 3.722870 0.098290 0.056370 
#    y 0.098290 3.990640 0.011450 
#    z 0.056370 0.011450 3.831870 
# 
# 
# High freq. dielectric constant tensor:
#      x y z
#    x 1.808420 0.004380 -0.003140 
#    y 0.004380 1.805630 0.000220 
#    z -0.003140 0.000220 1.806100 
# 
# From -- ./inp_files/187295.got.cif
#   From: 2010.06.25/outbox.cif.g09.slc.cpg/sg2_94_cif.got.tgz:187295.got - 2010.06.27 13:26:56.
