data_PCOD8023006
_publ_section_title
;
Structure prediction by ZEFSAII (Michael W. Deem and Ramdas Pophale) SiO2 
 PCOD8023006
Probable space group: P -1
;
_chemical_formula_sum "Si O2"
_cell_formula_units_Z 16
_cell_length_a 9.387989
_cell_length_b 9.615640
_cell_length_c 14.533374
_cell_angle_alpha 45.665736
_cell_angle_beta 78.707131
_cell_angle_gamma 102.981563
_cell_volume 788.617948
_symmetry_space_group_name_H-M "P -1"
_symmetry_group_IT_number 2
_symmetry_cell_setting 'triclinic'
loop_
_space_group_symop_operation_xyz
x,y,z
-x,-y,-z
loop_
_atom_site_type_symbol
_atom_site_label
_atom_site_fract_x
_atom_site_fract_y
_atom_site_fract_z
Si Si1 0.119794 0.488026 0.229221
Si Si2 0.014396 0.213752 0.850594
Si Si3 0.018017 0.318398 0.523116
Si Si4 0.615976 0.582896 0.311307
Si Si5 0.294886 0.209679 0.601392
Si Si6 0.191257 0.069369 0.159832
Si Si7 0.003574 0.712517 0.855247
Si Si8 0.503667 0.779498 0.072036
O O1 0.040215 0.319440 0.232160
O O2 0.317726 0.574416 0.167820
O O3 0.092062 0.699817 0.119624
O O4 0.027176 0.365752 0.391705
O O5 0.210722 0.416583 0.728208
O O6 0.937211 0.136216 0.795368
O O7 0.000000 0.000000 0.000000
O O8 0.000000 0.500000 0.500000
O O9 0.185531 0.320453 0.533921
O O10 0.849732 0.067447 0.675077
O O11 0.460962 0.323474 0.461689
O O12 0.638279 0.729200 0.331484
O O13 0.587851 0.711701 0.172196
O O14 0.189723 0.937220 0.733735
O O15 0.137868 0.258359 0.086038
O O16 0.384438 0.175091 0.055298
O O17 0.000000 0.500000 0.000000
O O18 0.500000 0.000000 0.000000
#
# Coordination Sequence:
#
# PCOD8023006 Si02
#       8
#     2   2   2   2   2   2   2   2
#     4  12  25  41  70  96 134 181 220 279 343 403
#     4  12  20  38  67  97 125 175 229 277 326 391
#     4  11  19  40  63  99 132 166 225 276 336 398
#     4  11  21  39  69  97 135 164 236 281 337 382
#     4  10  23  40  64  99 133 182 215 289 334 398
#     4  11  23  39  67  96 136 174 225 278 334 391
#     4  11  26  46  67  96 139 185 228 267 345 419
#     4  12  23  39  68 107 133 168 231 288 336 391
#
# _framework density 20.288658999999999
#
# number of rings (size 3 to 8) (size 9 to 14) (size 15 to 20)
#    0.000    0.750    7.500    0.750    1.750    2.500 
#    0.000    0.625    0.000    0.000    0.000    0.000 
#    0.000    0.000    0.000    0.000    0.000    0.000 
#
# Total GULP energy -198382.686035 kJ/mol
# GULP energy per Si atom -12398.917877 kJ/mol
# Density = 2.024248 g / cm^3
# Si number density = 20.288659 Si / 1000 Ang^3
#
#
#
# Elastic Constant Matrix: (Units=GPa)
#
#
# Indices 1 2 3 4 5 6 
#
# 1 93.5216 28.8701 47.5551 -1.9290 -18.0669 -10.7086
# 2 28.8701 88.5233 32.9414 -5.2476 -14.2623 0.1034
# 3 47.5551 32.9414 126.0884 0.8432 -19.6244 -0.8818
# 4 -1.9290 -5.2476 0.8432 30.0283 -8.9000 2.4586
# 5 -18.0669 -14.2623 -19.6244 -8.9000 33.3269 2.0835
# 6 -10.7086 0.1034 -0.8818 2.4586 2.0835 35.0695
#
#
#
# Elastic Compliance Matrix: (Units=1/GPa)
#
#
# Indices 1 2 3 4 5 6 
#
# 1 0.015054 -0.002445 -0.004273 0.001751 0.004810 0.004088
# 2 -0.002445 0.013790 -0.002019 0.003747 0.004473 -0.001367
# 3 -0.004273 -0.002019 0.010549 0.000107 0.003136 -0.001228
# 4 0.001751 0.003747 0.000107 0.038155 0.012987 -0.002920
# 5 0.004810 0.004473 0.003136 0.012987 0.039952 -0.001750
# 6 0.004088 -0.001367 -0.001228 -0.002920 -0.001750 0.030045
#
#
# Mechanical properties :
#
#
# Convention : Reuss Voigt Hill
#
# Bulk Modulus (GPa) = 45.62562 58.54073 52.08317
# Shear Modulus (GPa) = 29.01498 32.93605 30.97551
#
# Velocity S-wave (km/s) = 3.78578 4.03348 3.91159
# Velocity P-wave (km/s) = 6.45341 7.11397 6.79173
#
# Compressibility (1/GPa) = 0.02191751
#
# Stress axis : x y z
#
# Youngs Moduli (GPa) = 66.42749 72.51865 94.79647
#
# Poissons Ratio (x) = 0.17734 0.40510
# Poissons Ratio (y) = 0.16244 0.19137
# Poissons Ratio (z) = 0.28387 0.14640
#
# Static dielectric constant tensor:
#      x y z
#    x 4.089770 0.053640 -0.167330 
#    y 0.053640 3.633130 0.193000 
#    z -0.167330 0.193000 4.042080 
# 
# 
# High freq. dielectric constant tensor:
#      x y z
#    x 1.795870 0.000340 -0.001890 
#    y 0.000340 1.767840 0.014210 
#    z -0.001890 0.014210 1.809190 
# 
# From -- ./inp_files/494380.got.cif
#   From: 2010.06.25/outbox.cif.g09.slc.cpg/sg2_248_cif.got.tgz:494380.got - 2010.06.27 13:26:56.
