data_PCOD8023741
_publ_section_title
;
Structure prediction by ZEFSAII (Michael W. Deem and Ramdas Pophale) SiO2 
 PCOD8023741
Probable space group: P -1
;
_chemical_formula_sum "Si O2"
_cell_formula_units_Z 16
_cell_length_a 5.845392
_cell_length_b 5.324291
_cell_length_c 20.638488
_cell_angle_alpha 85.783261
_cell_angle_beta 87.296278
_cell_angle_gamma 94.337762
_cell_volume 637.850353
_symmetry_space_group_name_H-M "P -1"
_symmetry_group_IT_number 2
_symmetry_cell_setting 'triclinic'
loop_
_space_group_symop_operation_xyz
x,y,z
-x,-y,-z
loop_
_atom_site_type_symbol
_atom_site_label
_atom_site_fract_x
_atom_site_fract_y
_atom_site_fract_z
Si Si1 0.457192 0.591325 0.100134
Si Si2 0.184701 0.955782 0.624453
Si Si3 0.213147 0.699266 0.981143
Si Si4 0.582773 0.521630 0.425795
Si Si5 0.230802 0.382032 0.330997
Si Si6 0.814624 0.310711 0.785181
Si Si7 0.558700 0.089985 0.251724
Si Si8 0.171414 0.020254 0.861176
O O1 0.567572 0.373041 0.063087
O O2 0.267969 0.501380 0.159675
O O3 0.658785 0.738711 0.133100
O O4 0.325844 0.771932 0.047948
O O5 0.309073 0.737985 0.589426
O O6 0.261491 0.992922 0.696279
O O7 0.912900 0.861217 0.630958
O O8 0.234330 0.230952 0.585213
O O9 0.101582 0.913838 0.935823
O O10 0.000000 0.500000 0.000000
O O11 0.500000 0.500000 0.500000
O O12 0.358337 0.549453 0.382934
O O13 0.067931 0.537777 0.281854
O O14 0.422893 0.311849 0.278415
O O15 0.963035 0.108277 0.820604
O O16 0.599616 0.158566 0.757828
O O17 0.701663 0.178480 0.182684
#
# Coordination Sequence:
#
# PCOD8023741 Si02
#       8
#     2   2   2   2   2   2   2   2
#     4  10  24  41  63  88 130 172 224 282 353 423
#     4  11  25  43  77 105 148 193 246 296 363 428
#     4  11  24  42  61  89 128 173 228 282 352 420
#     4  11  26  48  73 110 152 194 244 300 355 429
#     4  11  25  43  73 102 147 184 240 291 365 421
#     4  11  23  41  66  97 134 175 231 293 361 423
#     4  10  23  42  64  99 139 177 232 291 357 424
#     4  11  24  40  67  94 128 174 227 281 356 421
#
# _framework density 25.084254000000001
#
# number of rings (size 3 to 8) (size 9 to 14) (size 15 to 20)
#    0.000    1.250    1.250    3.000    3.500   12.000 
#    0.000    0.000    0.000    0.000    0.000    0.000 
#    0.000    0.000    0.000    0.000    0.000    0.000 
#
# Total GULP energy -198209.656610 kJ/mol
# GULP energy per Si atom -12388.103538 kJ/mol
# Density = 2.502716 g / cm^3
# Si number density = 25.084254 Si / 1000 Ang^3
#
#
#
# Elastic Constant Matrix: (Units=GPa)
#
#
# Indices 1 2 3 4 5 6 
#
# 1 77.3461 14.5521 30.8464 0.1524 -0.2826 12.5891
# 2 14.5521 81.4411 32.2055 -6.3199 -2.1342 13.5008
# 3 30.8464 32.2055 164.7209 -4.0111 -3.1740 11.9450
# 4 0.1524 -6.3199 -4.0111 44.6544 3.7411 -5.2343
# 5 -0.2826 -2.1342 -3.1740 3.7411 28.2810 -8.9411
# 6 12.5891 13.5008 11.9450 -5.2343 -8.9411 21.6026
#
#
#
# Elastic Compliance Matrix: (Units=1/GPa)
#
#
# Indices 1 2 3 4 5 6 
#
# 1 0.015337 -0.000574 -0.002204 -0.001129 -0.002763 -0.008777
# 2 -0.000574 0.014619 -0.002172 0.001081 -0.001852 -0.008106
# 3 -0.002204 -0.002172 0.006996 0.000182 0.000232 -0.001086
# 4 -0.001129 0.001081 0.000182 0.023265 -0.001429 0.004927
# 5 -0.002763 -0.001852 0.000232 -0.001429 0.041572 0.019499
# 6 -0.008777 -0.008106 -0.001086 0.004927 0.019499 0.066337
#
#
# Mechanical properties :
#
#
# Convention : Reuss Voigt Hill
#
# Bulk Modulus (GPa) = 36.96638 53.19066 45.07852
# Shear Modulus (GPa) = 26.73177 35.30120 31.01648
#
# Velocity S-wave (km/s) = 3.26802 3.75548 3.52019
# Velocity P-wave (km/s) = 5.38598 6.32895 5.87641
#
# Compressibility (1/GPa) = 0.02705161
#
# Stress axis : x y z
#
# Youngs Moduli (GPa) = 65.20340 68.40197 142.93815
#
# Poissons Ratio (x) = 0.03925 0.31504
# Poissons Ratio (y) = 0.03741 0.31053
# Poissons Ratio (z) = 0.14371 0.14860
#
# Static dielectric constant tensor:
#      x y z
#    x 4.641630 -0.004310 -0.098660 
#    y -0.004310 4.205080 0.086180 
#    z -0.098660 0.086180 5.216980 
# 
# 
# High freq. dielectric constant tensor:
#      x y z
#    x 1.997560 0.003280 -0.000540 
#    y 0.003280 1.976610 0.007550 
#    z -0.000540 0.007550 2.021890 
# 
# From -- ./inp_files/11027.got.cif
#   From: 2010.06.25/outbox.cif.g09.slc.cpg/sg2_6_cif.got.tgz:11027.got - 2010.06.27 13:26:56.
