data_PCOD8023390
_publ_section_title
;
Structure prediction by ZEFSAII (Michael W. Deem and Ramdas Pophale) SiO2 
 PCOD8023390
Probable space group: P -1
;
_chemical_formula_sum "Si O2"
_cell_formula_units_Z 14
_cell_length_a 17.276717
_cell_length_b 5.167201
_cell_length_c 11.585725
_cell_angle_alpha 104.828668
_cell_angle_beta 44.432106
_cell_angle_gamma 85.535346
_cell_volume 645.973688
_symmetry_space_group_name_H-M "P -1"
_symmetry_group_IT_number 2
_symmetry_cell_setting 'triclinic'
loop_
_space_group_symop_operation_xyz
x,y,z
-x,-y,-z
loop_
_atom_site_type_symbol
_atom_site_label
_atom_site_fract_x
_atom_site_fract_y
_atom_site_fract_z
Si Si1 0.274377 0.671315 0.024799
Si Si2 0.664660 0.113391 0.343714
Si Si3 0.840779 0.797194 0.945719
Si Si4 0.889665 0.536016 0.426674
Si Si5 0.321681 0.101375 0.443926
Si Si6 0.212153 0.827955 0.361404
Si Si7 0.492783 0.711463 0.674411
O O1 0.222062 0.434241 0.017415
O O2 0.190904 0.993988 0.108055
O O3 0.283218 0.679811 0.154479
O O4 0.407266 0.586863 0.820443
O O5 0.610657 0.453227 0.469433
O O6 0.576941 0.075283 0.332093
O O7 0.678768 0.924343 0.420576
O O8 0.795609 0.000699 0.130851
O O9 0.982454 0.631433 0.785902
O O10 0.788930 0.601996 0.441182
O O11 0.881653 0.841975 0.524976
O O12 0.864617 0.350418 0.533765
O O13 0.309108 0.833544 0.356344
O O14 0.451089 0.116465 0.279577
#
# Coordination Sequence:
#
# PCOD8023390 Si02
#       7
#     2   2   2   2   2   2   2
#     4  11  25  42  68 100 127 169 221 265 321 379
#     4  10  23  41  68  95 129 168 217 270 321 377
#     4  11  25  42  68 100 127 169 221 265 321 379
#     4  10  23  44  65  97 132 171 212 263 326 378
#     4  10  23  41  66  95 133 175 207 263 325 389
#     4  10  23  44  65  97 132 171 212 263 326 378
#     4  10  23  41  68  97 130 167 216 271 322 378
#
# _framework density 21.672709000000001
#
# number of rings (size 3 to 8) (size 9 to 14) (size 15 to 20)
#    0.857    0.857    0.000    3.000   10.000    4.571 
#    0.000    2.857    0.000    0.000    0.000    0.000 
#    0.000    0.000    0.000    0.000    0.000    0.000 
#
# Total GULP energy -173464.930665 kJ/mol
# GULP energy per Si atom -12390.352190 kJ/mol
# Density = 2.162338 g / cm^3
# Si number density = 21.672709 Si / 1000 Ang^3
#
#
#
# Elastic Constant Matrix: (Units=GPa)
#
#
# Indices 1 2 3 4 5 6 
#
# 1 79.7278 34.7734 57.4117 -16.6925 -0.9520 -8.4420
# 2 34.7734 133.5712 45.1815 -18.1755 1.0794 -0.1812
# 3 57.4117 45.1815 127.9849 -13.4655 10.8040 -11.1976
# 4 -16.6925 -18.1755 -13.4655 31.9386 0.3296 -0.7973
# 5 -0.9520 1.0794 10.8040 0.3296 19.0518 -2.1777
# 6 -8.4420 -0.1812 -11.1976 -0.7973 -2.1777 16.6357
#
#
#
# Elastic Compliance Matrix: (Units=1/GPa)
#
#
# Indices 1 2 3 4 5 6 
#
# 1 0.021491 -0.001938 -0.008221 0.006759 0.006474 0.006523
# 2 -0.001938 0.009185 -0.002259 0.003203 0.000357 -0.002204
# 3 -0.008221 -0.002259 0.013272 0.000184 -0.007380 0.003780
# 4 0.006759 0.003203 0.000184 0.036877 0.000027 0.005360
# 5 0.006474 0.000357 -0.007380 0.000027 0.057647 0.005869
# 6 0.006523 -0.002204 0.003780 0.005360 0.005869 0.066967
#
#
# Mechanical properties :
#
#
# Convention : Reuss Voigt Hill
#
# Bulk Modulus (GPa) = 52.32351 68.44634 60.38493
# Shear Modulus (GPa) = 21.12862 27.11970 24.12416
#
# Velocity S-wave (km/s) = 3.12572 3.54125 3.33995
# Velocity P-wave (km/s) = 6.10097 6.95493 6.54190
#
# Compressibility (1/GPa) = 0.01911187
#
# Stress axis : x y z
#
# Youngs Moduli (GPa) = 46.53118 108.86933 75.34752
#
# Poissons Ratio (x) = 0.21096 0.61944
# Poissons Ratio (y) = 0.09017 0.17023
# Poissons Ratio (z) = 0.38254 0.24597
#
# Static dielectric constant tensor:
#      x y z
#    x 3.771100 -0.031610 -0.073040 
#    y -0.031610 3.929120 0.006890 
#    z -0.073040 0.006890 3.844970 
# 
# 
# High freq. dielectric constant tensor:
#      x y z
#    x 1.837550 -0.003240 -0.002120 
#    y -0.003240 1.860910 -0.003160 
#    z -0.002120 -0.003160 1.842400 
# 
# From -- ./inp_files/459207.got.cif
#   From: 2010.06.25/outbox.cif.g09.slc.cpg/sg2_230_cif.got.tgz:459207.got - 2010.06.27 13:26:56.
