data_PCOD8023235
_publ_section_title
;
Structure prediction by ZEFSAII (Michael W. Deem and Ramdas Pophale) SiO2 
 PCOD8023235
Probable space group: P -1
;
_chemical_formula_sum "Si O2"
_cell_formula_units_Z 12
_cell_length_a 12.203218
_cell_length_b 11.373188
_cell_length_c 8.771785
_cell_angle_alpha 43.866638
_cell_angle_beta 59.781898
_cell_angle_gamma 35.489919
_cell_volume 479.071561
_symmetry_space_group_name_H-M "P -1"
_symmetry_group_IT_number 2
_symmetry_cell_setting 'triclinic'
loop_
_space_group_symop_operation_xyz
x,y,z
-x,-y,-z
loop_
_atom_site_type_symbol
_atom_site_label
_atom_site_fract_x
_atom_site_fract_y
_atom_site_fract_z
Si Si1 0.582676 0.765206 0.755445
Si Si2 0.690203 0.878845 0.830683
Si Si3 0.287747 0.777992 0.013773
Si Si4 0.935419 0.346166 0.263204
Si Si5 0.396342 0.463411 0.509547
Si Si6 0.943616 0.222207 0.025998
O O1 0.589521 0.824397 0.866957
O O2 0.801300 0.508630 0.786228
O O3 0.500000 0.000000 0.500000
O O4 0.458756 0.718117 0.879548
O O5 0.842116 0.845805 0.661065
O O6 0.514746 0.171854 0.736370
O O7 0.827828 0.640321 0.077432
O O8 0.384201 0.526013 0.280639
O O9 0.153201 0.856088 0.893784
O O10 0.159447 0.019342 0.997289
O O11 0.825669 0.331578 0.469753
O O12 0.939745 0.247248 0.187744
O O13 0.500000 0.500000 0.500000
#
# Coordination Sequence:
#
# PCOD8023235 Si02
#       6
#     2   2   2   2   2   2
#     4  11  24  42  67  93 126 170 212 259 317 378
#     4  10  23  41  63  94 128 166 212 259 309 374
#     4  11  25  42  65  96 129 164 211 264 315 372
#     4  10  23  42  66  93 128 171 211 255 313 374
#     4  12  24  39  65  97 129 167 210 261 315 372
#     4  10  23  44  65  92 129 166 209 262 313 373
#
# _framework density 25.048449999999999
#
# number of rings (size 3 to 8) (size 9 to 14) (size 15 to 20)
#    0.000    1.333    0.000    5.000    0.000   12.667 
#    0.000    0.000    0.000    0.000    0.000    0.000 
#    0.000    0.000    0.000    0.000    0.000    0.000 
#
# Total GULP energy -148670.003243 kJ/mol
# GULP energy per Si atom -12389.166937 kJ/mol
# Density = 2.499144 g / cm^3
# Si number density = 25.048450 Si / 1000 Ang^3
#
#
#
# Elastic Constant Matrix: (Units=GPa)
#
#
# Indices 1 2 3 4 5 6 
#
# 1 99.6898 -0.3721 -3.8641 9.6989 -9.7569 -1.7268
# 2 -0.3721 103.5678 7.6790 -9.5695 2.1180 -2.9601
# 3 -3.8641 7.6790 56.7864 5.2657 0.4516 -0.0067
# 4 9.6989 -9.5695 5.2657 38.5368 -7.6299 -11.4697
# 5 -9.7569 2.1180 0.4516 -7.6299 29.1976 -3.3897
# 6 -1.7268 -2.9601 -0.0067 -11.4697 -3.3897 43.0321
#
#
#
# Elastic Compliance Matrix: (Units=1/GPa)
#
#
# Indices 1 2 3 4 5 6 
#
# 1 0.010577 -0.000302 0.000948 -0.002273 0.002951 0.000030
# 2 -0.000302 0.010131 -0.001703 0.003349 0.000251 0.001597
# 3 0.000948 -0.001703 0.018253 -0.003677 -0.000934 -0.001130
# 4 -0.002273 0.003349 -0.003677 0.032371 0.008610 0.009445
# 5 0.002951 0.000251 -0.000934 0.008610 0.038113 0.005433
# 6 0.000030 0.001597 -0.001130 0.009445 0.005433 0.026295
#
#
# Mechanical properties :
#
#
# Convention : Reuss Voigt Hill
#
# Bulk Modulus (GPa) = 27.13910 29.65886 28.39898
# Shear Modulus (GPa) = 33.30327 39.26004 36.28165
#
# Velocity S-wave (km/s) = 3.65026 3.96329 3.80999
# Velocity P-wave (km/s) = 5.35014 5.72799 5.54229
#
# Compressibility (1/GPa) = 0.03684720
#
# Stress axis : x y z
#
# Youngs Moduli (GPa) = 94.54232 98.71022 54.78595
#
# Poissons Ratio (x) = 0.02979 -0.05193
# Poissons Ratio (y) = 0.02853 0.09329
# Poissons Ratio (z) = -0.08961 0.16809
#
# Static dielectric constant tensor:
#      x y z
#    x 4.598200 -0.013280 -0.227250 
#    y -0.013280 4.786360 -0.262190 
#    z -0.227250 -0.262190 4.214400 
# 
# 
# High freq. dielectric constant tensor:
#      x y z
#    x 2.010840 -0.006860 -0.003550 
#    y -0.006860 2.015380 -0.023410 
#    z -0.003550 -0.023410 1.966420 
# 
# From -- ./inp_files/246971.got.cif
#   From: 2010.06.25/outbox.cif.g09.slc.cpg/sg2_124_cif.got.tgz:246971.got - 2010.06.27 13:26:56.
