data_PCOD8023751
_publ_section_title
;
Structure prediction by ZEFSAII (Michael W. Deem and Ramdas Pophale) SiO2 
 PCOD8023751
Probable space group: P -1
;
_chemical_formula_sum "Si O2"
_cell_formula_units_Z 14
_cell_length_a 12.854805
_cell_length_b 13.283020
_cell_length_c 8.887942
_cell_angle_alpha 48.154673
_cell_angle_beta 58.272100
_cell_angle_gamma 34.587143
_cell_volume 640.789348
_symmetry_space_group_name_H-M "P -1"
_symmetry_group_IT_number 2
_symmetry_cell_setting 'triclinic'
loop_
_space_group_symop_operation_xyz
x,y,z
-x,-y,-z
loop_
_atom_site_type_symbol
_atom_site_label
_atom_site_fract_x
_atom_site_fract_y
_atom_site_fract_z
Si Si1 0.875531 0.357655 0.420391
Si Si2 0.766252 0.074148 0.390284
Si Si3 0.523856 0.826851 0.694185
Si Si4 0.362276 0.401135 0.884558
Si Si5 0.289731 0.798815 0.365081
Si Si6 0.891463 0.449829 0.640086
Si Si7 0.941982 0.198984 0.089254
O O1 0.781983 0.539517 0.190122
O O2 0.784185 0.290736 0.511680
O O3 0.825543 0.452396 0.527267
O O4 0.095776 0.163092 0.435546
O O5 0.629277 0.136833 0.304454
O O6 0.666567 0.207605 0.485346
O O7 0.883667 0.093992 0.196595
O O8 0.715814 0.618991 0.701072
O O9 0.500000 0.000000 0.500000
O O10 0.533177 0.798528 0.896387
O O11 0.525766 0.344253 0.730153
O O12 0.235792 0.600821 0.885354
O O13 0.129384 0.037466 0.204394
O O14 0.000000 0.500000 0.500000
O O15 0.996046 0.243826 0.856353
#
# Coordination Sequence:
#
# PCOD8023751 Si02
#       7
#     2   2   2   2   2   2   2
#     4  11  22  42  67 100 133 171 219 273 332 389
#     4  11  22  43  71  97 141 166 219 281 325 398
#     4  11  27  46  64  98 134 177 225 273 328 396
#     4  11  23  41  69  98 134 173 221 272 333 395
#     4  11  22  39  71 101 139 167 219 276 332 395
#     4  11  26  44  67  94 138 177 224 271 330 396
#     4  10  23  42  65 105 131 173 220 274 335 387
#
# _framework density 21.848051999999999
#
# number of rings (size 3 to 8) (size 9 to 14) (size 15 to 20)
#    0.000    1.143    2.857    3.000    8.000    2.286 
#    2.571    3.571    0.000    0.000    0.000    0.000 
#    0.000    0.000    0.000    0.000    0.000    0.000 
#
# Total GULP energy -173449.885603 kJ/mol
# GULP energy per Si atom -12389.277543 kJ/mol
# Density = 2.179833 g / cm^3
# Si number density = 21.848052 Si / 1000 Ang^3
#
#
#
# Elastic Constant Matrix: (Units=GPa)
#
#
# Indices 1 2 3 4 5 6 
#
# 1 87.9061 16.3596 79.1438 -0.1764 23.2603 -6.0443
# 2 16.3596 46.8475 21.9802 1.8404 5.3250 -15.8223
# 3 79.1438 21.9802 150.0412 -4.5976 34.5254 3.2134
# 4 -0.1764 1.8404 -4.5976 30.5094 -2.6192 5.4040
# 5 23.2603 5.3250 34.5254 -2.6192 34.1378 0.6409
# 6 -6.0443 -15.8223 3.2134 5.4040 0.6409 40.1000
#
#
#
# Elastic Compliance Matrix: (Units=1/GPa)
#
#
# Indices 1 2 3 4 5 6 
#
# 1 0.023133 -0.000632 -0.011233 -0.002727 -0.004598 0.004579
# 2 -0.000632 0.027623 -0.004012 -0.004383 -0.000377 0.011722
# 3 -0.011233 -0.004012 0.014843 0.002698 -0.006436 -0.004726
# 4 -0.002727 -0.004383 0.002698 0.034916 0.002625 -0.007104
# 5 -0.004598 -0.000377 -0.006436 0.002625 0.039219 -0.001307
# 6 0.004579 0.011722 -0.004726 -0.007104 -0.001307 0.031610
#
#
# Mechanical properties :
#
#
# Convention : Reuss Voigt Hill
#
# Bulk Modulus (GPa) = 29.54664 57.75132 43.64898
# Shear Modulus (GPa) = 23.32321 32.10351 27.71336
#
# Velocity S-wave (km/s) = 3.27084 3.83743 3.56541
# Velocity P-wave (km/s) = 5.27423 6.79154 6.08040
#
# Compressibility (1/GPa) = 0.03384480
#
# Stress axis : x y z
#
# Youngs Moduli (GPa) = 43.22875 36.20181 67.37336
#
# Poissons Ratio (x) = 0.02286 0.75682
# Poissons Ratio (y) = 0.02730 0.27030
# Poissons Ratio (z) = 0.48560 0.14524
#
# Static dielectric constant tensor:
#      x y z
#    x 4.000120 -0.278870 0.574360 
#    y -0.278870 4.206470 -0.290980 
#    z 0.574360 -0.290980 4.480860 
# 
# 
# High freq. dielectric constant tensor:
#      x y z
#    x 1.843680 -0.013760 0.027870 
#    y -0.013760 1.868630 -0.003450 
#    z 0.027870 -0.003450 1.864790 
# 
# From -- ./inp_files/157612.got.cif
#   From: 2010.06.25/outbox.cif.g09.slc.cpg/sg2_79_cif.got.tgz:157612.got - 2010.06.27 13:26:56.
