data_PCOD8023451
_publ_section_title
;
Structure prediction by ZEFSAII (Michael W. Deem and Ramdas Pophale) SiO2 
 PCOD8023451
Probable space group: P -1
;
_chemical_formula_sum "Si O2"
_cell_formula_units_Z 16
_cell_length_a 23.045461
_cell_length_b 8.123704
_cell_length_c 11.953633
_cell_angle_alpha 94.615209
_cell_angle_beta 159.029560
_cell_angle_gamma 77.443987
_cell_volume 732.086849
_symmetry_space_group_name_H-M "P -1"
_symmetry_group_IT_number 2
_symmetry_cell_setting 'triclinic'
loop_
_space_group_symop_operation_xyz
x,y,z
-x,-y,-z
loop_
_atom_site_type_symbol
_atom_site_label
_atom_site_fract_x
_atom_site_fract_y
_atom_site_fract_z
Si Si1 0.085544 0.946083 0.329954
Si Si2 0.975628 0.871736 0.537329
Si Si3 0.792543 0.594055 0.606175
Si Si4 0.903145 0.645183 0.242612
Si Si5 0.691605 0.440312 0.791785
Si Si6 0.396133 0.620620 0.610812
Si Si7 0.220567 0.574453 0.644158
Si Si8 0.228524 0.028044 0.371775
O O1 0.222866 0.740122 0.581780
O O2 0.126315 0.051008 0.306531
O O3 0.095689 0.048742 0.466484
O O4 0.894831 0.943874 0.958068
O O5 0.832919 0.818918 0.207791
O O6 0.166647 0.709273 0.884697
O O7 0.000000 0.000000 0.500000
O O8 0.691018 0.479674 0.470620
O O9 0.773107 0.584893 0.436498
O O10 0.706763 0.805725 0.502704
O O11 0.000000 0.500000 0.000000
O O12 0.000000 0.500000 0.500000
O O13 0.043879 0.650192 0.404210
O O14 0.743865 0.614100 0.892555
O O15 0.500000 0.500000 0.500000
O O16 0.699585 0.361473 0.678754
O O17 0.373689 0.821886 0.619987
O O18 0.604959 0.501287 0.969031
#
# Coordination Sequence:
#
# PCOD8023451 Si02
#       8
#     2   2   2   2   2   2   2   2
#     4  11  22  42  69  97 136 182 225 288 341 410
#     4  11  22  40  70 100 132 174 231 281 339 408
#     4  12  24  41  71 100 136 187 233 282 347 413
#     4  10  23  41  67  97 129 180 227 269 344 417
#     4  11  25  46  70  96 137 181 222 284 347 412
#     4  12  25  45  67 102 143 180 225 295 345 401
#     4  12  24  43  70  98 140 178 233 288 345 410
#     4  11  24  43  69 100 137 184 232 277 350 409
#
# _framework density 21.855329999999999
#
# number of rings (size 3 to 8) (size 9 to 14) (size 15 to 20)
#    0.000    0.750    5.000    3.375    3.500    0.500 
#    0.000    0.625    0.000    0.000    0.000    0.000 
#    0.000    0.000    0.000    0.000    0.000    0.000 
#
# Total GULP energy -198214.680062 kJ/mol
# GULP energy per Si atom -12388.417504 kJ/mol
# Density = 2.180559 g / cm^3
# Si number density = 21.855330 Si / 1000 Ang^3
#
#
#
# Elastic Constant Matrix: (Units=GPa)
#
#
# Indices 1 2 3 4 5 6 
#
# 1 96.3540 43.8280 21.7039 13.7769 -9.3984 -17.6639
# 2 43.8280 167.2513 40.4870 10.9573 -5.0423 -13.0515
# 3 21.7039 40.4870 95.5065 6.3605 1.1082 -1.4684
# 4 13.7769 10.9573 6.3605 32.1975 -0.0496 -12.0549
# 5 -9.3984 -5.0423 1.1082 -0.0496 32.8315 2.1790
# 6 -17.6639 -13.0515 -1.4684 -12.0549 2.1790 40.3165
#
#
#
# Elastic Compliance Matrix: (Units=1/GPa)
#
#
# Indices 1 2 3 4 5 6 
#
# 1 0.013371 -0.002474 -0.001763 -0.003065 0.003244 0.003901
# 2 -0.002474 0.007365 -0.002511 -0.000571 0.000440 0.001014
# 3 -0.001763 -0.002511 0.012015 -0.001319 -0.001200 -0.001478
# 4 -0.003065 -0.000571 -0.001319 0.036330 -0.001488 0.009367
# 5 0.003244 0.000440 -0.001200 -0.001488 0.031535 -0.000629
# 6 0.003901 0.001014 -0.001478 0.009367 -0.000629 0.029622
#
#
# Mechanical properties :
#
#
# Convention : Reuss Voigt Hill
#
# Bulk Modulus (GPa) = 51.93871 63.46106 57.69989
# Shear Modulus (GPa) = 33.29943 37.94195 35.62069
#
# Velocity S-wave (km/s) = 3.90760 4.17111 4.04151
# Velocity P-wave (km/s) = 6.64647 7.23170 6.94525
#
# Compressibility (1/GPa) = 0.01925346
#
# Stress axis : x y z
#
# Youngs Moduli (GPa) = 74.79031 135.77547 83.22979
#
# Poissons Ratio (x) = 0.33590 0.14676
# Poissons Ratio (y) = 0.18502 0.20903
# Poissons Ratio (z) = 0.13188 0.34100
#
# Static dielectric constant tensor:
#      x y z
#    x 3.921070 -0.041620 -0.278690 
#    y -0.041620 4.818510 0.360800 
#    z -0.278690 0.360800 3.863000 
# 
# 
# High freq. dielectric constant tensor:
#      x y z
#    x 1.859080 -0.007220 -0.027430 
#    y -0.007220 1.878890 0.009640 
#    z -0.027430 0.009640 1.836700 
# 
# From -- ./inp_files/474418.got.cif
#   From: 2010.06.25/outbox.cif.g09.slc.cpg/sg2_238_cif.got.tgz:474418.got - 2010.06.27 13:26:56.
