data_PCOD8023977
_publ_section_title
;
Structure prediction by ZEFSAII (Michael W. Deem and Ramdas Pophale) SiO2 
 PCOD8023977
Probable space group: P -1
;
_chemical_formula_sum "Si O2"
_cell_formula_units_Z 16
_cell_length_a 8.229913
_cell_length_b 16.670301
_cell_length_c 16.142950
_cell_angle_alpha 144.773651
_cell_angle_beta 134.423252
_cell_angle_gamma 35.032616
_cell_volume 730.090045
_symmetry_space_group_name_H-M "P -1"
_symmetry_group_IT_number 2
_symmetry_cell_setting 'triclinic'
loop_
_space_group_symop_operation_xyz
x,y,z
-x,-y,-z
loop_
_atom_site_type_symbol
_atom_site_label
_atom_site_fract_x
_atom_site_fract_y
_atom_site_fract_z
Si Si1 0.697415 0.654802 0.558871
Si Si2 0.607010 0.334119 0.059503
Si Si3 0.574945 0.761085 0.786543
Si Si4 0.311847 0.939308 0.537079
Si Si5 0.220612 0.293973 0.785902
Si Si6 0.576992 0.530598 0.721932
Si Si7 0.060829 0.136258 0.927525
Si Si8 0.451072 0.687434 0.226891
O O1 0.739153 0.688683 0.696922
O O2 0.543583 0.833243 0.603180
O O3 0.483771 0.604447 0.437592
O O4 0.000000 0.500000 0.500000
O O5 0.638728 0.332014 0.168581
O O6 0.560189 0.505021 0.150577
O O7 0.352066 0.322122 0.936386
O O8 0.896046 0.168343 0.982239
O O9 0.550569 0.621905 0.704109
O O10 0.255503 0.932994 0.803719
O O11 0.745247 0.798428 0.941056
O O12 0.417484 0.815944 0.392025
O O13 0.320041 0.098307 0.652316
O O14 0.000000 0.000000 0.500000
O O15 0.315647 0.341287 0.777726
O O16 0.883921 0.424421 0.784200
O O17 0.845569 0.236163 0.859483
#
# Coordination Sequence:
#
# PCOD8023977 Si02
#       8
#     2   2   2   2   2   2   2   2
#     4  12  27  45  68  95 139 185 225 279 344 411
#     4  11  22  42  68 102 134 173 227 286 342 396
#     4  11  25  43  65  97 137 181 225 272 345 413
#     4  12  24  45  68 100 139 178 229 286 338 402
#     4  11  24  39  71 103 132 175 226 288 343 399
#     4  12  24  42  67  96 135 180 229 277 338 414
#     4  10  23  42  68  96 134 178 221 284 340 405
#     4  11  22  43  71  99 136 173 230 287 340 400
#
# _framework density 21.915105000000001
#
# number of rings (size 3 to 8) (size 9 to 14) (size 15 to 20)
#    0.000    0.750    2.500    5.625    1.750    5.500 
#    0.000    0.000    0.000    0.000    0.000    0.000 
#    0.000    0.000    0.000    0.000    0.000    0.000 
#
# Total GULP energy -198488.174550 kJ/mol
# GULP energy per Si atom -12405.510909 kJ/mol
# Density = 2.186523 g / cm^3
# Si number density = 21.915105 Si / 1000 Ang^3
#
#
#
# Elastic Constant Matrix: (Units=GPa)
#
#
# Indices 1 2 3 4 5 6 
#
# 1 78.6216 48.7744 30.7346 7.7822 6.6796 11.4782
# 2 48.7744 57.9160 3.9426 7.3180 -47.4962 -15.5253
# 3 30.7346 3.9426 102.7776 8.7372 -14.3990 7.2245
# 4 7.7822 7.3180 8.7372 29.4893 -12.8776 -10.1596
# 5 6.6796 -47.4962 -14.3990 -12.8776 -38.4228 -29.7248
# 6 11.4782 -15.5253 7.2245 -10.1596 -29.7248 23.7467
#
#
#
# Elastic Compliance Matrix: (Units=1/GPa)
#
#
# Indices 1 2 3 4 5 6 
#
# 1 0.016570 -0.005995 -0.003829 0.002952 0.009189 0.002001
# 2 -0.005995 0.013190 0.000924 -0.008487 -0.010534 -0.005577
# 3 -0.003829 0.000924 0.011380 -0.004599 -0.001133 -0.004393
# 4 0.002952 -0.008487 -0.004599 0.036807 -0.003799 0.005416
# 5 0.009189 -0.010534 -0.001133 -0.003799 0.000023 -0.012580
# 6 0.002001 -0.005577 -0.004393 0.005416 -0.012580 0.025404
#
#
# Mechanical properties :
#
#
# Convention : Reuss Voigt Hill
#
# Bulk Modulus (GPa) = 42.84300 45.13539 43.98919
# Shear Modulus (GPa) = 38.77291 13.35356 26.06323
#
# Velocity S-wave (km/s) = 4.21079 2.47114 3.45234
# Velocity P-wave (km/s) = 6.57518 5.36492 6.00064
#
# Compressibility (1/GPa) = 0.02334104
#
# Stress axis : x y z
#
# Youngs Moduli (GPa) = 60.34940 75.81389 87.87008
#
# Poissons Ratio (x) = 0.45449 0.33649
# Poissons Ratio (y) = 0.36179 -0.08123
# Poissons Ratio (z) = 0.23110 -0.07008
#
# Static dielectric constant tensor:
#      x y z
#    x 4.031930 -0.095370 -0.103570 
#    y -0.095370 4.003300 0.028790 
#    z -0.103570 0.028790 4.198640 
# 
# 
# High freq. dielectric constant tensor:
#      x y z
#    x 1.866810 -0.007450 -0.003300 
#    y -0.007450 1.860400 0.000300 
#    z -0.003300 0.000300 1.875420 
# 
# From -- ./inp_files/189148.got.cif
#   From: 2010.06.25/outbox.cif.g09.slc.cpg/sg2_95_cif.got.tgz:189148.got - 2010.06.27 13:26:56.
