data_PCOD8023951
_publ_section_title
;
Structure prediction by ZEFSAII (Michael W. Deem and Ramdas Pophale) SiO2 
 PCOD8023951
Probable space group: P -1
;
_chemical_formula_sum "Si O2"
_cell_formula_units_Z 14
_cell_length_a 11.721938
_cell_length_b 8.815608
_cell_length_c 21.409840
_cell_angle_alpha 41.228529
_cell_angle_beta 152.353798
_cell_angle_gamma 122.434708
_cell_volume 612.528680
_symmetry_space_group_name_H-M "P -1"
_symmetry_group_IT_number 2
_symmetry_cell_setting 'triclinic'
loop_
_space_group_symop_operation_xyz
x,y,z
-x,-y,-z
loop_
_atom_site_type_symbol
_atom_site_label
_atom_site_fract_x
_atom_site_fract_y
_atom_site_fract_z
Si Si1 0.045207 0.211746 0.611840
Si Si2 0.246300 0.468597 0.919376
Si Si3 0.798457 0.189048 0.092971
Si Si4 0.336343 0.096597 0.327719
Si Si5 0.347479 0.317950 0.490118
Si Si6 0.546554 0.894246 0.255699
Si Si7 0.465562 0.520229 0.237533
O O1 0.197976 0.083380 0.661935
O O2 0.000000 0.500000 0.500000
O O3 0.736984 0.246801 0.455141
O O4 0.220811 0.048297 0.806785
O O5 0.165569 0.630120 0.893402
O O6 0.975195 0.554688 0.719610
O O7 0.500000 0.500000 0.000000
O O8 0.316827 0.178722 0.061592
O O9 0.051158 0.078954 0.202042
O O10 0.544514 0.345263 0.876225
O O11 0.251732 0.399914 0.181283
O O12 0.500000 0.000000 0.500000
O O13 0.497427 0.928299 0.400031
O O14 0.500000 0.500000 0.500000
O O15 0.364784 0.234444 0.595504
O O16 0.442882 0.719247 0.218787
#
# Coordination Sequence:
#
# PCOD8023951 Si02
#       7
#     2   2   2   2   2   2   2
#     4  10  23  42  68 103 141 189 238 299 360 435
#     4  12  27  48  74 112 148 191 242 306 373 433
#     4  12  25  46  75 104 145 191 252 299 365 440
#     4  12  23  48  74 102 146 195 248 296 366 443
#     4  12  29  49  77 107 152 197 240 311 369 437
#     4  11  27  45  71 110 148 189 248 302 373 437
#     4  11  25  44  74 106 143 197 244 300 365 443
#
# _framework density 22.856071
#
# number of rings (size 3 to 8) (size 9 to 14) (size 15 to 20)
#    0.000    0.571    4.286    2.143    6.000    3.429 
#    0.000    0.000    0.000    0.000    0.000    0.000 
#    0.000    0.000    0.000    0.000    0.000    0.000 
#
# Total GULP energy -173489.855300 kJ/mol
# GULP energy per Si atom -12392.132521 kJ/mol
# Density = 2.280405 g / cm^3
# Si number density = 22.856071 Si / 1000 Ang^3
#
#
#
# Elastic Constant Matrix: (Units=GPa)
#
#
# Indices 1 2 3 4 5 6 
#
# 1 125.4608 33.3824 56.9810 0.1436 -27.5889 0.3825
# 2 33.3824 119.6391 48.9325 -12.9704 -14.2573 -2.3072
# 3 56.9810 48.9325 134.2020 -12.0256 -28.8262 -6.7236
# 4 0.1436 -12.9704 -12.0256 40.5041 2.9946 -3.3658
# 5 -27.5889 -14.2573 -28.8262 2.9946 52.7191 6.7439
# 6 0.3825 -2.3072 -6.7236 -3.3658 6.7439 34.8253
#
#
#
# Elastic Compliance Matrix: (Units=1/GPa)
#
#
# Indices 1 2 3 4 5 6 
#
# 1 0.010757 -0.001359 -0.003550 -0.001947 0.003661 -0.001791
# 2 -0.001359 0.010208 -0.002843 0.002432 0.000316 0.000316
# 3 -0.003550 -0.002843 0.010925 0.002255 0.003015 0.001594
# 4 -0.001947 0.002432 0.002255 0.026504 -0.001066 0.003386
# 5 0.003661 0.000316 0.003015 -0.001066 0.023195 -0.004032
# 6 -0.001791 0.000316 0.001594 0.003386 -0.004032 0.030171
#
#
# Mechanical properties :
#
#
# Convention : Reuss Voigt Hill
#
# Bulk Modulus (GPa) = 61.02779 73.09932 67.06355
# Shear Modulus (GPa) = 37.67157 41.61011 39.64084
#
# Velocity S-wave (km/s) = 4.06422 4.27139 4.16909
# Velocity P-wave (km/s) = 6.98446 7.50855 7.25124
#
# Compressibility (1/GPa) = 0.01638598
#
# Stress axis : x y z
#
# Youngs Moduli (GPa) = 92.96239 97.96180 91.53387
#
# Poissons Ratio (x) = 0.13313 0.32492
# Poissons Ratio (y) = 0.12634 0.26026
# Poissons Ratio (z) = 0.32999 0.27854
#
# Static dielectric constant tensor:
#      x y z
#    x 5.654350 0.772620 1.873020 
#    y 0.772620 4.567700 0.863400 
#    z 1.873020 0.863400 7.018900 
# 
# 
# High freq. dielectric constant tensor:
#      x y z
#    x 1.912630 0.009180 -0.003900 
#    y 0.009180 1.903560 -0.013690 
#    z -0.003900 -0.013690 1.919720 
# 
# From -- ./inp_files/593988.got.cif
#   From: 2010.06.25/outbox.cif.g09.slc.cpg/sg2_297_cif.got.tgz:593988.got - 2010.06.27 13:26:56.
