data_PCOD8023184
_publ_section_title
;
Structure prediction by ZEFSAII (Michael W. Deem and Ramdas Pophale) SiO2 
 PCOD8023184
Probable space group: P -1
;
_chemical_formula_sum "Si O2"
_cell_formula_units_Z 16
_cell_length_a 10.126185
_cell_length_b 14.208236
_cell_length_c 8.556077
_cell_angle_alpha 106.712481
_cell_angle_beta 45.157435
_cell_angle_gamma 85.535011
_cell_volume 761.254392
_symmetry_space_group_name_H-M "P -1"
_symmetry_group_IT_number 2
_symmetry_cell_setting 'triclinic'
loop_
_space_group_symop_operation_xyz
x,y,z
-x,-y,-z
loop_
_atom_site_type_symbol
_atom_site_label
_atom_site_fract_x
_atom_site_fract_y
_atom_site_fract_z
Si Si1 0.838728 0.341583 0.406758
Si Si2 0.162398 0.946268 0.973246
Si Si3 0.171389 0.149624 0.227993
Si Si4 0.535490 0.243729 0.550428
Si Si5 0.931601 0.119524 0.673414
Si Si6 0.886822 0.581602 0.998086
Si Si7 0.501519 0.232398 0.934301
Si Si8 0.774852 0.525326 0.755500
O O1 0.670122 0.312783 0.447441
O O2 0.719005 0.431171 0.684136
O O3 0.007548 0.236933 0.295210
O O4 0.947621 0.386272 0.209989
O O5 0.374368 0.861737 0.683139
O O6 0.066976 0.884033 0.140467
O O7 0.216374 0.032452 0.064596
O O8 0.000000 0.000000 0.000000
O O9 0.086986 0.163018 0.483696
O O10 0.379043 0.165321 0.068193
O O11 0.300666 0.312761 0.727009
O O12 0.549907 0.205548 0.699205
O O13 0.705923 0.196553 0.843822
O O14 0.000000 0.000000 0.500000
O O15 0.781210 0.526859 0.939867
O O16 0.000000 0.500000 0.000000
O O17 0.376689 0.359261 0.129205
O O18 0.000000 0.500000 0.500000
#
# Coordination Sequence:
#
# PCOD8023184 Si02
#       8
#     2   2   2   2   2   2   2   2
#     4  11  20  42  64  89 124 167 208 255 310 356
#     4  11  23  41  64  91 128 166 199 251 320 371
#     4  11  21  42  68  89 124 161 209 263 302 363
#     4  11  22  41  64  90 128 168 203 254 313 371
#     4  10  23  42  63  92 123 158 212 264 295 368
#     4  10  23  41  60  94 133 160 207 256 304 375
#     4  11  21  40  67  93 121 159 210 260 306 362
#     4   9  19  37  64  89 119 162 204 253 305 355
#
# _framework density 21.017941
#
# number of rings (size 3 to 8) (size 9 to 14) (size 15 to 20)
#    0.000    1.500    6.250    0.750    0.000    7.000 
#    2.250    1.250    0.000    0.000    0.000    0.000 
#    0.000    0.000    0.000    0.000    0.000    0.000 
#
# Total GULP energy -198365.583462 kJ/mol
# GULP energy per Si atom -12397.848966 kJ/mol
# Density = 2.097010 g / cm^3
# Si number density = 21.017941 Si / 1000 Ang^3
#
#
#
# Elastic Constant Matrix: (Units=GPa)
#
#
# Indices 1 2 3 4 5 6 
#
# 1 59.1784 45.1539 40.0661 -0.4988 -2.7212 -7.3389
# 2 45.1539 117.1405 68.8402 -7.5979 7.2699 -14.9013
# 3 40.0661 68.8402 143.3644 1.9532 6.2180 -7.7446
# 4 -0.4988 -7.5979 1.9532 51.3766 5.1715 1.1035
# 5 -2.7212 7.2699 6.2180 5.1715 25.7251 -2.3932
# 6 -7.3389 -14.9013 -7.7446 1.1035 -2.3932 45.7344
#
#
#
# Elastic Compliance Matrix: (Units=1/GPa)
#
#
# Indices 1 2 3 4 5 6 
#
# 1 0.026038 -0.008338 -0.003462 -0.001516 0.006368 0.001245
# 2 -0.008338 0.015304 -0.004728 0.002748 -0.004379 0.002552
# 3 -0.003462 -0.004728 0.010263 -0.000978 -0.001352 -0.000405
# 4 -0.001516 0.002748 -0.000978 0.020384 -0.004822 -0.000258
# 5 0.006368 -0.004379 -0.001352 -0.004822 0.042237 0.001693
# 6 0.001245 0.002552 -0.000405 -0.000258 0.001693 0.022923
#
#
# Mechanical properties :
#
#
# Convention : Reuss Voigt Hill
#
# Bulk Modulus (GPa) = 53.90762 69.75594 61.83178
# Shear Modulus (GPa) = 28.34681 35.60878 31.97779
#
# Velocity S-wave (km/s) = 3.67644 4.12054 3.90481
# Velocity P-wave (km/s) = 6.61254 7.47658 7.05780
#
# Compressibility (1/GPa) = 0.01855025
#
# Stress axis : x y z
#
# Youngs Moduli (GPa) = 38.40566 65.34283 97.43742
#
# Poissons Ratio (x) = 0.54481 0.33728
# Poissons Ratio (y) = 0.32021 0.46069
# Poissons Ratio (z) = 0.13294 0.30895
#
# Static dielectric constant tensor:
#      x y z
#    x 3.773400 0.151290 0.178050 
#    y 0.151290 4.175520 -0.047290 
#    z 0.178050 -0.047290 4.534340 
# 
# 
# High freq. dielectric constant tensor:
#      x y z
#    x 1.794210 -0.004770 -0.004130 
#    y -0.004770 1.827500 0.004440 
#    z -0.004130 0.004440 1.845340 
# 
# From -- ./inp_files/273052.got.cif
#   From: 2010.06.25/outbox.cif.g09.slc.cpg/sg2_137_cif.got.tgz:273052.got - 2010.06.27 13:26:56.
