data_PCOD8023408
_publ_section_title
;
Structure prediction by ZEFSAII (Michael W. Deem and Ramdas Pophale) SiO2 
 PCOD8023408
Probable space group: P -1
;
_chemical_formula_sum "Si O2"
_cell_formula_units_Z 10
_cell_length_a 9.945461
_cell_length_b 8.433132
_cell_length_c 11.454616
_cell_angle_alpha 141.868455
_cell_angle_beta 44.250014
_cell_angle_gamma 133.679687
_cell_volume 395.491838
_symmetry_space_group_name_H-M "P -1"
_symmetry_group_IT_number 2
_symmetry_cell_setting 'triclinic'
loop_
_space_group_symop_operation_xyz
x,y,z
-x,-y,-z
loop_
_atom_site_type_symbol
_atom_site_label
_atom_site_fract_x
_atom_site_fract_y
_atom_site_fract_z
Si Si1 0.529018 0.734359 0.463471
Si Si2 0.962114 0.643472 0.946760
Si Si3 0.740025 0.141564 0.923008
Si Si4 0.202070 0.281065 0.517943
Si Si5 0.399672 0.237319 0.834380
O O1 0.400510 0.444920 0.420288
O O2 0.748318 0.773669 0.409435
O O3 0.517522 0.728553 0.328725
O O4 0.444618 0.973613 0.705986
O O5 0.790193 0.452372 0.030237
O O6 0.040319 0.445280 0.700658
O O7 0.842681 0.810669 0.043280
O O8 0.151406 0.850447 0.014539
O O9 0.860663 0.002657 0.676241
O O10 0.500000 0.000000 0.000000
O O11 0.500000 0.500000 0.000000
#
# Coordination Sequence:
#
# PCOD8023408 Si02
#       5
#     2   2   2   2   2
#     4  10  23  41  66  98 131 175 225 266 330 403
#     4  11  24  40  66 101 130 171 229 268 323 402
#     4  11  22  40  68  99 134 174 217 275 333 387
#     4  11  22  41  68  98 130 169 223 281 325 386
#     4  11  24  44  65  94 140 180 214 273 334 390
#
# _framework density 25.284970000000001
#
# number of rings (size 3 to 8) (size 9 to 14) (size 15 to 20)
#    0.000    1.200    0.000    7.800    0.000    5.600 
#    0.000    3.000    0.000    0.000    0.000    0.000 
#    0.000    0.000    0.000    0.000    0.000    0.000 
#
# Total GULP energy -123960.045596 kJ/mol
# GULP energy per Si atom -12396.004560 kJ/mol
# Density = 2.522742 g / cm^3
# Si number density = 25.284970 Si / 1000 Ang^3
#
#
#
# Elastic Constant Matrix: (Units=GPa)
#
#
# Indices 1 2 3 4 5 6 
#
# 1 103.3773 22.3058 46.6277 4.5726 -15.1325 21.8598
# 2 22.3058 53.6282 -7.2062 8.0875 16.2933 24.7277
# 3 46.6277 -7.2062 147.1502 22.2500 2.3123 7.8031
# 4 4.5726 8.0875 22.2500 37.4783 2.1930 -2.9392
# 5 -15.1325 16.2933 2.3123 2.1930 52.0825 1.7612
# 6 21.8598 24.7277 7.8031 -2.9392 1.7612 40.8540
#
#
#
# Elastic Compliance Matrix: (Units=1/GPa)
#
#
# Indices 1 2 3 4 5 6 
#
# 1 0.015711 -0.009305 -0.005918 0.003018 0.007671 -0.001758
# 2 -0.009305 0.039482 0.008180 -0.013044 -0.014165 -0.020809
# 3 -0.005918 0.008180 0.010466 -0.007329 -0.004295 -0.004126
# 4 0.003018 -0.013044 -0.007329 0.034057 0.003511 0.009979
# 5 0.007671 -0.014165 -0.004295 0.003511 0.025754 0.004432
# 6 -0.001758 -0.020809 -0.004126 0.009979 0.004432 0.039328
#
#
# Mechanical properties :
#
#
# Convention : Reuss Voigt Hill
#
# Bulk Modulus (GPa) = 19.38952 47.51226 33.45089
# Shear Modulus (GPa) = 25.50052 42.24487 33.87269
#
# Velocity S-wave (km/s) = 3.17917 4.09192 3.66408
# Velocity P-wave (km/s) = 4.60013 6.41534 5.58201
#
# Compressibility (1/GPa) = 0.05157426
#
# Stress axis : x y z
#
# Youngs Moduli (GPa) = 63.64788 25.32794 95.54701
#
# Poissons Ratio (x) = 0.23568 0.56543
# Poissons Ratio (y) = 0.59226 -0.78162
# Poissons Ratio (z) = 0.37666 -0.20719
#
# Static dielectric constant tensor:
#      x y z
#    x 4.687860 0.060520 -0.246680 
#    y 0.060520 4.389460 0.219960 
#    z -0.246680 0.219960 4.887950 
# 
# 
# High freq. dielectric constant tensor:
#      x y z
#    x 1.998930 0.011660 -0.009580 
#    y 0.011660 2.000740 0.004790 
#    z -0.009580 0.004790 2.040020 
# 
# From -- ./inp_files/166828.got.cif
#   From: 2010.06.25/outbox.cif.g09.slc.cpg/sg2_84_cif.got.tgz:166828.got - 2010.06.27 13:26:56.
