data_PCOD8023327
_publ_section_title
;
Structure prediction by ZEFSAII (Michael W. Deem and Ramdas Pophale) SiO2 
 PCOD8023327
Probable space group: P -1
;
_chemical_formula_sum "Si O2"
_cell_formula_units_Z 14
_cell_length_a 5.435009
_cell_length_b 13.083736
_cell_length_c 8.727257
_cell_angle_alpha 88.419916
_cell_angle_beta 78.782165
_cell_angle_gamma 80.560983
_cell_volume 600.492537
_symmetry_space_group_name_H-M "P -1"
_symmetry_group_IT_number 2
_symmetry_cell_setting 'triclinic'
loop_
_space_group_symop_operation_xyz
x,y,z
-x,-y,-z
loop_
_atom_site_type_symbol
_atom_site_label
_atom_site_fract_x
_atom_site_fract_y
_atom_site_fract_z
Si Si1 0.040070 0.780005 0.556880
Si Si2 0.755555 0.443693 0.388289
Si Si3 0.867697 0.493263 0.857552
Si Si4 0.463663 0.115884 0.559827
Si Si5 0.894891 0.149342 0.134521
Si Si6 0.679519 0.953713 0.116251
Si Si7 0.394848 0.640924 0.910677
O O1 0.116232 0.656281 0.526233
O O2 0.297609 0.828494 0.504580
O O3 0.958544 0.811542 0.739727
O O4 0.803194 0.821549 0.474709
O O5 0.500000 0.500000 0.500000
O O6 0.716281 0.407864 0.222616
O O7 0.960706 0.522013 0.320723
O O8 0.695130 0.606405 0.859367
O O9 0.701758 0.400848 0.911576
O O10 0.000000 0.500000 0.000000
O O11 0.457548 0.111595 0.745137
O O12 0.500000 0.000000 0.500000
O O13 0.668375 0.235641 0.094971
O O14 0.777308 0.046782 0.193877
O O15 0.088546 0.126566 0.973027
O O16 0.500000 0.000000 0.000000
#
# Coordination Sequence:
#
# PCOD8023327 Si02
#       7
#     2   2   2   2   2   2   2
#     4  11  26  45  70 102 134 188 228 274 353 408
#     4  10  23  41  65  95 133 172 222 284 335 405
#     4   9  19  38  62  89 124 164 218 267 332 390
#     4  12  25  45  70 100 142 180 229 282 342 414
#     4  10  23  41  66  96 130 177 229 279 335 409
#     4  11  25  41  66  97 136 176 224 284 339 399
#     4   9  20  40  64  92 122 175 219 273 335 401
#
# _framework density 23.314194000000001
#
# number of rings (size 3 to 8) (size 9 to 14) (size 15 to 20)
#    0.000    1.714    1.429    1.286    8.000    4.000 
#    7.714    0.000    0.000    0.000    0.000    0.000 
#    0.000    0.000    0.000    0.000    0.000    0.000 
#
# Total GULP energy -173448.928303 kJ/mol
# GULP energy per Si atom -12389.209164 kJ/mol
# Density = 2.326113 g / cm^3
# Si number density = 23.314194 Si / 1000 Ang^3
#
#
#
# Elastic Constant Matrix: (Units=GPa)
#
#
# Indices 1 2 3 4 5 6 
#
# 1 121.6620 37.8912 42.6885 -12.8574 -11.9184 -26.8148
# 2 37.8912 98.3084 64.7605 -2.4910 -11.9910 -33.1948
# 3 42.6885 64.7605 101.9044 -22.7937 -24.6917 -10.2283
# 4 -12.8574 -2.4910 -22.7937 27.9912 -1.0564 3.3706
# 5 -11.9184 -11.9910 -24.6917 -1.0564 48.8039 -9.9493
# 6 -26.8148 -33.1948 -10.2283 3.3706 -9.9493 44.9311
#
#
#
# Elastic Compliance Matrix: (Units=1/GPa)
#
#
# Indices 1 2 3 4 5 6 
#
# 1 0.011136 0.000493 -0.003282 0.001777 0.002585 0.006702
# 2 0.000493 0.029506 -0.020592 -0.016153 0.000416 0.018709
# 3 -0.003282 -0.020592 0.030251 0.022826 0.007847 -0.010260
# 4 0.001777 -0.016153 0.022826 0.054955 0.007546 -0.008129
# 5 0.002585 0.000416 0.007847 0.007546 0.027211 0.009096
# 6 0.006702 0.018709 -0.010260 -0.008129 0.009096 0.040367
#
#
# Mechanical properties :
#
#
# Convention : Reuss Voigt Hill
#
# Bulk Modulus (GPa) = 41.43951 68.06167 54.75059
# Shear Modulus (GPa) = 20.14258 36.11422 28.12840
#
# Velocity S-wave (km/s) = 2.94251 3.94003 3.47723
# Velocity P-wave (km/s) = 5.41825 7.06789 6.29732
#
# Compressibility (1/GPa) = 0.02413156
#
# Stress axis : x y z
#
# Youngs Moduli (GPa) = 89.80239 33.89172 33.05667
#
# Poissons Ratio (x) = -0.01671 0.10848
# Poissons Ratio (y) = -0.04428 0.68070
# Poissons Ratio (z) = 0.29469 0.69790
#
# Static dielectric constant tensor:
#      x y z
#    x 4.210530 0.368750 -0.466220 
#    y 0.368750 4.597610 -0.741530 
#    z -0.466220 -0.741530 4.843770 
# 
# 
# High freq. dielectric constant tensor:
#      x y z
#    x 1.926770 -0.012160 -0.012570 
#    y -0.012160 1.917050 -0.016800 
#    z -0.012570 -0.016800 1.928030 
# 
# From -- ./inp_files/48910.got.cif
#   From: 2010.06.25/outbox.cif.g09.slc.cpg/sg2_25_cif.got.tgz:48910.got - 2010.06.27 13:26:56.
