data_PCOD8023792
_publ_section_title
;
Structure prediction by ZEFSAII (Michael W. Deem and Ramdas Pophale) SiO2 
 PCOD8023792
Probable space group: P -1
;
_chemical_formula_sum "Si O2"
_cell_formula_units_Z 10
_cell_length_a 10.881249
_cell_length_b 14.300192
_cell_length_c 8.070090
_cell_angle_alpha 60.523839
_cell_angle_beta 137.023084
_cell_angle_gamma 147.496268
_cell_volume 432.404869
_symmetry_space_group_name_H-M "P -1"
_symmetry_group_IT_number 2
_symmetry_cell_setting 'triclinic'
loop_
_space_group_symop_operation_xyz
x,y,z
-x,-y,-z
loop_
_atom_site_type_symbol
_atom_site_label
_atom_site_fract_x
_atom_site_fract_y
_atom_site_fract_z
Si Si1 0.412134 0.920474 0.798788
Si Si2 0.330276 0.492782 0.054195
Si Si3 0.329442 0.154162 0.777421
Si Si4 0.292805 0.730741 0.260527
Si Si5 0.757283 0.514417 0.404998
O O1 0.059606 0.711652 0.616251
O O2 0.485819 0.062747 0.636644
O O3 0.639889 0.928104 0.985717
O O4 0.500000 0.000000 0.000000
O O5 0.618614 0.710079 0.192940
O O6 0.454699 0.431432 0.246979
O O7 0.205788 0.454484 0.781142
O O8 0.048598 0.381102 0.999229
O O9 0.602281 0.267371 0.812878
O O10 0.000000 0.000000 0.500000
O O11 0.287203 0.632992 0.474292
#
# Coordination Sequence:
#
# PCOD8023792 Si02
#       5
#     2   2   2   2   2
#     4  10  23  42  65  97 134 167 219 271 321 387
#     4  11  24  44  69  98 135 172 220 271 327 392
#     4  11  24  44  68  99 134 172 222 276 321 391
#     4  11  24  43  72  96 129 181 215 268 334 385
#     4  11  25  46  66  99 137 171 217 275 326 390
#
# _framework density 23.126473000000001
#
# number of rings (size 3 to 8) (size 9 to 14) (size 15 to 20)
#    0.000    1.200    2.000    3.600    5.600    1.600 
#    0.000    3.000    0.000    0.000    0.000    0.000 
#    0.000    0.000    0.000    0.000    0.000    0.000 
#
# Total GULP energy -123937.402162 kJ/mol
# GULP energy per Si atom -12393.740216 kJ/mol
# Density = 2.307384 g / cm^3
# Si number density = 23.126473 Si / 1000 Ang^3
#
#
#
# Elastic Constant Matrix: (Units=GPa)
#
#
# Indices 1 2 3 4 5 6 
#
# 1 85.9849 23.9306 44.5022 14.5804 23.5018 -7.5370
# 2 23.9306 143.8204 54.7002 -11.9951 21.6331 -10.5320
# 3 44.5022 54.7002 131.0344 6.4060 18.1948 2.3230
# 4 14.5804 -11.9951 6.4060 30.5270 -13.0210 11.1021
# 5 23.5018 21.6331 18.1948 -13.0210 42.9289 -1.6194
# 6 -7.5370 -10.5320 2.3230 11.1021 -1.6194 18.3142
#
#
#
# Elastic Compliance Matrix: (Units=1/GPa)
#
#
# Indices 1 2 3 4 5 6 
#
# 1 0.029247 0.000231 -0.005777 -0.033772 -0.022740 0.031363
# 2 0.000231 0.009179 -0.003711 0.001464 -0.002557 0.004731
# 3 -0.005777 -0.003711 0.011097 0.001745 0.000597 -0.006924
# 4 -0.033772 0.001464 0.001745 0.090432 0.042012 -0.064383
# 5 -0.022740 -0.002557 0.000597 0.042012 0.048311 -0.032101
# 6 0.031363 0.004731 -0.006924 -0.064383 -0.032101 0.107300
#
#
# Mechanical properties :
#
#
# Convention : Reuss Voigt Hill
#
# Bulk Modulus (GPa) = 32.24741 67.45618 49.85179
# Shear Modulus (GPa) = 15.41239 34.20112 24.80675
#
# Velocity S-wave (km/s) = 2.58435 3.84978 3.27870
# Velocity P-wave (km/s) = 4.78324 6.99949 5.99467
#
# Compressibility (1/GPa) = 0.03101024
#
# Stress axis : x y z
#
# Youngs Moduli (GPa) = 34.19211 108.94278 90.11419
#
# Poissons Ratio (x) = -0.02520 0.52057
# Poissons Ratio (y) = -0.00791 0.33439
# Poissons Ratio (z) = 0.19752 0.40426
#
# Static dielectric constant tensor:
#      x y z
#    x 4.152570 -0.439410 0.299490 
#    y -0.439410 5.087390 -0.356920 
#    z 0.299490 -0.356920 4.142770 
# 
# 
# High freq. dielectric constant tensor:
#      x y z
#    x 1.905290 -0.028840 0.017730 
#    y -0.028840 1.921660 -0.002640 
#    z 0.017730 -0.002640 1.914870 
# 
# From -- ./inp_files/149761.got.cif
#   From: 2010.06.25/outbox.cif.g09.slc.cpg/sg2_75_cif.got.tgz:149761.got - 2010.06.27 13:26:56.
