data_PCOD8023365
_publ_section_title
;
Structure prediction by ZEFSAII (Michael W. Deem and Ramdas Pophale) SiO2 
 PCOD8023365
Probable space group: P -1
;
_chemical_formula_sum "Si O2"
_cell_formula_units_Z 12
_cell_length_a 11.161672
_cell_length_b 6.344248
_cell_length_c 11.694523
_cell_angle_alpha 50.725638
_cell_angle_beta 126.565426
_cell_angle_gamma 108.696185
_cell_volume 512.752995
_symmetry_space_group_name_H-M "P -1"
_symmetry_group_IT_number 2
_symmetry_cell_setting 'triclinic'
loop_
_space_group_symop_operation_xyz
x,y,z
-x,-y,-z
loop_
_atom_site_type_symbol
_atom_site_label
_atom_site_fract_x
_atom_site_fract_y
_atom_site_fract_z
Si Si1 0.835713 0.653368 0.371957
Si Si2 0.736900 0.806144 0.499839
Si Si3 0.080628 0.216268 0.041537
Si Si4 0.579511 0.393373 0.195939
Si Si5 0.619516 0.757778 0.681577
Si Si6 0.958405 0.198224 0.220904
O O1 0.767980 0.606219 0.476798
O O2 0.725700 0.549848 0.249965
O O3 0.000000 0.500000 0.500000
O O4 0.837207 0.982495 0.248709
O O5 0.680614 0.631979 0.636736
O O6 0.891930 0.922734 0.587268
O O7 0.621762 0.068478 0.317155
O O8 0.247556 0.119363 0.213267
O O9 0.971691 0.250789 0.076186
O O10 0.089878 0.489325 0.873587
O O11 0.000000 0.000000 0.000000
O O12 0.461401 0.455283 0.212660
O O13 0.500000 0.500000 0.000000
O O14 0.500000 0.000000 0.500000
#
# Coordination Sequence:
#
# PCOD8023365 Si02
#       6
#     2   2   2   2   2   2
#     4  12  26  42  75 101 139 194 234 288 353 409
#     4  10  23  45  69 100 141 183 240 290 340 420
#     4  10  23  41  72  98 138 180 227 297 351 407
#     4  11  26  44  69 106 146 186 229 290 354 418
#     4   9  22  46  68  98 144 182 233 282 347 433
#     4  10  23  41  66 109 131 174 245 286 344 417
#
# _framework density 23.403081
#
# number of rings (size 3 to 8) (size 9 to 14) (size 15 to 20)
#    0.000    1.667    1.667    0.500    7.000    1.333 
#    0.000    3.333    0.000    0.000    0.000    0.000 
#    0.000    0.000    0.000    0.000    0.000    0.000 
#
# Total GULP energy -148689.240521 kJ/mol
# GULP energy per Si atom -12390.770043 kJ/mol
# Density = 2.334982 g / cm^3
# Si number density = 23.403081 Si / 1000 Ang^3
#
#
#
# Elastic Constant Matrix: (Units=GPa)
#
#
# Indices 1 2 3 4 5 6 
#
# 1 138.0554 44.7677 59.1384 13.7136 -9.0793 -1.6829
# 2 44.7677 115.7926 61.1251 9.9816 4.3075 10.0032
# 3 59.1384 61.1251 151.3589 18.1086 -4.4102 4.9408
# 4 13.7136 9.9816 18.1086 36.7952 4.5664 -0.9154
# 5 -9.0793 4.3075 -4.4102 4.5664 31.8765 4.5831
# 6 -1.6829 10.0032 4.9408 -0.9154 4.5831 37.0525
#
#
#
# Elastic Compliance Matrix: (Units=1/GPa)
#
#
# Indices 1 2 3 4 5 6 
#
# 1 0.009461 -0.002387 -0.002444 -0.002001 0.002822 0.001001
# 2 -0.002387 0.011913 -0.003842 -0.000213 -0.002429 -0.002517
# 3 -0.002444 -0.003842 0.009536 -0.002961 0.001656 -0.000623
# 4 -0.002001 -0.000213 -0.002961 0.030169 -0.005530 0.001791
# 5 0.002822 -0.002429 0.001656 -0.005530 0.034069 -0.003788
# 6 0.001001 -0.002517 -0.000623 0.001791 -0.003788 0.028310
#
#
# Mechanical properties :
#
#
# Convention : Reuss Voigt Hill
#
# Bulk Modulus (GPa) = 73.71539 81.69660 77.70600
# Shear Modulus (GPa) = 34.40604 37.15653 35.78129
#
# Velocity S-wave (km/s) = 3.83841 3.98889 3.91437
# Velocity P-wave (km/s) = 7.15619 7.49662 7.32838
#
# Compressibility (1/GPa) = 0.01356569
#
# Stress axis : x y z
#
# Youngs Moduli (GPa) = 105.69945 83.94253 104.86733
#
# Poissons Ratio (x) = 0.20035 0.25626
# Poissons Ratio (y) = 0.25228 0.40285
# Poissons Ratio (z) = 0.25829 0.32247
#
# Static dielectric constant tensor:
#      x y z
#    x 5.379110 -0.256090 0.030240 
#    y -0.256090 4.320160 -0.262190 
#    z 0.030240 -0.262190 4.564340 
# 
# 
# High freq. dielectric constant tensor:
#      x y z
#    x 1.935830 0.000880 -0.006720 
#    y 0.000880 1.896360 0.014190 
#    z -0.006720 0.014190 1.933580 
# 
# From -- ./inp_files/21439.got.cif
#   From: 2010.06.25/outbox.cif.g09.slc.cpg/sg2_11_cif.got.tgz:21439.got - 2010.06.27 13:26:56.
