data_PCOD8023701
_publ_section_title
;
Structure prediction by ZEFSAII (Michael W. Deem and Ramdas Pophale) SiO2 
 PCOD8023701
Probable space group: P -1
;
_chemical_formula_sum "Si O2"
_cell_formula_units_Z 16
_cell_length_a 15.719031
_cell_length_b 11.968032
_cell_length_c 6.803927
_cell_angle_alpha 87.388583
_cell_angle_beta 137.350724
_cell_angle_gamma 109.624640
_cell_volume 775.060502
_symmetry_space_group_name_H-M "P -1"
_symmetry_group_IT_number 2
_symmetry_cell_setting 'triclinic'
loop_
_space_group_symop_operation_xyz
x,y,z
-x,-y,-z
loop_
_atom_site_type_symbol
_atom_site_label
_atom_site_fract_x
_atom_site_fract_y
_atom_site_fract_z
Si Si1 0.051747 0.688443 0.680045
Si Si2 0.499982 0.620407 0.086858
Si Si3 0.273429 0.992743 0.598673
Si Si4 0.239343 0.752452 0.356765
Si Si5 0.304281 0.188878 0.316738
Si Si6 0.192126 0.576347 0.632470
Si Si7 0.456679 0.184264 0.181926
Si Si8 0.995435 0.897121 0.349023
O O1 0.154172 0.652461 0.726887
O O2 0.908779 0.569484 0.504034
O O3 0.014395 0.787356 0.499983
O O4 0.129309 0.749757 0.009135
O O5 0.613766 0.675330 0.451675
O O6 0.500000 0.500000 0.000000
O O7 0.350610 0.596214 0.927062
O O8 0.551465 0.719730 0.993788
O O9 0.274821 0.863215 0.562020
O O10 0.118496 0.968751 0.398924
O O11 0.317345 0.083054 0.478557
O O12 0.380675 0.048456 0.959507
O O13 0.176292 0.623435 0.384151
O O14 0.383580 0.777764 0.490790
O O15 0.373175 0.187092 0.228979
O O16 0.145925 0.164295 0.012801
O O17 0.000000 0.000000 0.500000
#
# Coordination Sequence:
#
# PCOD8023701 Si02
#       8
#     2   2   2   2   2   2   2   2
#     4  11  24  42  67  94 128 173 218 268 320 381
#     4  10  24  43  66  95 129 167 216 271 322 382
#     4  11  23  41  64  94 131 168 213 271 321 381
#     4  11  22  41  67  95 127 170 214 264 329 379
#     4  11  24  42  65  95 129 172 214 263 330 381
#     4  10  23  45  64  93 131 166 218 272 317 388
#     4  10  23  42  63  97 129 165 216 264 322 393
#     4  12  24  43  66  95 135 169 219 267 317 389
#
# _framework density 20.643547999999999
#
# number of rings (size 3 to 8) (size 9 to 14) (size 15 to 20)
#    0.000    1.250    2.500    2.625    1.750    2.000 
#    9.000    0.000    0.000    0.000    0.000    0.000 
#    0.000    0.000    0.000    0.000    0.000    0.000 
#
# Total GULP energy -198453.930085 kJ/mol
# GULP energy per Si atom -12403.370630 kJ/mol
# Density = 2.059656 g / cm^3
# Si number density = 20.643548 Si / 1000 Ang^3
#
#
#
# Elastic Constant Matrix: (Units=GPa)
#
#
# Indices 1 2 3 4 5 6 
#
# 1 96.3762 28.8743 17.1661 5.4273 1.9529 18.7430
# 2 28.8743 94.3309 36.9238 16.7883 1.2015 -5.4465
# 3 17.1661 36.9238 121.0534 10.6550 -1.6064 6.5089
# 4 5.4273 16.7883 10.6550 25.7375 -5.2465 0.9228
# 5 1.9529 1.2015 -1.6064 -5.2465 24.7451 4.7759
# 6 18.7430 -5.4465 6.5089 0.9228 4.7759 34.3908
#
#
#
# Elastic Compliance Matrix: (Units=1/GPa)
#
#
# Indices 1 2 3 4 5 6 
#
# 1 0.013303 -0.004649 -0.000085 0.000736 0.000892 -0.008114
# 2 -0.004649 0.015397 -0.003681 -0.008515 -0.003661 0.006406
# 3 -0.000085 -0.003681 0.009655 -0.001282 0.001017 -0.002471
# 4 0.000736 -0.008515 -0.001282 0.047204 0.011114 -0.004317
# 5 0.000892 -0.003661 0.001017 0.011114 0.044433 -0.007727
# 6 -0.008114 0.006406 -0.002471 -0.004317 -0.007727 0.036171
#
#
# Mechanical properties :
#
#
# Convention : Reuss Voigt Hill
#
# Bulk Modulus (GPa) = 46.45885 53.07653 49.76769
# Shear Modulus (GPa) = 26.29277 32.22777 29.26027
#
# Velocity S-wave (km/s) = 3.57270 3.95543 3.76893
# Velocity P-wave (km/s) = 6.29071 6.82842 6.56507
#
# Compressibility (1/GPa) = 0.02152442
#
# Stress axis : x y z
#
# Youngs Moduli (GPa) = 75.17373 64.94870 103.57639
#
# Poissons Ratio (x) = 0.30197 0.00879
# Poissons Ratio (y) = 0.34951 0.38122
# Poissons Ratio (z) = 0.00638 0.23905
#
# Static dielectric constant tensor:
#      x y z
#    x 4.073650 0.243540 0.255630 
#    y 0.243540 3.875760 0.289130 
#    z 0.255630 0.289130 3.995480 
# 
# 
# High freq. dielectric constant tensor:
#      x y z
#    x 1.822370 0.009960 0.001400 
#    y 0.009960 1.811290 0.008770 
#    z 0.001400 0.008770 1.812960 
# 
# From -- ./inp_files/69758.got.cif
#   From: 2010.06.25/outbox.cif.g09.slc.cpg/sg2_35_cif.got.tgz:69758.got - 2010.06.27 13:26:56.
