data_PCOD8023795
_publ_section_title
;
Structure prediction by ZEFSAII (Michael W. Deem and Ramdas Pophale) SiO2 
 PCOD8023795
Probable space group: P -1
;
_chemical_formula_sum "Si O2"
_cell_formula_units_Z 16
_cell_length_a 11.087662
_cell_length_b 8.544831
_cell_length_c 21.586030
_cell_angle_alpha 70.527134
_cell_angle_beta 42.627491
_cell_angle_gamma 39.105939
_cell_volume 726.012205
_symmetry_space_group_name_H-M "P -1"
_symmetry_group_IT_number 2
_symmetry_cell_setting 'triclinic'
loop_
_space_group_symop_operation_xyz
x,y,z
-x,-y,-z
loop_
_atom_site_type_symbol
_atom_site_label
_atom_site_fract_x
_atom_site_fract_y
_atom_site_fract_z
Si Si1 0.172939 0.827528 0.055700
Si Si2 0.741837 0.107977 0.769384
Si Si3 0.666088 0.193604 0.469216
Si Si4 0.810566 0.266094 0.239042
Si Si5 0.635391 0.655612 0.558514
Si Si6 0.353026 0.249677 0.804828
Si Si7 0.636810 0.940623 0.611689
Si Si8 0.047199 0.722020 0.000226
O O1 0.014987 0.827262 0.066216
O O2 0.500000 0.500000 0.000000
O O3 0.953028 0.013983 0.174389
O O4 0.193101 0.993382 0.992914
O O5 0.667445 0.015216 0.761419
O O6 0.412712 0.445012 0.874439
O O7 0.960280 0.076323 0.655986
O O8 0.943555 0.877432 0.780290
O O9 0.500000 0.500000 0.500000
O O10 0.491016 0.216893 0.480235
O O11 0.643395 0.113564 0.552809
O O12 0.484841 0.435936 0.365319
O O13 0.748560 0.480010 0.196390
O O14 0.503582 0.901042 0.621828
O O15 0.015434 0.372033 0.452487
O O16 0.410050 0.125892 0.732787
O O17 0.076800 0.369188 0.931416
#
# Coordination Sequence:
#
# PCOD8023795 Si02
#       8
#     2   2   2   2   2   2   2   2
#     4  11  23  44  67  94 129 171 219 269 329 391
#     4  11  23  40  65  97 130 172 216 270 326 381
#     4  11  23  42  68  98 133 170 219 272 325 386
#     4  11  23  41  68  94 131 173 219 271 332 388
#     4  10  23  42  65  98 129 168 220 270 327 391
#     4  12  25  42  64  97 135 171 220 272 321 393
#     4  11  23  42  67  95 130 176 216 268 332 385
#     4  11  25  43  66  97 132 171 221 270 325 391
#
# _framework density 22.038198000000001
#
# number of rings (size 3 to 8) (size 9 to 14) (size 15 to 20)
#    0.000    1.000    2.500    4.500    0.000    3.000 
#    2.250    2.500    0.000    0.000    0.000    0.000 
#    0.000    0.000    0.000    0.000    0.000    0.000 
#
# Total GULP energy -198363.165701 kJ/mol
# GULP energy per Si atom -12397.697856 kJ/mol
# Density = 2.198804 g / cm^3
# Si number density = 22.038198 Si / 1000 Ang^3
#
#
#
# Elastic Constant Matrix: (Units=GPa)
#
#
# Indices 1 2 3 4 5 6 
#
# 1 128.6323 14.3620 38.2902 3.3328 13.0401 -5.4419
# 2 14.3620 68.9532 45.3779 -8.6310 -10.1824 4.6981
# 3 38.2902 45.3779 106.8298 -2.5624 -0.4235 -1.9100
# 4 3.3328 -8.6310 -2.5624 31.9461 5.5427 3.6737
# 5 13.0401 -10.1824 -0.4235 5.5427 37.4680 1.6369
# 6 -5.4419 4.6981 -1.9100 3.6737 1.6369 33.4834
#
#
#
# Elastic Compliance Matrix: (Units=1/GPa)
#
#
# Indices 1 2 3 4 5 6 
#
# 1 0.009181 -0.000657 -0.003018 -0.000993 -0.003335 0.001684
# 2 -0.000657 0.022518 -0.009271 0.004949 0.005713 -0.004618
# 3 -0.003018 -0.009271 0.014383 -0.001030 -0.001233 0.001804
# 4 -0.000993 0.004949 -0.001030 0.033714 -0.003114 -0.004461
# 5 -0.003335 0.005713 -0.001233 -0.003114 0.029960 -0.002537
# 6 0.001684 -0.004618 0.001804 -0.004461 -0.002537 0.031504
#
#
# Mechanical properties :
#
#
# Convention : Reuss Voigt Hill
#
# Bulk Modulus (GPa) = 49.53045 55.60838 52.56942
# Shear Modulus (GPa) = 28.75504 34.33851 31.54677
#
# Velocity S-wave (km/s) = 3.61610 3.95161 3.78757
# Velocity P-wave (km/s) = 6.32127 6.79027 6.55996
#
# Compressibility (1/GPa) = 0.02018960
#
# Stress axis : x y z
#
# Youngs Moduli (GPa) = 108.92048 44.40857 69.52621
#
# Poissons Ratio (x) = 0.02919 0.20986
# Poissons Ratio (y) = 0.07160 0.64455
# Poissons Ratio (z) = 0.32876 0.41169
#
# Static dielectric constant tensor:
#      x y z
#    x 4.402800 -0.155680 0.325980 
#    y -0.155680 3.804110 -0.090040 
#    z 0.325980 -0.090040 4.005130 
# 
# 
# High freq. dielectric constant tensor:
#      x y z
#    x 1.890190 -0.008910 0.018000 
#    y -0.008910 1.853960 -0.004590 
#    z 0.018000 -0.004590 1.863720 
# 
# From -- ./inp_files/591814.got.cif
#   From: 2010.06.25/outbox.cif.g09.slc.cpg/sg2_296_cif.got.tgz:591814.got - 2010.06.27 13:26:56.
