data_PCOD8023861
_publ_section_title
;
Structure prediction by ZEFSAII (Michael W. Deem and Ramdas Pophale) SiO2 
 PCOD8023861
Probable space group: P -1
;
_chemical_formula_sum "Si O2"
_cell_formula_units_Z 16
_cell_length_a 13.319665
_cell_length_b 11.504279
_cell_length_c 6.006370
_cell_angle_alpha 90.321517
_cell_angle_beta 52.798823
_cell_angle_gamma 106.984835
_cell_volume 683.224255
_symmetry_space_group_name_H-M "P -1"
_symmetry_group_IT_number 2
_symmetry_cell_setting 'triclinic'
loop_
_space_group_symop_operation_xyz
x,y,z
-x,-y,-z
loop_
_atom_site_type_symbol
_atom_site_label
_atom_site_fract_x
_atom_site_fract_y
_atom_site_fract_z
Si Si1 0.646133 0.548124 0.688544
Si Si2 0.664954 0.178744 0.217949
Si Si3 0.217238 0.606703 0.238610
Si Si4 0.777703 0.785579 0.775446
Si Si5 0.892287 0.263302 0.272066
Si Si6 0.823873 0.601776 0.050348
Si Si7 0.353896 0.085685 0.738469
Si Si8 0.129345 0.011305 0.683186
O O1 0.716826 0.456250 0.674388
O O2 0.710901 0.690931 0.667964
O O3 0.678117 0.555295 0.377387
O O4 0.500000 0.500000 0.000000
O O5 0.775213 0.256844 0.254401
O O6 0.513646 0.137943 0.503458
O O7 0.697005 0.056662 0.105703
O O8 0.672306 0.264884 0.997328
O O9 0.108563 0.650286 0.512447
O O10 0.160867 0.513144 0.106961
O O11 0.880829 0.911262 0.523144
O O12 0.842807 0.717725 0.860828
O O13 0.665695 0.823551 0.050041
O O14 0.874162 0.125158 0.378860
O O15 0.043563 0.338063 0.966716
O O16 0.269314 0.086092 0.627838
O O17 0.000000 0.000000 0.000000
#
# Coordination Sequence:
#
# PCOD8023861 Si02
#       8
#     2   2   2   2   2   2   2   2
#     4  11  27  44  68  99 136 185 234 288 345 405
#     4  10  24  42  66  99 136 182 226 281 341 411
#     4  11  25  41  70  98 137 184 231 283 346 408
#     4  11  24  41  71  97 136 180 227 282 345 407
#     4  11  24  44  70 100 144 180 227 284 347 413
#     4  11  26  46  66 104 139 181 237 288 343 409
#     4  10  23  42  66  99 138 177 230 283 339 411
#     4  11  24  43  71 106 143 180 226 287 344 411
#
# _framework density 23.418369999999999
#
# number of rings (size 3 to 8) (size 9 to 14) (size 15 to 20)
#    0.000    1.250    0.000    4.125    7.000    9.000 
#    0.000    3.750    0.000    0.000    0.000    0.000 
#    0.000    0.000    0.000    0.000    0.000    0.000 
#
# Total GULP energy -198215.665807 kJ/mol
# GULP energy per Si atom -12388.479113 kJ/mol
# Density = 2.336507 g / cm^3
# Si number density = 23.418370 Si / 1000 Ang^3
#
#
#
# Elastic Constant Matrix: (Units=GPa)
#
#
# Indices 1 2 3 4 5 6 
#
# 1 74.4433 38.8236 33.6550 -7.1364 -15.9015 0.6612
# 2 38.8236 120.8794 54.5816 13.2440 2.4234 -36.6425
# 3 33.6550 54.5816 114.3053 -2.6734 -6.5105 -7.3880
# 4 -7.1364 13.2440 -2.6734 47.5771 -6.2240 5.4181
# 5 -15.9015 2.4234 -6.5105 -6.2240 34.0131 -7.1889
# 6 0.6612 -36.6425 -7.3880 5.4181 -7.1889 26.1331
#
#
#
# Elastic Compliance Matrix: (Units=1/GPa)
#
#
# Indices 1 2 3 4 5 6 
#
# 1 0.026673 -0.018124 0.000053 0.013404 0.010751 -0.025894
# 2 -0.018124 0.036027 -0.009368 -0.019813 -0.005709 0.050863
# 3 0.000053 -0.009368 0.012779 0.004718 0.001892 -0.009982
# 4 0.013404 -0.019813 0.004718 0.033450 0.008043 -0.031509
# 5 0.010751 -0.005709 0.001892 0.008043 0.036820 0.000720
# 6 -0.025894 0.050863 -0.009982 -0.031509 0.000720 0.114147
#
#
# Mechanical properties :
#
#
# Convention : Reuss Voigt Hill
#
# Bulk Modulus (GPa) = 48.54074 62.63869 55.58972
# Shear Modulus (GPa) = 15.54530 33.71584 24.63057
#
# Velocity S-wave (km/s) = 2.57924 3.79848 3.24661
# Velocity P-wave (km/s) = 5.44450 6.78555 6.15168
#
# Compressibility (1/GPa) = 0.02060125
#
# Stress axis : x y z
#
# Youngs Moduli (GPa) = 37.49173 27.75665 78.25323
#
# Poissons Ratio (x) = 0.50307 -0.00419
# Poissons Ratio (y) = 0.67951 0.73308
# Poissons Ratio (z) = -0.00201 0.26003
#
# Static dielectric constant tensor:
#      x y z
#    x 4.172630 -0.472220 0.167880 
#    y -0.472220 5.335360 -0.475230 
#    z 0.167880 -0.475230 4.559560 
# 
# 
# High freq. dielectric constant tensor:
#      x y z
#    x 1.907600 -0.016080 -0.005680 
#    y -0.016080 1.957960 -0.002130 
#    z -0.005680 -0.002130 1.926530 
# 
# From -- ./inp_files/71837.got.cif
#   From: 2010.06.25/outbox.cif.g09.slc.cpg/sg2_36_cif.got.tgz:71837.got - 2010.06.27 13:26:56.
