data_PCOD8023206
_publ_section_title
;
Structure prediction by ZEFSAII (Michael W. Deem and Ramdas Pophale) SiO2 
 PCOD8023206
Probable space group: P -1
;
_chemical_formula_sum "Si O2"
_cell_formula_units_Z 16
_cell_length_a 9.177742
_cell_length_b 15.923142
_cell_length_c 5.201054
_cell_angle_alpha 108.708231
_cell_angle_beta 72.185231
_cell_angle_gamma 84.139626
_cell_volume 668.284551
_symmetry_space_group_name_H-M "P -1"
_symmetry_group_IT_number 2
_symmetry_cell_setting 'triclinic'
loop_
_space_group_symop_operation_xyz
x,y,z
-x,-y,-z
loop_
_atom_site_type_symbol
_atom_site_label
_atom_site_fract_x
_atom_site_fract_y
_atom_site_fract_z
Si Si1 0.501084 0.782762 0.329998
Si Si2 0.836152 0.329746 0.267534
Si Si3 0.155620 0.860725 0.706528
Si Si4 0.062273 0.443938 0.159017
Si Si5 0.331796 0.064566 0.627951
Si Si6 0.519142 0.325586 0.258333
Si Si7 0.647336 0.513556 0.779147
Si Si8 0.153579 0.026638 0.187023
O O1 0.328938 0.850655 0.483673
O O2 0.639098 0.835767 0.352306
O O3 0.508935 0.708664 0.476663
O O4 0.533278 0.735824 0.990864
O O5 0.882969 0.236626 0.309161
O O6 0.997188 0.350939 0.088491
O O7 0.706053 0.321339 0.113729
O O8 0.753062 0.414537 0.571754
O O9 0.149895 0.921648 0.028151
O O10 0.024811 0.914020 0.630830
O O11 0.000000 0.500000 0.500000
O O12 0.251456 0.426870 0.052301
O O13 0.000000 0.500000 0.000000
O O14 0.235781 0.067116 0.945394
O O15 0.500000 0.000000 0.500000
O O16 0.240370 0.031544 0.410887
O O17 0.416286 0.428655 0.386863
O O18 0.500000 0.500000 0.000000
#
# Coordination Sequence:
#
# PCOD8023206 Si02
#       8
#     2   2   2   2   2   2   2   2
#     4  11  25  43  69 100 137 182 221 282 339 406
#     4  10  23  42  68  95 135 182 221 279 337 400
#     4  10  24  45  68 101 137 180 232 277 343 404
#     4  10  23  41  62  93 127 168 216 268 330 390
#     4  12  25  45  72 102 138 179 229 280 351 399
#     4  11  24  41  67 102 136 173 231 278 335 403
#     4  11  22  43  70 101 134 178 227 277 336 400
#     4  11  26  44  70 102 137 180 226 287 337 412
#
# _framework density 23.941897999999998
#
# number of rings (size 3 to 8) (size 9 to 14) (size 15 to 20)
#    0.000    1.250    1.250    3.750    3.500   11.000 
#    0.000    1.250    0.000    0.000    0.000    0.000 
#    0.000    0.000    0.000    0.000    0.000    0.000 
#
# Total GULP energy -198356.728772 kJ/mol
# GULP energy per Si atom -12397.295548 kJ/mol
# Density = 2.388741 g / cm^3
# Si number density = 23.941898 Si / 1000 Ang^3
#
#
#
# Elastic Constant Matrix: (Units=GPa)
#
#
# Indices 1 2 3 4 5 6 
#
# 1 132.6904 48.7435 22.9890 -5.2355 8.8116 11.2788
# 2 48.7435 111.2369 22.2921 12.6305 0.5965 10.6409
# 3 22.9890 22.2921 68.0198 -6.6968 7.5908 -4.3173
# 4 -5.2355 12.6305 -6.6968 40.5525 0.5502 0.1999
# 5 8.8116 0.5965 7.5908 0.5502 41.5000 -3.8565
# 6 11.2788 10.6409 -4.3173 0.1999 -3.8565 50.4829
#
#
#
# Elastic Compliance Matrix: (Units=1/GPa)
#
#
# Indices 1 2 3 4 5 6 
#
# 1 0.009631 -0.003988 -0.001619 0.002251 -0.001870 -0.001601
# 2 -0.003988 0.012131 -0.003354 -0.004854 0.001179 -0.001843
# 3 -0.001619 -0.003354 0.017147 0.003691 -0.002577 0.002324
# 4 0.002251 -0.004854 0.003691 0.027087 -0.001385 0.000623
# 5 -0.001870 0.001179 -0.002577 -0.001385 0.025141 0.001875
# 6 -0.001601 -0.001843 0.002324 0.000623 0.001875 0.020895
#
#
# Mechanical properties :
#
#
# Convention : Reuss Voigt Hill
#
# Bulk Modulus (GPa) = 47.65280 55.55517 51.60398
# Shear Modulus (GPa) = 36.50992 41.03523 38.77257
#
# Velocity S-wave (km/s) = 3.90928 4.14448 4.02860
# Velocity P-wave (km/s) = 6.35007 6.79388 6.57572
#
# Compressibility (1/GPa) = 0.02098513
#
# Stress axis : x y z
#
# Youngs Moduli (GPa) = 103.83036 82.43481 58.32051
#
# Poissons Ratio (x) = 0.32877 0.09444
# Poissons Ratio (y) = 0.41410 0.19562
# Poissons Ratio (z) = 0.16813 0.27650
#
# Static dielectric constant tensor:
#      x y z
#    x 5.667180 0.341190 -0.066140 
#    y 0.341190 4.587050 0.099700 
#    z -0.066140 0.099700 3.976210 
# 
# 
# High freq. dielectric constant tensor:
#      x y z
#    x 1.971370 0.010930 0.004610 
#    y 0.010930 1.961150 0.002410 
#    z 0.004610 0.002410 1.928700 
# 
# From -- ./inp_files/39694.got.cif
#   From: 2010.06.25/outbox.cif.g09.slc.cpg/sg2_20_cif.got.tgz:39694.got - 2010.06.27 13:26:56.
