data_PCOD8023998
_publ_section_title
;
Structure prediction by ZEFSAII (Michael W. Deem and Ramdas Pophale) SiO2 
 PCOD8023998
Probable space group: P -1
;
_chemical_formula_sum "Si O2"
_cell_formula_units_Z 16
_cell_length_a 21.646121
_cell_length_b 7.437332
_cell_length_c 4.956732
_cell_angle_alpha 113.516089
_cell_angle_beta 89.708564
_cell_angle_gamma 113.424494
_cell_volume 660.130362
_symmetry_space_group_name_H-M "P -1"
_symmetry_group_IT_number 2
_symmetry_cell_setting 'triclinic'
loop_
_space_group_symop_operation_xyz
x,y,z
-x,-y,-z
loop_
_atom_site_type_symbol
_atom_site_label
_atom_site_fract_x
_atom_site_fract_y
_atom_site_fract_z
Si Si1 0.835403 0.461596 0.452538
Si Si2 0.547464 0.245610 0.064588
Si Si3 0.046526 0.608402 0.814114
Si Si4 0.685722 0.260655 0.224275
Si Si5 0.205535 0.001364 0.611403
Si Si6 0.508639 0.654987 0.349124
Si Si7 0.336542 0.016008 0.436327
Si Si8 0.138771 0.082013 0.152467
O O1 0.886510 0.441706 0.214405
O O2 0.763946 0.448600 0.319266
O O3 0.818324 0.260749 0.539683
O O4 0.871884 0.697413 0.738451
O O5 0.628344 0.333932 0.165949
O O6 0.524105 0.399240 0.364901
O O7 0.535406 0.234552 0.733596
O O8 0.500000 0.000000 0.000000
O O9 0.000000 0.500000 0.500000
O O10 0.000000 0.500000 0.000000
O O11 0.069294 0.868220 0.956195
O O12 0.668072 0.175752 0.478389
O O13 0.684310 0.069224 0.917369
O O14 0.285195 0.117584 0.595168
O O15 0.158004 0.053880 0.439876
O O16 0.198873 0.094840 0.957682
O O17 0.587669 0.803238 0.467922
O O18 0.500000 0.500000 0.000000
#
# Coordination Sequence:
#
# PCOD8023998 Si02
#       8
#     2   2   2   2   2   2   2   2
#     4  10  25  46  70 104 139 181 238 283 346 420
#     4  12  22  42  66  92 126 176 238 282 336 425
#     4  11  24  44  71 104 143 182 225 279 344 418
#     4  11  23  39  70  96 124 178 231 287 340 411
#     4  10  23  42  68  99 139 181 231 290 341 411
#     4  12  25  40  61  94 135 173 222 294 359 419
#     4  11  20  40  63  91 130 178 220 281 361 406
#     4  11  24  44  71 102 140 182 229 286 341 409
#
# _framework density 24.237635000000001
#
# number of rings (size 3 to 8) (size 9 to 14) (size 15 to 20)
#    0.000    1.000    2.500    5.250    0.000    8.000 
#    0.000    3.750    0.000    0.000    0.000    0.000 
#    0.000    0.000    0.000    0.000    0.000    0.000 
#
# Total GULP energy -198254.088002 kJ/mol
# GULP energy per Si atom -12390.880500 kJ/mol
# Density = 2.418247 g / cm^3
# Si number density = 24.237635 Si / 1000 Ang^3
#
#
#
# Elastic Constant Matrix: (Units=GPa)
#
#
# Indices 1 2 3 4 5 6 
#
# 1 126.8133 45.1956 34.1913 3.1636 -6.6607 33.4739
# 2 45.1956 90.9162 53.0783 0.4319 -3.0716 8.5803
# 3 34.1913 53.0783 119.3389 -0.6877 -2.6551 6.5048
# 4 3.1636 0.4319 -0.6877 54.0455 -2.9332 -1.1161
# 5 -6.6607 -3.0716 -2.6551 -2.9332 44.9742 4.8340
# 6 33.4739 8.5803 6.5048 -1.1161 4.8340 39.8389
#
#
#
# Elastic Compliance Matrix: (Units=1/GPa)
#
#
# Indices 1 2 3 4 5 6 
#
# 1 0.012502 -0.004675 -0.000925 -0.000772 0.002466 -0.009667
# 2 -0.004675 0.016826 -0.006217 0.000085 -0.000048 0.001328
# 3 -0.000925 -0.006217 0.011400 0.000260 0.000101 0.000250
# 4 -0.000772 0.000085 0.000260 0.018626 0.001016 0.000987
# 5 0.002466 -0.000048 0.000101 0.001016 0.023192 -0.004864
# 6 -0.009667 0.001328 0.000250 0.000987 -0.004864 0.033515
#
#
# Mechanical properties :
#
#
# Convention : Reuss Voigt Hill
#
# Bulk Modulus (GPa) = 58.50518 66.88875 62.69696
# Shear Modulus (GPa) = 34.38960 41.41196 37.90078
#
# Velocity S-wave (km/s) = 3.77085 4.13798 3.95867
# Velocity P-wave (km/s) = 6.56884 7.10546 6.84241
#
# Compressibility (1/GPa) = 0.01709250
#
# Stress axis : x y z
#
# Youngs Moduli (GPa) = 79.98749 59.43340 87.72134
#
# Poissons Ratio (x) = 0.27788 0.08114
# Poissons Ratio (y) = 0.37398 0.54535
# Poissons Ratio (z) = 0.07399 0.36949
#
# Static dielectric constant tensor:
#      x y z
#    x 5.142520 -0.425460 -0.059200 
#    y -0.425460 4.808330 -0.007720 
#    z -0.059200 -0.007720 4.474260 
# 
# 
# High freq. dielectric constant tensor:
#      x y z
#    x 1.970940 0.001120 -0.007140 
#    y 0.001120 1.960410 -0.008500 
#    z -0.007140 -0.008500 1.977470 
# 
# From -- ./inp_files/116432.got.cif
#   From: 2010.06.25/outbox.cif.g09.slc.cpg/sg2_59_cif.got.tgz:116432.got - 2010.06.27 13:26:56.
