data_PCOD8023257
_publ_section_title
;
Structure prediction by ZEFSAII (Michael W. Deem and Ramdas Pophale) SiO2 
 PCOD8023257
Probable space group: P -1
;
_chemical_formula_sum "Si O2"
_cell_formula_units_Z 10
_cell_length_a 5.223096
_cell_length_b 16.443840
_cell_length_c 5.877862
_cell_angle_alpha 70.320936
_cell_angle_beta 97.228223
_cell_angle_gamma 65.439968
_cell_volume 410.994807
_symmetry_space_group_name_H-M "P -1"
_symmetry_group_IT_number 2
_symmetry_cell_setting 'triclinic'
loop_
_space_group_symop_operation_xyz
x,y,z
-x,-y,-z
loop_
_atom_site_type_symbol
_atom_site_label
_atom_site_fract_x
_atom_site_fract_y
_atom_site_fract_z
Si Si1 0.391274 0.881542 0.052504
Si Si2 0.743293 0.236871 0.505055
Si Si3 0.678569 0.387766 0.699958
Si Si4 0.307785 0.308321 0.008318
Si Si5 0.730822 0.942942 0.382388
O O1 0.215871 0.840279 0.218038
O O2 0.613855 0.797127 0.986453
O O3 0.584719 0.910687 0.201965
O O4 0.172048 0.978973 0.785602
O O5 0.801184 0.320408 0.548060
O O6 0.985114 0.163493 0.412209
O O7 0.421238 0.291999 0.297948
O O8 0.500000 0.500000 0.500000
O O9 0.459592 0.361402 0.838013
O O10 0.048266 0.625455 0.099330
O O11 0.500000 0.000000 0.500000
#
# Coordination Sequence:
#
# PCOD8023257 Si02
#       5
#     2   2   2   2   2
#     4  10  23  41  63  99 144 182 231 279 344 407
#     4  11  25  43  70  99 144 180 234 285 345 414
#     4  11  26  48  72 104 139 178 232 296 354 416
#     4  11  25  43  76 101 140 182 232 285 355 414
#     4  11  23  39  68  98 141 186 231 279 343 408
#
# _framework density 24.331211
#
# number of rings (size 3 to 8) (size 9 to 14) (size 15 to 20)
#    0.000    1.200    2.000    2.400    5.600    6.400 
#    0.000    0.000    0.000    0.000    0.000    0.000 
#    0.000    0.000    0.000    0.000    0.000    0.000 
#
# Total GULP energy -123948.797850 kJ/mol
# GULP energy per Si atom -12394.879785 kJ/mol
# Density = 2.427583 g / cm^3
# Si number density = 24.331211 Si / 1000 Ang^3
#
#
#
# Elastic Constant Matrix: (Units=GPa)
#
#
# Indices 1 2 3 4 5 6 
#
# 1 117.9048 45.3332 33.7821 -15.5877 22.1631 -1.8321
# 2 45.3332 130.9344 66.1590 -32.6267 -1.1430 -7.5575
# 3 33.7821 66.1590 99.5689 -13.6224 17.3191 1.8233
# 4 -15.5877 -32.6267 -13.6224 37.1198 -4.8083 5.0471
# 5 22.1631 -1.1430 17.3191 -4.8083 39.3071 -8.9171
# 6 -1.8321 -7.5575 1.8233 5.0471 -8.9171 30.2198
#
#
#
# Elastic Compliance Matrix: (Units=1/GPa)
#
#
# Indices 1 2 3 4 5 6 
#
# 1 0.011384 -0.004110 0.000253 0.000685 -0.007151 -0.002577
# 2 -0.004110 0.017417 -0.010662 0.010161 0.010135 0.006043
# 3 0.000253 -0.010662 0.018572 -0.002936 -0.010438 -0.006361
# 4 0.000685 0.010161 -0.002936 0.035990 0.005217 -0.001711
# 5 -0.007151 0.010135 -0.010438 0.005217 0.037968 0.013063
# 6 -0.002577 0.006043 -0.006361 -0.001711 0.013063 0.038970
#
#
# Mechanical properties :
#
#
# Convention : Reuss Voigt Hill
#
# Bulk Modulus (GPa) = 54.53790 70.99518 62.76654
# Shear Modulus (GPa) = 25.58207 34.87158 30.22683
#
# Velocity S-wave (km/s) = 3.24606 3.78987 3.52846
# Velocity P-wave (km/s) = 6.04257 6.95650 6.51558
#
# Compressibility (1/GPa) = 0.01833587
#
# Stress axis : x y z
#
# Youngs Moduli (GPa) = 87.84494 57.41563 53.84437
#
# Poissons Ratio (x) = 0.23596 -0.01363
# Poissons Ratio (y) = 0.36102 0.57408
# Poissons Ratio (z) = -0.02224 0.61215
#
# Static dielectric constant tensor:
#      x y z
#    x 4.254920 -0.067840 0.015080 
#    y -0.067840 4.786120 -0.047050 
#    z 0.015080 -0.047050 4.985960 
# 
# 
# High freq. dielectric constant tensor:
#      x y z
#    x 1.957190 0.007190 0.008640 
#    y 0.007190 1.976170 -0.008150 
#    z 0.008640 -0.008150 1.964860 
# 
# From -- ./inp_files/1648.got.cif
#   From: 2010.06.25/outbox.cif.g09.slc.cpg/sg2_1_cif.got.tgz:1648.got - 2010.06.27 13:26:56.
