data_PCOD8023097
_publ_section_title
;
Structure prediction by ZEFSAII (Michael W. Deem and Ramdas Pophale) SiO2 
 PCOD8023097
Probable space group: P -1
;
_chemical_formula_sum "Si O2"
_cell_formula_units_Z 14
_cell_length_a 9.338366
_cell_length_b 7.579043
_cell_length_c 12.612398
_cell_angle_alpha 117.145534
_cell_angle_beta 124.315464
_cell_angle_gamma 60.229836
_cell_volume 620.319992
_symmetry_space_group_name_H-M "P -1"
_symmetry_group_IT_number 2
_symmetry_cell_setting 'triclinic'
loop_
_space_group_symop_operation_xyz
x,y,z
-x,-y,-z
loop_
_atom_site_type_symbol
_atom_site_label
_atom_site_fract_x
_atom_site_fract_y
_atom_site_fract_z
Si Si1 0.715803 0.186520 0.756242
Si Si2 0.056578 0.690008 0.496996
Si Si3 0.656133 0.287751 0.533513
Si Si4 0.629208 0.884923 0.337029
Si Si5 0.044629 0.273660 0.311147
Si Si6 0.771036 0.360034 0.035397
Si Si7 0.479200 0.170933 0.946233
O O1 0.730451 0.308565 0.687969
O O2 0.500097 0.248774 0.714282
O O3 0.830012 0.252214 0.915294
O O4 0.795963 0.940104 0.701950
O O5 0.171198 0.793118 0.497835
O O6 0.083785 0.744958 0.646825
O O7 0.841509 0.751329 0.398529
O O8 0.140355 0.441591 0.437107
O O9 0.500000 0.500000 0.500000
O O10 0.573805 0.097671 0.441221
O O11 0.580769 0.938806 0.208869
O O12 0.940562 0.348797 0.178130
O O13 0.669666 0.602590 0.031963
O O14 0.664090 0.225809 0.016434
O O15 0.500000 0.000000 0.000000
#
# Coordination Sequence:
#
# PCOD8023097 Si02
#       7
#     2   2   2   2   2   2   2
#     4  11  25  43  67  95 135 177 212 272 342 394
#     4  11  25  41  70  98 126 174 222 274 324 397
#     4  12  27  40  64 101 136 167 222 275 331 393
#     4  11  23  45  67  96 131 174 221 269 335 393
#     4  11  23  44  68  93 134 173 223 268 337 393
#     4  10  23  43  67  96 135 178 218 273 337 394
#     4  10  23  40  68 100 131 175 227 273 326 398
#
# _framework density 22.568998000000001
#
# number of rings (size 3 to 8) (size 9 to 14) (size 15 to 20)
#    0.000    1.143    2.857    2.143    8.000    0.000 
#    0.000    0.714    0.000    0.000    0.000    0.000 
#    0.000    0.000    0.000    0.000    0.000    0.000 
#
# Total GULP energy -173522.596049 kJ/mol
# GULP energy per Si atom -12394.471146 kJ/mol
# Density = 2.251763 g / cm^3
# Si number density = 22.568998 Si / 1000 Ang^3
#
#
#
# Elastic Constant Matrix: (Units=GPa)
#
#
# Indices 1 2 3 4 5 6 
#
# 1 72.0927 21.0650 36.7026 -5.4119 -21.1803 3.6136
# 2 21.0650 99.3997 34.7712 -11.3026 -9.7791 -0.6947
# 3 36.7026 34.7712 153.2567 -7.0250 -33.2512 0.2666
# 4 -5.4119 -11.3026 -7.0250 34.1932 3.5799 -8.0773
# 5 -21.1803 -9.7791 -33.2512 3.5799 34.1447 -5.3168
# 6 3.6136 -0.6947 0.2666 -8.0773 -5.3168 35.6786
#
#
#
# Elastic Compliance Matrix: (Units=1/GPa)
#
#
# Indices 1 2 3 4 5 6 
#
# 1 0.018101 -0.002236 -0.001936 0.000732 0.008560 -0.000421
# 2 -0.002236 0.011603 -0.001978 0.003377 -0.000156 0.001208
# 3 -0.001936 -0.001978 0.009007 0.000438 0.007154 0.001255
# 4 0.000732 0.003377 0.000438 0.032322 -0.000413 0.007244
# 5 0.008560 -0.000156 0.007154 -0.000413 0.042387 0.005300
# 6 -0.000421 0.001208 0.001255 0.007244 0.005300 0.030515
#
#
# Mechanical properties :
#
#
# Convention : Reuss Voigt Hill
#
# Bulk Modulus (GPa) = 37.86335 56.64743 47.25539
# Shear Modulus (GPa) = 30.29553 36.28399 33.28976
#
# Velocity S-wave (km/s) = 3.66779 4.01395 3.84477
# Velocity P-wave (km/s) = 5.89491 6.82910 6.37913
#
# Compressibility (1/GPa) = 0.02641076
#
# Stress axis : x y z
#
# Youngs Moduli (GPa) = 55.24543 86.18175 111.01867
#
# Poissons Ratio (x) = 0.19273 0.21493
# Poissons Ratio (y) = 0.12354 0.21962
# Poissons Ratio (z) = 0.10696 0.17049
#
# Static dielectric constant tensor:
#      x y z
#    x 3.925250 0.035380 -0.280330 
#    y 0.035380 4.046640 0.086730 
#    z -0.280330 0.086730 4.329250 
# 
# 
# High freq. dielectric constant tensor:
#      x y z
#    x 1.868160 -0.004420 -0.018150 
#    y -0.004420 1.894930 0.003470 
#    z -0.018150 0.003470 1.904010 
# 
# From -- ./inp_files/380107.got.cif
#   From: 2010.06.25/outbox.cif.g09.slc.cpg/sg2_191_cif.got.tgz:380107.got - 2010.06.27 13:26:56.
