data_PCOD8023070
_publ_section_title
;
Structure prediction by ZEFSAII (Michael W. Deem and Ramdas Pophale) SiO2 
 PCOD8023070
Probable space group: P -1
;
_chemical_formula_sum "Si O2"
_cell_formula_units_Z 16
_cell_length_a 11.717003
_cell_length_b 12.193475
_cell_length_c 21.251493
_cell_angle_alpha 152.701132
_cell_angle_beta 37.538641
_cell_angle_gamma 125.072503
_cell_volume 751.020530
_symmetry_space_group_name_H-M "P -1"
_symmetry_group_IT_number 2
_symmetry_cell_setting 'triclinic'
loop_
_space_group_symop_operation_xyz
x,y,z
-x,-y,-z
loop_
_atom_site_type_symbol
_atom_site_label
_atom_site_fract_x
_atom_site_fract_y
_atom_site_fract_z
Si Si1 0.929536 0.564299 0.135563
Si Si2 0.168549 0.443717 0.451980
Si Si3 0.884077 0.412069 0.751591
Si Si4 0.381353 0.665194 0.826518
Si Si5 0.664098 0.594232 0.062801
Si Si6 0.393130 0.829599 0.042223
Si Si7 0.791463 0.996470 0.511422
Si Si8 0.818735 0.796665 0.873524
O O1 0.722773 0.533150 0.226703
O O2 0.864485 0.871490 0.345228
O O3 0.000000 0.500000 0.000000
O O4 0.134991 0.361739 0.982627
O O5 0.364199 0.501491 0.376540
O O6 0.000000 0.500000 0.500000
O O7 0.046312 0.645486 0.664321
O O8 0.264883 0.136875 0.278725
O O9 0.860575 0.688521 0.872015
O O10 0.106469 0.244755 0.604901
O O11 0.862955 0.225851 0.610756
O O12 0.691184 0.496360 0.928560
O O13 0.325830 0.831606 0.000626
O O14 0.272091 0.879927 0.926947
O O15 0.666291 0.359181 0.985605
O O16 0.459574 0.877160 0.307135
O O17 0.645043 0.723193 0.880656
#
# Coordination Sequence:
#
# PCOD8023070 Si02
#       8
#     2   2   2   2   2   2   2   2
#     4  11  25  43  63  94 135 175 212 257 316 401
#     4  11  21  36  61  91 127 168 209 266 319 375
#     4  10  23  40  67 100 126 163 222 279 319 370
#     4  11  23  42  58  94 134 167 214 256 321 395
#     4  11  23  42  66  97 132 169 208 277 324 375
#     4  11  21  36  62  98 130 157 214 268 327 380
#     4  10  23  41  62  97 128 168 218 260 325 379
#     4  11  22  38  64  94 126 168 210 269 326 373
#
# _framework density 21.304342999999999
#
# number of rings (size 3 to 8) (size 9 to 14) (size 15 to 20)
#    0.000    1.250    5.000    1.125    5.250    2.500 
#    2.250    2.500    0.000    4.500    0.000    0.000 
#    0.000    0.000    0.000    0.000    0.000    0.000 
#
# Total GULP energy -198308.794766 kJ/mol
# GULP energy per Si atom -12394.299673 kJ/mol
# Density = 2.125585 g / cm^3
# Si number density = 21.304343 Si / 1000 Ang^3
#
#
#
# Elastic Constant Matrix: (Units=GPa)
#
#
# Indices 1 2 3 4 5 6 
#
# 1 74.5031 42.1285 55.7200 -9.7496 -1.9117 5.3058
# 2 42.1285 111.4793 35.7543 -11.0363 -11.3324 -7.4662
# 3 55.7200 35.7543 141.4226 -23.6387 -15.3500 -4.1189
# 4 -9.7496 -11.0363 -23.6387 30.7053 0.1195 -10.6834
# 5 -1.9117 -11.3324 -15.3500 0.1195 40.4610 -6.3519
# 6 5.3058 -7.4662 -4.1189 -10.6834 -6.3519 36.9232
#
#
#
# Elastic Compliance Matrix: (Units=1/GPa)
#
#
# Indices 1 2 3 4 5 6 
#
# 1 0.024978 -0.008117 -0.009634 -0.005494 -0.006137 -0.008951
# 2 -0.008117 0.013006 0.001536 0.005483 0.004828 0.006385
# 3 -0.009634 0.001536 0.012991 0.009922 0.005980 0.007044
# 4 -0.005494 0.005483 0.009922 0.046600 0.007699 0.017813
# 5 -0.006137 0.004828 0.005980 0.007699 0.029568 0.009840
# 6 -0.008951 0.006385 0.007044 0.017813 0.009840 0.037293
#
#
# Mechanical properties :
#
#
# Convention : Reuss Voigt Hill
#
# Bulk Modulus (GPa) = 53.92004 66.06786 59.99395
# Shear Modulus (GPa) = 24.62460 34.53804 29.58132
#
# Velocity S-wave (km/s) = 3.40347 4.03075 3.73032
# Velocity P-wave (km/s) = 6.38820 7.26232 6.83924
#
# Compressibility (1/GPa) = 0.01854598
#
# Stress axis : x y z
#
# Youngs Moduli (GPa) = 40.03446 76.88695 76.97484
#
# Poissons Ratio (x) = 0.62407 0.74161
# Poissons Ratio (y) = 0.32495 -0.11825
# Poissons Ratio (z) = 0.38571 -0.11811
#
# Static dielectric constant tensor:
#      x y z
#    x 3.909330 -0.053900 -0.222630 
#    y -0.053900 3.774040 -0.198110 
#    z -0.222630 -0.198110 3.988710 
# 
# 
# High freq. dielectric constant tensor:
#      x y z
#    x 1.823360 -0.008000 -0.022240 
#    y -0.008000 1.818700 -0.014900 
#    z -0.022240 -0.014900 1.840540 
# 
# From -- ./inp_files/438599.got.cif
#   From: 2010.06.25/outbox.cif.g09.slc.cpg/sg2_220_cif.got.tgz:438599.got - 2010.06.27 13:26:56.
