data_PCOD8023315
_publ_section_title
;
Structure prediction by ZEFSAII (Michael W. Deem and Ramdas Pophale) SiO2 
 PCOD8023315
Probable space group: P -1
;
_chemical_formula_sum "Si O2"
_cell_formula_units_Z 16
_cell_length_a 12.246636
_cell_length_b 6.638996
_cell_length_c 11.443615
_cell_angle_alpha 100.789983
_cell_angle_beta 115.547919
_cell_angle_gamma 68.133506
_cell_volume 778.666653
_symmetry_space_group_name_H-M "P -1"
_symmetry_group_IT_number 2
_symmetry_cell_setting 'triclinic'
loop_
_space_group_symop_operation_xyz
x,y,z
-x,-y,-z
loop_
_atom_site_type_symbol
_atom_site_label
_atom_site_fract_x
_atom_site_fract_y
_atom_site_fract_z
Si Si1 0.489726 0.558054 0.191655
Si Si2 0.076571 0.555801 0.736801
Si Si3 0.756483 0.929480 0.232237
Si Si4 0.450253 0.350103 0.376452
Si Si5 0.390129 0.122814 0.631136
Si Si6 0.300884 0.714273 0.920345
Si Si7 0.200797 0.399434 0.393361
Si Si8 0.887134 0.215792 0.444486
O O1 0.461716 0.386777 0.247581
O O2 0.520266 0.727801 0.311842
O O3 0.607856 0.449938 0.148447
O O4 0.361818 0.676750 0.072378
O O5 0.125534 0.294092 0.745217
O O6 0.165475 0.666403 0.860952
O O7 0.073632 0.622845 0.607161
O O8 0.927904 0.640289 0.719693
O O9 0.642521 0.888812 0.247548
O O10 0.717413 0.034092 0.096370
O O11 0.778873 0.133629 0.330285
O O12 0.500000 0.500000 0.500000
O O13 0.302322 0.374718 0.334273
O O14 0.535729 0.105026 0.418379
O O15 0.261519 0.232309 0.508827
O O16 0.165160 0.647544 0.448778
O O17 0.000000 0.000000 0.500000
#
# Coordination Sequence:
#
# PCOD8023315 Si02
#       8
#     2   2   2   2   2   2   2   2
#     4  11  23  43  64  92 128 167 213 263 311 367
#     4  11  22  38  59  94 127 160 208 259 316 370
#     4  11  19  35  61  91 125 158 206 262 314 365
#     4  12  26  43  63  94 132 169 211 254 320 386
#     4  12  22  40  63  94 128 167 210 257 316 377
#     4  10  23  41  65  93 126 163 215 270 307 362
#     4  12  23  39  61  94 131 168 204 259 319 384
#     4  11  20  34  56  92 129 164 200 256 316 372
#
# _framework density 20.547946
#
# number of rings (size 3 to 8) (size 9 to 14) (size 15 to 20)
#    0.000    0.750    6.250    3.000    0.000    1.500 
#    0.000    0.625    0.000    1.500    0.000    0.000 
#    0.000    0.000    0.000    0.000    0.000    0.000 
#
# Total GULP energy -198357.443833 kJ/mol
# GULP energy per Si atom -12397.340240 kJ/mol
# Density = 2.050118 g / cm^3
# Si number density = 20.547946 Si / 1000 Ang^3
#
#
#
# Elastic Constant Matrix: (Units=GPa)
#
#
# Indices 1 2 3 4 5 6 
#
# 1 122.3411 30.6638 31.1543 -7.1033 18.7734 -2.9173
# 2 30.6638 135.5824 30.7928 -19.5178 5.7734 -10.4101
# 3 31.1543 30.7928 65.2024 -23.6036 13.3784 -2.8455
# 4 -7.1033 -19.5178 -23.6036 26.1486 -1.9702 -1.2302
# 5 18.7734 5.7734 13.3784 -1.9702 29.1779 -3.4739
# 6 -2.9173 -10.4101 -2.8455 -1.2302 -3.4739 33.4257
#
#
#
# Elastic Compliance Matrix: (Units=1/GPa)
#
#
# Indices 1 2 3 4 5 6 
#
# 1 0.010155 -0.001569 -0.004090 -0.002474 -0.004577 -0.000517
# 2 -0.001569 0.009019 -0.001755 0.004904 0.000691 0.002775
# 3 -0.004090 -0.001755 0.027894 0.022213 -0.008139 0.001443
# 4 -0.002474 0.004904 0.022213 0.061150 -0.004845 0.004949
# 5 -0.004577 0.000691 -0.008139 -0.004845 0.040865 0.003192
# 6 -0.000517 0.002775 0.001443 0.004949 0.003192 0.031373
#
#
# Mechanical properties :
#
#
# Convention : Reuss Voigt Hill
#
# Bulk Modulus (GPa) = 31.01781 56.48307 43.75044
# Shear Modulus (GPa) = 24.26831 33.11810 28.69320
#
# Velocity S-wave (km/s) = 3.44038 4.01901 3.74090
# Velocity P-wave (km/s) = 5.55965 7.00605 6.32434
#
# Compressibility (1/GPa) = 0.03223954
#
# Stress axis : x y z
#
# Youngs Moduli (GPa) = 98.47403 110.88312 35.84974
#
# Poissons Ratio (x) = 0.17393 0.14664
# Poissons Ratio (y) = 0.15447 0.06292
# Poissons Ratio (z) = 0.40279 0.19461
#
# Static dielectric constant tensor:
#      x y z
#    x 3.755740 0.107360 0.159730 
#    y 0.107360 4.011900 -0.308900 
#    z 0.159730 -0.308900 3.694190 
# 
# 
# High freq. dielectric constant tensor:
#      x y z
#    x 1.796630 0.009880 0.016230 
#    y 0.009880 1.820790 -0.020560 
#    z 0.016230 -0.020560 1.769990 
# 
# From -- ./inp_files/70770.got.cif
#   From: 2010.06.25/outbox.cif.g09.slc.cpg/sg2_36_cif.got.tgz:70770.got - 2010.06.27 13:26:56.
