data_PCOD8023871
_publ_section_title
;
Structure prediction by ZEFSAII (Michael W. Deem and Ramdas Pophale) SiO2 
 PCOD8023871
Probable space group: P -1
;
_chemical_formula_sum "Si O2"
_cell_formula_units_Z 16
_cell_length_a 11.620356
_cell_length_b 16.482027
_cell_length_c 9.666461
_cell_angle_alpha 26.614819
_cell_angle_beta 102.270390
_cell_angle_gamma 110.335167
_cell_volume 756.179650
_symmetry_space_group_name_H-M "P -1"
_symmetry_group_IT_number 2
_symmetry_cell_setting 'triclinic'
loop_
_space_group_symop_operation_xyz
x,y,z
-x,-y,-z
loop_
_atom_site_type_symbol
_atom_site_label
_atom_site_fract_x
_atom_site_fract_y
_atom_site_fract_z
Si Si1 0.779131 0.658493 0.447814
Si Si2 0.981422 0.488427 0.676967
Si Si3 0.719935 0.934450 0.799870
Si Si4 0.512668 0.389435 0.804866
Si Si5 0.126011 0.953804 0.611882
Si Si6 0.470270 0.613463 0.694619
Si Si7 0.736795 0.918156 0.264909
Si Si8 0.238937 0.750961 0.439946
O O1 0.664171 0.453736 0.768737
O O2 0.804251 0.800481 0.369989
O O3 0.905474 0.622357 0.501624
O O4 0.750742 0.765357 0.144296
O O5 0.111961 0.563908 0.679939
O O6 0.000000 0.500000 0.500000
O O7 0.905138 0.272416 0.033823
O O8 0.792920 0.976482 0.610996
O O9 0.758846 0.128391 0.604539
O O10 0.566193 0.843289 0.873920
O O11 0.500000 0.500000 0.500000
O O12 0.441393 0.465070 0.787716
O O13 0.207114 0.064172 0.595058
O O14 0.000000 0.000000 0.500000
O O15 0.587246 0.808173 0.395036
O O16 0.351307 0.672442 0.602304
O O17 0.500000 0.500000 0.000000
O O18 0.756045 0.125274 0.885964
#
# Coordination Sequence:
#
# PCOD8023871 Si02
#       8
#     2   2   2   2   2   2   2   2
#     4   9  22  43  70  96 133 176 224 263 328 400
#     4  12  26  44  67  97 132 182 224 268 326 407
#     4  10  23  42  67 102 133 172 218 282 327 382
#     4   9  20  40  70  96 126 174 217 268 324 391
#     4  12  27  42  67  99 137 174 220 278 329 389
#     4  11  24  42  68  99 132 172 218 282 333 383
#     4  10  23  45  68  97 131 179 222 270 325 395
#     4  11  26  44  67  96 133 178 224 266 331 402
#
# _framework density 21.158992999999999
#
# number of rings (size 3 to 8) (size 9 to 14) (size 15 to 20)
#    0.000    1.500    1.250    2.625    8.750    4.500 
#    0.000    1.875    0.000    0.000    0.000    0.000 
#    0.000    0.000    0.000    0.000    0.000    0.000 
#
# Total GULP energy -198379.930085 kJ/mol
# GULP energy per Si atom -12398.745630 kJ/mol
# Density = 2.111083 g / cm^3
# Si number density = 21.158993 Si / 1000 Ang^3
#
#
#
# Elastic Constant Matrix: (Units=GPa)
#
#
# Indices 1 2 3 4 5 6 
#
# 1 138.6806 58.1338 36.0116 2.3650 7.2465 -11.7164
# 2 58.1338 163.1101 49.0523 7.0035 -9.7110 -6.1889
# 3 36.0116 49.0523 72.5934 3.2646 -13.1290 -11.8349
# 4 2.3650 7.0035 3.2646 35.3290 2.6242 -13.1621
# 5 7.2465 -9.7110 -13.1290 2.6242 38.9629 0.1010
# 6 -11.7164 -6.1889 -11.8349 -13.1621 0.1010 29.0186
#
#
#
# Elastic Compliance Matrix: (Units=1/GPa)
#
#
# Indices 1 2 3 4 5 6 
#
# 1 0.009533 -0.002592 -0.003270 0.001423 -0.003623 0.002621
# 2 -0.002592 0.008473 -0.004445 -0.001902 0.001229 -0.001919
# 3 -0.003270 -0.004445 0.020576 0.001205 0.006335 0.006648
# 4 0.001423 -0.001902 0.001205 0.034810 -0.002720 0.016459
# 5 -0.003623 0.001229 0.006335 -0.002720 0.028963 0.000049
# 6 0.002621 -0.001919 0.006648 0.016459 0.000049 0.045286
#
#
# Mechanical properties :
#
#
# Convention : Reuss Voigt Hill
#
# Bulk Modulus (GPa) = 55.64908 73.41994 64.53451
# Shear Modulus (GPa) = 28.69546 36.07452 32.38499
#
# Velocity S-wave (km/s) = 3.68663 4.13355 3.91647
# Velocity P-wave (km/s) = 6.66927 7.58658 7.14267
#
# Compressibility (1/GPa) = 0.01796975
#
# Stress axis : x y z
#
# Youngs Moduli (GPa) = 104.90152 118.01870 48.59965
#
# Poissons Ratio (x) = 0.30586 0.15891
# Poissons Ratio (y) = 0.27186 0.21602
# Poissons Ratio (z) = 0.34301 0.52458
#
# Static dielectric constant tensor:
#      x y z
#    x 2.254010 -0.040200 -0.559450 
#    y -0.040200 4.102850 -0.150670 
#    z -0.559450 -0.150670 4.027830 
# 
# 
# High freq. dielectric constant tensor:
#      x y z
#    x 1.828410 0.000940 -0.018240 
#    y 0.000940 1.849290 -0.003570 
#    z -0.018240 -0.003570 1.829090 
# 
# From -- ./inp_files/206059.got.cif
#   From: 2010.06.25/outbox.cif.g09.slc.cpg/sg2_104_cif.got.tgz:206059.got - 2010.06.27 13:26:56.
