data_PCOD8024141
_publ_section_title
;
Structure prediction by ZEFSAII (Michael W. Deem and Ramdas Pophale) SiO2 
 PCOD8024141
Probable space group: P -1
;
_chemical_formula_sum "Si O2"
_cell_formula_units_Z 14
_cell_length_a 12.681414
_cell_length_b 8.944517
_cell_length_c 7.737532
_cell_angle_alpha 126.262555
_cell_angle_beta 113.849827
_cell_angle_gamma 48.956260
_cell_volume 533.548350
_symmetry_space_group_name_H-M "P -1"
_symmetry_group_IT_number 2
_symmetry_cell_setting 'triclinic'
loop_
_space_group_symop_operation_xyz
x,y,z
-x,-y,-z
loop_
_atom_site_type_symbol
_atom_site_label
_atom_site_fract_x
_atom_site_fract_y
_atom_site_fract_z
Si Si1 0.236246 0.454444 0.402820
Si Si2 0.665577 0.566014 0.929469
Si Si3 0.655876 0.992085 0.235939
Si Si4 0.354776 0.947160 0.119391
Si Si5 0.062161 0.124632 0.536523
Si Si6 0.848964 0.129726 0.917947
Si Si7 0.507121 0.644152 0.326768
O O1 0.276226 0.480364 0.255808
O O2 0.325753 0.501831 0.626558
O O3 0.069348 0.627882 0.436891
O O4 0.277638 0.206038 0.298505
O O5 0.540797 0.526313 0.842671
O O6 0.793214 0.385247 0.012557
O O7 0.621002 0.810214 0.134667
O O8 0.570455 0.196019 0.450335
O O9 0.824722 0.872822 0.264885
O O10 0.591835 0.090557 0.070234
O O11 0.477376 0.787738 0.230447
O O12 0.244464 0.881693 0.007534
O O13 0.155608 0.988579 0.340000
O O14 0.000000 0.000000 0.500000
O O15 0.000000 0.000000 0.000000
#
# Coordination Sequence:
#
# PCOD8024141 Si02
#       7
#     2   2   2   2   2   2   2
#     4  11  24  41  75 104 145 191 246 295 364 439
#     4  10  23  42  71 105 135 196 242 291 359 431
#     4  11  24  45  79 102 145 192 246 292 369 433
#     4  10  24  42  71 109 140 191 245 301 356 435
#     4  12  23  44  74 107 139 199 233 296 378 414
#     4  11  23  42  66 105 155 177 240 307 353 429
#     4  11  23  51  71 105 153 188 239 311 355 429
#
# _framework density 26.239422999999999
#
# number of rings (size 3 to 8) (size 9 to 14) (size 15 to 20)
#    0.000    1.143    4.286    1.714    2.000    5.143 
#    0.000    7.143    0.000    9.429    0.000    0.000 
#    0.000    0.000    0.000    0.000    0.000    0.000 
#
# Total GULP energy -173610.341392 kJ/mol
# GULP energy per Si atom -12400.738671 kJ/mol
# Density = 2.617970 g / cm^3
# Si number density = 26.239423 Si / 1000 Ang^3
#
#
#
# Elastic Constant Matrix: (Units=GPa)
#
#
# Indices 1 2 3 4 5 6 
#
# 1 109.1678 53.8669 31.3826 -7.9829 13.8418 6.4040
# 2 53.8669 158.9577 42.1362 16.5254 35.2136 0.7740
# 3 31.3826 42.1362 109.2786 8.8828 11.4118 5.9032
# 4 -7.9829 16.5254 8.8828 33.1950 -15.2907 9.0984
# 5 13.8418 35.2136 11.4118 -15.2907 49.1846 -7.3690
# 6 6.4040 0.7740 5.9032 9.0984 -7.3690 60.8843
#
#
#
# Elastic Compliance Matrix: (Units=1/GPa)
#
#
# Indices 1 2 3 4 5 6 
#
# 1 0.012771 -0.005146 -0.002554 0.008193 0.002945 -0.001898
# 2 -0.005146 0.011838 -0.001102 -0.011864 -0.010307 0.001023
# 3 -0.002554 -0.001102 0.010894 -0.003916 -0.002307 -0.000468
# 4 0.008193 -0.011864 -0.003916 0.050643 0.022058 -0.005230
# 5 0.002945 -0.010307 -0.002307 0.022058 0.034412 0.000914
# 6 -0.001898 0.001023 -0.000468 -0.005230 0.000914 0.017549
#
#
# Mechanical properties :
#
#
# Convention : Reuss Voigt Hill
#
# Bulk Modulus (GPa) = 55.86671 70.24172 63.05421
# Shear Modulus (GPa) = 30.92604 45.32069 38.12337
#
# Velocity S-wave (km/s) = 3.43681 4.16047 3.81583
# Velocity P-wave (km/s) = 6.08985 7.06449 6.59520
#
# Compressibility (1/GPa) = 0.01789975
#
# Stress axis : x y z
#
# Youngs Moduli (GPa) = 78.30545 84.47053 91.79571
#
# Poissons Ratio (x) = 0.43464 0.23449
# Poissons Ratio (y) = 0.40292 0.10112
# Poissons Ratio (z) = 0.20003 0.09305
#
# Static dielectric constant tensor:
#      x y z
#    x 4.836410 -0.071050 0.140950 
#    y -0.071050 5.320130 -0.049410 
#    z 0.140950 -0.049410 4.918410 
# 
# 
# High freq. dielectric constant tensor:
#      x y z
#    x 2.064320 -0.002210 -0.003050 
#    y -0.002210 2.082050 -0.003260 
#    z -0.003050 -0.003260 2.056490 
# 
# From -- ./inp_files/296958.got.cif
#   From: 2010.06.25/outbox.cif.g09.slc.cpg/sg2_149_cif.got.tgz:296958.got - 2010.06.27 13:26:56.
