data_PCOD8024574
_publ_section_title
;
Structure prediction by ZEFSAII (Michael W. Deem and Ramdas Pophale) SiO2 
 PCOD8024574
Probable space group: P -1
;
_chemical_formula_sum "Si O2"
_cell_formula_units_Z 16
_cell_length_a 9.120196
_cell_length_b 24.511170
_cell_length_c 24.081389
_cell_angle_alpha 168.166645
_cell_angle_beta 136.968837
_cell_angle_gamma 41.797341
_cell_volume 735.735430
_symmetry_space_group_name_H-M "P -1"
_symmetry_group_IT_number 2
_symmetry_cell_setting 'triclinic'
loop_
_space_group_symop_operation_xyz
x,y,z
-x,-y,-z
loop_
_atom_site_type_symbol
_atom_site_label
_atom_site_fract_x
_atom_site_fract_y
_atom_site_fract_z
Si Si1 0.579818 0.723483 0.280660
Si Si2 0.213555 0.825895 0.736619
Si Si3 0.601357 0.703385 0.798777
Si Si4 0.652942 0.869760 0.102926
Si Si5 0.284138 0.984633 0.208546
Si Si6 0.547949 0.577028 0.248852
Si Si7 0.056164 0.696103 0.365337
Si Si8 0.935317 0.267692 0.715035
O O1 0.481555 0.679924 0.270472
O O2 0.839530 0.687451 0.332645
O O3 0.500000 0.000000 0.500000
O O4 0.500000 0.500000 0.000000
O O5 0.358202 0.698930 0.703582
O O6 0.235953 0.590842 0.461048
O O7 0.969691 0.958698 0.823406
O O8 0.301799 0.072932 0.982629
O O9 0.578979 0.776281 0.929892
O O10 0.437822 0.949043 0.161132
O O11 0.787601 0.112104 0.375966
O O12 0.813554 0.610366 0.914799
O O13 0.288397 0.260469 0.516419
O O14 0.348518 0.742308 0.030448
O O15 0.319255 0.655912 0.296908
O O16 0.944637 0.793351 0.371693
O O17 0.000000 0.000000 0.500000
O O18 0.000000 0.500000 0.000000
#
# Coordination Sequence:
#
# PCOD8024574 Si02
#       8
#     2   2   2   2   2   2   2   2
#     4  12  26  46  64  92 129 170 223 280 334 390
#     4  10  23  43  69 101 134 174 219 263 321 391
#     4  10  23  43  69 101 134 174 219 263 321 391
#     4  12  24  43  66 100 136 172 217 268 326 392
#     4  12  24  43  66 100 136 172 217 268 326 392
#     4  12  25  42  65  98 128 170 220 275 324 393
#     4  12  25  42  65  98 128 170 220 275 324 393
#     4  12  22  40  64  88 125 172 213 266 328 384
#
# _framework density 21.746946999999999
#
# number of rings (size 3 to 8) (size 9 to 14) (size 15 to 20)
#    0.000    0.500    2.500    6.000    5.250    0.500 
#    0.000    0.000    0.000    7.500    0.000    0.000 
#    0.000    0.000    0.000    0.000    0.000    0.000 
#
# Total GULP energy -198311.382646 kJ/mol
# GULP energy per Si atom -12394.461415 kJ/mol
# Density = 2.169745 g / cm^3
# Si number density = 21.746947 Si / 1000 Ang^3
#
#
#
# Elastic Constant Matrix: (Units=GPa)
#
#
# Indices 1 2 3 4 5 6 
#
# 1 610.8283 -126.0550 339.3018 789.5991 -310.7876 1018.7758
# 2 -126.0550 152.2153 -72.1410 -262.2485 99.5580 -346.7849
# 3 339.3018 -72.1410 314.5821 471.7171 -181.7412 602.5594
# 4 789.5991 -262.2485 471.7171 1264.6447 -468.1843 1562.6964
# 5 -310.7876 99.5580 -181.7412 -468.1843 212.8512 -610.1417
# 6 1018.7758 -346.7849 602.5594 1562.6964 -610.1417 2061.0916
#
#
#
# Elastic Compliance Matrix: (Units=1/GPa)
#
#
# Indices 1 2 3 4 5 6 
#
# 1 0.013174 -0.005487 -0.002494 -0.002141 0.002602 -0.004312
# 2 -0.005487 0.013726 -0.001401 0.001313 -0.000165 0.004387
# 3 -0.002494 -0.001401 0.008373 -0.001021 -0.000149 -0.000721
# 4 -0.002141 0.001313 -0.001021 0.013286 0.001709 -0.007990
# 5 0.002602 -0.000165 -0.000149 0.001709 0.032032 0.006916
# 6 -0.004312 0.004387 -0.000721 -0.007990 0.006916 0.011671
#
#
# Mechanical properties :
#
#
# Convention : Reuss Voigt Hill
#
# Bulk Modulus (GPa) = 60.57220 151.09301 105.83261
# Shear Modulus (GPa) = 42.90751 770.15216 406.52984
#
# Velocity S-wave (km/s) = 4.44671 18.83909 13.68731
# Velocity P-wave (km/s) = 7.36736 23.29901 17.27892
#
# Compressibility (1/GPa) = 0.01650922
#
# Stress axis : x y z
#
# Youngs Moduli (GPa) = 75.90807 72.85303 119.43053
#
# Poissons Ratio (x) = 0.39977 0.29782
# Poissons Ratio (y) = 0.41654 0.16732
# Poissons Ratio (z) = 0.18929 0.10206
#
# Static dielectric constant tensor:
#      x y z
#    x 4.087870 -0.126650 0.053530 
#    y -0.126650 4.109970 0.029640 
#    z 0.053530 0.029640 4.045510 
# 
# 
# High freq. dielectric constant tensor:
#      x y z
#    x 1.857550 -0.001690 0.004710 
#    y -0.001690 1.855620 0.000630 
#    z 0.004710 0.000630 1.874720 
# 
# From -- ./inp_files/217591.got.cif
#   From: 2010.06.25/outbox.cif.g09.slc.cpg/sg2_109_cif.got.tgz:217591.got - 2010.06.27 13:26:56.
