data_PCOD8024373
_publ_section_title
;
Structure prediction by ZEFSAII (Michael W. Deem and Ramdas Pophale) SiO2 
 PCOD8024373
Probable space group: P -1
;
_chemical_formula_sum "Si O2"
_cell_formula_units_Z 16
_cell_length_a 5.967288
_cell_length_b 15.537985
_cell_length_c 12.103121
_cell_angle_alpha 133.431425
_cell_angle_beta 87.005027
_cell_angle_gamma 112.763200
_cell_volume 712.148748
_symmetry_space_group_name_H-M "P -1"
_symmetry_group_IT_number 2
_symmetry_cell_setting 'triclinic'
loop_
_space_group_symop_operation_xyz
x,y,z
-x,-y,-z
loop_
_atom_site_type_symbol
_atom_site_label
_atom_site_fract_x
_atom_site_fract_y
_atom_site_fract_z
Si Si1 0.239135 0.137930 0.578384
Si Si2 0.329607 0.530494 0.614685
Si Si3 0.174228 0.715266 0.663807
Si Si4 0.440566 0.583712 0.911827
Si Si5 0.409576 0.822206 0.206617
Si Si6 0.155505 0.366759 0.882908
Si Si7 0.811377 0.058005 0.015319
Si Si8 0.405820 0.059660 0.297864
O O1 0.485189 0.152471 0.650033
O O2 0.214448 0.269738 0.717779
O O3 0.282630 0.128322 0.439130
O O4 0.000000 0.000000 0.500000
O O5 0.500000 0.500000 0.500000
O O6 0.335021 0.668476 0.697575
O O7 0.429645 0.543284 0.748602
O O8 0.040785 0.408723 0.508267
O O9 0.052837 0.786770 0.809012
O O10 0.353438 0.820546 0.661573
O O11 0.177833 0.484502 0.900672
O O12 0.515582 0.741545 0.057233
O O13 0.654881 0.564395 0.956609
O O14 0.109943 0.724777 0.132843
O O15 0.498363 0.968415 0.281585
O O16 0.500000 0.000000 0.000000
O O17 0.815863 0.041134 0.869051
O O18 0.000000 0.000000 0.000000
#
# Coordination Sequence:
#
# PCOD8024373 Si02
#       8
#     2   2   2   2   2   2   2   2
#     4  11  24  40  64 105 141 172 234 283 356 426
#     4  11  26  46  71  99 138 183 238 306 353 433
#     4  10  26  47  65 106 133 183 245 285 371 432
#     4  10  24  43  69  96 135 180 231 285 352 419
#     4  11  23  44  66 100 137 178 227 289 351 430
#     4  10  23  43  66 102 132 181 228 282 351 423
#     4  10  24  45  70 104 141 186 243 293 354 439
#     4  11  24  43  72  97 138 186 222 297 359 428
#
# _framework density 22.467216000000001
#
# number of rings (size 3 to 8) (size 9 to 14) (size 15 to 20)
#    0.000    1.500    1.250    1.500    7.000    5.000 
#    0.000    0.000    0.000    0.000    0.000    0.000 
#    0.000    0.000    0.000    0.000    0.000    0.000 
#
# Total GULP energy -198259.466351 kJ/mol
# GULP energy per Si atom -12391.216647 kJ/mol
# Density = 2.241608 g / cm^3
# Si number density = 22.467216 Si / 1000 Ang^3
#
#
#
# Elastic Constant Matrix: (Units=GPa)
#
#
# Indices 1 2 3 4 5 6 
#
# 1 78.5348 26.9341 27.3686 -7.5182 -4.9746 -8.9303
# 2 26.9341 115.5461 39.2249 0.3385 -5.9157 1.2296
# 3 27.3686 39.2249 143.4255 -26.6659 -10.6018 -6.2520
# 4 -7.5182 0.3385 -26.6659 47.8666 -2.3496 -2.6102
# 5 -4.9746 -5.9157 -10.6018 -2.3496 28.1458 10.8824
# 6 -8.9303 1.2296 -6.2520 -2.6102 10.8824 33.8100
#
#
#
# Elastic Compliance Matrix: (Units=1/GPa)
#
#
# Indices 1 2 3 4 5 6 
#
# 1 0.014904 -0.002998 -0.001529 0.001725 0.000075 0.003872
# 2 -0.002998 0.010349 -0.002642 -0.002073 0.001347 -0.002250
# 3 -0.001529 -0.002642 0.009168 0.005068 0.002699 0.000910
# 4 0.001725 -0.002073 0.005068 0.024273 0.002870 0.002419
# 5 0.000075 0.001347 0.002699 0.002870 0.042047 -0.012842
# 6 0.003872 -0.002250 0.000910 0.002419 -0.012842 0.035170
#
#
# Mechanical properties :
#
#
# Convention : Reuss Voigt Hill
#
# Bulk Modulus (GPa) = 49.79144 58.28462 54.03803
# Shear Modulus (GPa) = 31.85834 38.22972 35.04403
#
# Velocity S-wave (km/s) = 3.76971 4.12949 3.95370
# Velocity P-wave (km/s) = 6.41541 6.98107 6.70421
#
# Compressibility (1/GPa) = 0.02008377
#
# Stress axis : x y z
#
# Youngs Moduli (GPa) = 67.09458 96.62547 109.07367
#
# Poissons Ratio (x) = 0.28964 0.16680
# Poissons Ratio (y) = 0.20112 0.28820
# Poissons Ratio (z) = 0.10260 0.25531
#
# Static dielectric constant tensor:
#      x y z
#    x 5.756760 -0.536060 -3.401040 
#    y -0.536060 3.095950 0.481910 
#    z -3.401040 0.481910 11.449650 
# 
# 
# High freq. dielectric constant tensor:
#      x y z
#    x 1.877060 -0.006320 0.000490 
#    y -0.006320 1.882660 0.008060 
#    z 0.000490 0.008060 1.909850 
# 
# From -- ./inp_files/364385.got.cif
#   From: 2010.06.25/outbox.cif.g09.slc.cpg/sg2_183_cif.got.tgz:364385.got - 2010.06.27 13:26:56.
