data_PCOD8024146
_publ_section_title
;
Structure prediction by ZEFSAII (Michael W. Deem and Ramdas Pophale) SiO2 
 PCOD8024146
Probable space group: P -1
;
_chemical_formula_sum "Si O2"
_cell_formula_units_Z 14
_cell_length_a 9.203724
_cell_length_b 17.307732
_cell_length_c 9.103104
_cell_angle_alpha 141.564715
_cell_angle_beta 120.963184
_cell_angle_gamma 44.953957
_cell_volume 634.259294
_symmetry_space_group_name_H-M "P -1"
_symmetry_group_IT_number 2
_symmetry_cell_setting 'triclinic'
loop_
_space_group_symop_operation_xyz
x,y,z
-x,-y,-z
loop_
_atom_site_type_symbol
_atom_site_label
_atom_site_fract_x
_atom_site_fract_y
_atom_site_fract_z
Si Si1 0.004292 0.303969 0.171643
Si Si2 0.467842 0.469032 0.771633
Si Si3 0.566241 0.788950 0.672269
Si Si4 0.970513 0.868403 0.813843
Si Si5 0.182082 0.574697 0.305456
Si Si6 0.850996 0.691617 0.057815
Si Si7 0.523341 0.029671 0.814397
O O1 0.178480 0.321493 0.363905
O O2 0.038709 0.156577 0.052426
O O3 0.045075 0.282106 0.986991
O O4 0.766227 0.437978 0.270156
O O5 0.540890 0.296613 0.545414
O O6 0.602323 0.497414 0.774569
O O7 0.500000 0.500000 0.000000
O O8 0.472255 0.916616 0.687017
O O9 0.491810 0.862564 0.902537
O O10 0.144642 0.704432 0.591151
O O11 0.750910 0.930732 0.716731
O O12 0.000000 0.000000 0.000000
O O13 0.189897 0.438172 0.189056
O O14 0.992706 0.651045 0.209778
O O15 0.637580 0.855842 0.222556
#
# Coordination Sequence:
#
# PCOD8024146 Si02
#       7
#     2   2   2   2   2   2   2
#     4  10  23  42  71  92 129 181 218 261 328 396
#     4  12  24  41  66 102 134 171 219 277 331 386
#     4   9  20  39  67  96 124 168 228 266 312 399
#     4  11  25  42  63  99 135 167 219 276 326 386
#     4  11  26  41  65  99 140 165 219 280 322 385
#     4  10  23  45  66  97 130 177 221 265 331 394
#     4   9  20  40  67  89 127 175 215 264 326 388
#
# _framework density 22.072990000000001
#
# number of rings (size 3 to 8) (size 9 to 14) (size 15 to 20)
#    0.000    1.714    1.429    2.143   10.000    1.143 
#    2.571    1.429    0.000    0.000    0.000    0.000 
#    0.000    0.000    0.000    0.000    0.000    0.000 
#
# Total GULP energy -173487.128375 kJ/mol
# GULP energy per Si atom -12391.937741 kJ/mol
# Density = 2.202275 g / cm^3
# Si number density = 22.072990 Si / 1000 Ang^3
#
#
#
# Elastic Constant Matrix: (Units=GPa)
#
#
# Indices 1 2 3 4 5 6 
#
# 1 102.5067 31.6350 22.8209 6.3221 -7.6681 16.2876
# 2 31.6350 117.7331 8.9323 8.0008 1.3257 6.7445
# 3 22.8209 8.9323 60.1753 8.9214 13.9351 12.5105
# 4 6.3221 8.0008 8.9214 19.7505 -0.2335 -2.0143
# 5 -7.6681 1.3257 13.9351 -0.2335 29.1702 11.4569
# 6 16.2876 6.7445 12.5105 -2.0143 11.4569 41.0528
#
#
#
# Elastic Compliance Matrix: (Units=1/GPa)
#
#
# Indices 1 2 3 4 5 6 
#
# 1 0.013414 -0.002894 -0.005239 -0.001232 0.008368 -0.005646
# 2 -0.002894 0.009484 0.000552 -0.003218 -0.001339 -0.000362
# 3 -0.005239 0.000552 0.023064 -0.009333 -0.011608 -0.002259
# 4 -0.001232 -0.003218 -0.009333 0.057185 0.002381 0.006003
# 5 0.008368 -0.001339 -0.011608 0.002381 0.047046 -0.012575
# 6 -0.005646 -0.000362 -0.002259 0.006003 -0.012575 0.031151
#
#
# Mechanical properties :
#
#
# Convention : Reuss Voigt Hill
#
# Bulk Modulus (GPa) = 32.46659 45.24350 38.85504
# Shear Modulus (GPa) = 24.18115 32.46317 28.32216
#
# Velocity S-wave (km/s) = 3.31344 3.83916 3.58594
# Velocity P-wave (km/s) = 5.42026 6.33986 5.89801
#
# Compressibility (1/GPa) = 0.03080089
#
# Stress axis : x y z
#
# Youngs Moduli (GPa) = 74.54921 105.44061 43.35681
#
# Poissons Ratio (x) = 0.30514 0.22715
# Poissons Ratio (y) = 0.21574 -0.02394
# Poissons Ratio (z) = 0.39056 -0.05822
#
# Static dielectric constant tensor:
#      x y z
#    x 4.141600 -0.061630 0.011380 
#    y -0.061630 4.359710 0.223630 
#    z 0.011380 0.223630 3.536160 
# 
# 
# High freq. dielectric constant tensor:
#      x y z
#    x 1.874510 0.003150 -0.001540 
#    y 0.003150 1.886310 0.012910 
#    z -0.001540 0.012910 1.831760 
# 
# From -- ./inp_files/157601.got.cif
#   From: 2010.06.25/outbox.cif.g09.slc.cpg/sg2_79_cif.got.tgz:157601.got - 2010.06.27 13:26:56.
