data_PCOD8024596
_publ_section_title
;
Structure prediction by ZEFSAII (Michael W. Deem and Ramdas Pophale) SiO2 
 PCOD8024596
Probable space group: P -1
;
_chemical_formula_sum "Si O2"
_cell_formula_units_Z 16
_cell_length_a 21.873708
_cell_length_b 5.154833
_cell_length_c 11.345231
_cell_angle_alpha 105.637673
_cell_angle_beta 144.519167
_cell_angle_gamma 66.597583
_cell_volume 677.932151
_symmetry_space_group_name_H-M "P -1"
_symmetry_group_IT_number 2
_symmetry_cell_setting 'triclinic'
loop_
_space_group_symop_operation_xyz
x,y,z
-x,-y,-z
loop_
_atom_site_type_symbol
_atom_site_label
_atom_site_fract_x
_atom_site_fract_y
_atom_site_fract_z
Si Si1 0.058506 0.672133 0.531703
Si Si2 0.328364 0.748114 0.555182
Si Si3 0.091980 0.286293 0.891430
Si Si4 0.608696 0.931423 0.999819
Si Si5 0.108542 0.865782 0.079080
Si Si6 0.250849 0.864989 0.913762
Si Si7 0.470518 0.468066 0.315313
Si Si8 0.611568 0.699581 0.216096
O O1 0.033829 0.611589 0.348765
O O2 0.000000 0.500000 0.500000
O O3 0.188336 0.628394 0.759386
O O4 0.000000 0.000000 0.500000
O O5 0.211525 0.835362 0.319626
O O6 0.423526 0.533250 0.597603
O O7 0.320983 0.589901 0.647415
O O8 0.351193 0.039768 0.648535
O O9 0.121035 0.558024 0.011992
O O10 0.175839 0.134658 0.901152
O O11 0.558347 0.822489 0.791813
O O12 0.718130 0.010925 0.145580
O O13 0.520972 0.217244 0.953871
O O14 0.633102 0.676939 0.105450
O O15 0.105228 0.071799 0.991750
O O16 0.000000 0.000000 0.000000
O O17 0.362928 0.730216 0.146573
O O18 0.500000 0.500000 0.500000
#
# Coordination Sequence:
#
# PCOD8024596 Si02
#       8
#     2   2   2   2   2   2   2   2
#     4  10  23  43  69 103 143 186 238 295 364 435
#     4  11  24  46  71 105 145 199 243 309 364 434
#     4  11  25  46  73 100 146 184 238 318 366 434
#     4  10  24  41  69 106 147 202 245 292 367 439
#     4  12  27  50  72 101 137 192 256 302 375 435
#     4  11  24  42  71 110 146 191 240 297 377 452
#     4  11  25  41  68 108 153 190 236 295 375 459
#     4  10  23  45  70 101 154 194 250 301 349 437
#
# _framework density 23.601182000000001
#
# number of rings (size 3 to 8) (size 9 to 14) (size 15 to 20)
#    0.000    1.250    1.250    3.375    8.750    4.000 
#    2.250    0.000    0.000    0.000    0.000    0.000 
#    0.000    0.000    0.000    0.000    0.000    0.000 
#
# Total GULP energy -198380.015905 kJ/mol
# GULP energy per Si atom -12398.750994 kJ/mol
# Density = 2.354746 g / cm^3
# Si number density = 23.601182 Si / 1000 Ang^3
#
#
#
# Elastic Constant Matrix: (Units=GPa)
#
#
# Indices 1 2 3 4 5 6 
#
# 1 181.2824 48.6313 76.9043 -5.7399 0.0602 18.7564
# 2 48.6313 71.1199 19.3904 -5.1289 3.2992 14.3284
# 3 76.9043 19.3904 171.7979 -10.6621 -0.2361 4.8056
# 4 -5.7399 -5.1289 -10.6621 34.5221 2.7699 -7.0948
# 5 0.0602 3.2992 -0.2361 2.7699 37.1462 -9.5571
# 6 18.7564 14.3284 4.8056 -7.0948 -9.5571 42.9478
#
#
#
# Elastic Compliance Matrix: (Units=1/GPa)
#
#
# Indices 1 2 3 4 5 6 
#
# 1 0.008221 -0.004421 -0.003169 -0.000650 -0.000077 -0.001885
# 2 -0.004421 0.018199 0.000130 0.001298 -0.002884 -0.004583
# 3 -0.003169 0.000130 0.007320 0.001921 0.000120 0.000866
# 4 -0.000650 0.001298 0.001921 0.030654 -0.001250 0.004421
# 5 -0.000077 -0.002884 0.000120 -0.001250 0.029139 0.007260
# 6 -0.001885 -0.004583 0.000866 0.004421 0.007260 0.027886
#
#
# Mechanical properties :
#
#
# Convention : Reuss Voigt Hill
#
# Bulk Modulus (GPa) = 53.13509 79.33913 66.23711
# Shear Modulus (GPa) = 35.06015 41.54152 38.30084
#
# Velocity S-wave (km/s) = 3.85843 4.19996 4.03281
# Velocity P-wave (km/s) = 6.51250 7.56367 7.05768
#
# Compressibility (1/GPa) = 0.01881995
#
# Stress axis : x y z
#
# Youngs Moduli (GPa) = 121.63901 54.94766 136.61477
#
# Poissons Ratio (x) = 0.24292 0.43291
# Poissons Ratio (y) = 0.53776 -0.01772
# Poissons Ratio (z) = 0.38545 -0.00713
#
# Static dielectric constant tensor:
#      x y z
#    x 4.631480 0.058070 0.286190 
#    y 0.058070 4.184450 0.048500 
#    z 0.286190 0.048500 4.809910 
# 
# 
# High freq. dielectric constant tensor:
#      x y z
#    x 1.938690 0.007410 0.000710 
#    y 0.007410 1.942790 0.003070 
#    z 0.000710 0.003070 1.945060 
# 
# From -- ./inp_files/323907.got.cif
#   From: 2010.06.25/outbox.cif.g09.slc.cpg/sg2_162_cif.got.tgz:323907.got - 2010.06.27 13:26:56.
