data_PCOD8024594
_publ_section_title
;
Structure prediction by ZEFSAII (Michael W. Deem and Ramdas Pophale) SiO2 
 PCOD8024594
Probable space group: P -1
;
_chemical_formula_sum "Si O2"
_cell_formula_units_Z 16
_cell_length_a 9.117795
_cell_length_b 8.145592
_cell_length_c 15.684817
_cell_angle_alpha 39.888421
_cell_angle_beta 95.217545
_cell_angle_gamma 104.092949
_cell_volume 715.901843
_symmetry_space_group_name_H-M "P -1"
_symmetry_group_IT_number 2
_symmetry_cell_setting 'triclinic'
loop_
_space_group_symop_operation_xyz
x,y,z
-x,-y,-z
loop_
_atom_site_type_symbol
_atom_site_label
_atom_site_fract_x
_atom_site_fract_y
_atom_site_fract_z
Si Si1 0.770816 0.059423 0.340820
Si Si2 0.818985 0.985110 0.831191
Si Si3 0.547053 0.909776 0.720689
Si Si4 0.249300 0.842774 0.072909
Si Si5 0.959252 0.572198 0.060568
Si Si6 0.090047 0.303712 0.616680
Si Si7 0.314156 0.720937 0.576865
Si Si8 0.479403 0.407210 0.824105
O O1 0.611750 0.018768 0.296650
O O2 0.901194 0.317834 0.217616
O O3 0.750064 0.112220 0.419912
O O4 0.825896 0.801041 0.416795
O O5 0.662460 0.981665 0.776485
O O6 0.829967 0.195530 0.823462
O O7 0.821849 0.712625 0.987770
O O8 0.966377 0.053646 0.750563
O O9 0.506706 0.591557 0.835778
O O10 0.619716 0.066916 0.577133
O O11 0.360063 0.653297 0.158599
O O12 0.115696 0.762975 0.029194
O O13 0.343036 0.144269 0.936452
O O14 0.000000 0.500000 0.000000
O O15 0.196523 0.462480 0.633724
O O16 0.000000 0.500000 0.500000
O O17 0.443163 0.594336 0.672750
#
# Coordination Sequence:
#
# PCOD8024594 Si02
#       8
#     2   2   2   2   2   2   2   2
#     4  11  26  45  73 102 137 193 229 290 357 407
#     4  12  24  43  68 104 140 182 234 286 351 416
#     4  11  25  46  70 100 141 188 235 283 342 422
#     4  11  25  41  70 104 138 182 225 301 355 407
#     4  12  24  44  71  98 141 181 229 290 349 420
#     4  12  26  44  67 107 139 181 237 284 344 426
#     4  11  24  48  72  98 147 183 238 290 342 419
#     4  10  23  43  69 103 135 182 238 284 354 417
#
# _framework density 22.349433000000001
#
# number of rings (size 3 to 8) (size 9 to 14) (size 15 to 20)
#    0.000    0.750    2.500    5.625    1.750    6.000 
#    0.000    0.000    0.000    0.000    0.000    0.000 
#    0.000    0.000    0.000    0.000    0.000    0.000 
#
# Total GULP energy -198276.753779 kJ/mol
# GULP energy per Si atom -12392.297111 kJ/mol
# Density = 2.229856 g / cm^3
# Si number density = 22.349433 Si / 1000 Ang^3
#
#
#
# Elastic Constant Matrix: (Units=GPa)
#
#
# Indices 1 2 3 4 5 6 
#
# 1 122.1817 58.2386 40.7553 -0.6391 14.2211 -18.1608
# 2 58.2386 135.9598 44.0429 7.2841 15.8238 -1.8217
# 3 40.7553 44.0429 65.0471 3.2222 16.8437 -1.9944
# 4 -0.6391 7.2841 3.2222 33.3222 1.9811 -0.9301
# 5 14.2211 15.8238 16.8437 1.9811 34.1246 -8.5987
# 6 -18.1608 -1.8217 -1.9944 -0.9301 -8.5987 47.6739
#
#
#
# Elastic Compliance Matrix: (Units=1/GPa)
#
#
# Indices 1 2 3 4 5 6 
#
# 1 0.012301 -0.003617 -0.005244 0.001647 0.000149 0.004387
# 2 -0.003617 0.010612 -0.004493 -0.001909 -0.001453 -0.001460
# 3 -0.005244 -0.004493 0.023759 -0.001010 -0.008068 -0.002650
# 4 0.001647 -0.001909 -0.001010 0.030633 -0.000840 0.000959
# 5 0.000149 -0.001453 -0.008068 -0.000840 0.035470 0.006045
# 6 0.004387 -0.001460 -0.002650 0.000959 0.006045 0.023590
#
#
# Mechanical properties :
#
#
# Convention : Reuss Voigt Hill
#
# Bulk Modulus (GPa) = 50.08977 67.69580 58.89278
# Shear Modulus (GPa) = 29.45901 35.03426 32.24664
#
# Velocity S-wave (km/s) = 3.63452 3.96355 3.80259
# Velocity P-wave (km/s) = 6.33038 7.16252 6.75927
#
# Compressibility (1/GPa) = 0.01996416
#
# Stress axis : x y z
#
# Youngs Moduli (GPa) = 81.29191 94.23467 42.08960
#
# Poissons Ratio (x) = 0.34089 0.22071
# Poissons Ratio (y) = 0.29407 0.18910
# Poissons Ratio (z) = 0.42628 0.42337
#
# Static dielectric constant tensor:
#      x y z
#    x 3.689440 -0.191450 0.406920 
#    y -0.191450 4.116250 0.284610 
#    z 0.406920 0.284610 3.432850 
# 
# 
# High freq. dielectric constant tensor:
#      x y z
#    x 1.892450 0.001560 0.002980 
#    y 0.001560 1.893550 -0.004230 
#    z 0.002980 -0.004230 1.878470 
# 
# From -- ./inp_files/494299.got.cif
#   From: 2010.06.25/outbox.cif.g09.slc.cpg/sg2_248_cif.got.tgz:494299.got - 2010.06.27 13:26:56.
