data_PCOD8024059
_publ_section_title
;
Structure prediction by ZEFSAII (Michael W. Deem and Ramdas Pophale) SiO2 
 PCOD8024059
Probable space group: P -1
;
_chemical_formula_sum "Si O2"
_cell_formula_units_Z 14
_cell_length_a 11.989571
_cell_length_b 21.511579
_cell_length_c 21.119635
_cell_angle_alpha 19.613216
_cell_angle_beta 158.667493
_cell_angle_gamma 148.059112
_cell_volume 646.313008
_symmetry_space_group_name_H-M "P -1"
_symmetry_group_IT_number 2
_symmetry_cell_setting 'triclinic'
loop_
_space_group_symop_operation_xyz
x,y,z
-x,-y,-z
loop_
_atom_site_type_symbol
_atom_site_label
_atom_site_fract_x
_atom_site_fract_y
_atom_site_fract_z
Si Si1 0.213936 0.643124 0.181080
Si Si2 0.290364 0.979108 0.968860
Si Si3 0.358057 0.544639 0.950494
Si Si4 0.210388 0.287429 0.805999
Si Si5 0.285168 0.863814 0.879909
Si Si6 0.394567 0.919321 0.673938
Si Si7 0.770013 0.203837 0.555042
O O1 0.500000 0.500000 0.500000
O O2 0.959821 0.524124 0.147963
O O3 0.130847 0.802695 0.039884
O O4 0.294750 0.730493 0.074086
O O5 0.992205 0.154284 0.657757
O O6 0.500000 0.000000 0.000000
O O7 0.528816 0.969871 0.164014
O O8 0.300343 0.767210 0.722641
O O9 0.500000 0.500000 0.000000
O O10 0.591180 0.424367 0.241849
O O11 0.000000 0.500000 0.500000
O O12 0.978213 0.175047 0.756577
O O13 0.527623 0.273029 0.945143
O O14 0.330801 0.183525 0.034778
O O15 0.926961 0.964790 0.572664
O O16 0.523826 0.069851 0.555856
#
# Coordination Sequence:
#
# PCOD8024059 Si02
#       7
#     2   2   2   2   2   2   2
#     4  11  23  40  63 100 138 175 221 268 334 403
#     4   9  21  39  64  89 135 178 210 265 332 396
#     4  12  27  39  69 103 137 173 223 273 337 396
#     4  11  24  46  72  97 132 178 228 280 336 400
#     4  10  23  42  69  98 134 175 227 277 334 398
#     4  12  24  46  70  99 136 178 226 280 333 396
#     4  11  24  45  67  99 134 177 223 274 338 402
#
# _framework density 21.66133
#
# number of rings (size 3 to 8) (size 9 to 14) (size 15 to 20)
#    0.000    1.143    2.857    2.571   10.000    2.286 
#    0.000    4.286    0.000    0.000    0.000    0.000 
#    0.000    0.000    0.000    0.000    0.000    0.000 
#
# Total GULP energy -173464.432897 kJ/mol
# GULP energy per Si atom -12390.316635 kJ/mol
# Density = 2.161203 g / cm^3
# Si number density = 21.661330 Si / 1000 Ang^3
#
#
#
# Elastic Constant Matrix: (Units=GPa)
#
#
# Indices 1 2 3 4 5 6 
#
# 1 80.2891 25.7497 27.7050 -5.1165 19.3450 -0.7197
# 2 25.7497 114.7796 24.0842 -2.8930 15.4607 4.6300
# 3 27.7050 24.0842 130.4852 3.5977 15.0781 -1.1656
# 4 -5.1165 -2.8930 3.5977 35.5459 -2.0009 1.5768
# 5 19.3450 15.4607 15.0781 -2.0009 45.0862 1.1733
# 6 -0.7197 4.6300 -1.1656 1.5768 1.1733 26.8933
#
#
#
# Elastic Compliance Matrix: (Units=1/GPa)
#
#
# Indices 1 2 3 4 5 6 
#
# 1 0.015301 -0.002265 -0.002304 0.001937 -0.004952 0.000802
# 2 -0.002265 0.009805 -0.001135 0.000555 -0.001940 -0.001746
# 3 -0.002304 -0.001135 0.008589 -0.001411 -0.001574 0.000657
# 4 0.001937 0.000555 -0.001411 0.028724 0.000773 -0.001823
# 5 -0.004952 -0.001940 -0.001574 0.000773 0.025557 -0.001027
# 6 0.000802 -0.001746 0.000657 -0.001823 -0.001027 0.037686
#
#
# Mechanical properties :
#
#
# Convention : Reuss Voigt Hill
#
# Bulk Modulus (GPa) = 44.87557 53.40352 49.13954
# Shear Modulus (GPa) = 34.60200 38.03942 36.32071
#
# Velocity S-wave (km/s) = 4.00110 4.19513 4.09926
# Velocity P-wave (km/s) = 6.48898 6.94067 6.71862
#
# Compressibility (1/GPa) = 0.02228384
#
# Stress axis : x y z
#
# Youngs Moduli (GPa) = 65.35696 101.99316 116.42474
#
# Poissons Ratio (x) = 0.23106 0.26830
# Poissons Ratio (y) = 0.14806 0.13218
# Poissons Ratio (z) = 0.15061 0.11580
#
# Static dielectric constant tensor:
#      x y z
#    x 3.971250 -0.063620 0.142110 
#    y -0.063620 4.032040 0.064010 
#    z 0.142110 0.064010 4.060460 
# 
# 
# High freq. dielectric constant tensor:
#      x y z
#    x 1.837450 -0.007720 0.012930 
#    y -0.007720 1.859980 0.013210 
#    z 0.012930 0.013210 1.860300 
# 
# From -- ./inp_files/189588.got.cif
#   From: 2010.06.25/outbox.cif.g09.slc.cpg/sg2_95_cif.got.tgz:189588.got - 2010.06.27 13:26:56.
