data_PCOD8024687
_publ_section_title
;
Structure prediction by ZEFSAII (Michael W. Deem and Ramdas Pophale) SiO2 
 PCOD8024687
Probable space group: P -1
;
_chemical_formula_sum "Si O2"
_cell_formula_units_Z 12
_cell_length_a 8.122075
_cell_length_b 15.610837
_cell_length_c 13.028922
_cell_angle_alpha 25.983168
_cell_angle_beta 127.827626
_cell_angle_gamma 132.269566
_cell_volume 535.367599
_symmetry_space_group_name_H-M "P -1"
_symmetry_group_IT_number 2
_symmetry_cell_setting 'triclinic'
loop_
_space_group_symop_operation_xyz
x,y,z
-x,-y,-z
loop_
_atom_site_type_symbol
_atom_site_label
_atom_site_fract_x
_atom_site_fract_y
_atom_site_fract_z
Si Si1 0.852556 0.760413 0.226690
Si Si2 0.074524 0.815521 0.838333
Si Si3 0.922773 0.745959 0.637972
Si Si4 0.085785 0.580980 0.679733
Si Si5 0.455287 0.020573 0.077560
Si Si6 0.394970 0.620905 0.588605
O O1 0.770277 0.609391 0.259743
O O2 0.943616 0.644907 0.471332
O O3 0.637272 0.791751 0.158484
O O4 0.000000 0.000000 0.000000
O O5 0.999335 0.687853 0.840455
O O6 0.979601 0.003272 0.606219
O O7 0.338919 0.914357 0.835993
O O8 0.994469 0.667678 0.065809
O O9 0.652170 0.650582 0.632175
O O10 0.051878 0.674200 0.675402
O O11 0.339417 0.646027 0.661529
O O12 0.310281 0.788230 0.314217
O O13 0.500000 0.000000 0.000000
#
# Coordination Sequence:
#
# PCOD8024687 Si02
#       6
#     2   2   2   2   2   2
#     4  12  25  40  63  98 135 166 217 277 324 385
#     4  10  23  43  70  96 133 169 222 272 322 393
#     4  10  24  47  66  96 133 174 218 272 328 388
#     4  12  24  40  70  95 131 176 218 271 327 388
#     4  11  23  42  69  96 132 175 213 269 335 390
#     4  11  25  42  66  98 131 171 224 268 328 393
#
# _framework density 22.414504999999998
#
# number of rings (size 3 to 8) (size 9 to 14) (size 15 to 20)
#    0.000    1.000    1.667    5.000    4.667    2.667 
#    0.000    7.500    0.000    0.000    0.000    0.000 
#    0.000    0.000    0.000    0.000    0.000    0.000 
#
# Total GULP energy -148665.752491 kJ/mol
# GULP energy per Si atom -12388.812708 kJ/mol
# Density = 2.236349 g / cm^3
# Si number density = 22.414505 Si / 1000 Ang^3
#
#
#
# Elastic Constant Matrix: (Units=GPa)
#
#
# Indices 1 2 3 4 5 6 
#
# 1 126.6644 34.7101 40.4021 -4.7016 -13.3691 -32.6881
# 2 34.7101 107.0289 47.5129 1.9165 -8.5588 -11.7598
# 3 40.4021 47.5129 136.8332 -0.6715 -24.9059 -8.0739
# 4 -4.7016 1.9165 -0.6715 34.7737 1.5658 1.1227
# 5 -13.3691 -8.5588 -24.9059 1.5658 28.7190 2.8666
# 6 -32.6881 -11.7598 -8.0739 1.1227 2.8666 19.3548
#
#
#
# Elastic Compliance Matrix: (Units=1/GPa)
#
#
# Indices 1 2 3 4 5 6 
#
# 1 0.015432 -0.001186 -0.002291 0.001227 0.002385 0.023962
# 2 -0.001186 0.011711 -0.003590 -0.000974 -0.000496 0.003744
# 3 -0.002291 -0.003590 0.010366 -0.000143 0.007138 -0.002775
# 4 0.001227 -0.000974 -0.000143 0.029040 -0.001421 -0.000054
# 5 0.002385 -0.000496 0.007138 -0.001421 0.041994 0.000567
# 6 0.023962 0.003744 -0.002775 -0.000054 0.000567 0.093172
#
#
# Mechanical properties :
#
#
# Convention : Reuss Voigt Hill
#
# Bulk Modulus (GPa) = 42.78186 68.41965 55.60076
# Shear Modulus (GPa) = 22.35737 33.09625 27.72681
#
# Velocity S-wave (km/s) = 3.16167 3.84677 3.52092
# Velocity P-wave (km/s) = 5.69705 7.09374 6.43341
#
# Compressibility (1/GPa) = 0.02337439
#
# Stress axis : x y z
#
# Youngs Moduli (GPa) = 64.80236 85.38993 96.46900
#
# Poissons Ratio (x) = 0.10129 0.22096
# Poissons Ratio (y) = 0.07687 0.34636
# Poissons Ratio (z) = 0.14843 0.30658
#
# Static dielectric constant tensor:
#      x y z
#    x 4.329020 -0.090060 0.318800 
#    y -0.090060 3.948420 -0.241350 
#    z 0.318800 -0.241350 4.756960 
# 
# 
# High freq. dielectric constant tensor:
#      x y z
#    x 1.885160 -0.010410 0.006980 
#    y -0.010410 1.867180 -0.006620 
#    z 0.006980 -0.006620 1.909760 
# 
# From -- ./inp_files/182165.got.cif
#   From: 2010.06.25/outbox.cif.g09.slc.cpg/sg2_92_cif.got.tgz:182165.got - 2010.06.27 13:26:56.
