data_PCOD8024851
_publ_section_title
;
Structure prediction by ZEFSAII (Michael W. Deem and Ramdas Pophale) SiO2 
 PCOD8024851
Probable space group: P -1
;
_chemical_formula_sum "Si O2"
_cell_formula_units_Z 16
_cell_length_a 22.747618
_cell_length_b 13.905361
_cell_length_c 7.334162
_cell_angle_alpha 130.199247
_cell_angle_beta 47.374032
_cell_angle_gamma 157.336886
_cell_volume 655.984927
_symmetry_space_group_name_H-M "P -1"
_symmetry_group_IT_number 2
_symmetry_cell_setting 'triclinic'
loop_
_space_group_symop_operation_xyz
x,y,z
-x,-y,-z
loop_
_atom_site_type_symbol
_atom_site_label
_atom_site_fract_x
_atom_site_fract_y
_atom_site_fract_z
Si Si1 0.379006 0.567722 0.973638
Si Si2 0.184333 0.498677 0.100553
Si Si3 0.518442 0.738889 0.253731
Si Si4 0.176192 0.701008 0.652333
Si Si5 0.302014 0.254686 0.256357
Si Si6 0.152296 0.638287 0.036330
Si Si7 0.303908 0.107313 0.406585
Si Si8 0.850331 0.950004 0.047839
O O1 0.505061 0.649729 0.702958
O O2 0.221643 0.276051 0.997806
O O3 0.334359 0.623112 0.004606
O O4 0.447606 0.719699 0.205887
O O5 0.134905 0.535942 0.396817
O O6 0.232351 0.635550 0.980777
O O7 0.034917 0.204516 0.021167
O O8 0.385137 0.507369 0.393645
O O9 0.655977 0.004760 0.390270
O O10 0.573142 0.685660 0.974086
O O11 0.036964 0.616493 0.834751
O O12 0.183337 0.649823 0.775005
O O13 0.239182 0.132984 0.441289
O O14 0.165128 0.065844 0.158876
O O15 0.226416 0.872513 0.217180
O O16 0.248105 0.066286 0.677701
#
# Coordination Sequence:
#
# PCOD8024851 Si02
#       8
#     2   2   2   2   2   2   2   2
#     4  10  23  44  61  93 131 159 208 261 310 374
#     4  12  26  40  64  93 128 174 199 248 325 375
#     4   9  18  37  61  86 120 161 200 253 307 355
#     4  11  22  42  63  91 127 161 215 260 299 369
#     4   9  19  37  64  92 119 155 210 267 304 349
#     4  11  24  39  64  95 127 163 210 258 303 374
#     4  11  22  42  65  96 123 160 212 263 308 358
#     4  11  23  41  69  92 120 166 213 258 309 365
#
# _framework density 24.390805
#
# number of rings (size 3 to 8) (size 9 to 14) (size 15 to 20)
#    0.000    1.500    3.750    2.625    3.500    1.000 
#    0.000    5.000    0.000    5.250    0.000    0.000 
#    0.000    0.000    0.000    0.000    0.000    0.000 
#
# Total GULP energy -198393.851529 kJ/mol
# GULP energy per Si atom -12399.615721 kJ/mol
# Density = 2.433529 g / cm^3
# Si number density = 24.390805 Si / 1000 Ang^3
#
#
#
# Elastic Constant Matrix: (Units=GPa)
#
#
# Indices 1 2 3 4 5 6 
#
# 1 160.5705 37.0973 5.6394 8.4545 1.1642 1.4439
# 2 37.0973 119.9099 4.4581 22.2848 8.5651 3.3223
# 3 5.6394 4.4581 23.9200 7.4507 11.6123 0.6769
# 4 8.4545 22.2848 7.4507 23.6768 7.9663 3.6758
# 5 1.1642 8.5651 11.6123 7.9663 21.5053 -2.6436
# 6 1.4439 3.3223 0.6769 3.6758 -2.6436 25.5963
#
#
#
# Elastic Compliance Matrix: (Units=1/GPa)
#
#
# Indices 1 2 3 4 5 6 
#
# 1 0.006782 -0.002064 -0.001881 -0.000476 0.001668 0.000176
# 2 -0.002064 0.010799 0.002403 -0.009481 -0.001999 -0.000194
# 3 -0.001881 0.002403 0.059363 -0.009733 -0.029728 -0.003448
# 4 -0.000476 -0.009481 -0.009733 0.060604 -0.014460 -0.008682
# 5 0.001668 -0.001999 -0.029728 -0.014460 0.069874 0.010244
# 6 0.000176 -0.000194 -0.003448 -0.008682 0.010244 0.041479
#
#
# Mechanical properties :
#
#
# Convention : Reuss Voigt Hill
#
# Bulk Modulus (GPa) = 13.53928 44.31001 28.92464
# Shear Modulus (GPa) = 18.07630 31.30271 24.68950
#
# Velocity S-wave (km/s) = 2.72529 3.58632 3.18503
# Velocity P-wave (km/s) = 3.93268 5.94601 5.04088
#
# Compressibility (1/GPa) = 0.07385918
#
# Stress axis : x y z
#
# Youngs Moduli (GPa) = 147.44775 92.60253 16.84561
#
# Poissons Ratio (x) = 0.19112 0.03169
# Poissons Ratio (y) = 0.30431 -0.04047
# Poissons Ratio (z) = 0.27735 -0.22249
#
# Static dielectric constant tensor:
#      x y z
#    x 4.688140 -0.148190 0.447250 
#    y -0.148190 4.419160 0.090490 
#    z 0.447250 0.090490 3.917310 
# 
# 
# High freq. dielectric constant tensor:
#      x y z
#    x 1.978870 -0.007150 0.031560 
#    y -0.007150 1.971920 0.022600 
#    z 0.031560 0.022600 1.924880 
# 
# From -- ./inp_files/354586.got.cif
#   From: 2010.06.25/outbox.cif.g09.slc.cpg/sg2_178_cif.got.tgz:354586.got - 2010.06.27 13:26:56.
