data_PCOD8024287
_publ_section_title
;
Structure prediction by ZEFSAII (Michael W. Deem and Ramdas Pophale) SiO2 
 PCOD8024287
Probable space group: P -1
;
_chemical_formula_sum "Si O2"
_cell_formula_units_Z 16
_cell_length_a 8.449925
_cell_length_b 18.062817
_cell_length_c 5.233772
_cell_angle_alpha 121.317763
_cell_angle_beta 93.126263
_cell_angle_gamma 89.206677
_cell_volume 681.322627
_symmetry_space_group_name_H-M "P -1"
_symmetry_group_IT_number 2
_symmetry_cell_setting 'triclinic'
loop_
_space_group_symop_operation_xyz
x,y,z
-x,-y,-z
loop_
_atom_site_type_symbol
_atom_site_label
_atom_site_fract_x
_atom_site_fract_y
_atom_site_fract_z
Si Si1 0.323043 0.058368 0.818051
Si Si2 0.817813 0.759427 0.889458
Si Si3 0.380012 0.401890 0.430177
Si Si4 0.136573 0.780042 0.700480
Si Si5 0.223364 0.468142 0.018645
Si Si6 0.744729 0.383064 0.382524
Si Si7 0.305608 0.959091 0.138968
Si Si8 0.036653 0.653781 0.081405
O O1 0.511665 0.063799 0.864561
O O2 0.256615 0.992119 0.475279
O O3 0.261710 0.150401 0.884593
O O4 0.264973 0.029669 0.043488
O O5 0.675995 0.695165 0.669622
O O6 0.946898 0.780343 0.721182
O O7 0.903831 0.712675 0.044044
O O8 0.287511 0.441045 0.255363
O O9 0.562194 0.405154 0.366090
O O10 0.348376 0.459227 0.783641
O O11 0.229717 0.720889 0.805772
O O12 0.156417 0.726057 0.344298
O O13 0.206325 0.875777 0.888909
O O14 0.195532 0.571484 0.261317
O O15 0.062767 0.411676 0.853802
O O16 0.861117 0.411085 0.207850
#
# Coordination Sequence:
#
# PCOD8024287 Si02
#       8
#     2   2   2   2   2   2   2   2
#     4  10  23  44  68  95 126 165 211 263 325 378
#     4  10  23  43  64  94 130 174 210 265 326 385
#     4  11  24  43  66  98 130 169 220 277 322 382
#     4  11  24  42  64  93 134 170 217 261 326 386
#     4  11  24  44  66  94 134 171 222 271 325 382
#     4  11  25  40  67  96 126 180 219 273 323 383
#     4  10  24  43  66  97 128 162 211 268 317 387
#     4  10  24  43  62  96 134 176 217 268 320 391
#
# _framework density 23.483733000000001
#
# number of rings (size 3 to 8) (size 9 to 14) (size 15 to 20)
#    0.000    1.500    1.250    1.875    8.750    1.500 
#    2.250    0.000    0.000    0.000    0.000    0.000 
#    0.000    0.000    0.000    0.000    0.000    0.000 
#
# Total GULP energy -198254.031318 kJ/mol
# GULP energy per Si atom -12390.876957 kJ/mol
# Density = 2.343028 g / cm^3
# Si number density = 23.483733 Si / 1000 Ang^3
#
#
#
# Elastic Constant Matrix: (Units=GPa)
#
#
# Indices 1 2 3 4 5 6 
#
# 1 87.9473 32.9929 37.9959 6.4325 1.1159 3.1079
# 2 32.9929 71.1901 40.0479 15.2633 -6.3064 3.7603
# 3 37.9959 40.0479 134.2524 5.8555 3.8010 0.2773
# 4 6.4325 15.2633 5.8555 50.1500 7.3630 -3.1401
# 5 1.1159 -6.3064 3.8010 7.3630 41.1417 6.0999
# 6 3.1079 3.7603 0.2773 -3.1401 6.0999 29.6958
#
#
#
# Elastic Compliance Matrix: (Units=1/GPa)
#
#
# Indices 1 2 3 4 5 6 
#
# 1 0.014487 -0.005418 -0.002464 0.000179 -0.000940 -0.000595
# 2 -0.005418 0.021227 -0.004673 -0.006275 0.005530 -0.003877
# 3 -0.002464 -0.004673 0.009548 0.000980 -0.001893 0.001253
# 4 0.000179 -0.006275 0.000980 0.022837 -0.005792 0.004371
# 5 -0.000940 0.005530 -0.001893 -0.005792 0.027403 -0.006826
# 6 -0.000595 -0.003877 0.001253 0.004371 -0.006826 0.036081
#
#
# Mechanical properties :
#
#
# Convention : Reuss Voigt Hill
#
# Bulk Modulus (GPa) = 49.62442 57.27367 53.44904
# Shear Modulus (GPa) = 30.59759 36.35437 33.47598
#
# Velocity S-wave (km/s) = 3.61352 3.93882 3.77967
# Velocity P-wave (km/s) = 6.21187 6.71769 6.46972
#
# Compressibility (1/GPa) = 0.02015137
#
# Stress axis : x y z
#
# Youngs Moduli (GPa) = 69.02536 47.10972 104.73010
#
# Poissons Ratio (x) = 0.25526 0.25804
# Poissons Ratio (y) = 0.37400 0.48945
# Poissons Ratio (z) = 0.17007 0.22017
#
# Static dielectric constant tensor:
#      x y z
#    x 4.178330 0.032450 0.048550 
#    y 0.032450 4.259620 0.060350 
#    z 0.048550 0.060350 4.427670 
# 
# 
# High freq. dielectric constant tensor:
#      x y z
#    x 1.929990 -0.007960 0.001200 
#    y -0.007960 1.937120 0.002520 
#    z 0.001200 0.002520 1.934340 
# 
# From -- ./inp_files/32558.got.cif
#   From: 2010.06.25/outbox.cif.g09.slc.cpg/sg2_17_cif.got.tgz:32558.got - 2010.06.27 13:26:56.
