data_PCOD8024242
_publ_section_title
;
Structure prediction by ZEFSAII (Michael W. Deem and Ramdas Pophale) SiO2 
 PCOD8024242
Probable space group: P -1
;
_chemical_formula_sum "Si O2"
_cell_formula_units_Z 16
_cell_length_a 6.856004
_cell_length_b 12.483112
_cell_length_c 11.745448
_cell_angle_alpha 69.950329
_cell_angle_beta 114.826367
_cell_angle_gamma 110.761699
_cell_volume 830.494418
_symmetry_space_group_name_H-M "P -1"
_symmetry_group_IT_number 2
_symmetry_cell_setting 'triclinic'
loop_
_space_group_symop_operation_xyz
x,y,z
-x,-y,-z
loop_
_atom_site_type_symbol
_atom_site_label
_atom_site_fract_x
_atom_site_fract_y
_atom_site_fract_z
Si Si1 0.476102 0.556890 0.148225
Si Si2 0.336858 0.855138 0.330830
Si Si3 0.895821 0.495691 0.352646
Si Si4 0.638928 0.884249 0.719819
Si Si5 0.286815 0.331589 0.054271
Si Si6 0.824207 0.879178 0.522765
Si Si7 0.177007 0.766790 0.562997
Si Si8 0.157329 0.664932 0.176520
O O1 0.691605 0.556705 0.277228
O O2 0.335492 0.423466 0.138075
O O3 0.342189 0.633110 0.155594
O O4 0.540634 0.621769 0.020876
O O5 0.598390 0.868134 0.402673
O O6 0.196193 0.780250 0.426248
O O7 0.257325 0.787943 0.219222
O O8 0.282132 0.982427 0.264825
O O9 0.801183 0.360145 0.343886
O O10 0.000000 0.500000 0.500000
O O11 0.080810 0.558812 0.285574
O O12 0.682894 0.795887 0.858059
O O13 0.776502 0.865075 0.649847
O O14 0.378479 0.863587 0.633343
O O15 0.036997 0.317838 0.958574
O O16 0.938045 0.778287 0.543246
O O17 0.000000 0.000000 0.500000
#
# Coordination Sequence:
#
# PCOD8024242 Si02
#       8
#     2   2   2   2   2   2   2   2
#     4  10  23  44  61  86 122 158 206 251 291 354
#     4  11  23  39  59  91 131 152 195 253 298 360
#     4  11  23  38  63  94 125 156 190 249 310 359
#     4  11  22  40  64  90 120 160 204 245 295 358
#     4  10  23  43  62  84 116 164 208 252 289 345
#     4  11  21  37  63  92 119 161 196 242 305 360
#     4  11  21  39  59  93 127 153 198 245 302 361
#     4  11  25  40  61  92 122 162 199 246 304 352
#
# _framework density 19.265630999999999
#
# number of rings (size 3 to 8) (size 9 to 14) (size 15 to 20)
#    0.000    1.250    5.000    1.125    3.500    2.000 
#    0.000    0.625    0.000    0.000    0.000    0.000 
#    0.000    0.000    0.000    0.000    0.000    0.000 
#
# Total GULP energy -198469.071386 kJ/mol
# GULP energy per Si atom -12404.316962 kJ/mol
# Density = 1.922178 g / cm^3
# Si number density = 19.265631 Si / 1000 Ang^3
#
#
#
# Elastic Constant Matrix: (Units=GPa)
#
#
# Indices 1 2 3 4 5 6 
#
# 1 125.0684 40.5600 37.9200 4.5190 4.6141 -16.3037
# 2 40.5600 103.9343 34.6707 1.4904 -4.8591 -6.4822
# 3 37.9200 34.6707 100.7531 -0.8608 4.8374 -3.9132
# 4 4.5190 1.4904 -0.8608 37.3100 1.0506 -0.2503
# 5 4.6141 -4.8591 4.8374 1.0506 15.9443 -0.0954
# 6 -16.3037 -6.4822 -3.9132 -0.2503 -0.0954 31.8360
#
#
#
# Elastic Compliance Matrix: (Units=1/GPa)
#
#
# Indices 1 2 3 4 5 6 
#
# 1 0.010512 -0.003095 -0.002580 -0.001092 -0.003104 0.004418
# 2 -0.003095 0.012231 -0.003298 -0.000345 0.005650 0.000514
# 3 -0.002580 -0.003298 0.012212 0.000836 -0.004022 -0.000497
# 4 -0.001092 -0.000345 0.000836 0.027017 -0.001825 -0.000320
# 5 -0.003104 0.005650 -0.004022 -0.001825 0.066674 -0.000748
# 6 0.004418 0.000514 -0.000497 -0.000320 -0.000748 0.033712
#
#
# Mechanical properties :
#
#
# Convention : Reuss Voigt Hill
#
# Bulk Modulus (GPa) = 58.79607 61.78412 60.29010
# Shear Modulus (GPa) = 26.88558 31.45842 29.17200
#
# Velocity S-wave (km/s) = 3.73972 4.04527 3.89549
# Velocity P-wave (km/s) = 7.01657 7.34562 7.18298
#
# Compressibility (1/GPa) = 0.01700794
#
# Stress axis : x y z
#
# Youngs Moduli (GPa) = 95.13367 81.76117 81.88696
#
# Poissons Ratio (x) = 0.25309 0.21124
# Poissons Ratio (y) = 0.29449 0.27006
# Poissons Ratio (z) = 0.24541 0.26965
#
# Static dielectric constant tensor:
#      x y z
#    x 3.770370 0.018870 0.039340 
#    y 0.018870 3.588040 -0.052730 
#    z 0.039340 -0.052730 3.461330 
# 
# 
# High freq. dielectric constant tensor:
#      x y z
#    x 1.754910 0.002570 0.004550 
#    y 0.002570 1.755730 -0.005300 
#    z 0.004550 -0.005300 1.742670 
# 
# From -- ./inp_files/76196.got.cif
#   From: 2010.06.25/outbox.cif.g09.slc.cpg/sg2_39_cif.got.tgz:76196.got - 2010.06.27 13:26:56.
