data_PCOD8024111
_publ_section_title
;
Structure prediction by ZEFSAII (Michael W. Deem and Ramdas Pophale) SiO2 
 PCOD8024111
Probable space group: P -1
;
_chemical_formula_sum "Si O2"
_cell_formula_units_Z 16
_cell_length_a 11.773176
_cell_length_b 11.677137
_cell_length_c 14.988236
_cell_angle_alpha 118.675597
_cell_angle_beta 141.944655
_cell_angle_gamma 88.485287
_cell_volume 847.072315
_symmetry_space_group_name_H-M "P -1"
_symmetry_group_IT_number 2
_symmetry_cell_setting 'triclinic'
loop_
_space_group_symop_operation_xyz
x,y,z
-x,-y,-z
loop_
_atom_site_type_symbol
_atom_site_label
_atom_site_fract_x
_atom_site_fract_y
_atom_site_fract_z
Si Si1 0.357751 0.559747 0.399595
Si Si2 0.666853 0.672990 0.051814
Si Si3 0.857781 0.618178 0.315355
Si Si4 0.618981 0.607501 0.797553
Si Si5 0.250075 0.112498 0.147202
Si Si6 0.795324 0.024541 0.254226
Si Si7 0.312311 0.919958 0.980813
Si Si8 0.903776 0.534617 0.626941
O O1 0.500000 0.500000 0.500000
O O2 0.315841 0.505311 0.248928
O O3 0.534230 0.764485 0.601531
O O4 0.118301 0.466949 0.278640
O O5 0.791749 0.627167 0.177153
O O6 0.797510 0.872405 0.221116
O O7 0.379216 0.548498 0.844962
O O8 0.712546 0.642244 0.968868
O O9 0.955404 0.789810 0.493285
O O10 0.063796 0.600969 0.433534
O O11 0.762858 0.785118 0.899802
O O12 0.334311 0.514573 0.584766
O O13 0.294499 0.992291 0.087556
O O14 0.000000 0.000000 0.000000
O O15 0.756471 0.021557 0.123606
O O16 0.583438 0.993874 0.168027
O O17 0.134967 0.716137 0.801414
#
# Coordination Sequence:
#
# PCOD8024111 Si02
#       8
#     2   2   2   2   2   2   2   2
#     4   8  17  31  52  79 109 139 175 225 277 324
#     4  11  23  41  55  80 114 150 190 220 278 329
#     4  11  24  38  58  78 113 156 181 229 272 328
#     4  10  19  35  56  81 111 140 186 229 273 327
#     4  10  17  29  50  82 113 137 171 225 283 323
#     4  11  22  36  55  84 111 143 188 229 274 324
#     4  11  20  31  56  87 111 138 183 235 273 322
#     4  10  19  35  57  84 109 145 185 224 280 327
#
# _framework density 18.888589
#
# number of rings (size 3 to 8) (size 9 to 14) (size 15 to 20)
#    0.000    2.000    2.500    4.875    1.750    1.000 
#    0.000    0.625    0.000    0.000    0.000    6.125 
#    0.000    0.000    0.000    0.000    0.000    0.000 
#
# Total GULP energy -198343.121200 kJ/mol
# GULP energy per Si atom -12396.445075 kJ/mol
# Density = 1.884560 g / cm^3
# Si number density = 18.888589 Si / 1000 Ang^3
#
#
#
# Elastic Constant Matrix: (Units=GPa)
#
#
# Indices 1 2 3 4 5 6 
#
# 1 88.4712 20.8180 15.4546 10.0652 -16.2674 1.0559
# 2 20.8180 50.9388 15.1472 19.5582 -3.6786 5.1205
# 3 15.4546 15.1472 48.1245 21.4514 -2.4291 0.8082
# 4 10.0652 19.5582 21.4514 30.7771 2.1345 -1.9814
# 5 -16.2674 -3.6786 -2.4291 2.1345 34.2179 5.2467
# 6 1.0559 5.1205 0.8082 -1.9814 5.2467 21.3068
#
#
#
# Elastic Compliance Matrix: (Units=1/GPa)
#
#
# Indices 1 2 3 4 5 6 
#
# 1 0.013955 -0.004110 -0.002546 -0.000688 0.006240 -0.001208
# 2 -0.004110 0.029593 0.000798 -0.018914 0.003947 -0.009669
# 3 -0.002546 0.000798 0.031391 -0.022031 0.003102 -0.004069
# 4 -0.000688 -0.018914 -0.022031 0.061649 -0.009851 0.013574
# 5 0.006240 0.003947 0.003102 -0.009851 0.035128 -0.010941
# 6 -0.001208 -0.009669 -0.004069 0.013574 -0.010941 0.053428
#
#
# Mechanical properties :
#
#
# Convention : Reuss Voigt Hill
#
# Bulk Modulus (GPa) = 15.81703 32.26379 24.04041
# Shear Modulus (GPa) = 19.38484 26.33466 22.85975
#
# Velocity S-wave (km/s) = 3.20702 3.73796 3.48263
# Velocity P-wave (km/s) = 4.70164 5.97896 5.37835
#
# Compressibility (1/GPa) = 0.06322298
#
# Stress axis : x y z
#
# Youngs Moduli (GPa) = 71.65901 33.79181 31.85623
#
# Poissons Ratio (x) = 0.13888 0.08110
# Poissons Ratio (y) = 0.29452 -0.02542
# Poissons Ratio (z) = 0.18244 -0.02696
#
# Static dielectric constant tensor:
#      x y z
#    x 4.005950 0.033520 -0.234180 
#    y 0.033520 3.204990 0.401100 
#    z -0.234180 0.401100 3.511090 
# 
# 
# High freq. dielectric constant tensor:
#      x y z
#    x 1.748450 0.005350 -0.009710 
#    y 0.005350 1.706780 0.033050 
#    z -0.009710 0.033050 1.723430 
# 
# From -- ./inp_files/195223.got.cif
#   From: 2010.06.25/outbox.cif.g09.slc.cpg/sg2_98_cif.got.tgz:195223.got - 2010.06.27 13:26:56.
