data_PCOD8024386
_publ_section_title
;
Structure prediction by ZEFSAII (Michael W. Deem and Ramdas Pophale) SiO2 
 PCOD8024386
Probable space group: P -1
;
_chemical_formula_sum "Si O2"
_cell_formula_units_Z 16
_cell_length_a 16.115171
_cell_length_b 18.711551
_cell_length_c 11.915076
_cell_angle_alpha 27.579416
_cell_angle_beta 45.661974
_cell_angle_gamma 28.624015
_cell_volume 744.408466
_symmetry_space_group_name_H-M "P -1"
_symmetry_group_IT_number 2
_symmetry_cell_setting 'triclinic'
loop_
_space_group_symop_operation_xyz
x,y,z
-x,-y,-z
loop_
_atom_site_type_symbol
_atom_site_label
_atom_site_fract_x
_atom_site_fract_y
_atom_site_fract_z
Si Si1 0.666443 0.219845 0.273919
Si Si2 0.753396 0.884241 0.469884
Si Si3 0.634636 0.681648 0.870097
Si Si4 0.479542 0.320963 0.532541
Si Si5 0.240899 0.057294 0.011854
Si Si6 0.537094 0.365721 0.762000
Si Si7 0.864451 0.485989 0.505952
Si Si8 0.126751 0.700036 0.011089
O O1 0.605711 0.193834 0.479482
O O2 0.727782 0.029785 0.391573
O O3 0.500000 0.500000 0.000000
O O4 0.843760 0.146289 0.229101
O O5 0.744572 0.718327 0.758213
O O6 0.947436 0.714999 0.462429
O O7 0.587287 0.064683 0.285772
O O8 0.705232 0.553885 0.860304
O O9 0.646945 0.534949 0.158004
O O10 0.405873 0.570603 0.284135
O O11 0.301187 0.399093 0.577168
O O12 0.602302 0.119686 0.795561
O O13 0.180437 0.294994 0.715893
O O14 0.061548 0.142422 0.097839
O O15 0.306426 0.921762 0.018092
O O16 0.500000 0.500000 0.500000
O O17 0.879185 0.360377 0.773845
#
# Coordination Sequence:
#
# PCOD8024386 Si02
#       8
#     2   2   2   2   2   2   2   2
#     4  12  23  44  66  98 132 175 218 276 332 379
#     4  11  25  39  68 100 130 170 218 277 325 385
#     4  11  22  43  67  96 134 169 219 273 326 386
#     4  11  24  46  66  93 137 174 216 272 333 387
#     4  11  26  44  66  98 131 177 218 269 328 397
#     4  10  23  43  66  92 129 177 215 259 327 393
#     4  12  25  43  67 101 133 171 223 271 330 388
#     4  12  24  42  72  96 132 173 224 273 323 393
#
# _framework density 21.493576000000001
#
# number of rings (size 3 to 8) (size 9 to 14) (size 15 to 20)
#    0.000    0.750    5.000    1.500    7.000    1.000 
#    0.000    0.625    0.000    0.000    0.000    0.000 
#    0.000    0.000    0.000    0.000    0.000    0.000 
#
# Total GULP energy -198367.971297 kJ/mol
# GULP energy per Si atom -12397.998206 kJ/mol
# Density = 2.144466 g / cm^3
# Si number density = 21.493576 Si / 1000 Ang^3
#
#
#
# Elastic Constant Matrix: (Units=GPa)
#
#
# Indices 1 2 3 4 5 6 
#
# 1 120.0177 68.0070 43.7830 -3.4105 -30.3906 -14.2140
# 2 68.0070 161.4730 55.2089 7.2966 -16.0702 -6.7519
# 3 43.7830 55.2089 49.1944 7.5050 -12.2181 8.4534
# 4 -3.4105 7.2966 7.5050 33.6529 -0.5735 -10.2862
# 5 -30.3906 -16.0702 -12.2181 -0.5735 47.8921 -9.9727
# 6 -14.2140 -6.7519 8.4534 -10.2862 -9.9727 47.5478
#
#
#
# Elastic Compliance Matrix: (Units=1/GPa)
#
#
# Indices 1 2 3 4 5 6 
#
# 1 0.020204 -0.001233 -0.017877 0.010647 0.010809 0.013613
# 2 -0.001233 0.010916 -0.011823 0.001286 0.000649 0.003698
# 3 -0.017877 -0.011823 0.054522 -0.018224 -0.006192 -0.021958
# 4 0.010647 0.001286 -0.018224 0.039751 0.006463 0.016561
# 5 0.010809 0.000649 -0.006192 0.006463 0.028930 0.011890
# 6 0.013613 0.003698 -0.021958 0.016561 0.011890 0.035606
#
#
# Mechanical properties :
#
#
# Convention : Reuss Voigt Hill
#
# Bulk Modulus (GPa) = 42.05994 73.85366 57.95680
# Shear Modulus (GPa) = 19.25132 36.73099 27.99115
#
# Velocity S-wave (km/s) = 2.99603 4.13840 3.61266
# Velocity P-wave (km/s) = 5.61955 7.56773 6.66521
#
# Compressibility (1/GPa) = 0.02377559
#
# Stress axis : x y z
#
# Youngs Moduli (GPa) = 49.49475 91.60815 18.34119
#
# Poissons Ratio (x) = 0.11298 0.32788
# Poissons Ratio (y) = 0.06104 0.21686
# Poissons Ratio (z) = 0.88480 1.08312
#
# Static dielectric constant tensor:
#      x y z
#    x 4.170210 -0.041450 -0.429920 
#    y -0.041450 4.450600 0.071280 
#    z -0.429920 0.071280 3.945770 
# 
# 
# High freq. dielectric constant tensor:
#      x y z
#    x 1.848650 0.003250 -0.024540 
#    y 0.003250 1.861770 0.010360 
#    z -0.024540 0.010360 1.831410 
# 
# From -- ./inp_files/393139.got.cif
#   From: 2010.06.25/outbox.cif.g09.slc.cpg/sg2_197_cif.got.tgz:393139.got - 2010.06.27 13:26:56.
