data_PCOD8024818
_publ_section_title
;
Structure prediction by ZEFSAII (Michael W. Deem and Ramdas Pophale) SiO2 
 PCOD8024818
Probable space group: P -1
;
_chemical_formula_sum "Si O2"
_cell_formula_units_Z 12
_cell_length_a 14.922001
_cell_length_b 9.593079
_cell_length_c 8.191886
_cell_angle_alpha 109.089694
_cell_angle_beta 79.830281
_cell_angle_gamma 40.189757
_cell_volume 511.254201
_symmetry_space_group_name_H-M "P -1"
_symmetry_group_IT_number 2
_symmetry_cell_setting 'triclinic'
loop_
_space_group_symop_operation_xyz
x,y,z
-x,-y,-z
loop_
_atom_site_type_symbol
_atom_site_label
_atom_site_fract_x
_atom_site_fract_y
_atom_site_fract_z
Si Si1 0.476121 0.824023 0.570062
Si Si2 0.349830 0.198464 0.270496
Si Si3 0.170378 0.860920 0.933026
Si Si4 0.117994 0.259473 0.017753
Si Si5 0.206639 0.149087 0.480161
Si Si6 0.948382 0.928638 0.594144
O O1 0.570735 0.845041 0.599815
O O2 0.632740 0.475558 0.342912
O O3 0.347521 0.967383 0.826684
O O4 0.325793 0.041620 0.553756
O O5 0.309847 0.080507 0.265927
O O6 0.153280 0.566222 0.436087
O O7 0.500000 0.000000 0.000000
O O8 0.102448 0.107112 0.963919
O O9 0.184360 0.844501 0.118982
O O10 0.000000 0.000000 0.000000
O O11 0.000000 0.500000 0.000000
O O12 0.015750 0.469872 0.294120
O O13 0.188729 0.996508 0.424896
O O14 0.000000 0.000000 0.500000
#
# Coordination Sequence:
#
# PCOD8024818 Si02
#       6
#     2   2   2   2   2   2
#     4  11  25  44  77 106 142 186 241 285 366 426
#     4  12  26  47  75 106 143 186 244 296 354 422
#     4  12  25  46  71 102 150 187 237 293 360 427
#     4  10  23  43  74 103 139 183 241 293 352 419
#     4  11  25  50  72 105 144 189 240 296 355 425
#     4  12  29  47  71 104 150 192 235 296 361 418
#
# _framework density 23.471689000000001
#
# number of rings (size 3 to 8) (size 9 to 14) (size 15 to 20)
#    0.000    0.667    3.333    2.500    9.333    3.333 
#    0.000    0.000    0.000    0.000    0.000    0.000 
#    0.000    0.000    0.000    0.000    0.000    0.000 
#
# Total GULP energy -148661.019558 kJ/mol
# GULP energy per Si atom -12388.418296 kJ/mol
# Density = 2.341827 g / cm^3
# Si number density = 23.471689 Si / 1000 Ang^3
#
#
#
# Elastic Constant Matrix: (Units=GPa)
#
#
# Indices 1 2 3 4 5 6 
#
# 1 184.9076 73.6828 40.2064 -10.1833 3.4336 26.1053
# 2 73.6828 79.1928 37.8729 -7.4306 -9.9157 15.9338
# 3 40.2064 37.8729 154.2195 -4.5023 -9.5385 14.0770
# 4 -10.1833 -7.4306 -4.5023 29.2060 3.7440 -1.2119
# 5 3.4336 -9.9157 -9.5385 3.7440 35.6338 -6.7229
# 6 26.1053 15.9338 14.0770 -1.2119 -6.7229 55.2551
#
#
#
# Elastic Compliance Matrix: (Units=1/GPa)
#
#
# Indices 1 2 3 4 5 6 
#
# 1 0.009303 -0.008368 -0.000357 0.001465 -0.003915 -0.002336
# 2 -0.008368 0.022955 -0.002930 0.001651 0.006019 -0.001151
# 3 -0.000357 -0.002930 0.007434 0.000110 0.001056 -0.000750
# 4 0.001465 0.001651 0.000110 0.035608 -0.003553 -0.000848
# 5 -0.003915 0.006019 0.001056 -0.003553 0.031449 0.003593
# 6 -0.002336 -0.001151 -0.000750 -0.000848 0.003593 0.020143
#
#
# Mechanical properties :
#
#
# Convention : Reuss Voigt Hill
#
# Bulk Modulus (GPa) = 61.04223 80.20489 70.62356
# Shear Modulus (GPa) = 32.12075 41.78951 36.95513
#
# Velocity S-wave (km/s) = 3.70332 4.22408 3.97225
# Velocity P-wave (km/s) = 6.65953 7.61811 7.15489
#
# Compressibility (1/GPa) = 0.01638210
#
# Stress axis : x y z
#
# Youngs Moduli (GPa) = 107.48698 43.56354 134.52258
#
# Poissons Ratio (x) = 0.36456 0.04797
# Poissons Ratio (y) = 0.89950 0.39415
# Poissons Ratio (z) = 0.03833 0.12764
#
# Static dielectric constant tensor:
#      x y z
#    x 4.727940 0.029880 -0.696770 
#    y 0.029880 3.881260 -0.803970 
#    z -0.696770 -0.803970 4.938140 
# 
# 
# High freq. dielectric constant tensor:
#      x y z
#    x 1.949350 -0.001100 -0.012030 
#    y -0.001100 1.912000 -0.009270 
#    z -0.012030 -0.009270 1.948340 
# 
# From -- ./inp_files/157554.got.cif
#   From: 2010.06.25/outbox.cif.g09.slc.cpg/sg2_79_cif.got.tgz:157554.got - 2010.06.27 13:26:56.
