data_PCOD8024286
_publ_section_title
;
Structure prediction by ZEFSAII (Michael W. Deem and Ramdas Pophale) SiO2 
 PCOD8024286
Probable space group: P -1
;
_chemical_formula_sum "Si O2"
_cell_formula_units_Z 16
_cell_length_a 16.802816
_cell_length_b 11.238342
_cell_length_c 13.824483
_cell_angle_alpha 147.906613
_cell_angle_beta 146.982103
_cell_angle_gamma 52.413744
_cell_volume 708.861542
_symmetry_space_group_name_H-M "P -1"
_symmetry_group_IT_number 2
_symmetry_cell_setting 'triclinic'
loop_
_space_group_symop_operation_xyz
x,y,z
-x,-y,-z
loop_
_atom_site_type_symbol
_atom_site_label
_atom_site_fract_x
_atom_site_fract_y
_atom_site_fract_z
Si Si1 0.805253 0.524202 0.560409
Si Si2 0.929265 0.045891 0.792536
Si Si3 0.151724 0.876301 0.780494
Si Si4 0.650682 0.778918 0.458080
Si Si5 0.176694 0.137919 0.796605
Si Si6 0.578621 0.048505 0.741318
Si Si7 0.655707 0.157893 0.317580
Si Si8 0.295635 0.697519 0.320407
O O1 0.897976 0.381105 0.498904
O O2 0.658556 0.549049 0.366800
O O3 0.740304 0.396673 0.507087
O O4 0.924885 0.788221 0.882893
O O5 0.849119 0.207987 0.765750
O O6 0.804695 0.859622 0.605018
O O7 0.998138 0.897367 0.687161
O O8 0.221061 0.080253 0.910510
O O9 0.289893 0.879922 0.995078
O O10 0.655035 0.990006 0.682258
O O11 0.491840 0.736716 0.203815
O O12 0.252376 0.026976 0.713434
O O13 0.228251 0.420330 0.034090
O O14 0.000000 0.000000 0.500000
O O15 0.430495 0.820729 0.466033
O O16 0.630871 0.247504 0.459904
O O17 0.500000 0.000000 0.000000
#
# Coordination Sequence:
#
# PCOD8024286 Si02
#       8
#     2   2   2   2   2   2   2   2
#     4  11  23  40  67  93 128 167 206 267 324 369
#     4  11  23  42  66  93 126 168 218 261 315 382
#     4  11  23  39  65  96 127 162 217 260 316 385
#     4  10  23  44  65  89 129 166 216 268 313 373
#     4  11  24  41  63  99 135 166 212 264 316 393
#     4  10  23  43  64  94 125 168 217 265 312 385
#     4  11  25  41  64 100 132 165 216 263 315 392
#     4  11  23  41  68  92 130 177 206 260 334 372
#
# _framework density 22.571404000000001
#
# number of rings (size 3 to 8) (size 9 to 14) (size 15 to 20)
#    0.000    1.250    1.250    4.875    1.750    3.500 
#    0.000    0.000    0.000    0.000    0.000    0.000 
#    0.000    0.000    0.000    0.000    0.000    0.000 
#
# Total GULP energy -198345.744577 kJ/mol
# GULP energy per Si atom -12396.609036 kJ/mol
# Density = 2.252003 g / cm^3
# Si number density = 22.571404 Si / 1000 Ang^3
#
#
#
# Elastic Constant Matrix: (Units=GPa)
#
#
# Indices 1 2 3 4 5 6 
#
# 1 88.3424 19.9762 -2.4797 11.9430 2.4669 -5.7816
# 2 19.9762 113.8577 1.6523 0.8823 -3.2592 -0.7974
# 3 -2.4797 1.6523 41.9893 -4.5131 0.9400 2.1364
# 4 11.9430 0.8823 -4.5131 34.1043 -5.4798 -8.7997
# 5 2.4669 -3.2592 0.9400 -5.4798 21.5209 -9.2505
# 6 -5.7816 -0.7974 2.1364 -8.7997 -9.2505 34.9986
#
#
#
# Elastic Compliance Matrix: (Units=1/GPa)
#
#
# Indices 1 2 3 4 5 6 
#
# 1 0.012572 -0.002261 0.000385 -0.004776 -0.003015 0.000004
# 2 -0.002261 0.009248 -0.000473 0.001039 0.002256 0.000724
# 3 0.000385 -0.000473 0.024216 0.002677 -0.000920 -0.000995
# 4 -0.004776 0.001039 0.002677 0.036996 0.015351 0.012431
# 5 -0.003015 0.002256 -0.000920 0.015351 0.059335 0.019152
# 6 0.000004 0.000724 -0.000995 0.012431 0.019152 0.036838
#
#
# Mechanical properties :
#
#
# Convention : Reuss Voigt Hill
#
# Bulk Modulus (GPa) = 24.19024 31.38746 27.78885
# Shear Modulus (GPa) = 25.29332 33.12747 29.21039
#
# Velocity S-wave (km/s) = 3.35115 3.83518 3.60131
# Velocity P-wave (km/s) = 5.07091 5.79202 5.44342
#
# Compressibility (1/GPa) = 0.04133899
#
# Stress axis : x y z
#
# Youngs Moduli (GPa) = 79.54350 108.13194 41.29515
#
# Poissons Ratio (x) = 0.24444 -0.01591
# Poissons Ratio (y) = 0.17981 0.01954
# Poissons Ratio (z) = -0.03065 0.05115
#
# Static dielectric constant tensor:
#      x y z
#    x 4.330740 0.029480 0.026920 
#    y 0.029480 4.643550 -0.242920 
#    z 0.026920 -0.242920 3.751090 
# 
# 
# High freq. dielectric constant tensor:
#      x y z
#    x 1.899030 -0.005130 -0.006140 
#    y -0.005130 1.912780 -0.015810 
#    z -0.006140 -0.015810 1.868130 
# 
# From -- ./inp_files/273393.got.cif
#   From: 2010.06.25/outbox.cif.g09.slc.cpg/sg2_137_cif.got.tgz:273393.got - 2010.06.27 13:26:56.
