data_PCOD8024371
_publ_section_title
;
Structure prediction by ZEFSAII (Michael W. Deem and Ramdas Pophale) SiO2 
 PCOD8024371
Probable space group: P -1
;
_chemical_formula_sum "Si O2"
_cell_formula_units_Z 16
_cell_length_a 12.182615
_cell_length_b 8.735131
_cell_length_c 14.137758
_cell_angle_alpha 75.728101
_cell_angle_beta 149.331506
_cell_angle_gamma 111.054678
_cell_volume 709.967181
_symmetry_space_group_name_H-M "P -1"
_symmetry_group_IT_number 2
_symmetry_cell_setting 'triclinic'
loop_
_space_group_symop_operation_xyz
x,y,z
-x,-y,-z
loop_
_atom_site_type_symbol
_atom_site_label
_atom_site_fract_x
_atom_site_fract_y
_atom_site_fract_z
Si Si1 0.476223 0.117884 0.651165
Si Si2 0.639978 0.604897 0.937014
Si Si3 0.128852 0.884769 0.565965
Si Si4 0.633083 0.186864 0.077153
Si Si5 0.306836 0.334608 0.354978
Si Si6 0.182424 0.651143 0.994669
Si Si7 0.741971 0.885758 0.829038
Si Si8 0.739391 0.629328 0.214891
O O1 0.310700 0.195119 0.456855
O O2 0.337159 0.004137 0.647666
O O3 0.585818 0.006215 0.683998
O O4 0.678150 0.262761 0.824161
O O5 0.690944 0.791808 0.907587
O O6 0.368685 0.528121 0.770723
O O7 0.738204 0.509195 0.944555
O O8 0.772889 0.590734 0.135530
O O9 0.204963 0.777432 0.717936
O O10 0.975039 0.747070 0.404973
O O11 0.000000 0.000000 0.500000
O O12 0.778738 0.228734 0.084373
O O13 0.457367 0.286451 0.941548
O O14 0.500000 0.000000 0.000000
O O15 0.500000 0.500000 0.500000
O O16 0.332511 0.253817 0.285527
O O17 0.081902 0.390885 0.174113
O O18 0.000000 0.000000 0.000000
#
# Coordination Sequence:
#
# PCOD8024371 Si02
#       8
#     2   2   2   2   2   2   2   2
#     4  12  26  45  73 106 136 184 238 292 354 417
#     4  10  24  45  72  98 143 191 228 281 365 414
#     4  12  22  36  69 104 138 174 225 287 345 423
#     4  11  20  37  65 101 136 175 224 276 355 407
#     4  12  29  47  72 101 138 185 240 291 351 416
#     4  11  24  46  70  99 142 186 228 291 345 420
#     4  12  27  47  76 101 140 189 239 299 345 409
#     4  10  23  43  66 101 142 181 224 287 347 430
#
# _framework density 22.536252999999999
#
# number of rings (size 3 to 8) (size 9 to 14) (size 15 to 20)
#    0.000    0.750    3.750    3.375    3.500    3.000 
#    0.000   10.000    0.000    0.000    0.000    0.000 
#    0.000    0.000    0.000    0.000    0.000    0.000 
#
# Total GULP energy -198363.818229 kJ/mol
# GULP energy per Si atom -12397.738639 kJ/mol
# Density = 2.248496 g / cm^3
# Si number density = 22.536253 Si / 1000 Ang^3
#
#
#
# Elastic Constant Matrix: (Units=GPa)
#
#
# Indices 1 2 3 4 5 6 
#
# 1 83.3468 24.6889 20.9525 3.0369 -2.7167 -13.1402
# 2 24.6889 78.6769 20.1988 17.5559 -5.0150 3.1759
# 3 20.9525 20.1988 112.5031 18.4864 -6.7931 -6.2788
# 4 3.0369 17.5559 18.4864 40.6565 -0.7894 -8.8148
# 5 -2.7167 -5.0150 -6.7931 -0.7894 37.9878 -1.1336
# 6 -13.1402 3.1759 -6.2788 -8.8148 -1.1336 47.3845
#
#
#
# Elastic Compliance Matrix: (Units=1/GPa)
#
#
# Indices 1 2 3 4 5 6 
#
# 1 0.014597 -0.004889 -0.002055 0.002970 0.000232 0.004661
# 2 -0.004889 0.016313 -0.000995 -0.007036 0.001365 -0.003857
# 3 -0.002055 -0.000995 0.010203 -0.003997 0.001467 0.000140
# 4 0.002970 -0.007036 -0.003997 0.030616 -0.000603 0.006447
# 5 0.000232 0.001365 0.001467 -0.000603 0.026792 0.000696
# 6 0.004661 -0.003857 0.000140 0.006447 0.000696 0.023890
#
#
# Mechanical properties :
#
#
# Convention : Reuss Voigt Hill
#
# Bulk Modulus (GPa) = 39.62704 45.13414 42.38059
# Shear Modulus (GPa) = 34.08318 39.11820 36.60069
#
# Velocity S-wave (km/s) = 3.89314 4.17080 4.03436
# Velocity P-wave (km/s) = 6.15066 6.57761 6.36771
#
# Compressibility (1/GPa) = 0.02523529
#
# Stress axis : x y z
#
# Youngs Moduli (GPa) = 68.50668 61.30227 98.00840
#
# Poissons Ratio (x) = 0.29972 0.20137
# Poissons Ratio (y) = 0.33495 0.09751
# Poissons Ratio (z) = 0.14076 0.06099
#
# Static dielectric constant tensor:
#      x y z
#    x 3.952610 -0.062210 -0.097110 
#    y -0.062210 4.215270 -0.138510 
#    z -0.097110 -0.138510 4.137030 
# 
# 
# High freq. dielectric constant tensor:
#      x y z
#    x 1.895910 -0.002190 -0.006110 
#    y -0.002190 1.906750 0.002020 
#    z -0.006110 0.002020 1.884640 
# 
# From -- ./inp_files/273796.got.cif
#   From: 2010.06.25/outbox.cif.g09.slc.cpg/sg2_137_cif.got.tgz:273796.got - 2010.06.27 13:26:56.
