data_PCOD8024675
_publ_section_title
;
Structure prediction by ZEFSAII (Michael W. Deem and Ramdas Pophale) SiO2 
 PCOD8024675
Probable space group: P -1
;
_chemical_formula_sum "Si O2"
_cell_formula_units_Z 14
_cell_length_a 12.685430
_cell_length_b 16.792731
_cell_length_c 22.415562
_cell_angle_alpha 163.047188
_cell_angle_beta 25.169610
_cell_angle_gamma 152.135117
_cell_volume 585.650620
_symmetry_space_group_name_H-M "P -1"
_symmetry_group_IT_number 2
_symmetry_cell_setting 'triclinic'
loop_
_space_group_symop_operation_xyz
x,y,z
-x,-y,-z
loop_
_atom_site_type_symbol
_atom_site_label
_atom_site_fract_x
_atom_site_fract_y
_atom_site_fract_z
Si Si1 0.647915 0.643212 0.753766
Si Si2 0.562600 0.437194 0.516938
Si Si3 0.207792 0.902289 0.668995
Si Si4 0.836635 0.279085 0.884153
Si Si5 0.306830 0.464506 0.976415
Si Si6 0.724687 0.914321 0.102984
Si Si7 0.102367 0.337272 0.597864
O O1 0.581462 0.590863 0.681048
O O2 0.655108 0.368133 0.593644
O O3 0.912666 0.832018 0.758853
O O4 0.440187 0.802615 0.004088
O O5 0.308500 0.468550 0.634961
O O6 0.806515 0.555902 0.437941
O O7 0.551770 0.112917 0.302203
O O8 0.268425 0.058240 0.810959
O O9 0.311470 0.134083 0.733066
O O10 0.837935 0.432121 0.930691
O O11 0.951498 0.996658 0.614636
O O12 0.000000 0.500000 0.000000
O O13 0.597774 0.605565 0.930008
O O14 0.156241 0.550043 0.173454
O O15 0.000000 0.000000 0.000000
#
# Coordination Sequence:
#
# PCOD8024675 Si02
#       7
#     2   2   2   2   2   2   2
#     4  10  24  47  66  97 139 175 222 274 338 392
#     4  10  23  43  70  94 135 177 221 275 325 405
#     4  10  24  42  69  97 130 178 221 278 330 392
#     4  12  27  42  67  98 139 178 216 276 335 398
#     4  12  25  43  71  99 136 172 227 279 326 399
#     4  11  22  42  67  98 130 175 223 276 331 387
#     4  11  25  43  68 102 129 179 226 270 332 393
#
# _framework density 23.905038000000001
#
# number of rings (size 3 to 8) (size 9 to 14) (size 15 to 20)
#    0.000    1.143    1.429    3.429   10.000    1.143 
#    0.000    0.000    0.000    0.000    0.000    0.000 
#    0.000    0.000    0.000    0.000    0.000    0.000 
#
# Total GULP energy -173611.396252 kJ/mol
# GULP energy per Si atom -12400.814018 kJ/mol
# Density = 2.385063 g / cm^3
# Si number density = 23.905038 Si / 1000 Ang^3
#
#
#
# Elastic Constant Matrix: (Units=GPa)
#
#
# Indices 1 2 3 4 5 6 
#
# 1 62.0874 24.0617 20.7677 20.1036 -1.7344 -0.7355
# 2 24.0617 117.5339 35.3391 19.8699 -0.6931 7.1578
# 3 20.7677 35.3391 66.6394 12.9423 -5.0771 0.3515
# 4 20.1036 19.8699 12.9423 53.1902 1.1781 -0.9989
# 5 -1.7344 -0.6931 -5.0771 1.1781 15.6709 1.9558
# 6 -0.7355 7.1578 0.3515 -0.9989 1.9558 44.6544
#
#
#
# Elastic Compliance Matrix: (Units=1/GPa)
#
#
# Indices 1 2 3 4 5 6 
#
# 1 0.020163 -0.001941 -0.004010 -0.005938 0.001232 0.000488
# 2 -0.001941 0.010803 -0.004765 -0.002155 -0.000902 -0.001735
# 3 -0.004010 -0.004765 0.019527 -0.001578 0.005758 0.000257
# 4 -0.005938 -0.002155 -0.001578 0.022318 -0.003053 0.000893
# 5 0.001232 -0.000902 0.005758 -0.003053 0.066361 -0.002855
# 6 0.000488 -0.001735 0.000257 0.000893 -0.002855 0.022823
#
#
# Mechanical properties :
#
#
# Convention : Reuss Voigt Hill
#
# Bulk Modulus (GPa) = 34.41031 45.17750 39.79391
# Shear Modulus (GPa) = 25.89166 33.77590 29.83378
#
# Velocity S-wave (km/s) = 3.29463 3.76296 3.53655
# Velocity P-wave (km/s) = 5.37574 6.14976 5.77573
#
# Compressibility (1/GPa) = 0.02906106
#
# Stress axis : x y z
#
# Youngs Moduli (GPa) = 49.59677 92.56809 51.21221
#
# Poissons Ratio (x) = 0.17964 0.20535
# Poissons Ratio (y) = 0.09625 0.24403
# Poissons Ratio (z) = 0.19887 0.44109
#
# Static dielectric constant tensor:
#      x y z
#    x 4.434370 -0.185620 -0.063490 
#    y -0.185620 4.329090 0.141130 
#    z -0.063490 0.141130 4.236070 
# 
# 
# High freq. dielectric constant tensor:
#      x y z
#    x 1.960670 -0.003720 -0.003230 
#    y -0.003720 1.955750 0.010810 
#    z -0.003230 0.010810 1.936730 
# 
# From -- ./inp_files/383321.got.cif
#   From: 2010.06.25/outbox.cif.g09.slc.cpg/sg2_192_cif.got.tgz:383321.got - 2010.06.27 13:26:56.
