data_PCOD8024575
_publ_section_title
;
Structure prediction by ZEFSAII (Michael W. Deem and Ramdas Pophale) SiO2 
 PCOD8024575
Probable space group: P -1
;
_chemical_formula_sum "Si O2"
_cell_formula_units_Z 16
_cell_length_a 11.900897
_cell_length_b 11.363060
_cell_length_c 11.302656
_cell_angle_alpha 47.508757
_cell_angle_beta 74.333387
_cell_angle_gamma 111.118139
_cell_volume 699.696195
_symmetry_space_group_name_H-M "P -1"
_symmetry_group_IT_number 2
_symmetry_cell_setting 'triclinic'
loop_
_space_group_symop_operation_xyz
x,y,z
-x,-y,-z
loop_
_atom_site_type_symbol
_atom_site_label
_atom_site_fract_x
_atom_site_fract_y
_atom_site_fract_z
Si Si1 0.607940 0.949327 0.522095
Si Si2 0.729866 0.576821 0.034077
Si Si3 0.834493 0.984015 0.031708
Si Si4 0.719802 0.124751 0.127241
Si Si5 0.829905 0.031643 0.737210
Si Si6 0.222593 0.416259 0.715838
Si Si7 0.582935 0.081301 0.790465
Si Si8 0.004746 0.677089 0.725845
O O1 0.500000 0.000000 0.500000
O O2 0.669176 0.962713 0.363523
O O3 0.787126 0.144265 0.419596
O O4 0.461698 0.670987 0.803844
O O5 0.900812 0.678794 0.848017
O O6 0.731431 0.768620 0.900369
O O7 0.724479 0.498252 0.221397
O O8 0.908845 0.088119 0.807011
O O9 0.005326 0.170520 0.943619
O O10 0.713452 0.004929 0.094703
O O11 0.716095 0.696990 0.269684
O O12 0.567710 0.094063 0.151766
O O13 0.906801 0.406012 0.917905
O O14 0.697749 0.043021 0.768896
O O15 0.993883 0.234055 0.462078
O O16 0.296922 0.633890 0.462671
O O17 0.500000 0.000000 0.000000
#
# Coordination Sequence:
#
# PCOD8024575 Si02
#       8
#     2   2   2   2   2   2   2   2
#     4  12  25  45  71 104 137 186 239 291 343 413
#     4  11  25  49  72 101 142 188 239 286 346 415
#     4  10  23  43  69 101 134 184 227 286 352 417
#     4  12  24  42  71 101 139 182 233 285 353 421
#     4  11  26  46  68 104 144 184 232 293 351 418
#     4  10  23  44  71  98 138 178 234 285 346 423
#     4  12  25  43  68 105 144 180 228 288 358 419
#     4  12  27  44  72 102 143 189 236 287 350 411
#
# _framework density 22.867066000000001
#
# number of rings (size 3 to 8) (size 9 to 14) (size 15 to 20)
#    0.000    0.750    3.750    3.000    3.500    3.000 
#    2.250    0.000    0.000    0.000    0.000    0.000 
#    0.000    0.000    0.000    0.000    0.000    0.000 
#
# Total GULP energy -198312.788824 kJ/mol
# GULP energy per Si atom -12394.549301 kJ/mol
# Density = 2.281502 g / cm^3
# Si number density = 22.867066 Si / 1000 Ang^3
#
#
#
# Elastic Constant Matrix: (Units=GPa)
#
#
# Indices 1 2 3 4 5 6 
#
# 1 95.8215 42.9176 52.1841 -21.7844 6.0737 -6.9047
# 2 42.9176 100.1563 42.2769 -11.5406 3.4248 -26.2961
# 3 52.1841 42.2769 119.3067 -2.2907 3.4023 -28.7630
# 4 -21.7844 -11.5406 -2.2907 36.6260 10.0825 1.2690
# 5 6.0737 3.4248 3.4023 10.0825 35.8613 -12.3918
# 6 -6.9047 -26.2961 -28.7630 1.2690 -12.3918 34.7358
#
#
#
# Elastic Compliance Matrix: (Units=1/GPa)
#
#
# Indices 1 2 3 4 5 6 
#
# 1 0.021313 -0.006588 -0.009518 0.013259 -0.010215 -0.012761
# 2 -0.006588 0.015763 0.000097 -0.000443 0.003912 0.012115
# 3 -0.009518 0.000097 0.015484 -0.007020 0.006841 0.013700
# 4 0.013259 -0.000443 -0.007020 0.039492 -0.016371 -0.010796
# 5 -0.010215 0.003912 0.006841 -0.016371 0.040698 0.021713
# 6 -0.012761 0.012115 0.013700 -0.010796 0.021713 0.054908
#
#
# Mechanical properties :
#
#
# Convention : Reuss Voigt Hill
#
# Bulk Modulus (GPa) = 48.68587 65.56021 57.12304
# Shear Modulus (GPa) = 22.07280 33.30503 27.68891
#
# Velocity S-wave (km/s) = 3.11024 3.82050 3.48352
# Velocity P-wave (km/s) = 5.85109 6.94219 6.41986
#
# Compressibility (1/GPa) = 0.02053984
#
# Stress axis : x y z
#
# Youngs Moduli (GPa) = 46.91994 63.44060 64.58488
#
# Poissons Ratio (x) = 0.41797 0.61473
# Poissons Ratio (y) = 0.30912 -0.00625
# Poissons Ratio (z) = 0.44659 -0.00614
#
# Static dielectric constant tensor:
#      x y z
#    x 4.123490 -0.058550 0.091810 
#    y -0.058550 4.422310 0.161620 
#    z 0.091810 0.161620 4.396190 
# 
# 
# High freq. dielectric constant tensor:
#      x y z
#    x 1.898920 -0.003800 0.001180 
#    y -0.003800 1.919150 0.003180 
#    z 0.001180 0.003180 1.905480 
# 
# From -- ./inp_files/427402.got.cif
#   From: 2010.06.25/outbox.cif.g09.slc.cpg/sg2_214_cif.got.tgz:427402.got - 2010.06.27 13:26:56.
