data_PCOD8024469
_publ_section_title
;
Structure prediction by ZEFSAII (Michael W. Deem and Ramdas Pophale) SiO2 
 PCOD8024469
Probable space group: P -1
;
_chemical_formula_sum "Si O2"
_cell_formula_units_Z 16
_cell_length_a 8.070867
_cell_length_b 23.861945
_cell_length_c 5.750607
_cell_angle_alpha 124.027907
_cell_angle_beta 123.096838
_cell_angle_gamma 49.659597
_cell_volume 669.322376
_symmetry_space_group_name_H-M "P -1"
_symmetry_group_IT_number 2
_symmetry_cell_setting 'triclinic'
loop_
_space_group_symop_operation_xyz
x,y,z
-x,-y,-z
loop_
_atom_site_type_symbol
_atom_site_label
_atom_site_fract_x
_atom_site_fract_y
_atom_site_fract_z
Si Si1 0.984255 0.687548 0.217204
Si Si2 0.898255 0.914762 0.669277
Si Si3 0.371492 0.521874 0.708425
Si Si4 0.163937 0.435488 0.154437
Si Si5 0.990718 0.799002 0.108978
Si Si6 0.324296 0.661225 0.793107
Si Si7 0.335892 0.161310 0.437784
Si Si8 0.829795 0.056838 0.691287
O O1 0.788300 0.746862 0.383098
O O2 0.960960 0.736357 0.087397
O O3 0.232070 0.655309 0.452495
O O4 0.952847 0.613577 0.956309
O O5 0.714124 0.888797 0.527939
O O6 0.043619 0.857700 0.434553
O O7 0.776625 0.004669 0.709305
O O8 0.060140 0.899750 0.980644
O O9 0.500000 0.500000 0.500000
O O10 0.208241 0.483412 0.503658
O O11 0.248677 0.615480 0.816732
O O12 0.500000 0.500000 0.000000
O O13 0.405189 0.373971 0.082349
O O14 0.000000 0.500000 0.000000
O O15 0.203796 0.751257 0.987581
O O16 0.754915 0.848781 0.904468
O O17 0.606463 0.123437 0.550460
O O18 0.000000 0.000000 0.500000
#
# Coordination Sequence:
#
# PCOD8024469 Si02
#       8
#     2   2   2   2   2   2   2   2
#     4  10  23  44  66  98 133 181 231 283 347 419
#     4  10  23  43  67  98 134 184 216 279 337 408
#     4  10  23  44  69  99 138 183 230 300 365 423
#     4  11  23  44  73 100 136 181 235 295 356 424
#     4  10  23  43  70  92 136 184 225 281 344 409
#     4  10  23  43  68  95 137 176 228 289 351 419
#     4  10  23  45  64  96 138 176 225 275 342 407
#     4  11  24  41  70 103 136 170 229 273 337 409
#
# _framework density 23.904772999999999
#
# number of rings (size 3 to 8) (size 9 to 14) (size 15 to 20)
#    0.000    1.750    1.250    1.125    3.500   10.000 
#    9.000    5.625    0.000    0.000    0.000    0.000 
#    0.000    0.000    0.000    0.000    0.000    0.000 
#
# Total GULP energy -198299.309292 kJ/mol
# GULP energy per Si atom -12393.706831 kJ/mol
# Density = 2.385036 g / cm^3
# Si number density = 23.904773 Si / 1000 Ang^3
#
#
#
# Elastic Constant Matrix: (Units=GPa)
#
#
# Indices 1 2 3 4 5 6 
#
# 1 34.5864 17.8457 16.8581 -11.2810 14.9885 -5.0867
# 2 17.8457 99.2635 44.3632 -17.3738 14.6799 -6.9412
# 3 16.8581 44.3632 157.7895 -4.5738 1.4735 -21.1948
# 4 -11.2810 -17.3738 -4.5738 52.8284 2.2456 7.9719
# 5 14.9885 14.6799 1.4735 2.2456 32.1304 -0.1534
# 6 -5.0867 -6.9412 -21.1948 7.9719 -0.1534 49.9431
#
#
#
# Elastic Compliance Matrix: (Units=1/GPa)
#
#
# Indices 1 2 3 4 5 6 
#
# 1 0.043222 -0.001557 -0.003575 0.009080 -0.019916 0.001158
# 2 -0.001557 0.013417 -0.003496 0.004080 -0.005531 -0.000446
# 3 -0.003575 -0.003496 0.008004 -0.001778 0.003036 0.002840
# 4 0.009080 0.004080 -0.001778 0.022822 -0.007627 -0.002929
# 5 -0.019916 -0.005531 0.003036 -0.007627 0.043334 -0.000158
# 6 0.001158 -0.000446 0.002840 -0.002929 -0.000158 0.021751
#
#
# Mechanical properties :
#
#
# Convention : Reuss Voigt Hill
#
# Bulk Modulus (GPa) = 21.10282 49.97482 35.53882
# Shear Modulus (GPa) = 26.93922 41.15189 34.04555
#
# Velocity S-wave (km/s) = 3.36063 4.15359 3.77797
# Velocity P-wave (km/s) = 4.88933 6.62980 5.82494
#
# Compressibility (1/GPa) = 0.04738704
#
# Stress axis : x y z
#
# Youngs Moduli (GPa) = 23.13625 74.53013 124.93725
#
# Poissons Ratio (x) = 0.11604 0.44669
# Poissons Ratio (y) = 0.03602 0.43678
# Poissons Ratio (z) = 0.08272 0.26055
#
# Static dielectric constant tensor:
#      x y z
#    x 4.079990 0.146300 -0.001340 
#    y 0.146300 4.800980 0.322880 
#    z -0.001340 0.322880 4.474160 
# 
# 
# High freq. dielectric constant tensor:
#      x y z
#    x 1.922520 0.007550 -0.007470 
#    y 0.007550 1.969980 0.006890 
#    z -0.007470 0.006890 1.954460 
# 
# From -- ./inp_files/55667.got.cif
#   From: 2010.06.25/outbox.cif.g09.slc.cpg/sg2_28_cif.got.tgz:55667.got - 2010.06.27 13:26:56.
