data_PCOD8024767
_publ_section_title
;
Structure prediction by ZEFSAII (Michael W. Deem and Ramdas Pophale) SiO2 
 PCOD8024767
Probable space group: P -1
;
_chemical_formula_sum "Si O2"
_cell_formula_units_Z 14
_cell_length_a 11.830498
_cell_length_b 9.832305
_cell_length_c 9.577830
_cell_angle_alpha 31.943997
_cell_angle_beta 97.086673
_cell_angle_gamma 98.127101
_cell_volume 583.528689
_symmetry_space_group_name_H-M "P -1"
_symmetry_group_IT_number 2
_symmetry_cell_setting 'triclinic'
loop_
_space_group_symop_operation_xyz
x,y,z
-x,-y,-z
loop_
_atom_site_type_symbol
_atom_site_label
_atom_site_fract_x
_atom_site_fract_y
_atom_site_fract_z
Si Si1 0.570476 0.750982 0.739758
Si Si2 0.941681 0.606639 0.237920
Si Si3 0.825914 0.301554 0.723230
Si Si4 0.425187 0.243140 0.759473
Si Si5 0.275301 0.156823 0.062906
Si Si6 0.280519 0.342785 0.409230
Si Si7 0.965677 0.715689 0.694487
O O1 0.672012 0.849172 0.771683
O O2 0.615578 0.650663 0.687822
O O3 0.500000 0.000000 0.500000
O O4 0.500000 0.500000 0.000000
O O5 0.882973 0.546653 0.431646
O O6 0.057955 0.801856 0.100163
O O7 0.973089 0.349059 0.385090
O O8 0.846593 0.733588 0.022253
O O9 0.740331 0.382610 0.760876
O O10 0.750075 0.123973 0.762747
O O11 0.500000 0.500000 0.500000
O O12 0.323580 0.167381 0.697007
O O13 0.363082 0.312504 0.834978
O O14 0.500000 0.000000 0.000000
O O15 0.167597 0.257793 0.380837
O O16 0.000000 0.000000 0.500000
O O17 0.000000 0.500000 0.000000
#
# Coordination Sequence:
#
# PCOD8024767 Si02
#       7
#     2   2   2   2   2   2   2
#     4  12  30  50  73 106 147 197 253 312 363 433
#     4  10  23  43  72 110 148 184 245 295 369 449
#     4  10  23  44  73 112 145 190 237 303 370 454
#     4  12  26  45  71 104 139 188 251 307 357 427
#     4  12  25  44  79 102 149 196 245 303 383 433
#     4  11  25  50  74 108 149 194 243 309 375 434
#     4  11  27  46  73 111 152 193 238 295 371 459
#
# _framework density 23.991965
#
# number of rings (size 3 to 8) (size 9 to 14) (size 15 to 20)
#    0.000    0.857    1.429    3.857    6.000    5.714 
#    0.000    0.000    0.000    0.000    0.000    0.000 
#    0.000    0.000    0.000    0.000    0.000    0.000 
#
# Total GULP energy -173439.512075 kJ/mol
# GULP energy per Si atom -12388.536577 kJ/mol
# Density = 2.393736 g / cm^3
# Si number density = 23.991965 Si / 1000 Ang^3
#
#
#
# Elastic Constant Matrix: (Units=GPa)
#
#
# Indices 1 2 3 4 5 6 
#
# 1 132.0339 44.6614 52.4268 -1.8207 36.4614 -8.2366
# 2 44.6614 130.8783 34.6359 -1.4097 8.4713 -1.8721
# 3 52.4268 34.6359 110.4733 -5.8500 27.5057 5.8596
# 4 -1.8207 -1.4097 -5.8500 44.8878 9.1550 0.6821
# 5 36.4614 8.4713 27.5057 9.1550 45.4025 15.0327
# 6 -8.2366 -1.8721 5.8596 0.6821 15.0327 61.4294
#
#
#
# Elastic Compliance Matrix: (Units=1/GPa)
#
#
# Indices 1 2 3 4 5 6 
#
# 1 0.012622 -0.002857 -0.002797 0.001973 -0.009705 0.004225
# 2 -0.002857 0.008995 -0.001981 -0.000505 0.002056 -0.000417
# 3 -0.002797 -0.001981 0.012485 0.002547 -0.005346 -0.000346
# 4 0.001973 -0.000505 0.002547 0.024391 -0.008557 0.001829
# 5 -0.009705 0.002056 -0.005346 -0.008557 0.037661 -0.009850
# 6 0.004225 -0.000417 -0.000346 0.001829 -0.009850 0.019256
#
#
# Mechanical properties :
#
#
# Convention : Reuss Voigt Hill
#
# Bulk Modulus (GPa) = 53.10202 70.75931 61.93067
# Shear Modulus (GPa) = 36.50737 46.45469 41.48103
#
# Velocity S-wave (km/s) = 3.90506 4.40507 4.16258
# Velocity P-wave (km/s) = 6.52028 7.44512 6.99799
#
# Compressibility (1/GPa) = 0.01883167
#
# Stress axis : x y z
#
# Youngs Moduli (GPa) = 79.22760 111.16858 80.09608
#
# Poissons Ratio (x) = 0.31760 0.22406
# Poissons Ratio (y) = 0.22635 0.15866
# Poissons Ratio (z) = 0.22163 0.22022
#
# Static dielectric constant tensor:
#      x y z
#    x 4.637000 0.008180 -0.013630 
#    y 0.008180 4.501960 0.326980 
#    z -0.013630 0.326980 4.074330 
# 
# 
# High freq. dielectric constant tensor:
#      x y z
#    x 1.981710 -0.001460 0.017750 
#    y -0.001460 1.965500 0.016960 
#    z 0.017750 0.016960 1.929720 
# 
# From -- ./inp_files/241813.got.cif
#   From: 2010.06.25/outbox.cif.g09.slc.cpg/sg2_121_cif.got.tgz:241813.got - 2010.06.27 13:26:56.
