data_PCOD8024170
_publ_section_title
;
Structure prediction by ZEFSAII (Michael W. Deem and Ramdas Pophale) SiO2 
 PCOD8024170
Probable space group: P -1
;
_chemical_formula_sum "Si O2"
_cell_formula_units_Z 14
_cell_length_a 14.253469
_cell_length_b 13.605449
_cell_length_c 8.257360
_cell_angle_alpha 133.572607
_cell_angle_beta 31.721020
_cell_angle_gamma 133.916921
_cell_volume 585.285783
_symmetry_space_group_name_H-M "P -1"
_symmetry_group_IT_number 2
_symmetry_cell_setting 'triclinic'
loop_
_space_group_symop_operation_xyz
x,y,z
-x,-y,-z
loop_
_atom_site_type_symbol
_atom_site_label
_atom_site_fract_x
_atom_site_fract_y
_atom_site_fract_z
Si Si1 0.527420 0.919523 0.711599
Si Si2 0.827347 0.553179 0.279747
Si Si3 0.552727 0.636542 0.268127
Si Si4 0.810725 0.473697 0.851699
Si Si5 0.187555 0.213648 0.202372
Si Si6 0.292285 0.940556 0.802647
Si Si7 0.160843 0.817461 0.550201
O O1 0.576503 0.772285 0.506524
O O2 0.331131 0.886356 0.862472
O O3 0.707621 0.023561 0.480930
O O4 0.500000 0.000000 0.000000
O O5 0.659679 0.452229 0.512793
O O6 0.862738 0.709225 0.478681
O O7 0.806845 0.554554 0.117891
O O8 0.000000 0.500000 0.000000
O O9 0.669249 0.527872 0.014030
O O10 0.613538 0.700561 0.071709
O O11 0.747758 0.304279 0.785941
O O12 0.000000 0.500000 0.500000
O O13 0.036756 0.199341 0.262640
O O14 0.191823 0.064389 0.098110
O O15 0.157483 0.811344 0.746732
O O16 0.500000 0.000000 0.500000
#
# Coordination Sequence:
#
# PCOD8024170 Si02
#       7
#     2   2   2   2   2   2   2
#     4  11  26  46  72 106 149 193 250 301 360 438
#     4  12  27  47  72 109 150 188 252 308 369 434
#     4  12  26  46  74 108 147 198 243 301 375 436
#     4  12  26  47  74 110 147 196 241 306 365 441
#     4  12  24  46  74 109 146 194 242 308 363 440
#     4  10  23  42  72 101 139 197 238 290 362 433
#     4  11  23  47  71 102 153 184 248 290 370 428
#
# _framework density 23.919937000000001
#
# number of rings (size 3 to 8) (size 9 to 14) (size 15 to 20)
#    0.000    0.571    5.714    2.143    6.000    2.286 
#    0.000    0.714    0.000    0.000    0.000    0.000 
#    0.000    0.000    0.000    0.000    0.000    0.000 
#
# Total GULP energy -173467.514695 kJ/mol
# GULP energy per Si atom -12390.536764 kJ/mol
# Density = 2.386549 g / cm^3
# Si number density = 23.919937 Si / 1000 Ang^3
#
#
#
# Elastic Constant Matrix: (Units=GPa)
#
#
# Indices 1 2 3 4 5 6 
#
# 1 104.6831 30.3916 48.1432 12.0064 2.8737 20.9487
# 2 30.3916 77.0475 41.1768 18.9498 -21.1543 13.3008
# 3 48.1432 41.1768 141.5758 31.5030 -9.0118 14.0366
# 4 12.0064 18.9498 31.5030 50.6911 -1.0587 1.1357
# 5 2.8737 -21.1543 -9.0118 -1.0587 49.0193 17.4600
# 6 20.9487 13.3008 14.0366 1.1357 17.4600 33.8727
#
#
#
# Elastic Compliance Matrix: (Units=1/GPa)
#
#
# Indices 1 2 3 4 5 6 
#
# 1 0.012825 -0.002633 -0.003099 -0.000020 -0.000563 -0.005323
# 2 -0.002633 0.022997 -0.002173 -0.006013 0.014445 -0.013746
# 3 -0.003099 -0.002173 0.010114 -0.004653 0.001781 -0.002183
# 4 -0.000020 -0.006013 -0.004653 0.024629 -0.005090 0.006100
# 5 -0.000563 0.014445 0.001781 -0.005090 0.035501 -0.024191
# 6 -0.005323 -0.013746 -0.002183 0.006100 -0.024191 0.051382
#
#
# Mechanical properties :
#
#
# Convention : Reuss Voigt Hill
#
# Bulk Modulus (GPa) = 33.19345 62.52551 47.85948
# Shear Modulus (GPa) = 27.27760 40.28961 33.78360
#
# Velocity S-wave (km/s) = 3.38060 4.10854 3.76222
# Velocity P-wave (km/s) = 5.39861 6.97876 6.23891
#
# Compressibility (1/GPa) = 0.03012642
#
# Stress axis : x y z
#
# Youngs Moduli (GPa) = 77.97075 43.48397 98.86893
#
# Poissons Ratio (x) = 0.11451 0.30640
# Poissons Ratio (y) = 0.20533 0.21481
# Poissons Ratio (z) = 0.24163 0.09448
#
# Static dielectric constant tensor:
#      x y z
#    x 8.548450 -1.546630 0.934790 
#    y -1.546630 5.111930 -0.072330 
#    z 0.934790 -0.072330 4.598680 
# 
# 
# High freq. dielectric constant tensor:
#      x y z
#    x 1.947470 0.007040 -0.001520 
#    y 0.007040 1.945630 0.025570 
#    z -0.001520 0.025570 1.957860 
# 
# From -- ./inp_files/316003.got.cif
#   From: 2010.06.25/outbox.cif.g09.slc.cpg/sg2_159_cif.got.tgz:316003.got - 2010.06.27 13:26:56.
