data_PCOD8024819
_publ_section_title
;
Structure prediction by ZEFSAII (Michael W. Deem and Ramdas Pophale) SiO2 
 PCOD8024819
Probable space group: P -1
;
_chemical_formula_sum "Si O2"
_cell_formula_units_Z 12
_cell_length_a 9.510625
_cell_length_b 9.920243
_cell_length_c 11.054299
_cell_angle_alpha 140.481388
_cell_angle_beta 49.756098
_cell_angle_gamma 134.475249
_cell_volume 460.573286
_symmetry_space_group_name_H-M "P -1"
_symmetry_group_IT_number 2
_symmetry_cell_setting 'triclinic'
loop_
_space_group_symop_operation_xyz
x,y,z
-x,-y,-z
loop_
_atom_site_type_symbol
_atom_site_label
_atom_site_fract_x
_atom_site_fract_y
_atom_site_fract_z
Si Si1 0.555659 0.165698 0.969891
Si Si2 0.641173 0.770325 0.103292
Si Si3 0.015928 0.665480 0.216890
Si Si4 0.943851 0.595993 0.764427
Si Si5 0.328057 0.784819 0.518522
Si Si6 0.399140 0.388441 0.605123
O O1 0.383878 0.103376 0.918979
O O2 0.750942 0.144130 0.783751
O O3 0.593203 0.420157 0.169506
O O4 0.500000 0.000000 0.000000
O O5 0.600919 0.927368 0.344338
O O6 0.500000 0.500000 0.000000
O O7 0.867856 0.783704 0.993176
O O8 0.964202 0.510461 0.258921
O O9 0.845282 0.770433 0.382039
O O10 0.000000 0.500000 0.000000
O O11 0.739038 0.386059 0.677572
O O12 0.113969 0.728150 0.664369
O O13 0.484133 0.753010 0.502508
O O14 0.500000 0.500000 0.500000
#
# Coordination Sequence:
#
# PCOD8024819 Si02
#       6
#     2   2   2   2   2   2
#     4  11  24  45  70 106 151 199 250 302 373 451
#     4  12  25  46  73 106 148 194 248 309 377 443
#     4  10  23  43  74 104 149 198 244 305 374 449
#     4  11  23  48  72 110 149 191 256 302 379 451
#     4  11  25  44  76 109 144 200 245 313 372 448
#     4  11  21  44  71 105 150 188 250 310 370 445
#
# _framework density 26.054487000000002
#
# number of rings (size 3 to 8) (size 9 to 14) (size 15 to 20)
#    0.000    1.000    5.000    1.500    2.333    0.667 
#    0.000    5.000    0.000    0.000    0.000    0.000 
#    0.000    0.000    0.000    0.000    0.000    0.000 
#
# Total GULP energy -148728.020432 kJ/mol
# GULP energy per Si atom -12394.001703 kJ/mol
# Density = 2.599519 g / cm^3
# Si number density = 26.054487 Si / 1000 Ang^3
#
#
#
# Elastic Constant Matrix: (Units=GPa)
#
#
# Indices 1 2 3 4 5 6 
#
# 1 135.3068 17.2100 39.1068 0.6511 -30.1698 -6.1467
# 2 17.2100 78.6879 9.9877 3.9490 -14.4541 -9.3251
# 3 39.1068 9.9877 152.6751 -3.8074 -35.9077 5.7534
# 4 0.6511 3.9490 -3.8074 39.0121 -2.4496 -1.6859
# 5 -30.1698 -14.4541 -35.9077 -2.4496 44.7202 -11.1377
# 6 -6.1467 -9.3251 5.7534 -1.6859 -11.1377 47.3947
#
#
#
# Elastic Compliance Matrix: (Units=1/GPa)
#
#
# Indices 1 2 3 4 5 6 
#
# 1 0.009177 -0.000504 -0.001029 0.000278 0.005865 0.002604
# 2 -0.000504 0.014298 0.000308 -0.000894 0.005466 0.003963
# 3 -0.001029 0.000308 0.008269 0.001202 0.006217 0.000427
# 4 0.000278 -0.000894 0.001202 0.026054 0.002603 0.001253
# 5 0.005865 0.005466 0.006217 0.002603 0.035595 0.009539
# 6 0.002604 0.003963 0.000427 0.001253 0.009539 0.024451
#
#
# Mechanical properties :
#
#
# Convention : Reuss Voigt Hill
#
# Bulk Modulus (GPa) = 34.13784 55.47541 44.80662
# Shear Modulus (GPa) = 38.44329 46.24975 42.34652
#
# Velocity S-wave (km/s) = 3.84539 4.21778 4.03588
# Velocity P-wave (km/s) = 5.73122 6.71252 6.24119
#
# Compressibility (1/GPa) = 0.02929301
#
# Stress axis : x y z
#
# Youngs Moduli (GPa) = 108.96710 69.93810 120.92666
#
# Poissons Ratio (x) = 0.03528 0.12448
# Poissons Ratio (y) = 0.05496 -0.03722
# Poissons Ratio (z) = 0.11217 -0.02153
#
# Static dielectric constant tensor:
#      x y z
#    x 5.087110 0.322950 -0.138840 
#    y 0.322950 4.899780 -0.199930 
#    z -0.138840 -0.199930 5.397620 
# 
# 
# High freq. dielectric constant tensor:
#      x y z
#    x 2.050410 0.011390 -0.013860 
#    y 0.011390 2.049380 -0.026550 
#    z -0.013860 -0.026550 2.069430 
# 
# From -- ./inp_files/156051.got.cif
#   From: 2010.06.25/outbox.cif.g09.slc.cpg/sg2_79_cif.got.tgz:156051.got - 2010.06.27 13:26:56.
