data_PCOD8024269
_publ_section_title
;
Structure prediction by ZEFSAII (Michael W. Deem and Ramdas Pophale) SiO2 
 PCOD8024269
Probable space group: P -1
;
_chemical_formula_sum "Si O2"
_cell_formula_units_Z 16
_cell_length_a 15.803026
_cell_length_b 11.617245
_cell_length_c 15.940466
_cell_angle_alpha 122.754642
_cell_angle_beta 154.027653
_cell_angle_gamma 40.221929
_cell_volume 709.848107
_symmetry_space_group_name_H-M "P -1"
_symmetry_group_IT_number 2
_symmetry_cell_setting 'triclinic'
loop_
_space_group_symop_operation_xyz
x,y,z
-x,-y,-z
loop_
_atom_site_type_symbol
_atom_site_label
_atom_site_fract_x
_atom_site_fract_y
_atom_site_fract_z
Si Si1 0.116990 0.159634 0.146280
Si Si2 0.923489 0.648348 0.367986
Si Si3 0.799508 0.979518 0.292634
Si Si4 0.761029 0.246981 0.718651
Si Si5 0.274624 0.038943 0.425752
Si Si6 0.886862 0.328267 0.701713
Si Si7 0.237716 0.532973 0.767132
Si Si8 0.852587 0.576941 0.107408
O O1 0.410003 0.059149 0.323875
O O2 0.875052 0.406265 0.041675
O O3 0.188259 0.058881 0.259997
O O4 0.960971 0.134548 0.936059
O O5 0.780944 0.872490 0.306699
O O6 0.702362 0.650449 0.211873
O O7 0.047852 0.515242 0.339717
O O8 0.186512 0.538116 0.624163
O O9 0.920467 0.855528 0.265761
O O10 0.000000 0.000000 0.500000
O O11 0.476163 0.206757 0.077496
O O12 0.710868 0.121799 0.587504
O O13 0.937101 0.237132 0.801350
O O14 0.454263 0.487857 0.556877
O O15 0.051012 0.251229 0.361772
O O16 0.015230 0.414085 0.851383
O O17 0.500000 0.500000 0.000000
#
# Coordination Sequence:
#
# PCOD8024269 Si02
#       8
#     2   2   2   2   2   2   2   2
#     4  11  24  44  68  92 132 176 223 268 331 385
#     4  10  24  45  67 103 136 172 221 281 335 394
#     4  11  25  40  71 102 133 182 223 275 341 405
#     4  11  24  43  68  96 135 175 215 277 327 398
#     4  11  25  44  66  97 128 172 228 270 322 405
#     4  10  23  43  64 101 135 165 227 272 328 402
#     4  11  26  44  72 101 136 176 221 283 338 397
#     4  11  22  45  69  95 137 173 222 277 331 403
#
# _framework density 22.540033999999999
#
# number of rings (size 3 to 8) (size 9 to 14) (size 15 to 20)
#    0.000    1.250    2.500    2.625    3.500    7.500 
#    0.000    0.000    0.000    0.000    0.000    0.000 
#    0.000    0.000    0.000    0.000    0.000    0.000 
#
# Total GULP energy -198335.309491 kJ/mol
# GULP energy per Si atom -12395.956843 kJ/mol
# Density = 2.248873 g / cm^3
# Si number density = 22.540034 Si / 1000 Ang^3
#
#
#
# Elastic Constant Matrix: (Units=GPa)
#
#
# Indices 1 2 3 4 5 6 
#
# 1 93.0527 30.6375 33.2383 -3.2181 13.6104 5.5344
# 2 30.6375 94.9563 35.7169 -1.8696 14.0515 11.0123
# 3 33.2383 35.7169 87.1329 1.1689 9.6760 -3.7173
# 4 -3.2181 -1.8696 1.1689 38.3267 0.6519 8.6466
# 5 13.6104 14.0515 9.6760 0.6519 27.3872 4.6189
# 6 5.5344 11.0123 -3.7173 8.6466 4.6189 31.5235
#
#
#
# Elastic Compliance Matrix: (Units=1/GPa)
#
#
# Indices 1 2 3 4 5 6 
#
# 1 0.013616 -0.002013 -0.004034 0.001697 -0.004005 -0.002042
# 2 -0.002013 0.014208 -0.004887 0.001901 -0.003738 -0.005160
# 3 -0.004034 -0.004887 0.015460 -0.002167 -0.001757 0.005090
# 4 0.001697 0.001901 -0.002167 0.028423 -0.000214 -0.008982
# 5 -0.004005 -0.003738 -0.001757 -0.000214 0.041765 -0.004259
# 6 -0.002042 -0.005160 0.005090 -0.008982 -0.004259 0.037571
#
#
# Mechanical properties :
#
#
# Convention : Reuss Voigt Hill
#
# Bulk Modulus (GPa) = 46.69313 52.70305 49.69809
# Shear Modulus (GPa) = 27.77015 31.15076 29.46046
#
# Velocity S-wave (km/s) = 3.51385 3.72159 3.61921
# Velocity P-wave (km/s) = 6.10110 6.47299 6.28980
#
# Compressibility (1/GPa) = 0.02141643
#
# Stress axis : x y z
#
# Youngs Moduli (GPa) = 73.44167 70.38494 64.68309
#
# Poissons Ratio (x) = 0.14169 0.26094
# Poissons Ratio (y) = 0.14784 0.31608
# Poissons Ratio (z) = 0.29627 0.34394
#
# Static dielectric constant tensor:
#      x y z
#    x 4.095920 0.047530 0.101730 
#    y 0.047530 3.933870 0.169850 
#    z 0.101730 0.169850 3.926470 
# 
# 
# High freq. dielectric constant tensor:
#      x y z
#    x 1.896330 0.014810 0.002130 
#    y 0.014810 1.894090 0.006510 
#    z 0.002130 0.006510 1.877900 
# 
# From -- ./inp_files/532645.got.cif
#   From: 2010.06.25/outbox.cif.g09.slc.cpg/sg2_267_cif.got.tgz:532645.got - 2010.06.27 13:26:56.
