data_PCOD8024451
_publ_section_title
;
Structure prediction by ZEFSAII (Michael W. Deem and Ramdas Pophale) SiO2 
 PCOD8024451
Probable space group: P -1
;
_chemical_formula_sum "Si O2"
_cell_formula_units_Z 14
_cell_length_a 5.308274
_cell_length_b 12.956526
_cell_length_c 10.528473
_cell_angle_alpha 57.706146
_cell_angle_beta 116.399638
_cell_angle_gamma 93.001479
_cell_volume 531.622516
_symmetry_space_group_name_H-M "P -1"
_symmetry_group_IT_number 2
_symmetry_cell_setting 'triclinic'
loop_
_space_group_symop_operation_xyz
x,y,z
-x,-y,-z
loop_
_atom_site_type_symbol
_atom_site_label
_atom_site_fract_x
_atom_site_fract_y
_atom_site_fract_z
Si Si1 0.266695 0.547935 0.183177
Si Si2 0.677156 0.639430 0.885649
Si Si3 0.353869 0.169615 0.447345
Si Si4 0.135722 0.244456 0.749751
Si Si5 0.484144 0.356000 0.563839
Si Si6 0.991941 0.942819 0.364830
Si Si7 0.630593 0.213652 0.058996
O O1 0.443393 0.453480 0.175716
O O2 0.389909 0.497744 0.383887
O O3 0.285619 0.690822 0.084812
O O4 0.926742 0.551807 0.086458
O O5 0.796469 0.743185 0.761886
O O6 0.416164 0.716428 0.861560
O O7 0.412934 0.264189 0.503123
O O8 0.140928 0.088031 0.509052
O O9 0.661622 0.079764 0.531857
O O10 0.281899 0.345984 0.645825
O O11 0.107745 0.135360 0.718526
O O12 0.828981 0.314452 0.695132
O O13 0.337582 0.183273 0.955102
O O14 0.881042 0.088308 0.209603
#
# Coordination Sequence:
#
# PCOD8024451 Si02
#       7
#     2   2   2   2   2   2   2
#     4  10  24  44  65  92 128 170 216 268 319 375
#     4  10  24  44  65  92 128 170 216 268 319 375
#     4   9  21  43  68  91 126 172 215 260 318 376
#     4  10  23  43  67  96 130 169 210 263 319 380
#     4   9  21  43  68  91 126 172 215 260 318 376
#     4  10  23  43  67  96 130 169 210 263 319 380
#     4  12  26  38  66  96 132 166 214 262 322 384
#
# _framework density 26.334478000000001
#
# number of rings (size 3 to 8) (size 9 to 14) (size 15 to 20)
#    0.000    2.000    0.000    0.857    8.000    2.286 
#    0.000    4.286    0.000    0.000    0.000    0.000 
#    0.000    0.000    0.000    0.000    0.000    0.000 
#
# Total GULP energy -173641.664758 kJ/mol
# GULP energy per Si atom -12402.976054 kJ/mol
# Density = 2.627454 g / cm^3
# Si number density = 26.334478 Si / 1000 Ang^3
#
#
#
# Elastic Constant Matrix: (Units=GPa)
#
#
# Indices 1 2 3 4 5 6 
#
# 1 134.7278 44.1707 32.1786 -16.5399 -6.3754 -6.4848
# 2 44.1707 93.7012 57.7199 -18.8800 -3.5816 -6.4772
# 3 32.1786 57.7199 154.8884 -8.4489 1.2534 -4.1987
# 4 -16.5399 -18.8800 -8.4489 53.2174 1.8085 -3.4858
# 5 -6.3754 -3.5816 1.2534 1.8085 30.8681 -10.5137
# 6 -6.4848 -6.4772 -4.1987 -3.4858 -10.5137 39.9944
#
#
#
# Elastic Compliance Matrix: (Units=1/GPa)
#
#
# Indices 1 2 3 4 5 6 
#
# 1 0.009025 -0.003483 -0.000469 0.001527 0.001894 0.001481
# 2 -0.003483 0.016571 -0.005179 0.004067 0.002013 0.002459
# 3 -0.000469 -0.005179 0.008448 -0.000628 -0.001134 -0.000381
# 4 0.001527 0.004067 -0.000628 0.020773 0.000548 0.002795
# 5 0.001894 0.002013 -0.001134 0.000548 0.036493 0.010155
# 6 0.001481 0.002459 -0.000381 0.002795 0.010155 0.028515
#
#
# Mechanical properties :
#
#
# Convention : Reuss Voigt Hill
#
# Bulk Modulus (GPa) = 63.36495 72.38397 67.87446
# Shear Modulus (GPa) = 34.88010 41.43253 38.15632
#
# Velocity S-wave (km/s) = 3.64332 3.97081 3.81059
# Velocity P-wave (km/s) = 6.46624 6.96916 6.72240
#
# Compressibility (1/GPa) = 0.01578160
#
# Stress axis : x y z
#
# Youngs Moduli (GPa) = 110.80784 60.34667 118.36567
#
# Poissons Ratio (x) = 0.21018 0.05550
# Poissons Ratio (y) = 0.38593 0.61307
# Poissons Ratio (z) = 0.05195 0.31256
#
# Static dielectric constant tensor:
#      x y z
#    x 4.562210 -0.028650 -0.111860 
#    y -0.028650 5.207830 0.178810 
#    z -0.111860 0.178810 5.097470 
# 
# 
# High freq. dielectric constant tensor:
#      x y z
#    x 2.042260 -0.003690 0.002110 
#    y -0.003690 2.099120 0.014180 
#    z 0.002110 0.014180 2.064450 
# 
# From -- ./inp_files/76905.got.cif
#   From: 2010.06.25/outbox.cif.g09.slc.cpg/sg2_39_cif.got.tgz:76905.got - 2010.06.27 13:26:56.
