data_PCOD8024873
_publ_section_title
;
Structure prediction by ZEFSAII (Michael W. Deem and Ramdas Pophale) SiO2 
 PCOD8024873
Probable space group: P -1
;
_chemical_formula_sum "Si O2"
_cell_formula_units_Z 16
_cell_length_a 13.958420
_cell_length_b 9.280313
_cell_length_c 9.335741
_cell_angle_alpha 137.394099
_cell_angle_beta 66.587393
_cell_angle_gamma 104.292645
_cell_volume 749.235197
_symmetry_space_group_name_H-M "P -1"
_symmetry_group_IT_number 2
_symmetry_cell_setting 'triclinic'
loop_
_space_group_symop_operation_xyz
x,y,z
-x,-y,-z
loop_
_atom_site_type_symbol
_atom_site_label
_atom_site_fract_x
_atom_site_fract_y
_atom_site_fract_z
Si Si1 0.444211 0.200634 0.104909
Si Si2 0.721967 0.301187 0.811616
Si Si3 0.754509 0.620413 0.503125
Si Si4 0.963639 0.860800 0.791984
Si Si5 0.110395 0.007159 0.360724
Si Si6 0.457926 0.983472 0.354532
Si Si7 0.150144 0.539127 0.396713
Si Si8 0.397558 0.464606 0.701665
O O1 0.322917 0.226202 0.238228
O O2 0.500435 0.404387 0.280303
O O3 0.500000 0.000000 0.000000
O O4 0.457959 0.160107 0.896415
O O5 0.814846 0.191980 0.773844
O O6 0.758779 0.426553 0.743949
O O7 0.652301 0.120535 0.659673
O O8 0.654403 0.478258 0.072716
O O9 0.813284 0.449948 0.451047
O O10 0.691351 0.484640 0.328914
O O11 0.835541 0.768248 0.482661
O O12 0.060077 0.725491 0.560032
O O13 0.886713 0.695969 0.783577
O O14 0.908274 0.012420 0.813673
O O15 0.000000 0.000000 0.000000
O O16 0.000000 0.000000 0.500000
O O17 0.436778 0.219456 0.477563
O O18 0.500000 0.000000 0.500000
#
# Coordination Sequence:
#
# PCOD8024873 Si02
#       8
#     2   2   2   2   2   2   2   2
#     4  11  23  43  65  95 133 169 222 273 324 398
#     4  11  24  43  66  98 133 170 225 268 328 397
#     4  11  23  42  66  96 132 172 218 271 332 388
#     4  10  23  44  64  91 129 169 222 268 332 382
#     4  11  22  45  68  91 134 175 212 275 320 393
#     4  11  26  43  66  97 135 173 219 272 330 395
#     4  10  24  41  62  95 130 165 216 280 320 386
#     4  11  24  42  67  96 130 175 223 267 336 395
#
# _framework density 21.355111000000001
#
# number of rings (size 3 to 8) (size 9 to 14) (size 15 to 20)
#    0.000    1.250    3.750    1.125    5.250    3.000 
#    2.250    1.250    0.000    0.000    0.000    0.000 
#    0.000    0.000    0.000    0.000    0.000    0.000 
#
# Total GULP energy -198410.534177 kJ/mol
# GULP energy per Si atom -12400.658386 kJ/mol
# Density = 2.130651 g / cm^3
# Si number density = 21.355111 Si / 1000 Ang^3
#
#
#
# Elastic Constant Matrix: (Units=GPa)
#
#
# Indices 1 2 3 4 5 6 
#
# 1 99.8521 35.5163 36.7643 -1.3765 16.9440 9.9920
# 2 35.5163 110.4785 36.9239 -0.2656 6.1033 19.8984
# 3 36.7643 36.9239 88.7813 3.9329 28.7752 13.3049
# 4 -1.3765 -0.2656 3.9329 24.0240 -1.1844 -0.6155
# 5 16.9440 6.1033 28.7752 -1.1844 42.4829 -8.1464
# 6 9.9920 19.8984 13.3049 -0.6155 -8.1464 42.0231
#
#
#
# Elastic Compliance Matrix: (Units=1/GPa)
#
#
# Indices 1 2 3 4 5 6 
#
# 1 0.012726 -0.002660 -0.003099 0.001034 -0.002818 -0.001316
# 2 -0.002660 0.011693 -0.003646 0.000543 0.001193 -0.003511
# 3 -0.003099 -0.003646 0.019234 -0.004142 -0.012558 -0.006122
# 4 0.001034 0.000543 -0.004142 0.042618 0.003924 0.002194
# 5 -0.002818 0.001193 -0.012558 0.003924 0.035209 0.010964
# 6 -0.001316 -0.003511 -0.006122 0.002194 0.010964 0.029868
#
#
# Mechanical properties :
#
#
# Convention : Reuss Voigt Hill
#
# Bulk Modulus (GPa) = 40.25152 57.50234 48.87693
# Shear Modulus (GPa) = 28.02077 34.36648 31.19363
#
# Velocity S-wave (km/s) = 3.62627 4.01594 3.82607
# Velocity P-wave (km/s) = 6.03512 6.96340 6.51581
#
# Compressibility (1/GPa) = 0.02484378
#
# Stress axis : x y z
#
# Youngs Moduli (GPa) = 78.57838 85.52101 51.99109
#
# Poissons Ratio (x) = 0.22751 0.16110
# Poissons Ratio (y) = 0.20904 0.18955
# Poissons Ratio (z) = 0.24348 0.31180
#
# Static dielectric constant tensor:
#      x y z
#    x 3.978780 -0.046170 -0.037000 
#    y -0.046170 3.980560 -0.225560 
#    z -0.037000 -0.225560 4.075170 
# 
# 
# High freq. dielectric constant tensor:
#      x y z
#    x 1.850300 0.000530 0.005420 
#    y 0.000530 1.846750 -0.006010 
#    z 0.005420 -0.006010 1.824980 
# 
# From -- ./inp_files/47810.got.cif
#   From: 2010.06.25/outbox.cif.g09.slc.cpg/sg2_24_cif.got.tgz:47810.got - 2010.06.27 13:26:56.
