data_PCOD8024062
_publ_section_title
;
Structure prediction by ZEFSAII (Michael W. Deem and Ramdas Pophale) SiO2 
 PCOD8024062
Probable space group: P -1
;
_chemical_formula_sum "Si O2"
_cell_formula_units_Z 16
_cell_length_a 14.248772
_cell_length_b 14.564131
_cell_length_c 8.788071
_cell_angle_alpha 90.520354
_cell_angle_beta 108.476959
_cell_angle_gamma 29.427888
_cell_volume 696.584881
_symmetry_space_group_name_H-M "P -1"
_symmetry_group_IT_number 2
_symmetry_cell_setting 'triclinic'
loop_
_space_group_symop_operation_xyz
x,y,z
-x,-y,-z
loop_
_atom_site_type_symbol
_atom_site_label
_atom_site_fract_x
_atom_site_fract_y
_atom_site_fract_z
Si Si1 0.059815 0.722048 0.194357
Si Si2 0.742851 0.741017 0.448710
Si Si3 0.476999 0.721263 0.409676
Si Si4 0.487494 0.877175 0.598130
Si Si5 0.187169 0.803098 0.390737
Si Si6 0.515980 0.182187 0.877644
Si Si7 0.660929 0.309359 0.205538
Si Si8 0.338847 0.406836 0.076132
O O1 0.236131 0.513072 0.392673
O O2 0.136536 0.762158 0.252627
O O3 0.105057 0.655300 0.038356
O O4 0.775788 0.946782 0.094449
O O5 0.703986 0.735649 0.599800
O O6 0.544096 0.861154 0.238666
O O7 0.000000 0.500000 0.500000
O O8 0.701354 0.885231 0.436725
O O9 0.341255 0.920771 0.431679
O O10 0.378082 0.706047 0.401071
O O11 0.453453 0.757387 0.219248
O O12 0.603134 0.734280 0.803772
O O13 0.311652 0.665442 0.613549
O O14 0.936748 0.071659 0.282728
O O15 0.301744 0.397737 0.887171
O O16 0.561895 0.290660 0.183899
O O17 0.500000 0.500000 0.000000
#
# Coordination Sequence:
#
# PCOD8024062 Si02
#       8
#     2   2   2   2   2   2   2   2
#     4  11  24  43  67  97 144 184 235 280 347 407
#     4  10  23  47  76 104 133 183 231 292 369 425
#     4  10  23  42  69  98 138 192 228 286 350 407
#     4   9  21  45  70 100 142 171 233 289 351 425
#     4  11  23  43  69 100 142 197 237 284 342 409
#     4  11  26  44  67 106 136 179 237 287 350 420
#     4  11  25  42  66 106 144 189 245 288 335 404
#     4  11  24  44  65 104 143 184 233 288 347 404
#
# _framework density 22.969204000000001
#
# number of rings (size 3 to 8) (size 9 to 14) (size 15 to 20)
#    0.000    1.500    3.750    0.375    3.500    7.000 
#    0.000    4.375    0.000    0.000    0.000    0.000 
#    0.000    0.000    0.000    0.000    0.000    0.000 
#
# Total GULP energy -198271.809743 kJ/mol
# GULP energy per Si atom -12391.988109 kJ/mol
# Density = 2.291692 g / cm^3
# Si number density = 22.969204 Si / 1000 Ang^3
#
#
#
# Elastic Constant Matrix: (Units=GPa)
#
#
# Indices 1 2 3 4 5 6 
#
# 1 91.3789 42.1969 35.6058 -0.0128 -10.0390 16.9473
# 2 42.1969 147.4392 45.8492 16.2078 -8.3741 7.7593
# 3 35.6058 45.8492 102.1946 -0.4601 -10.8196 7.0567
# 4 -0.0128 16.2078 -0.4601 40.4912 -6.4634 7.0140
# 5 -10.0390 -8.3741 -10.8196 -6.4634 31.2092 2.2114
# 6 16.9473 7.7593 7.0567 7.0140 2.2114 34.7459
#
#
#
# Elastic Compliance Matrix: (Units=1/GPa)
#
#
# Indices 1 2 3 4 5 6 
#
# 1 0.015354 -0.003208 -0.002962 0.003152 0.004205 -0.007075
# 2 -0.003208 0.008998 -0.003065 -0.003900 -0.000559 0.001001
# 3 -0.002962 -0.003065 0.012600 0.002042 0.003090 -0.001039
# 4 0.003152 -0.003900 0.002042 0.028690 0.007136 -0.007327
# 5 0.004205 -0.000559 0.003090 0.007136 0.036240 -0.006301
# 6 -0.007075 0.001001 -0.001039 -0.007327 -0.006301 0.034099
#
#
# Mechanical properties :
#
#
# Convention : Reuss Voigt Hill
#
# Bulk Modulus (GPa) = 54.10871 65.36851 59.73861
# Shear Modulus (GPa) = 31.13082 35.77999 33.45540
#
# Velocity S-wave (km/s) = 3.68547 3.95110 3.82060
# Velocity P-wave (km/s) = 6.45898 7.02395 6.74738
#
# Compressibility (1/GPa) = 0.01848131
#
# Stress axis : x y z
#
# Youngs Moduli (GPa) = 65.13092 111.13389 79.36272
#
# Poissons Ratio (x) = 0.35657 0.23508
# Poissons Ratio (y) = 0.20897 0.24324
# Poissons Ratio (z) = 0.19292 0.34062
#
# Static dielectric constant tensor:
#      x y z
#    x 4.061840 0.078540 -0.013080 
#    y 0.078540 4.417300 0.243390 
#    z -0.013080 0.243390 4.032360 
# 
# 
# High freq. dielectric constant tensor:
#      x y z
#    x 1.899670 0.008440 -0.004100 
#    y 0.008440 1.925690 0.017520 
#    z -0.004100 0.017520 1.888420 
# 
# From -- ./inp_files/315284.got.cif
#   From: 2010.06.25/outbox.cif.g09.slc.cpg/sg2_158_cif.got.tgz:315284.got - 2010.06.27 13:26:56.
