data_PCOD8024277
_publ_section_title
;
Structure prediction by ZEFSAII (Michael W. Deem and Ramdas Pophale) SiO2 
 PCOD8024277
Probable space group: P -1
;
_chemical_formula_sum "Si O2"
_cell_formula_units_Z 12
_cell_length_a 9.115983
_cell_length_b 10.167351
_cell_length_c 12.157511
_cell_angle_alpha 132.204267
_cell_angle_beta 115.646019
_cell_angle_gamma 44.766237
_cell_volume 585.700728
_symmetry_space_group_name_H-M "P -1"
_symmetry_group_IT_number 2
_symmetry_cell_setting 'triclinic'
loop_
_space_group_symop_operation_xyz
x,y,z
-x,-y,-z
loop_
_atom_site_type_symbol
_atom_site_label
_atom_site_fract_x
_atom_site_fract_y
_atom_site_fract_z
Si Si1 0.518145 0.621164 0.779770
Si Si2 0.170392 0.503367 0.997427
Si Si3 0.109614 0.059701 0.987867
Si Si4 0.239252 0.259161 0.670266
Si Si5 0.454067 0.262774 0.537162
Si Si6 0.227689 0.339690 0.289058
O O1 0.522138 0.416923 0.624708
O O2 0.598229 0.688270 0.745182
O O3 0.282457 0.839177 0.850061
O O4 0.658309 0.543713 0.889720
O O5 0.287657 0.305521 0.832290
O O6 0.000000 0.500000 0.000000
O O7 0.060452 0.748072 0.044230
O O8 0.212286 0.145648 0.140684
O O9 0.000000 0.000000 0.000000
O O10 0.337895 0.326777 0.652070
O O11 0.991552 0.409689 0.657351
O O12 0.336238 0.998021 0.543281
O O13 0.293161 0.304420 0.416842
#
# Coordination Sequence:
#
# PCOD8024277 Si02
#       6
#     2   2   2   2   2   2
#     4  12  24  40  68 100 128 173 218 269 329 384
#     4  11  23  44  69  94 130 170 218 277 319 378
#     4  11  25  42  69 100 128 172 223 270 323 384
#     4  10  23  43  64  90 130 176 214 263 328 378
#     4  11  25  40  64  95 134 172 212 263 327 396
#     4  11  23  42  64  92 133 171 214 269 321 386
#
# _framework density 20.488278000000001
#
# number of rings (size 3 to 8) (size 9 to 14) (size 15 to 20)
#    0.000    1.000    3.333    4.500    2.333    7.333 
#    0.000    0.000    0.000    0.000    0.000    0.000 
#    0.000    0.000    0.000    0.000    0.000    0.000 
#
# Total GULP energy -148892.106384 kJ/mol
# GULP energy per Si atom -12407.675532 kJ/mol
# Density = 2.044165 g / cm^3
# Si number density = 20.488278 Si / 1000 Ang^3
#
#
#
# Elastic Constant Matrix: (Units=GPa)
#
#
# Indices 1 2 3 4 5 6 
#
# 1 112.5168 25.2963 33.7218 23.3031 -8.8723 20.8977
# 2 25.2963 56.9901 26.2400 9.7840 -11.6846 14.7558
# 3 33.7218 26.2400 95.3211 7.2563 -3.6008 11.6608
# 4 23.3031 9.7840 7.2563 41.3008 1.2911 -1.8758
# 5 -8.8723 -11.6846 -3.6008 1.2911 35.6265 6.6750
# 6 20.8977 14.7558 11.6608 -1.8758 6.6750 37.2969
#
#
#
# Elastic Compliance Matrix: (Units=1/GPa)
#
#
# Indices 1 2 3 4 5 6 
#
# 1 0.013081 -0.000378 -0.002890 -0.007262 0.004500 -0.007447
# 2 -0.000378 0.025732 -0.004837 -0.005826 0.010044 -0.010547
# 3 -0.002890 -0.004837 0.012798 0.000546 -0.000982 -0.000265
# 4 -0.007262 -0.005826 0.000546 0.030198 -0.006420 0.008871
# 5 0.004500 0.010044 -0.000982 -0.006420 0.035011 -0.012776
# 6 -0.007447 -0.010547 -0.000265 0.008871 -0.012776 0.037973
#
#
# Mechanical properties :
#
#
# Convention : Reuss Voigt Hill
#
# Bulk Modulus (GPa) = 28.24714 48.37158 38.30936
# Shear Modulus (GPa) = 27.35210 34.81617 31.08413
#
# Velocity S-wave (km/s) = 3.65775 4.12675 3.89931
# Velocity P-wave (km/s) = 5.62634 6.80936 6.24593
#
# Compressibility (1/GPa) = 0.03540181
#
# Stress axis : x y z
#
# Youngs Moduli (GPa) = 76.44951 38.86236 78.13524
#
# Poissons Ratio (x) = 0.01470 0.22578
# Poissons Ratio (y) = 0.02891 0.37791
# Poissons Ratio (z) = 0.22091 0.18796
#
# Static dielectric constant tensor:
#      x y z
#    x 3.681880 0.059090 -0.203540 
#    y 0.059090 3.814400 0.056110 
#    z -0.203540 0.056110 3.801910 
# 
# 
# High freq. dielectric constant tensor:
#      x y z
#    x 1.807380 0.003140 -0.011760 
#    y 0.003140 1.814000 0.001150 
#    z -0.011760 0.001150 1.809550 
# 
# From -- ./inp_files/148537.got.cif
#   From: 2010.06.25/outbox.cif.g09.slc.cpg/sg2_75_cif.got.tgz:148537.got - 2010.06.27 13:26:56.
