data_PCOD8024346
_publ_section_title
;
Structure prediction by ZEFSAII (Michael W. Deem and Ramdas Pophale) SiO2 
 PCOD8024346
Probable space group: P -1
;
_chemical_formula_sum "Si O2"
_cell_formula_units_Z 14
_cell_length_a 15.038064
_cell_length_b 14.453121
_cell_length_c 8.580015
_cell_angle_alpha 71.308092
_cell_angle_beta 90.341681
_cell_angle_gamma 151.668348
_cell_volume 661.539950
_symmetry_space_group_name_H-M "P -1"
_symmetry_group_IT_number 2
_symmetry_cell_setting 'triclinic'
loop_
_space_group_symop_operation_xyz
x,y,z
-x,-y,-z
loop_
_atom_site_type_symbol
_atom_site_label
_atom_site_fract_x
_atom_site_fract_y
_atom_site_fract_z
Si Si1 0.733541 0.866797 0.324129
Si Si2 0.473899 0.153304 0.276840
Si Si3 0.526776 0.533038 0.231859
Si Si4 0.277465 0.400004 0.057069
Si Si5 0.495099 0.160687 0.634095
Si Si6 0.316004 0.794902 0.971111
Si Si7 0.036730 0.443518 0.424652
O O1 0.693898 0.756723 0.236330
O O2 0.630141 0.711737 0.561076
O O3 0.605085 0.838472 0.310237
O O4 0.011493 0.169508 0.186078
O O5 0.548773 0.211895 0.423862
O O6 0.605968 0.209522 0.142579
O O7 0.542819 0.330761 0.127452
O O8 0.191343 0.857937 0.411997
O O9 0.347602 0.428551 0.210386
O O10 0.701672 0.664642 0.035058
O O11 0.742418 0.394853 0.599333
O O12 0.299377 0.878855 0.828989
O O13 0.073086 0.516531 0.205886
O O14 0.500000 0.000000 0.000000
O O15 0.000000 0.500000 0.500000
#
# Coordination Sequence:
#
# PCOD8024346 Si02
#       7
#     2   2   2   2   2   2   2
#     4  11  24  46  69 100 136 171 225 276 335 398
#     4  12  25  44  68 101 137 175 229 274 331 401
#     4  10  24  47  69  98 133 175 223 276 338 399
#     4  11  25  44  70 101 133 175 223 274 340 394
#     4  11  25  44  67 103 134 177 229 272 333 399
#     4  10  23  43  65  97 132 179 221 267 339 390
#     4  11  25  46  68  94 142 178 223 276 329 398
#
# _framework density 21.162744
#
# number of rings (size 3 to 8) (size 9 to 14) (size 15 to 20)
#    0.000    1.143    4.286    1.286    6.000    2.857 
#   10.286    0.000    0.000    0.000    0.000    0.000 
#    0.000    0.000    0.000    0.000    0.000    0.000 
#
# Total GULP energy -173648.491862 kJ/mol
# GULP energy per Si atom -12403.463704 kJ/mol
# Density = 2.111458 g / cm^3
# Si number density = 21.162744 Si / 1000 Ang^3
#
#
#
# Elastic Constant Matrix: (Units=GPa)
#
#
# Indices 1 2 3 4 5 6 
#
# 1 130.1558 26.7556 55.7372 -13.4240 19.8010 5.0839
# 2 26.7556 64.0943 31.1475 -21.2486 9.7849 5.2480
# 3 55.7372 31.1475 89.6594 -7.3928 0.9483 13.6156
# 4 -13.4240 -21.2486 -7.3928 33.4484 6.0861 -6.6046
# 5 19.8010 9.7849 0.9483 6.0861 30.0125 6.9664
# 6 5.0839 5.2480 13.6156 -6.6046 6.9664 30.7665
#
#
#
# Elastic Compliance Matrix: (Units=1/GPa)
#
#
# Indices 1 2 3 4 5 6 
#
# 1 0.014056 0.003786 -0.010130 0.009617 -0.013688 0.006678
# 2 0.003786 0.029302 -0.011781 0.022538 -0.018236 0.008557
# 3 -0.010130 -0.011781 0.022251 -0.011749 0.015009 -0.012084
# 4 0.009617 0.022538 -0.011749 0.054176 -0.028448 0.017837
# 5 -0.013688 -0.018236 0.015009 -0.028448 0.058371 -0.020593
# 6 0.006678 0.008557 -0.012084 0.017837 -0.020593 0.043780
#
#
# Mechanical properties :
#
#
# Convention : Reuss Voigt Hill
#
# Bulk Modulus (GPa) = 34.06111 56.79889 45.43000
# Shear Modulus (GPa) = 18.65871 30.19675 24.42773
#
# Velocity S-wave (km/s) = 2.97253 3.78151 3.40116
# Velocity P-wave (km/s) = 5.28309 6.77966 6.07761
#
# Compressibility (1/GPa) = 0.02935900
#
# Stress axis : x y z
#
# Youngs Moduli (GPa) = 71.14272 34.12755 44.94164
#
# Poissons Ratio (x) = -0.12922 0.45525
# Poissons Ratio (y) = -0.26937 0.52948
# Poissons Ratio (z) = 0.72067 0.40207
#
# Static dielectric constant tensor:
#      x y z
#    x 4.006410 -0.029100 -0.091470 
#    y -0.029100 3.884010 0.122970 
#    z -0.091470 0.122970 4.716970 
# 
# 
# High freq. dielectric constant tensor:
#      x y z
#    x 1.834340 -0.006920 0.004290 
#    y -0.006920 1.831650 0.008280 
#    z 0.004290 0.008280 1.846580 
# 
# From -- ./inp_files/314946.got.cif
#   From: 2010.06.25/outbox.cif.g09.slc.cpg/sg2_158_cif.got.tgz:314946.got - 2010.06.27 13:26:56.
