data_PCOD8024962
_publ_section_title
;
Structure prediction by ZEFSAII (Michael W. Deem and Ramdas Pophale) SiO2 
 PCOD8024962
Probable space group: P -1
;
_chemical_formula_sum "Si O2"
_cell_formula_units_Z 16
_cell_length_a 9.068932
_cell_length_b 14.118906
_cell_length_c 9.528715
_cell_angle_alpha 111.496669
_cell_angle_beta 140.200570
_cell_angle_gamma 85.507197
_cell_volume 683.052457
_symmetry_space_group_name_H-M "P -1"
_symmetry_group_IT_number 2
_symmetry_cell_setting 'triclinic'
loop_
_space_group_symop_operation_xyz
x,y,z
-x,-y,-z
loop_
_atom_site_type_symbol
_atom_site_label
_atom_site_fract_x
_atom_site_fract_y
_atom_site_fract_z
Si Si1 0.936900 0.852296 0.076854
Si Si2 0.152646 0.979271 0.729207
Si Si3 0.507105 0.315730 0.381261
Si Si4 0.355705 0.541181 0.695890
Si Si5 0.136894 0.883851 0.941801
Si Si6 0.753485 0.449967 0.880154
Si Si7 0.593501 0.092170 0.355836
Si Si8 0.135439 0.645127 0.815484
O O1 0.968363 0.885381 0.953388
O O2 0.183163 0.890120 0.363619
O O3 0.753815 0.909886 0.047655
O O4 0.781347 0.723345 0.898763
O O5 0.355220 0.938107 0.783251
O O6 0.012101 0.893447 0.703542
O O7 0.000000 0.000000 0.500000
O O8 0.676873 0.392142 0.428928
O O9 0.536400 0.381283 0.581493
O O10 0.562073 0.207650 0.397855
O O11 0.629298 0.533110 0.900117
O O12 0.330643 0.611284 0.848254
O O13 0.140580 0.424221 0.472858
O O14 0.383385 0.985996 0.201787
O O15 0.192361 0.772517 0.914243
O O16 0.814234 0.375465 0.998827
O O17 0.000000 0.500000 0.000000
#
# Coordination Sequence:
#
# PCOD8024962 Si02
#       8
#     2   2   2   2   2   2   2   2
#     4  11  25  42  67 105 143 189 231 287 358 425
#     4  10  23  44  66  98 144 188 231 279 348 428
#     4  12  25  43  77  99 142 189 234 295 364 424
#     4  11  26  48  73 104 143 189 244 303 356 430
#     4  12  23  45  72 102 151 180 236 300 348 434
#     4  12  26  47  72 106 142 187 244 301 358 429
#     4  11  25  44  69 105 142 187 236 286 360 433
#     4  11  26  48  74 106 144 191 242 298 367 419
#
# _framework density 23.424263
#
# number of rings (size 3 to 8) (size 9 to 14) (size 15 to 20)
#    0.000    0.750    2.500    4.125    5.250    0.000 
#    6.750    0.000    0.000    0.000    0.000    0.000 
#    0.000    0.000    0.000    0.000    0.000    0.000 
#
# Total GULP energy -198218.761017 kJ/mol
# GULP energy per Si atom -12388.672564 kJ/mol
# Density = 2.337095 g / cm^3
# Si number density = 23.424263 Si / 1000 Ang^3
#
#
#
# Elastic Constant Matrix: (Units=GPa)
#
#
# Indices 1 2 3 4 5 6 
#
# 1 133.5593 28.7245 31.8416 -9.7223 -10.8994 -2.0688
# 2 28.7245 129.5060 30.8097 -3.9915 -3.2073 3.8412
# 3 31.8416 30.8097 95.0903 -1.2860 -10.2304 0.9872
# 4 -9.7223 -3.9915 -1.2860 33.4860 7.6203 -9.7077
# 5 -10.8994 -3.2073 -10.2304 7.6203 36.9248 -9.8538
# 6 -2.0688 3.8412 0.9872 -9.7077 -9.8538 35.7424
#
#
#
# Elastic Compliance Matrix: (Units=1/GPa)
#
#
# Indices 1 2 3 4 5 6 
#
# 1 0.008662 -0.001319 -0.002265 0.002396 0.001816 0.001857
# 2 -0.001319 0.008612 -0.002404 0.000410 -0.000660 -0.001006
# 3 -0.002265 -0.002404 0.012341 -0.001031 0.002831 0.000287
# 4 0.002396 0.000410 -0.001031 0.033920 -0.004374 0.008130
# 5 0.001816 -0.000660 0.002831 -0.004374 0.031257 0.007527
# 6 0.001857 -0.001006 0.000287 0.008130 0.007527 0.032469
#
#
# Mechanical properties :
#
#
# Convention : Reuss Voigt Hill
#
# Bulk Modulus (GPa) = 56.68668 60.10080 58.39374
# Shear Modulus (GPa) = 34.45506 39.01595 36.73551
#
# Velocity S-wave (km/s) = 3.83941 4.08563 3.96443
# Velocity P-wave (km/s) = 6.62626 6.92602 6.77779
#
# Compressibility (1/GPa) = 0.01764083
#
# Stress axis : x y z
#
# Youngs Moduli (GPa) = 115.44325 116.11500 81.02897
#
# Poissons Ratio (x) = 0.15313 0.18352
# Poissons Ratio (y) = 0.15224 0.19478
# Poissons Ratio (z) = 0.26146 0.27912
#
# Static dielectric constant tensor:
#      x y z
#    x 4.684090 -0.089400 -0.160310 
#    y -0.089400 4.335680 -0.051480 
#    z -0.160310 -0.051480 4.670630 
# 
# 
# High freq. dielectric constant tensor:
#      x y z
#    x 1.944690 -0.004990 -0.016520 
#    y -0.004990 1.934590 -0.003610 
#    z -0.016520 -0.003610 1.931340 
# 
# From -- ./inp_files/208556.got.cif
#   From: 2010.06.25/outbox.cif.g09.slc.cpg/sg2_105_cif.got.tgz:208556.got - 2010.06.27 13:26:56.
