data_PCOD8024587
_publ_section_title
;
Structure prediction by ZEFSAII (Michael W. Deem and Ramdas Pophale) SiO2 
 PCOD8024587
Probable space group: P -1
;
_chemical_formula_sum "Si O2"
_cell_formula_units_Z 12
_cell_length_a 11.883937
_cell_length_b 15.734098
_cell_length_c 14.594100
_cell_angle_alpha 151.812313
_cell_angle_beta 150.873224
_cell_angle_gamma 26.938301
_cell_volume 532.571499
_symmetry_space_group_name_H-M "P -1"
_symmetry_group_IT_number 2
_symmetry_cell_setting 'triclinic'
loop_
_space_group_symop_operation_xyz
x,y,z
-x,-y,-z
loop_
_atom_site_type_symbol
_atom_site_label
_atom_site_fract_x
_atom_site_fract_y
_atom_site_fract_z
Si Si1 0.704455 0.408815 0.837534
Si Si2 0.693552 0.884300 0.944325
Si Si3 0.383382 0.876446 0.062772
Si Si4 0.046262 0.184499 0.367702
Si Si5 0.446445 0.189086 0.535670
Si Si6 0.578182 0.532012 0.484952
O O1 0.469073 0.371266 0.674148
O O2 0.676329 0.406837 0.705158
O O3 0.644095 0.640045 0.044316
O O4 0.997831 0.227964 0.907605
O O5 0.632112 0.720188 0.699387
O O6 0.625810 0.065126 0.994901
O O7 0.500000 0.000000 0.000000
O O8 0.391954 0.045548 0.292649
O O9 0.117134 0.859480 0.868701
O O10 0.194705 0.294562 0.528907
O O11 0.851835 0.324745 0.445769
O O12 0.272864 0.956020 0.349620
O O13 0.500000 0.500000 0.500000
#
# Coordination Sequence:
#
# PCOD8024587 Si02
#       6
#     2   2   2   2   2   2
#     4  11  25  44  70 101 136 177 224 276 341 395
#     4  12  25  44  68  99 137 178 229 280 331 402
#     4  11  23  43  67 101 135 175 228 272 335 401
#     4  10  23  43  69 102 138 174 230 276 328 405
#     4  11  22  44  70 100 139 180 219 278 339 396
#     4  11  25  45  70 100 135 179 227 278 335 401
#
# _framework density 22.532185999999999
#
# number of rings (size 3 to 8) (size 9 to 14) (size 15 to 20)
#    0.000    1.000    3.333    3.500    0.000    7.333 
#    3.000    2.500    0.000    0.000    0.000    0.000 
#    0.000    0.000    0.000    0.000    0.000    0.000 
#
# Total GULP energy -148779.440732 kJ/mol
# GULP energy per Si atom -12398.286728 kJ/mol
# Density = 2.248090 g / cm^3
# Si number density = 22.532186 Si / 1000 Ang^3
#
#
#
# Elastic Constant Matrix: (Units=GPa)
#
#
# Indices 1 2 3 4 5 6 
#
# 1 124.6101 50.2090 19.2516 6.7135 5.3162 -5.9119
# 2 50.2090 83.0462 37.5879 -0.3621 18.3374 -0.3159
# 3 19.2516 37.5879 81.2144 14.6429 -1.0952 -11.7859
# 4 6.7135 -0.3621 14.6429 35.2288 5.4688 5.4202
# 5 5.3162 18.3374 -1.0952 5.4688 29.0304 1.2955
# 6 -5.9119 -0.3159 -11.7859 5.4202 1.2955 36.8600
#
#
#
# Elastic Compliance Matrix: (Units=1/GPa)
#
#
# Indices 1 2 3 4 5 6 
#
# 1 0.011557 -0.009390 0.003006 -0.004779 0.004683 0.003273
# 2 -0.009390 0.028351 -0.014320 0.012002 -0.018679 -0.006950
# 3 0.003006 -0.014320 0.022021 -0.013011 0.011379 0.008914
# 4 -0.004779 0.012002 -0.013011 0.038541 -0.014011 -0.009999
# 5 0.004683 -0.018679 0.011379 -0.014011 0.048252 0.004594
# 6 0.003273 -0.006950 0.008914 -0.009999 0.004594 0.031754
#
#
# Mechanical properties :
#
#
# Convention : Reuss Voigt Hill
#
# Bulk Modulus (GPa) = 48.73129 55.88529 52.30829
# Shear Modulus (GPa) = 21.86037 32.34532 27.10285
#
# Velocity S-wave (km/s) = 3.11816 3.79293 3.47198
# Velocity P-wave (km/s) = 5.88543 6.63612 6.27201
#
# Compressibility (1/GPa) = 0.02052070
#
# Stress axis : x y z
#
# Youngs Moduli (GPa) = 86.52601 35.27251 45.41133
#
# Poissons Ratio (x) = 0.33122 -0.13652
# Poissons Ratio (y) = 0.81252 0.65028
# Poissons Ratio (z) = -0.26012 0.50510
#
# Static dielectric constant tensor:
#      x y z
#    x 4.112190 0.163620 0.167000 
#    y 0.163620 4.221530 0.125440 
#    z 0.167000 0.125440 4.368830 
# 
# 
# High freq. dielectric constant tensor:
#      x y z
#    x 1.888660 0.011650 0.007600 
#    y 0.011650 1.892350 -0.001930 
#    z 0.007600 -0.001930 1.900690 
# 
# From -- ./inp_files/168281.got.cif
#   From: 2010.06.25/outbox.cif.g09.slc.cpg/sg2_85_cif.got.tgz:168281.got - 2010.06.27 13:26:56.
