data_PCOD8024450
_publ_section_title
;
Structure prediction by ZEFSAII (Michael W. Deem and Ramdas Pophale) SiO2 
 PCOD8024450
Probable space group: P -1
;
_chemical_formula_sum "Si O2"
_cell_formula_units_Z 14
_cell_length_a 13.210108
_cell_length_b 8.638575
_cell_length_c 9.225078
_cell_angle_alpha 129.811442
_cell_angle_beta 56.835624
_cell_angle_gamma 116.325806
_cell_volume 669.784094
_symmetry_space_group_name_H-M "P -1"
_symmetry_group_IT_number 2
_symmetry_cell_setting 'triclinic'
loop_
_space_group_symop_operation_xyz
x,y,z
-x,-y,-z
loop_
_atom_site_type_symbol
_atom_site_label
_atom_site_fract_x
_atom_site_fract_y
_atom_site_fract_z
Si Si1 0.298928 0.248123 0.151181
Si Si2 0.521114 0.456536 0.624706
Si Si3 0.888648 0.022894 0.204545
Si Si4 0.268054 0.396376 0.951732
Si Si5 0.292102 0.812911 0.752454
Si Si6 0.131181 0.630434 0.996386
Si Si7 0.057741 0.057078 0.336604
O O1 0.404868 0.347631 0.234459
O O2 0.174096 0.232765 0.335837
O O3 0.283517 0.393174 0.111511
O O4 0.328288 0.029409 0.937699
O O5 0.500000 0.500000 0.500000
O O6 0.397253 0.406747 0.779935
O O7 0.589218 0.257063 0.457185
O O8 0.802418 0.170766 0.293561
O O9 0.946731 0.117829 0.364613
O O10 0.813037 0.804399 0.166092
O O11 0.000000 0.000000 0.000000
O O12 0.194372 0.580457 0.069013
O O13 0.232623 0.620876 0.785099
O O14 0.110778 0.860011 0.123035
O O15 0.000000 0.500000 0.000000
O O16 0.000000 0.000000 0.500000
#
# Coordination Sequence:
#
# PCOD8024450 Si02
#       7
#     2   2   2   2   2   2   2
#     4  10  25  45  64  94 138 167 219 269 324 383
#     4  12  26  43  68  97 129 172 229 267 313 392
#     4  11  19  42  67  93 130 170 206 264 338 382
#     4  11  22  42  69  95 131 175 213 270 321 385
#     4  10  23  43  67  96 129 176 213 265 331 382
#     4  11  20  37  67  96 128 168 209 261 336 376
#     4  11  24  39  62 100 131 164 213 271 325 390
#
# _framework density 20.902258
#
# number of rings (size 3 to 8) (size 9 to 14) (size 15 to 20)
#    0.000    1.143    7.143    0.429    4.000    4.000 
#    0.000    1.429    0.000    0.000    0.000    0.000 
#    0.000    0.000    0.000    0.000    0.000    0.000 
#
# Total GULP energy -173475.515465 kJ/mol
# GULP energy per Si atom -12391.108247 kJ/mol
# Density = 2.085468 g / cm^3
# Si number density = 20.902258 Si / 1000 Ang^3
#
#
#
# Elastic Constant Matrix: (Units=GPa)
#
#
# Indices 1 2 3 4 5 6 
#
# 1 158.9872 63.7931 56.7672 -11.4463 3.1734 0.5770
# 2 63.7931 114.4410 34.7926 -24.0317 7.8810 10.7750
# 3 56.7672 34.7926 78.5134 -16.2316 5.2327 7.5155
# 4 -11.4463 -24.0317 -16.2316 40.0447 -4.8832 -0.3711
# 5 3.1734 7.8810 5.2327 -4.8832 30.8490 0.6869
# 6 0.5770 10.7750 7.5155 -0.3711 0.6869 47.9911
#
#
#
# Elastic Compliance Matrix: (Units=1/GPa)
#
#
# Indices 1 2 3 4 5 6 
#
# 1 0.010015 -0.004440 -0.005927 -0.002097 0.000738 0.001778
# 2 -0.004440 0.013145 -0.001009 0.005975 -0.001725 -0.002669
# 3 -0.005927 -0.001009 0.018880 0.005151 -0.001462 -0.002598
# 4 -0.002097 0.005975 0.005151 0.030353 0.002663 -0.001926
# 5 0.000738 -0.001725 -0.001462 0.002663 0.033447 0.000149
# 6 0.001778 -0.002669 -0.002598 -0.001926 0.000149 0.021805
#
#
# Mechanical properties :
#
#
# Convention : Reuss Voigt Hill
#
# Bulk Modulus (GPa) = 51.84426 73.62750 62.73588
# Shear Modulus (GPa) = 31.88254 36.88286 34.38270
#
# Velocity S-wave (km/s) = 3.90977 4.20520 4.06017
# Velocity P-wave (km/s) = 6.72597 7.67329 7.21520
#
# Compressibility (1/GPa) = 0.01928854
#
# Stress axis : x y z
#
# Youngs Moduli (GPa) = 99.84820 76.07733 52.96567
#
# Poissons Ratio (x) = 0.33775 0.31392
# Poissons Ratio (y) = 0.44328 0.05346
# Poissons Ratio (z) = 0.59179 0.07678
#
# Static dielectric constant tensor:
#      x y z
#    x 3.197800 0.447730 0.233090 
#    y 0.447730 3.917310 -0.494010 
#    z 0.233090 -0.494010 2.618250 
# 
# 
# High freq. dielectric constant tensor:
#      x y z
#    x 1.835010 -0.001650 -0.005400 
#    y -0.001650 1.830770 -0.023830 
#    z -0.005400 -0.023830 1.794470 
# 
# From -- ./inp_files/174756.got.cif
#   From: 2010.06.25/outbox.cif.g09.slc.cpg/sg2_88_cif.got.tgz:174756.got - 2010.06.27 13:26:56.
