data_PCOD8024882
_publ_section_title
;
Structure prediction by ZEFSAII (Michael W. Deem and Ramdas Pophale) SiO2 
 PCOD8024882
Probable space group: P -1
;
_chemical_formula_sum "Si O2"
_cell_formula_units_Z 16
_cell_length_a 9.607379
_cell_length_b 9.385892
_cell_length_c 15.652347
_cell_angle_alpha 114.278979
_cell_angle_beta 82.267550
_cell_angle_gamma 47.276901
_cell_volume 743.460217
_symmetry_space_group_name_H-M "P -1"
_symmetry_group_IT_number 2
_symmetry_cell_setting 'triclinic'
loop_
_space_group_symop_operation_xyz
x,y,z
-x,-y,-z
loop_
_atom_site_type_symbol
_atom_site_label
_atom_site_fract_x
_atom_site_fract_y
_atom_site_fract_z
Si Si1 0.927393 0.133984 0.628209
Si Si2 0.552039 0.241675 0.678448
Si Si3 0.398482 0.344583 0.142844
Si Si4 0.130821 0.587132 0.056506
Si Si5 0.291222 0.239375 0.413237
Si Si6 0.246915 0.709538 0.940088
Si Si7 0.447323 0.707900 0.507997
Si Si8 0.374607 0.066098 0.847258
O O1 0.780617 0.119902 0.677628
O O2 0.739300 0.448001 0.715008
O O3 0.000000 0.000000 0.500000
O O4 0.162298 0.986322 0.621404
O O5 0.322449 0.500618 0.817446
O O6 0.511362 0.340960 0.609536
O O7 0.601456 0.012276 0.612681
O O8 0.201064 0.486196 0.122684
O O9 0.576620 0.303914 0.072894
O O10 0.530762 0.071766 0.100677
O O11 0.840203 0.855037 0.143569
O O12 0.220947 0.668586 0.028957
O O13 0.257029 0.342344 0.926933
O O14 0.387810 0.301811 0.472166
O O15 0.000000 0.500000 0.500000
O O16 0.396086 0.148279 0.286667
O O17 0.000000 0.000000 0.000000
O O18 0.500000 0.500000 0.500000
#
# Coordination Sequence:
#
# PCOD8024882 Si02
#       8
#     2   2   2   2   2   2   2   2
#     4   9  21  40  67  91 131 169 222 273 336 398
#     4  10  23  44  64  97 137 176 218 286 344 402
#     4  11  23  40  70  98 129 174 225 279 336 405
#     4  11  23  46  66 100 130 176 232 276 341 400
#     4  12  26  44  66  97 141 181 220 277 351 407
#     4  11  22  43  68  95 136 175 221 285 344 394
#     4  11  24  41  69 101 127 177 235 273 337 419
#     4  11  25  43  70  94 137 176 223 284 336 401
#
# _framework density 21.520990000000001
#
# number of rings (size 3 to 8) (size 9 to 14) (size 15 to 20)
#    0.000    1.250    2.500    2.625    8.750    1.000 
#    4.500    0.000    0.000    0.000    0.000    0.000 
#    0.000    0.000    0.000    0.000    0.000    0.000 
#
# Total GULP energy -198244.003058 kJ/mol
# GULP energy per Si atom -12390.250191 kJ/mol
# Density = 2.147201 g / cm^3
# Si number density = 21.520990 Si / 1000 Ang^3
#
#
#
# Elastic Constant Matrix: (Units=GPa)
#
#
# Indices 1 2 3 4 5 6 
#
# 1 106.7569 41.4064 31.3652 6.7703 -15.8645 -9.2957
# 2 41.4064 136.6935 36.9164 -6.5657 -19.2214 1.7661
# 3 31.3652 36.9164 100.7961 7.5516 -17.6227 -7.0145
# 4 6.7703 -6.5657 7.5516 40.6542 -3.1175 -3.7084
# 5 -15.8645 -19.2214 -17.6227 -3.1175 28.9023 0.4890
# 6 -9.2957 1.7661 -7.0145 -3.7084 0.4890 41.7209
#
#
#
# Elastic Compliance Matrix: (Units=1/GPa)
#
#
# Indices 1 2 3 4 5 6 
#
# 1 0.011738 -0.002706 -0.001803 -0.001596 0.003334 0.002246
# 2 -0.002706 0.009395 -0.002226 0.002557 0.003702 -0.001191
# 3 -0.001803 -0.002226 0.012394 -0.001847 0.004861 0.001555
# 4 -0.001596 0.002557 -0.001847 0.025946 0.002471 0.001503
# 5 0.003334 0.003702 0.004861 0.002471 0.042103 0.001130
# 6 0.002246 -0.001191 0.001555 0.001503 0.001130 0.024901
#
#
# Mechanical properties :
#
#
# Convention : Reuss Voigt Hill
#
# Bulk Modulus (GPa) = 49.85585 62.62473 56.24029
# Shear Modulus (GPa) = 34.09861 37.89273 35.99567
#
# Velocity S-wave (km/s) = 3.98481 4.20066 4.09416
# Velocity P-wave (km/s) = 6.66244 7.25878 6.96700
#
# Compressibility (1/GPa) = 0.02005783
#
# Stress axis : x y z
#
# Youngs Moduli (GPa) = 85.18991 106.43776 80.68471
#
# Poissons Ratio (x) = 0.28799 0.14547
# Poissons Ratio (y) = 0.23050 0.17963
# Poissons Ratio (z) = 0.15359 0.23696
#
# Static dielectric constant tensor:
#      x y z
#    x 5.226360 -0.335250 -0.654080 
#    y -0.335250 3.929020 0.432630 
#    z -0.654080 0.432630 3.952750 
# 
# 
# High freq. dielectric constant tensor:
#      x y z
#    x 1.848390 0.003640 -0.011370 
#    y 0.003640 1.843790 0.011350 
#    z -0.011370 0.011350 1.849410 
# 
# From -- ./inp_files/495429.got.cif
#   From: 2010.06.25/outbox.cif.g09.slc.cpg/sg2_248_cif.got.tgz:495429.got - 2010.06.27 13:26:56.
