data_PCOD8024639
_publ_section_title
;
Structure prediction by ZEFSAII (Michael W. Deem and Ramdas Pophale) SiO2 
 PCOD8024639
Probable space group: P -1
;
_chemical_formula_sum "Si O2"
_cell_formula_units_Z 14
_cell_length_a 9.014639
_cell_length_b 9.272663
_cell_length_c 23.986139
_cell_angle_alpha 39.142488
_cell_angle_beta 27.964872
_cell_angle_gamma 46.804417
_cell_volume 593.502809
_symmetry_space_group_name_H-M "P -1"
_symmetry_group_IT_number 2
_symmetry_cell_setting 'triclinic'
loop_
_space_group_symop_operation_xyz
x,y,z
-x,-y,-z
loop_
_atom_site_type_symbol
_atom_site_label
_atom_site_fract_x
_atom_site_fract_y
_atom_site_fract_z
Si Si1 0.626253 0.772333 0.052710
Si Si2 0.946143 0.734456 0.113167
Si Si3 0.111505 0.048137 0.348099
Si Si4 0.876862 0.400588 0.463785
Si Si5 0.719768 0.335644 0.083167
Si Si6 0.279692 0.724077 0.297804
Si Si7 0.150574 0.492562 0.679774
O O1 0.565030 0.554891 0.098315
O O2 0.433164 0.769157 0.174258
O O3 0.002649 0.779024 0.937744
O O4 0.500000 0.000000 0.000000
O O5 0.576278 0.654586 0.259523
O O6 0.050907 0.667907 0.161768
O O7 0.143105 0.589658 0.045629
O O8 0.000000 0.000000 0.000000
O O9 0.455528 0.144570 0.220517
O O10 0.850449 0.247119 0.375147
O O11 0.016809 0.860522 0.482588
O O12 0.117356 0.942581 0.315326
O O13 0.501742 0.402830 0.584904
O O14 0.010531 0.502266 0.330292
O O15 0.009090 0.534126 0.434110
#
# Coordination Sequence:
#
# PCOD8024639 Si02
#       7
#     2   2   2   2   2   2   2
#     4  10  24  43  67 102 137 177 222 285 337 413
#     4  11  22  45  71 101 139 178 221 288 341 408
#     4  12  24  43  72 100 134 183 226 286 335 409
#     4  11  25  49  64  99 140 179 228 292 327 401
#     4  10  23  43  69  99 138 177 224 274 351 401
#     4  11  24  43  69  97 140 179 222 285 346 389
#     4  11  26  42  73  97 130 185 234 269 347 407
#
# _framework density 23.588768000000002
#
# number of rings (size 3 to 8) (size 9 to 14) (size 15 to 20)
#    0.000    1.143    2.857    1.714    2.000    9.143 
#    0.000    0.000    0.000    0.000    0.000    0.000 
#    0.000    0.000    0.000    0.000    0.000    0.000 
#
# Total GULP energy -173495.739798 kJ/mol
# GULP energy per Si atom -12392.552843 kJ/mol
# Density = 2.353508 g / cm^3
# Si number density = 23.588768 Si / 1000 Ang^3
#
#
#
# Elastic Constant Matrix: (Units=GPa)
#
#
# Indices 1 2 3 4 5 6 
#
# 1 105.5101 47.5105 42.0204 -17.8409 34.9523 22.1581
# 2 47.5105 130.4169 15.4705 -15.0320 26.1499 7.7648
# 3 42.0204 15.4705 44.7191 -19.9638 11.8633 -0.0705
# 4 -17.8409 -15.0320 -19.9638 38.1125 5.2193 2.5140
# 5 34.9523 26.1499 11.8633 5.2193 54.8538 -3.4027
# 6 22.1581 7.7648 -0.0705 2.5140 -3.4027 43.9377
#
#
#
# Elastic Compliance Matrix: (Units=1/GPa)
#
#
# Indices 1 2 3 4 5 6 
#
# 1 0.025748 -0.003606 -0.018178 0.003635 -0.011940 -0.013510
# 2 -0.003606 0.009838 0.002720 0.004110 -0.003397 -0.000414
# 3 -0.018178 0.002720 0.045939 0.016211 -0.000710 0.007778
# 4 0.003635 0.004110 0.016211 0.040068 -0.011951 -0.005752
# 5 -0.011940 -0.003397 -0.000710 -0.011951 0.029342 0.009577
# 6 -0.013510 -0.000414 0.007778 -0.005752 0.009577 0.030729
#
#
# Mechanical properties :
#
#
# Convention : Reuss Voigt Hill
#
# Bulk Modulus (GPa) = 23.04233 54.51651 38.77942
# Shear Modulus (GPa) = 21.34389 39.09044 30.21717
#
# Velocity S-wave (km/s) = 3.01131 4.07524 3.58299
# Velocity P-wave (km/s) = 4.67763 6.73089 5.79591
#
# Compressibility (1/GPa) = 0.04339840
#
# Stress axis : x y z
#
# Youngs Moduli (GPa) = 38.83753 101.64363 21.76789
#
# Poissons Ratio (x) = 0.36656 0.39569
# Poissons Ratio (y) = 0.14006 -0.05922
# Poissons Ratio (z) = 0.70598 -0.27651
#
# Static dielectric constant tensor:
#      x y z
#    x 3.765800 -0.182560 -0.497350 
#    y -0.182560 4.239910 -0.031230 
#    z -0.497350 -0.031230 3.954270 
# 
# 
# High freq. dielectric constant tensor:
#      x y z
#    x 1.946320 0.017070 0.008510 
#    y 0.017070 1.934830 0.015730 
#    z 0.008510 0.015730 1.934270 
# 
# From -- ./inp_files/246115.got.cif
#   From: 2010.06.25/outbox.cif.g09.slc.cpg/sg2_124_cif.got.tgz:246115.got - 2010.06.27 13:26:56.
