data_PCOD8024285
_publ_section_title
;
Structure prediction by ZEFSAII (Michael W. Deem and Ramdas Pophale) SiO2 
 PCOD8024285
Probable space group: P -1
;
_chemical_formula_sum "Si O2"
_cell_formula_units_Z 16
_cell_length_a 7.888496
_cell_length_b 13.046293
_cell_length_c 10.288161
_cell_angle_alpha 90.982585
_cell_angle_beta 136.742681
_cell_angle_gamma 87.798562
_cell_volume 724.952729
_symmetry_space_group_name_H-M "P -1"
_symmetry_group_IT_number 2
_symmetry_cell_setting 'triclinic'
loop_
_space_group_symop_operation_xyz
x,y,z
-x,-y,-z
loop_
_atom_site_type_symbol
_atom_site_label
_atom_site_fract_x
_atom_site_fract_y
_atom_site_fract_z
Si Si1 0.836827 0.949372 0.624289
Si Si2 0.113770 0.458826 0.739571
Si Si3 0.340758 0.597108 0.656483
Si Si4 0.137720 0.424070 0.172778
Si Si5 0.647413 0.048646 0.780319
Si Si6 0.464124 0.284053 0.021307
Si Si7 0.729153 0.934108 0.077215
Si Si8 0.113187 0.776521 0.932009
O O1 0.653631 0.933153 0.398473
O O2 0.957866 0.841025 0.738110
O O3 0.709083 0.009709 0.672517
O O4 0.049520 0.027784 0.707350
O O5 0.291555 0.508256 0.733328
O O6 0.287557 0.386224 0.923982
O O7 0.912931 0.385142 0.563149
O O8 0.953357 0.544799 0.732472
O O9 0.567553 0.567314 0.684428
O O10 0.391667 0.704087 0.761318
O O11 0.060458 0.306936 0.102039
O O12 0.000000 0.500000 0.000000
O O13 0.776832 0.154330 0.890089
O O14 0.750149 0.962281 0.936838
O O15 0.298167 0.185734 0.924331
O O16 0.653235 0.281251 0.007464
O O17 0.500000 0.000000 0.000000
#
# Coordination Sequence:
#
# PCOD8024285 Si02
#       8
#     2   2   2   2   2   2   2   2
#     4  10  23  43  64  92 129 175 215 264 319 383
#     4  11  25  47  65  97 135 172 221 270 325 391
#     4  11  25  44  69  96 134 173 219 273 323 389
#     4  12  24  44  71  95 135 177 214 273 329 386
#     4  10  23  43  65  91 130 173 214 268 319 381
#     4  12  23  42  66  95 129 171 214 273 329 381
#     4  11  22  41  63  93 128 163 212 264 320 383
#     4  11  23  43  64  95 132 170 219 266 327 391
#
# _framework density 22.070404
#
# number of rings (size 3 to 8) (size 9 to 14) (size 15 to 20)
#    0.000    1.000    5.000    3.000    3.500    2.500 
#    6.750    0.000    0.000    0.000    0.000    0.000 
#    0.000    0.000    0.000    0.000    0.000    0.000 
#
# Total GULP energy -198319.469684 kJ/mol
# GULP energy per Si atom -12394.966855 kJ/mol
# Density = 2.202017 g / cm^3
# Si number density = 22.070404 Si / 1000 Ang^3
#
#
#
# Elastic Constant Matrix: (Units=GPa)
#
#
# Indices 1 2 3 4 5 6 
#
# 1 107.0111 32.2663 10.7568 11.0872 21.3382 1.1866
# 2 32.2663 98.3139 36.6788 17.0905 19.0485 10.8579
# 3 10.7568 36.6788 112.4017 17.1118 22.4159 13.1240
# 4 11.0872 17.0905 17.1118 25.0052 2.1670 6.5031
# 5 21.3382 19.0485 22.4159 2.1670 32.7943 9.2648
# 6 1.1866 10.8579 13.1240 6.5031 9.2648 37.5222
#
#
#
# Elastic Compliance Matrix: (Units=1/GPa)
#
#
# Indices 1 2 3 4 5 6 
#
# 1 0.011955 -0.002475 0.001658 -0.004717 -0.007875 0.002520
# 2 -0.002475 0.013851 -0.002421 -0.006094 -0.004090 -0.001017
# 3 0.001658 -0.002421 0.012052 -0.006531 -0.007300 -0.000633
# 4 -0.004717 -0.006094 -0.006531 0.051741 0.009676 -0.007160
# 5 -0.007875 -0.004090 -0.007300 0.009676 0.044817 -0.008757
# 6 0.002520 -0.001017 -0.000633 -0.007160 -0.008757 0.030490
#
#
# Mechanical properties :
#
#
# Convention : Reuss Voigt Hill
#
# Bulk Modulus (GPa) = 31.86471 53.01451 42.43961
# Shear Modulus (GPa) = 27.49623 34.93266 31.21445
#
# Velocity S-wave (km/s) = 3.53348 3.98274 3.76481
# Velocity P-wave (km/s) = 5.57821 6.72476 6.17814
#
# Compressibility (1/GPa) = 0.03138268
#
# Stress axis : x y z
#
# Youngs Moduli (GPa) = 83.64400 72.19668 82.97448
#
# Poissons Ratio (x) = 0.17867 -0.13755
# Poissons Ratio (y) = 0.20700 0.20087
# Poissons Ratio (z) = -0.13866 0.17478
#
# Static dielectric constant tensor:
#      x y z
#    x 4.172040 -0.085650 0.122350 
#    y -0.085650 3.849210 0.013570 
#    z 0.122350 0.013570 6.076830 
# 
# 
# High freq. dielectric constant tensor:
#      x y z
#    x 1.878540 -0.006180 0.018020 
#    y -0.006180 1.856770 0.017840 
#    z 0.018020 0.017840 1.873580 
# 
# From -- ./inp_files/313316.got.cif
#   From: 2010.06.25/outbox.cif.g09.slc.cpg/sg2_157_cif.got.tgz:313316.got - 2010.06.27 13:26:56.
