data_PCOD8024121
_publ_section_title
;
Structure prediction by ZEFSAII (Michael W. Deem and Ramdas Pophale) SiO2 
 PCOD8024121
Probable space group: P -1
;
_chemical_formula_sum "Si O2"
_cell_formula_units_Z 14
_cell_length_a 10.728947
_cell_length_b 6.599538
_cell_length_c 11.037465
_cell_angle_alpha 58.399341
_cell_angle_beta 110.246430
_cell_angle_gamma 108.088125
_cell_volume 616.299057
_symmetry_space_group_name_H-M "P -1"
_symmetry_group_IT_number 2
_symmetry_cell_setting 'triclinic'
loop_
_space_group_symop_operation_xyz
x,y,z
-x,-y,-z
loop_
_atom_site_type_symbol
_atom_site_label
_atom_site_fract_x
_atom_site_fract_y
_atom_site_fract_z
Si Si1 0.983722 0.665368 0.752354
Si Si2 0.460485 0.393223 0.890367
Si Si3 0.142032 0.490885 0.482690
Si Si4 0.688611 0.116682 0.013742
Si Si5 0.229974 0.007084 0.671495
Si Si6 0.375298 0.826511 0.570480
Si Si7 0.011186 0.789859 0.978920
O O1 0.869801 0.550132 0.654880
O O2 0.086706 0.840985 0.648893
O O3 0.944417 0.812308 0.814615
O O4 0.056911 0.456099 0.901771
O O5 0.415274 0.597775 0.725997
O O6 0.347086 0.161778 0.953432
O O7 0.500000 0.500000 0.000000
O O8 0.579919 0.288749 0.890512
O O9 0.254229 0.728061 0.466841
O O10 0.000000 0.500000 0.500000
O O11 0.205265 0.267533 0.627133
O O12 0.693593 0.116009 0.161121
O O13 0.831162 0.228985 0.971443
O O14 0.317634 0.015293 0.578443
O O15 0.500000 0.000000 0.500000
O O16 0.000000 0.000000 0.000000
#
# Coordination Sequence:
#
# PCOD8024121 Si02
#       7
#     2   2   2   2   2   2   2
#     4  10  24  41  67 108 139 186 233 292 365 438
#     4  11  23  44  72  97 136 195 247 289 365 431
#     4  12  26  45  74 103 146 194 238 297 371 442
#     4  10  23  42  71 100 135 188 240 298 357 434
#     4  11  23  45  72 102 141 185 247 291 363 447
#     4  12  28  46  73 109 146 194 246 308 362 436
#     4  10  24  41  70 105 144 176 237 309 360 425
#
# _framework density 22.716246999999999
#
# number of rings (size 3 to 8) (size 9 to 14) (size 15 to 20)
#    0.000    1.143    4.286    0.429    6.000    4.000 
#    0.000    0.000    0.000    0.000    0.000    0.000 
#    0.000    0.000    0.000    0.000    0.000    0.000 
#
# Total GULP energy -173442.786658 kJ/mol
# GULP energy per Si atom -12388.770476 kJ/mol
# Density = 2.266454 g / cm^3
# Si number density = 22.716247 Si / 1000 Ang^3
#
#
#
# Elastic Constant Matrix: (Units=GPa)
#
#
# Indices 1 2 3 4 5 6 
#
# 1 97.9273 61.1045 27.0843 -0.3778 -8.9942 -0.8615
# 2 61.1045 156.2216 36.3117 16.3564 -6.5736 -0.4852
# 3 27.0843 36.3117 73.7459 11.6556 -0.4336 -4.7233
# 4 -0.3778 16.3564 11.6556 50.1821 -0.9550 2.6965
# 5 -8.9942 -6.5736 -0.4336 -0.9550 31.1207 -0.5276
# 6 -0.8615 -0.4852 -4.7233 2.6965 -0.5276 44.1424
#
#
#
# Elastic Compliance Matrix: (Units=1/GPa)
#
#
# Indices 1 2 3 4 5 6 
#
# 1 0.014587 -0.005087 -0.003260 0.002598 0.003171 -0.000241
# 2 -0.005087 0.009194 -0.002268 -0.002497 0.000362 -0.000084
# 3 -0.003260 -0.002268 0.016498 -0.003241 -0.001259 0.001860
# 4 0.002598 -0.002497 -0.003241 0.021617 0.000814 -0.001634
# 5 0.003171 0.000362 -0.001259 0.000814 0.033138 0.000277
# 6 -0.000241 -0.000084 0.001860 -0.001634 0.000277 0.022950
#
#
# Mechanical properties :
#
#
# Convention : Reuss Voigt Hill
#
# Bulk Modulus (GPa) = 52.49326 64.09952 58.29639
# Shear Modulus (GPa) = 34.34935 38.64868 36.49902
#
# Velocity S-wave (km/s) = 3.89280 4.12924 4.01276
# Velocity P-wave (km/s) = 6.58510 7.14233 6.86937
#
# Compressibility (1/GPa) = 0.01905006
#
# Stress axis : x y z
#
# Youngs Moduli (GPa) = 68.55590 108.76196 60.61430
#
# Poissons Ratio (x) = 0.55328 0.19759
# Poissons Ratio (y) = 0.34875 0.13744
# Poissons Ratio (z) = 0.22348 0.24662
#
# Static dielectric constant tensor:
#      x y z
#    x 4.021040 0.155450 0.062190 
#    y 0.155450 4.454610 0.099880 
#    z 0.062190 0.099880 4.035010 
# 
# 
# High freq. dielectric constant tensor:
#      x y z
#    x 1.874990 0.006510 0.002210 
#    y 0.006510 1.925110 0.006340 
#    z 0.002210 0.006340 1.888260 
# 
# From -- ./inp_files/408997.got.cif
#   From: 2010.06.25/outbox.cif.g09.slc.cpg/sg2_205_cif.got.tgz:408997.got - 2010.06.27 13:26:56.
