data_PCOD8024589
_publ_section_title
;
Structure prediction by ZEFSAII (Michael W. Deem and Ramdas Pophale) SiO2 
 PCOD8024589
Probable space group: P -1
;
_chemical_formula_sum "Si O2"
_cell_formula_units_Z 14
_cell_length_a 16.445024
_cell_length_b 8.191598
_cell_length_c 9.546298
_cell_angle_alpha 83.793418
_cell_angle_beta 112.800471
_cell_angle_gamma 145.977897
_cell_volume 604.061851
_symmetry_space_group_name_H-M "P -1"
_symmetry_group_IT_number 2
_symmetry_cell_setting 'triclinic'
loop_
_space_group_symop_operation_xyz
x,y,z
-x,-y,-z
loop_
_atom_site_type_symbol
_atom_site_label
_atom_site_fract_x
_atom_site_fract_y
_atom_site_fract_z
Si Si1 0.682392 0.371950 0.036633
Si Si2 0.205297 0.952092 0.690794
Si Si3 0.341380 0.655300 0.490528
Si Si4 0.891520 0.682377 0.890316
Si Si5 0.514628 0.463750 0.355739
Si Si6 0.241504 0.131360 0.000844
Si Si7 0.868163 0.527039 0.392120
O O1 0.826345 0.587932 0.234604
O O2 0.753966 0.394766 0.941005
O O3 0.673186 0.550048 0.977531
O O4 0.500000 0.000000 0.000000
O O5 0.138455 0.660837 0.666864
O O6 0.059395 0.851301 0.554523
O O7 0.363600 0.211206 0.667609
O O8 0.275382 0.100475 0.878134
O O9 0.203697 0.400128 0.301533
O O10 0.402720 0.582788 0.603551
O O11 0.267797 0.659510 0.558359
O O12 0.500000 0.000000 0.500000
O O13 0.000000 0.000000 0.000000
O O14 0.037078 0.786304 0.928776
O O15 0.500000 0.500000 0.500000
O O16 0.331439 0.173688 0.181988
#
# Coordination Sequence:
#
# PCOD8024589 Si02
#       7
#     2   2   2   2   2   2   2
#     4  11  23  42  72 103 142 183 238 292 358 420
#     4  11  25  45  67 101 143 182 237 290 355 414
#     4  12  25  46  72 104 139 185 238 291 358 426
#     4  10  23  43  69 102 139 182 235 288 351 431
#     4  12  26  43  73 103 143 180 232 290 360 421
#     4  11  24  46  70 103 140 189 235 287 358 428
#     4  11  25  43  69 101 138 185 235 295 343 418
#
# _framework density 23.176435000000001
#
# number of rings (size 3 to 8) (size 9 to 14) (size 15 to 20)
#    0.000    0.857    1.429    5.571    6.000    3.429 
#    0.000    1.429    0.000    0.000    0.000    0.000 
#    0.000    0.000    0.000    0.000    0.000    0.000 
#
# Total GULP energy -173585.913927 kJ/mol
# GULP energy per Si atom -12398.993852 kJ/mol
# Density = 2.312368 g / cm^3
# Si number density = 23.176435 Si / 1000 Ang^3
#
#
#
# Elastic Constant Matrix: (Units=GPa)
#
#
# Indices 1 2 3 4 5 6 
#
# 1 106.7094 35.6548 61.8395 0.7112 -9.3307 23.0912
# 2 35.6548 86.5877 26.2841 -3.9938 -2.2458 22.1922
# 3 61.8395 26.2841 199.2413 4.9323 6.9304 11.6252
# 4 0.7112 -3.9938 4.9323 31.4933 12.6799 -10.5705
# 5 -9.3307 -2.2458 6.9304 12.6799 46.4145 -0.5965
# 6 23.0912 22.1922 11.6252 -10.5705 -0.5965 35.9677
#
#
#
# Elastic Compliance Matrix: (Units=1/GPa)
#
#
# Indices 1 2 3 4 5 6 
#
# 1 0.014601 -0.003039 -0.003737 -0.004454 0.004466 -0.007526
# 2 -0.003039 0.014786 -0.000590 -0.000438 0.000221 -0.007107
# 3 -0.003737 -0.000590 0.006277 -0.000062 -0.001691 0.000688
# 4 -0.004454 -0.000438 -0.000062 0.041806 -0.012132 0.015235
# 5 0.004466 0.000221 -0.001691 -0.012132 0.025949 -0.005592
# 6 -0.007526 -0.007107 0.000688 0.015235 -0.005592 0.041182
#
#
# Mechanical properties :
#
#
# Convention : Reuss Voigt Hill
#
# Bulk Modulus (GPa) = 47.77003 71.12167 59.44585
# Shear Modulus (GPa) = 30.06468 40.69244 35.37856
#
# Velocity S-wave (km/s) = 3.60559 4.19473 3.91127
# Velocity P-wave (km/s) = 6.16359 7.36307 6.78987
#
# Compressibility (1/GPa) = 0.02093363
#
# Stress axis : x y z
#
# Youngs Moduli (GPa) = 68.48880 67.63058 159.31515
#
# Poissons Ratio (x) = 0.20551 0.59534
# Poissons Ratio (y) = 0.20812 0.09394
# Poissons Ratio (z) = 0.25593 0.03988
#
# Static dielectric constant tensor:
#      x y z
#    x 4.244380 0.638450 -0.061730 
#    y 0.638450 4.348560 0.036870 
#    z -0.061730 0.036870 4.525990 
# 
# 
# High freq. dielectric constant tensor:
#      x y z
#    x 1.921240 0.022180 -0.002010 
#    y 0.022180 1.906010 0.005120 
#    z -0.002010 0.005120 1.938440 
# 
# From -- ./inp_files/328748.got.cif
#   From: 2010.06.25/outbox.cif.g09.slc.cpg/sg2_165_cif.got.tgz:328748.got - 2010.06.27 13:26:56.
