data_PCOD8024501
_publ_section_title
;
Structure prediction by ZEFSAII (Michael W. Deem and Ramdas Pophale) SiO2 
 PCOD8024501
Probable space group: P -1
;
_chemical_formula_sum "Si O2"
_cell_formula_units_Z 16
_cell_length_a 7.174636
_cell_length_b 22.024759
_cell_length_c 6.379150
_cell_angle_alpha 58.373939
_cell_angle_beta 66.767890
_cell_angle_gamma 50.372477
_cell_volume 658.315355
_symmetry_space_group_name_H-M "P -1"
_symmetry_group_IT_number 2
_symmetry_cell_setting 'triclinic'
loop_
_space_group_symop_operation_xyz
x,y,z
-x,-y,-z
loop_
_atom_site_type_symbol
_atom_site_label
_atom_site_fract_x
_atom_site_fract_y
_atom_site_fract_z
Si Si1 0.031558 0.046784 0.592914
Si Si2 0.095256 0.648127 0.848616
Si Si3 0.791379 0.598964 0.343575
Si Si4 0.582547 0.620419 0.818437
Si Si5 0.652033 0.256547 0.961234
Si Si6 0.350514 0.888603 0.007320
Si Si7 0.751577 0.478216 0.334639
Si Si8 0.107558 0.187428 0.130725
O O1 0.104970 0.108419 0.359808
O O2 0.241574 0.979534 0.779092
O O3 0.000000 0.000000 0.500000
O O4 0.781334 0.101900 0.732682
O O5 0.377357 0.606855 0.845962
O O6 0.086083 0.615954 0.675217
O O7 0.950894 0.750447 0.754325
O O8 0.978402 0.618749 0.127261
O O9 0.767424 0.614432 0.574855
O O10 0.870780 0.500380 0.435869
O O11 0.508850 0.665662 0.269241
O O12 0.481428 0.711354 0.811462
O O13 0.732290 0.543818 0.051976
O O14 0.679916 0.170405 0.034088
O O15 0.921575 0.236001 0.929418
O O16 0.629760 0.846266 0.017463
O O17 0.500000 0.500000 0.500000
#
# Coordination Sequence:
#
# PCOD8024501 Si02
#       8
#     2   2   2   2   2   2   2   2
#     4  11  25  46  74 103 142 183 227 289 346 427
#     4  11  23  41  67 100 131 188 236 281 355 410
#     4  11  23  44  66  95 145 181 235 296 341 416
#     4  10  24  43  67  97 143 185 233 290 350 407
#     4  10  23  43  68 105 136 184 232 288 346 416
#     4  11  24  47  71 102 145 179 231 285 355 415
#     4  11  23  43  68  97 142 188 235 293 347 411
#     4  11  24  45  72 103 139 182 236 283 354 415
#
# _framework density 24.304461
#
# number of rings (size 3 to 8) (size 9 to 14) (size 15 to 20)
#    0.000    1.250    3.750    1.125    3.500    1.000 
#    6.750    2.500    0.000    0.000    0.000    0.000 
#    0.000    0.000    0.000    0.000    0.000    0.000 
#
# Total GULP energy -198326.382452 kJ/mol
# GULP energy per Si atom -12395.398903 kJ/mol
# Density = 2.424914 g / cm^3
# Si number density = 24.304461 Si / 1000 Ang^3
#
#
#
# Elastic Constant Matrix: (Units=GPa)
#
#
# Indices 1 2 3 4 5 6 
#
# 1 106.1685 67.6042 37.4259 27.1865 -11.2129 4.6098
# 2 67.6042 164.5007 44.1833 25.2771 -8.9419 20.1470
# 3 37.4259 44.1833 99.6408 34.3286 -7.6558 14.2020
# 4 27.1865 25.2771 34.3286 40.9714 -2.8137 0.1737
# 5 -11.2129 -8.9419 -7.6558 -2.8137 30.9382 0.8631
# 6 4.6098 20.1470 14.2020 0.1737 0.8631 59.0059
#
#
#
# Elastic Compliance Matrix: (Units=1/GPa)
#
#
# Indices 1 2 3 4 5 6 
#
# 1 0.014588 -0.004719 -0.001409 -0.005381 0.003063 0.000782
# 2 -0.004719 0.008880 -0.001410 -0.001124 0.000470 -0.002328
# 3 -0.001409 -0.001410 0.015638 -0.011145 0.002026 -0.003169
# 4 -0.005381 -0.001124 -0.011145 0.037879 -0.001683 0.003400
# 5 0.003063 0.000470 0.002026 -0.001683 0.033955 -0.001379
# 6 0.000782 -0.002328 -0.003169 0.003400 -0.001379 0.018454
#
#
# Mechanical properties :
#
#
# Convention : Reuss Voigt Hill
#
# Bulk Modulus (GPa) = 41.61618 74.30410 57.96014
# Shear Modulus (GPa) = 32.79095 40.92289 36.85692
#
# Velocity S-wave (km/s) = 3.67710 4.10782 3.89841
# Velocity P-wave (km/s) = 5.93195 7.28954 6.64551
#
# Compressibility (1/GPa) = 0.02402912
#
# Stress axis : x y z
#
# Youngs Moduli (GPa) = 68.54876 112.60641 63.94836
#
# Poissons Ratio (x) = 0.53141 0.09011
# Poissons Ratio (y) = 0.32350 0.09019
# Poissons Ratio (z) = 0.09659 0.15881
#
# Static dielectric constant tensor:
#      x y z
#    x 4.720660 0.046090 0.237690 
#    y 0.046090 4.941420 0.180020 
#    z 0.237690 0.180020 4.311330 
# 
# 
# High freq. dielectric constant tensor:
#      x y z
#    x 1.984770 -0.002050 0.002920 
#    y -0.002050 1.986300 0.014470 
#    z 0.002920 0.014470 1.951830 
# 
# From -- ./inp_files/54663.got.cif
#   From: 2010.06.25/outbox.cif.g09.slc.cpg/sg2_28_cif.got.tgz:54663.got - 2010.06.27 13:26:56.
