data_PCOD8024926
_publ_section_title
;
Structure prediction by ZEFSAII (Michael W. Deem and Ramdas Pophale) SiO2 
 PCOD8024926
Probable space group: P -1
;
_chemical_formula_sum "Si O2"
_cell_formula_units_Z 16
_cell_length_a 14.456035
_cell_length_b 8.915115
_cell_length_c 8.299609
_cell_angle_alpha 109.301415
_cell_angle_beta 45.301761
_cell_angle_gamma 98.078095
_cell_volume 710.805817
_symmetry_space_group_name_H-M "P -1"
_symmetry_group_IT_number 2
_symmetry_cell_setting 'triclinic'
loop_
_space_group_symop_operation_xyz
x,y,z
-x,-y,-z
loop_
_atom_site_type_symbol
_atom_site_label
_atom_site_fract_x
_atom_site_fract_y
_atom_site_fract_z
Si Si1 0.960113 0.822811 0.003129
Si Si2 0.187277 0.534439 0.544731
Si Si3 0.282712 0.059963 0.837505
Si Si4 0.088332 0.203058 0.578016
Si Si5 0.189150 0.887784 0.173072
Si Si6 0.361289 0.662946 0.110482
Si Si7 0.437803 0.546185 0.421184
Si Si8 0.464333 0.849417 0.326950
O O1 0.077153 0.684131 0.769513
O O2 0.839934 0.810270 0.021449
O O3 0.906997 0.798859 0.236772
O O4 0.000000 0.000000 0.000000
O O5 0.125745 0.372338 0.530868
O O6 0.259974 0.576844 0.308347
O O7 0.288611 0.508102 0.563559
O O8 0.381824 0.131482 0.864198
O O9 0.366291 0.007783 0.554707
O O10 0.223979 0.917197 0.954292
O O11 0.946054 0.185305 0.675999
O O12 0.186785 0.053687 0.334234
O O13 0.296566 0.752207 0.065462
O O14 0.423052 0.794632 0.184737
O O15 0.477194 0.532472 0.860297
O O16 0.500000 0.500000 0.500000
O O17 0.440032 0.733625 0.463504
#
# Coordination Sequence:
#
# PCOD8024926 Si02
#       8
#     2   2   2   2   2   2   2   2
#     4  12  23  45  72  97 142 183 223 291 345 401
#     4  11  26  45  70 101 137 183 229 286 343 413
#     4  11  24  41  72  99 136 179 229 284 340 416
#     4  11  26  43  66 102 141 176 235 277 347 409
#     4  11  25  44  68 100 138 183 229 285 337 413
#     4  11  25  45  71  97 138 184 221 291 344 405
#     4  11  25  44  70  98 137 179 228 288 344 408
#     4  10  23  44  66 103 133 177 232 276 350 408
#
# _framework density 22.509663
#
# number of rings (size 3 to 8) (size 9 to 14) (size 15 to 20)
#    0.000    1.000    1.250    5.625    8.750    2.000 
#    0.000    0.000    0.000    0.000    0.000    0.000 
#    0.000    0.000    0.000    0.000    0.000    0.000 
#
# Total GULP energy -198402.174755 kJ/mol
# GULP energy per Si atom -12400.135922 kJ/mol
# Density = 2.245843 g / cm^3
# Si number density = 22.509663 Si / 1000 Ang^3
#
#
#
# Elastic Constant Matrix: (Units=GPa)
#
#
# Indices 1 2 3 4 5 6 
#
# 1 122.4997 40.9107 45.5414 -4.5187 -16.1587 -11.2388
# 2 40.9107 106.1593 32.4752 5.0283 -14.9380 15.2650
# 3 45.5414 32.4752 117.6824 2.7016 -13.0926 2.8726
# 4 -4.5187 5.0283 2.7016 22.4712 -5.7105 -2.4295
# 5 -16.1587 -14.9380 -13.0926 -5.7105 38.1571 -3.1828
# 6 -11.2388 15.2650 2.8726 -2.4295 -3.1828 40.1446
#
#
#
# Elastic Compliance Matrix: (Units=1/GPa)
#
#
# Indices 1 2 3 4 5 6 
#
# 1 0.012005 -0.004180 -0.003358 0.005287 0.003570 0.005794
# 2 -0.004180 0.012760 -0.001487 -0.003747 0.001653 -0.006012
# 3 -0.003358 -0.001487 0.010407 -0.001391 0.001267 -0.001103
# 4 0.005287 -0.003747 -0.001391 0.049383 0.008240 0.006646
# 5 0.003570 0.001653 0.001267 0.008240 0.030299 0.003181
# 6 0.005794 -0.006012 -0.001103 0.006646 0.003181 0.029551
#
#
# Mechanical properties :
#
#
# Convention : Reuss Voigt Hill
#
# Bulk Modulus (GPa) = 58.40439 64.91067 61.65753
# Shear Modulus (GPa) = 29.73300 35.31550 32.52425
#
# Velocity S-wave (km/s) = 3.63836 3.96524 3.80531
# Velocity P-wave (km/s) = 6.60704 7.06141 6.83800
#
# Compressibility (1/GPa) = 0.01712200
#
# Stress axis : x y z
#
# Youngs Moduli (GPa) = 83.29714 78.36890 96.08940
#
# Poissons Ratio (x) = 0.32762 0.32266
# Poissons Ratio (y) = 0.34822 0.14287
# Poissons Ratio (z) = 0.27970 0.11652
#
# Static dielectric constant tensor:
#      x y z
#    x 4.121500 0.019360 -0.194500 
#    y 0.019360 4.011340 0.075550 
#    z -0.194500 0.075550 4.122060 
# 
# 
# High freq. dielectric constant tensor:
#      x y z
#    x 1.896630 -0.002100 -0.008640 
#    y -0.002100 1.880480 0.003500 
#    z -0.008640 0.003500 1.897680 
# 
# From -- ./inp_files/299058.got.cif
#   From: 2010.06.25/outbox.cif.g09.slc.cpg/sg2_150_cif.got.tgz:299058.got - 2010.06.27 13:26:56.
