data_PCOD8024607
_publ_section_title
;
Structure prediction by ZEFSAII (Michael W. Deem and Ramdas Pophale) SiO2 
 PCOD8024607
Probable space group: P -1
;
_chemical_formula_sum "Si O2"
_cell_formula_units_Z 16
_cell_length_a 8.303271
_cell_length_b 9.281745
_cell_length_c 14.256058
_cell_angle_alpha 103.046894
_cell_angle_beta 114.071381
_cell_angle_gamma 121.655186
_cell_volume 704.032677
_symmetry_space_group_name_H-M "P -1"
_symmetry_group_IT_number 2
_symmetry_cell_setting 'triclinic'
loop_
_space_group_symop_operation_xyz
x,y,z
-x,-y,-z
loop_
_atom_site_type_symbol
_atom_site_label
_atom_site_fract_x
_atom_site_fract_y
_atom_site_fract_z
Si Si1 0.002245 0.676785 0.528622
Si Si2 0.476890 0.120689 0.697375
Si Si3 0.544979 0.449221 0.103954
Si Si4 0.830052 0.012181 0.017939
Si Si5 0.994445 0.425331 0.778826
Si Si6 0.425402 0.409423 0.676424
Si Si7 0.769062 0.288127 0.961326
Si Si8 0.885501 0.664537 0.705570
O O1 0.815289 0.631760 0.400946
O O2 0.930025 0.717781 0.614306
O O3 0.000000 0.500000 0.500000
O O4 0.280655 0.878796 0.597011
O O5 0.745497 0.224083 0.739349
O O6 0.370705 0.202728 0.632195
O O7 0.521078 0.176653 0.827296
O O8 0.445191 0.483853 0.175636
O O9 0.840388 0.614829 0.223904
O O10 0.500000 0.500000 0.000000
O O11 0.416597 0.214574 0.044454
O O12 0.933809 0.133857 0.158645
O O13 0.784935 0.120473 0.951408
O O14 0.000000 0.000000 0.000000
O O15 0.921353 0.508053 0.699833
O O16 0.219066 0.626688 0.923414
O O17 0.613947 0.553046 0.657837
O O18 0.000000 0.500000 0.000000
#
# Coordination Sequence:
#
# PCOD8024607 Si02
#       8
#     2   2   2   2   2   2   2   2
#     4  12  27  45  72 103 133 184 243 293 343 416
#     4  10  23  43  69  92 134 186 229 283 354 410
#     4  12  26  40  68 109 149 180 236 291 355 425
#     4  11  24  40  70 109 144 181 230 291 362 428
#     4   9  21  41  64  97 137 180 224 285 344 417
#     4  11  24  48  66  99 143 182 232 291 347 426
#     4   9  20  38  67  96 136 180 227 278 360 415
#     4  10  23  45  71  98 140 183 228 290 356 410
#
# _framework density 22.726217999999999
#
# number of rings (size 3 to 8) (size 9 to 14) (size 15 to 20)
#    0.000    1.500    1.250    3.000   10.500    1.000 
#    0.000    6.875    0.000    0.000    0.000    0.000 
#    0.000    0.000    0.000    0.000    0.000    0.000 
#
# Total GULP energy -198209.670398 kJ/mol
# GULP energy per Si atom -12388.104400 kJ/mol
# Density = 2.267449 g / cm^3
# Si number density = 22.726218 Si / 1000 Ang^3
#
#
#
# Elastic Constant Matrix: (Units=GPa)
#
#
# Indices 1 2 3 4 5 6 
#
# 1 99.1059 47.4409 37.8043 1.9802 11.6869 7.2017
# 2 47.4409 150.1129 46.1301 17.1537 11.0503 0.0223
# 3 37.8043 46.1301 94.6650 1.4885 8.2432 3.8406
# 4 1.9802 17.1537 1.4885 41.1179 5.8841 0.5369
# 5 11.6869 11.0503 8.2432 5.8841 45.6649 -5.3062
# 6 7.2017 0.0223 3.8406 0.5369 -5.3062 28.5988
#
#
#
# Elastic Compliance Matrix: (Units=1/GPa)
#
#
# Indices 1 2 3 4 5 6 
#
# 1 0.013452 -0.003119 -0.003506 0.001198 -0.002607 -0.003421
# 2 -0.003119 0.009023 -0.003126 -0.003484 -0.000230 0.001221
# 3 -0.003506 -0.003126 0.013611 0.001151 -0.001087 -0.001166
# 4 0.001198 -0.003484 0.001151 0.026155 -0.003221 -0.001542
# 5 -0.002607 -0.000230 -0.001087 -0.003221 0.023847 0.005288
# 6 -0.003421 0.001221 -0.001166 -0.001542 0.005288 0.036993
#
#
# Mechanical properties :
#
#
# Convention : Reuss Voigt Hill
#
# Bulk Modulus (GPa) = 60.29402 67.40383 63.84893
# Shear Modulus (GPa) = 33.75855 37.24356 35.50106
#
# Velocity S-wave (km/s) = 3.85833 4.05259 3.95665
# Velocity P-wave (km/s) = 6.81448 7.18481 7.00209
#
# Compressibility (1/GPa) = 0.01658539
#
# Stress axis : x y z
#
# Youngs Moduli (GPa) = 74.33658 110.83088 73.47177
#
# Poissons Ratio (x) = 0.34564 0.25756
# Poissons Ratio (y) = 0.23183 0.22968
# Poissons Ratio (z) = 0.26059 0.34646
#
# Static dielectric constant tensor:
#      x y z
#    x 3.703440 0.275750 -0.052660 
#    y 0.275750 3.993660 -0.109270 
#    z -0.052660 -0.109270 4.228710 
# 
# 
# High freq. dielectric constant tensor:
#      x y z
#    x 1.900250 0.009440 0.001880 
#    y 0.009440 1.896810 -0.004740 
#    z 0.001880 -0.004740 1.888990 
# 
# From -- ./inp_files/495285.got.cif
#   From: 2010.06.25/outbox.cif.g09.slc.cpg/sg2_248_cif.got.tgz:495285.got - 2010.06.27 13:26:56.
