data_PCOD8024467
_publ_section_title
;
Structure prediction by ZEFSAII (Michael W. Deem and Ramdas Pophale) SiO2 
 PCOD8024467
Probable space group: P -1
;
_chemical_formula_sum "Si O2"
_cell_formula_units_Z 16
_cell_length_a 11.731888
_cell_length_b 21.270286
_cell_length_c 11.884730
_cell_angle_alpha 152.658344
_cell_angle_beta 33.077084
_cell_angle_gamma 139.928160
_cell_volume 740.821035
_symmetry_space_group_name_H-M "P -1"
_symmetry_group_IT_number 2
_symmetry_cell_setting 'triclinic'
loop_
_space_group_symop_operation_xyz
x,y,z
-x,-y,-z
loop_
_atom_site_type_symbol
_atom_site_label
_atom_site_fract_x
_atom_site_fract_y
_atom_site_fract_z
Si Si1 0.545009 0.009838 0.211296
Si Si2 0.399033 0.124941 0.727121
Si Si3 0.968357 0.141951 0.022645
Si Si4 0.463891 0.280706 0.132891
Si Si5 0.796506 0.420528 0.594368
Si Si6 0.825079 0.886238 0.424771
Si Si7 0.633358 0.604546 0.216849
Si Si8 0.237226 0.470538 0.760621
O O1 0.505837 0.134507 0.530565
O O2 0.781662 0.019635 0.983664
O O3 0.382376 0.031205 0.280891
O O4 0.485396 0.861701 0.079011
O O5 0.500000 0.000000 0.500000
O O6 0.439982 0.260707 0.985693
O O7 0.146048 0.097559 0.890334
O O8 0.863260 0.277968 0.362421
O O9 0.085091 0.171906 0.856452
O O10 0.261477 0.336547 0.449594
O O11 0.652150 0.395804 0.180173
O O12 0.612936 0.390383 0.603923
O O13 0.000000 0.500000 0.500000
O O14 0.724480 0.503314 0.891790
O O15 0.763142 0.754866 0.345865
O O16 0.000000 0.000000 0.500000
O O17 0.663155 0.549561 0.230633
O O18 0.000000 0.500000 0.000000
#
# Coordination Sequence:
#
# PCOD8024467 Si02
#       8
#     2   2   2   2   2   2   2   2
#     4  10  23  43  67  98 132 169 225 278 334 405
#     4   9  22  41  66  94 132 166 221 279 326 394
#     4  11  23  40  69 101 130 173 223 273 354 394
#     4  10  25  45  63  95 127 176 226 267 328 398
#     4  11  24  43  71 100 133 173 226 285 340 395
#     4  11  25  42  65 102 137 173 219 279 338 410
#     4  11  26  44  68 102 135 175 228 283 334 399
#     4  11  28  44  65  93 135 180 225 268 332 403
#
# _framework density 21.597657999999999
#
# number of rings (size 3 to 8) (size 9 to 14) (size 15 to 20)
#    0.000    1.500    2.500    0.000    8.750    6.500 
#    0.000    0.000    0.000    0.000    0.000    0.000 
#    0.000    0.000    0.000    0.000    0.000    0.000 
#
# Total GULP energy -198272.517725 kJ/mol
# GULP energy per Si atom -12392.032358 kJ/mol
# Density = 2.154850 g / cm^3
# Si number density = 21.597658 Si / 1000 Ang^3
#
#
#
# Elastic Constant Matrix: (Units=GPa)
#
#
# Indices 1 2 3 4 5 6 
#
# 1 87.7544 26.4782 51.1232 3.7894 -22.0146 8.5026
# 2 26.4782 115.8197 32.9998 3.7420 -15.9202 5.4240
# 3 51.1232 32.9998 126.6037 0.0602 -16.3589 7.7287
# 4 3.7894 3.7420 0.0602 37.0657 6.0220 -2.9394
# 5 -22.0146 -15.9202 -16.3589 6.0220 43.0550 -3.5029
# 6 8.5026 5.4240 7.7287 -2.9394 -3.5029 31.3386
#
#
#
# Elastic Compliance Matrix: (Units=1/GPa)
#
#
# Indices 1 2 3 4 5 6 
#
# 1 0.016949 -0.001215 -0.005556 -0.002828 0.006292 -0.002580
# 2 -0.001215 0.009818 -0.001698 -0.001331 0.002485 -0.000798
# 3 -0.005556 -0.001698 0.010687 0.000591 0.000450 -0.000729
# 4 -0.002828 -0.001331 0.000591 0.028521 -0.005466 0.002916
# 5 0.006292 0.002485 0.000450 -0.005466 0.028331 0.000406
# 6 -0.002580 -0.000798 -0.000729 0.002916 0.000406 0.033246
#
#
# Mechanical properties :
#
#
# Convention : Reuss Voigt Hill
#
# Bulk Modulus (GPa) = 48.74059 61.26446 55.00252
# Shear Modulus (GPa) = 33.04098 36.93030 34.98564
#
# Velocity S-wave (km/s) = 3.91556 4.13961 4.02914
# Velocity P-wave (km/s) = 6.56191 7.16075 6.86786
#
# Compressibility (1/GPa) = 0.02051678
#
# Stress axis : x y z
#
# Youngs Moduli (GPa) = 59.00038 101.85773 93.57169
#
# Poissons Ratio (x) = 0.12374 0.51985
# Poissons Ratio (y) = 0.07168 0.15888
# Poissons Ratio (z) = 0.32778 0.17295
#
# Static dielectric constant tensor:
#      x y z
#    x 4.281880 -0.036300 0.301660 
#    y -0.036300 4.004030 -0.158910 
#    z 0.301660 -0.158910 4.419350 
# 
# 
# High freq. dielectric constant tensor:
#      x y z
#    x 1.838970 0.003240 -0.004200 
#    y 0.003240 1.849520 -0.002070 
#    z -0.004200 -0.002070 1.865740 
# 
# From -- ./inp_files/427942.got.cif
#   From: 2010.06.25/outbox.cif.g09.slc.cpg/sg2_214_cif.got.tgz:427942.got - 2010.06.27 13:26:56.
