data_PCOD8024493
_publ_section_title
;
Structure prediction by ZEFSAII (Michael W. Deem and Ramdas Pophale) SiO2 
 PCOD8024493
Probable space group: P -1
;
_chemical_formula_sum "Si O2"
_cell_formula_units_Z 16
_cell_length_a 12.079923
_cell_length_b 20.139212
_cell_length_c 17.737858
_cell_angle_alpha 28.632632
_cell_angle_beta 22.015026
_cell_angle_gamma 40.594974
_cell_volume 738.749335
_symmetry_space_group_name_H-M "P -1"
_symmetry_group_IT_number 2
_symmetry_cell_setting 'triclinic'
loop_
_space_group_symop_operation_xyz
x,y,z
-x,-y,-z
loop_
_atom_site_type_symbol
_atom_site_label
_atom_site_fract_x
_atom_site_fract_y
_atom_site_fract_z
Si Si1 0.853926 0.227292 0.150016
Si Si2 0.933193 0.605100 0.579395
Si Si3 0.681406 0.492291 0.005580
Si Si4 0.339565 0.229922 0.201923
Si Si5 0.794042 0.963933 0.820979
Si Si6 0.305601 0.108406 0.732511
Si Si7 0.050534 0.706407 0.148314
Si Si8 0.498561 0.886485 0.929892
O O1 0.549373 0.141871 0.475688
O O2 0.826013 0.215480 0.088053
O O3 0.150814 0.179133 0.034227
O O4 0.911796 0.396259 0.968481
O O5 0.751993 0.584879 0.792223
O O6 0.185370 0.760406 0.273880
O O7 0.680025 0.610012 0.669534
O O8 0.066860 0.469346 0.612633
O O9 0.733022 0.616505 0.911939
O O10 0.662959 0.246828 0.021893
O O11 0.333314 0.183950 0.166141
O O12 0.074654 0.100022 0.536845
O O13 0.747458 0.934476 0.791366
O O14 0.500000 0.000000 0.000000
O O15 0.229371 0.245155 0.685080
O O16 0.431125 0.029689 0.798562
O O17 0.000000 0.000000 0.000000
#
# Coordination Sequence:
#
# PCOD8024493 Si02
#       8
#     2   2   2   2   2   2   2   2
#     4  11  24  43  65  98 131 168 222 271 317 389
#     4   9  20  39  66  96 127 172 204 270 326 385
#     4   9  20  39  66  96 129 159 218 269 327 377
#     4  11  23  41  65  98 128 172 210 269 327 384
#     4  12  26  45  65  87 129 185 216 262 320 387
#     4  12  23  39  65 101 130 169 206 275 331 374
#     4  10  23  43  68 102 134 161 217 272 333 380
#     4  12  24  41  63  94 135 164 222 256 320 400
#
# _framework density 21.658228000000001
#
# number of rings (size 3 to 8) (size 9 to 14) (size 15 to 20)
#    0.000    1.250    2.500    3.375    1.750    4.000 
#    0.000    7.500    0.000    0.000    0.000    0.000 
#    0.000    0.000    0.000    0.000    0.000    0.000 
#
# Total GULP energy -198263.397385 kJ/mol
# GULP energy per Si atom -12391.462337 kJ/mol
# Density = 2.160893 g / cm^3
# Si number density = 21.658228 Si / 1000 Ang^3
#
#
#
# Elastic Constant Matrix: (Units=GPa)
#
#
# Indices 1 2 3 4 5 6 
#
# 1 86.6655 45.0005 4.4090 -2.2104 0.8364 -1.6453
# 2 45.0005 157.3457 15.4812 11.6925 -4.0802 -1.3197
# 3 4.4090 15.4812 58.3925 0.2359 6.3161 2.7474
# 4 -2.2104 11.6925 0.2359 30.7334 7.5058 4.9275
# 5 0.8364 -4.0802 6.3161 7.5058 26.9969 -2.7217
# 6 -1.6453 -1.3197 2.7474 4.9275 -2.7217 30.0812
#
#
#
# Elastic Compliance Matrix: (Units=1/GPa)
#
#
# Indices 1 2 3 4 5 6 
#
# 1 0.013840 -0.004276 0.000303 0.003142 -0.002035 -0.000157
# 2 -0.004276 0.008226 -0.002258 -0.004437 0.003274 0.001356
# 3 0.000303 -0.002258 0.018428 0.002549 -0.005642 -0.002694
# 4 0.003142 -0.004437 0.002549 0.038844 -0.012949 -0.007790
# 5 -0.002035 0.003274 -0.005642 -0.012949 0.043183 0.006576
# 6 -0.000157 0.001356 -0.002694 -0.007790 0.006576 0.035411
#
#
# Mechanical properties :
#
#
# Convention : Reuss Voigt Hill
#
# Bulk Modulus (GPa) = 35.67148 48.02056 41.84602
# Shear Modulus (GPa) = 27.81825 33.39648 30.60737
#
# Velocity S-wave (km/s) = 3.58777 3.93106 3.76333
# Velocity P-wave (km/s) = 5.80247 6.54404 6.18438
#
# Compressibility (1/GPa) = 0.02803360
#
# Stress axis : x y z
#
# Youngs Moduli (GPa) = 72.25379 121.55878 54.26506
#
# Poissons Ratio (x) = 0.51975 -0.01647
# Poissons Ratio (y) = 0.30893 0.12254
# Poissons Ratio (z) = -0.02192 0.27451
#
# Static dielectric constant tensor:
#      x y z
#    x 4.387170 0.376760 -0.180690 
#    y 0.376760 4.574590 -0.152720 
#    z -0.180690 -0.152720 4.453010 
# 
# 
# High freq. dielectric constant tensor:
#      x y z
#    x 1.836900 0.009120 0.018280 
#    y 0.009120 1.875430 0.000030 
#    z 0.018280 0.000030 1.837540 
# 
# From -- ./inp_files/455631.got.cif
#   From: 2010.06.25/outbox.cif.g09.slc.cpg/sg2_228_cif.got.tgz:455631.got - 2010.06.27 13:26:56.
