data_PCOD8024615
_publ_section_title
;
Structure prediction by ZEFSAII (Michael W. Deem and Ramdas Pophale) SiO2 
 PCOD8024615
Probable space group: P -1
;
_chemical_formula_sum "Si O2"
_cell_formula_units_Z 16
_cell_length_a 14.221527
_cell_length_b 11.029335
_cell_length_c 14.642214
_cell_angle_alpha 41.880206
_cell_angle_beta 140.337527
_cell_angle_gamma 149.850374
_cell_volume 713.630355
_symmetry_space_group_name_H-M "P -1"
_symmetry_group_IT_number 2
_symmetry_cell_setting 'triclinic'
loop_
_space_group_symop_operation_xyz
x,y,z
-x,-y,-z
loop_
_atom_site_type_symbol
_atom_site_label
_atom_site_fract_x
_atom_site_fract_y
_atom_site_fract_z
Si Si1 0.738037 0.718125 0.058465
Si Si2 0.424715 0.608364 0.441250
Si Si3 0.894679 0.156171 0.811122
Si Si4 0.421073 0.996891 0.805379
Si Si5 0.455585 0.236823 0.875314
Si Si6 0.960112 0.624017 0.625929
Si Si7 0.082538 0.127748 0.702151
Si Si8 0.304096 0.225554 0.285293
O O1 0.790081 0.707360 0.206659
O O2 0.865890 0.688755 0.105910
O O3 0.500000 0.500000 0.000000
O O4 0.806710 0.980258 0.933792
O O5 0.500000 0.500000 0.500000
O O6 0.182759 0.396139 0.394643
O O7 0.513170 0.693442 0.561841
O O8 0.489543 0.849353 0.306985
O O9 0.867214 0.347378 0.692618
O O10 0.773720 0.989837 0.723330
O O11 0.179537 0.794394 0.738621
O O12 0.509481 0.190793 0.845406
O O13 0.507583 0.866857 0.954174
O O14 0.221187 0.098763 0.769658
O O15 0.611275 0.532348 0.843487
O O16 0.967951 0.741399 0.471459
O O17 0.872803 0.862065 0.727943
#
# Coordination Sequence:
#
# PCOD8024615 Si02
#       8
#     2   2   2   2   2   2   2   2
#     4  10  23  43  69  95 136 187 227 277 343 413
#     4  12  25  46  72 104 138 188 229 284 355 405
#     4  10  26  44  65 105 139 183 229 284 348 404
#     4  11  27  44  69 104 138 179 232 295 340 418
#     4  11  25  46  69 101 138 179 236 284 352 407
#     4  12  27  44  69 106 145 176 235 291 339 419
#     4  11  24  42  70 101 130 192 224 284 351 402
#     4  11  23  45  70  96 143 178 230 285 334 423
#
# _framework density 22.420572
#
# number of rings (size 3 to 8) (size 9 to 14) (size 15 to 20)
#    0.000    1.000    3.750    0.750   10.500    3.500 
#    0.000    2.500    0.000    0.000    0.000    0.000 
#    0.000    0.000    0.000    0.000    0.000    0.000 
#
# Total GULP energy -198403.093727 kJ/mol
# GULP energy per Si atom -12400.193358 kJ/mol
# Density = 2.236954 g / cm^3
# Si number density = 22.420572 Si / 1000 Ang^3
#
#
#
# Elastic Constant Matrix: (Units=GPa)
#
#
# Indices 1 2 3 4 5 6 
#
# 1 61.3967 24.1915 24.6029 -13.4700 -0.1081 11.6838
# 2 24.1915 93.3238 34.5409 0.0981 5.0260 17.2258
# 3 24.6029 34.5409 138.7953 -14.9384 9.0523 -3.1547
# 4 -13.4700 0.0981 -14.9384 39.0724 4.2569 -2.3135
# 5 -0.1081 5.0260 9.0523 4.2569 26.3591 7.8518
# 6 11.6838 17.2258 -3.1547 -2.3135 7.8518 37.0421
#
#
#
# Elastic Compliance Matrix: (Units=1/GPa)
#
#
# Indices 1 2 3 4 5 6 
#
# 1 0.020986 -0.003697 -0.002447 0.005753 0.002260 -0.005228
# 2 -0.003697 0.013969 -0.003328 -0.003014 0.000725 -0.005955
# 3 -0.002447 -0.003328 0.009215 0.003413 -0.004354 0.004240
# 4 0.005753 -0.003014 0.003413 0.029757 -0.006294 0.003070
# 5 0.002260 0.000725 -0.004354 -0.006294 0.043615 -0.011059
# 6 -0.005228 -0.005955 0.004240 0.003070 -0.011059 0.034312
#
#
# Mechanical properties :
#
#
# Convention : Reuss Voigt Hill
#
# Bulk Modulus (GPa) = 39.64272 51.13180 45.38726
# Shear Modulus (GPa) = 27.90111 34.50678 31.20395
#
# Velocity S-wave (km/s) = 3.53149 3.92735 3.73467
# Velocity P-wave (km/s) = 5.86075 6.58944 6.23575
#
# Compressibility (1/GPa) = 0.02522531
#
# Stress axis : x y z
#
# Youngs Moduli (GPa) = 47.65137 71.58822 108.52435
#
# Poissons Ratio (x) = 0.26466 0.26555
# Poissons Ratio (y) = 0.17617 0.36116
# Poissons Ratio (z) = 0.11660 0.23824
#
# Static dielectric constant tensor:
#      x y z
#    x 4.053360 0.290090 -0.034820 
#    y 0.290090 4.048470 0.039200 
#    z -0.034820 0.039200 4.305600 
# 
# 
# High freq. dielectric constant tensor:
#      x y z
#    x 1.877430 0.019360 -0.010580 
#    y 0.019360 1.883320 0.006170 
#    z -0.010580 0.006170 1.898610 
# 
# From -- ./inp_files/447298.got.cif
#   From: 2010.06.25/outbox.cif.g09.slc.cpg/sg2_224_cif.got.tgz:447298.got - 2010.06.27 13:26:56.
