data_PCOD8024779
_publ_section_title
;
Structure prediction by ZEFSAII (Michael W. Deem and Ramdas Pophale) SiO2 
 PCOD8024779
Probable space group: P -1
;
_chemical_formula_sum "Si O2"
_cell_formula_units_Z 16
_cell_length_a 8.824030
_cell_length_b 22.843485
_cell_length_c 11.449496
_cell_angle_alpha 150.105211
_cell_angle_beta 50.824546
_cell_angle_gamma 140.513234
_cell_volume 726.353304
_symmetry_space_group_name_H-M "P -1"
_symmetry_group_IT_number 2
_symmetry_cell_setting 'triclinic'
loop_
_space_group_symop_operation_xyz
x,y,z
-x,-y,-z
loop_
_atom_site_type_symbol
_atom_site_label
_atom_site_fract_x
_atom_site_fract_y
_atom_site_fract_z
Si Si1 0.121450 0.177877 0.918162
Si Si2 0.207638 0.083565 0.945805
Si Si3 0.074131 0.794805 0.446488
Si Si4 0.764613 0.555425 0.006240
Si Si5 0.612362 0.735410 0.632127
Si Si6 0.391679 0.078300 0.248554
Si Si7 0.845137 0.552199 0.706798
Si Si8 0.411820 0.734723 0.300286
O O1 0.167621 0.169414 0.017276
O O2 0.331017 0.203127 0.775563
O O3 0.085078 0.304030 0.141799
O O4 0.866190 0.032456 0.757420
O O5 0.240266 0.971168 0.665929
O O6 0.439352 0.206050 0.122847
O O7 0.000000 0.000000 0.000000
O O8 0.245861 0.748395 0.316051
O O9 0.929123 0.714375 0.258685
O O10 0.859373 0.749838 0.563307
O O11 0.500000 0.500000 0.000000
O O12 0.902380 0.574378 0.853869
O O13 0.736161 0.435593 0.899188
O O14 0.640157 0.832037 0.676587
O O15 0.427713 0.569547 0.404783
O O16 0.563205 0.183528 0.450499
O O17 0.500000 0.000000 0.000000
O O18 0.000000 0.500000 0.500000
#
# Coordination Sequence:
#
# PCOD8024779 Si02
#       8
#     2   2   2   2   2   2   2   2
#     4  12  26  44  70 112 143 183 247 303 351 424
#     4  10  23  43  72  99 145 186 233 292 363 413
#     4  11  23  42  72 104 139 192 239 283 362 433
#     4  12  23  47  73  98 151 195 230 294 369 428
#     4  11  22  47  72  98 145 194 231 291 363 427
#     4  12  24  44  75 103 143 196 244 285 359 436
#     4  12  27  44  73 108 141 186 245 298 355 429
#     4  12  26  42  73 110 145 188 243 298 358 428
#
# _framework density 22.027847000000001
#
# number of rings (size 3 to 8) (size 9 to 14) (size 15 to 20)
#    0.000    0.500    6.250    2.250    1.750    3.000 
#    0.000    0.000    0.000    0.000    0.000    0.000 
#    0.000    0.000    0.000    0.000    0.000    0.000 
#
# Total GULP energy -198274.964953 kJ/mol
# GULP energy per Si atom -12392.185310 kJ/mol
# Density = 2.197771 g / cm^3
# Si number density = 22.027847 Si / 1000 Ang^3
#
#
#
# Elastic Constant Matrix: (Units=GPa)
#
#
# Indices 1 2 3 4 5 6 
#
# 1 103.9113 24.9780 44.3374 -2.2388 -4.4320 -5.2247
# 2 24.9780 68.8871 19.2126 -0.3087 0.7091 -19.6452
# 3 44.3374 19.2126 128.2938 -3.9926 30.3810 -5.2153
# 4 -2.2388 -0.3087 -3.9926 39.8232 4.1796 -1.6102
# 5 -4.4320 0.7091 30.3810 4.1796 47.8327 0.3435
# 6 -5.2247 -19.6452 -5.2153 -1.6102 0.3435 33.5360
#
#
#
# Elastic Compliance Matrix: (Units=1/GPa)
#
#
# Indices 1 2 3 4 5 6 
#
# 1 0.012727 -0.003541 -0.004961 -0.000310 0.004416 -0.000923
# 2 -0.003541 0.019129 -0.001224 0.000243 0.000069 0.010475
# 3 -0.004961 -0.001224 0.011662 0.001741 -0.008004 0.000489
# 4 -0.000310 0.000243 0.001741 0.025692 -0.003395 0.001633
# 5 0.004416 0.000069 -0.008004 -0.003395 0.026702 -0.000953
# 6 -0.000923 0.010475 0.000489 0.001633 -0.000953 0.035975
#
#
# Mechanical properties :
#
#
# Convention : Reuss Voigt Hill
#
# Bulk Modulus (GPa) = 41.55258 53.12757 47.34008
# Shear Modulus (GPa) = 31.37512 38.40931 34.89221
#
# Velocity S-wave (km/s) = 3.77814 4.18026 3.98427
# Velocity P-wave (km/s) = 6.15930 6.88986 6.53480
#
# Compressibility (1/GPa) = 0.02406589
#
# Stress axis : x y z
#
# Youngs Moduli (GPa) = 78.57376 52.27534 85.74904
#
# Poissons Ratio (x) = 0.18512 0.42541
# Poissons Ratio (y) = 0.27825 0.10495
# Poissons Ratio (z) = 0.38981 0.06398
#
# Static dielectric constant tensor:
#      x y z
#    x 3.936780 -0.053100 0.042490 
#    y -0.053100 3.424600 -0.109690 
#    z 0.042490 -0.109690 4.305760 
# 
# 
# High freq. dielectric constant tensor:
#      x y z
#    x 1.866080 -0.001390 0.006460 
#    y -0.001390 1.850430 0.007910 
#    z 0.006460 0.007910 1.893780 
# 
# From -- ./inp_files/406754.got.cif
#   From: 2010.06.25/outbox.cif.g09.slc.cpg/sg2_204_cif.got.tgz:406754.got - 2010.06.27 13:26:56.
