data_PCOD8024224
_publ_section_title
;
Structure prediction by ZEFSAII (Michael W. Deem and Ramdas Pophale) SiO2 
 PCOD8024224
Probable space group: P -1
;
_chemical_formula_sum "Si O2"
_cell_formula_units_Z 14
_cell_length_a 17.880813
_cell_length_b 12.138331
_cell_length_c 8.814494
_cell_angle_alpha 142.238655
_cell_angle_beta 131.991100
_cell_angle_gamma 29.821318
_cell_volume 581.713019
_symmetry_space_group_name_H-M "P -1"
_symmetry_group_IT_number 2
_symmetry_cell_setting 'triclinic'
loop_
_space_group_symop_operation_xyz
x,y,z
-x,-y,-z
loop_
_atom_site_type_symbol
_atom_site_label
_atom_site_fract_x
_atom_site_fract_y
_atom_site_fract_z
Si Si1 0.775989 0.501190 0.412396
Si Si2 0.279576 0.075521 0.673429
Si Si3 0.574010 0.275069 0.235624
Si Si4 0.995525 0.934521 0.252310
Si Si5 0.961218 0.567420 0.845983
Si Si6 0.531413 0.581049 0.272904
Si Si7 0.711643 0.556692 0.040263
O O1 0.812967 0.648861 0.692181
O O2 0.610647 0.662856 0.424431
O O3 0.776500 0.519303 0.252290
O O4 0.893171 0.193984 0.289238
O O5 0.325883 0.218655 0.865133
O O6 0.100209 0.294327 0.641413
O O7 0.306253 0.003387 0.812388
O O8 0.373821 0.825045 0.413453
O O9 0.500000 0.500000 0.500000
O O10 0.644519 0.314569 0.246348
O O11 0.445967 0.334342 0.038543
O O12 0.937652 0.805475 0.025722
O O13 0.000000 0.000000 0.500000
O O14 0.165298 0.725237 0.189893
O O15 0.000000 0.500000 0.000000
O O16 0.500000 0.500000 0.000000
#
# Coordination Sequence:
#
# PCOD8024224 Si02
#       7
#     2   2   2   2   2   2   2
#     4  12  27  45  77 108 153 189 245 305 372 436
#     4  10  26  46  74 101 147 187 248 304 359 437
#     4  10  23  42  74  99 143 190 244 296 363 430
#     4  11  26  45  76 106 149 193 249 301 366 441
#     4  11  26  48  75 111 143 194 247 300 369 437
#     4  11  25  46  69 110 145 191 243 297 372 435
#     4  11  25  48  70 109 141 195 248 302 375 424
#
# _framework density 24.066849000000001
#
# number of rings (size 3 to 8) (size 9 to 14) (size 15 to 20)
#    0.000    1.143    2.857    0.857   10.000    6.286 
#    0.000    0.000    0.000    0.000    0.000    0.000 
#    0.000    0.000    0.000    0.000    0.000    0.000 
#
# Total GULP energy -173572.369170 kJ/mol
# GULP energy per Si atom -12398.026369 kJ/mol
# Density = 2.401207 g / cm^3
# Si number density = 24.066849 Si / 1000 Ang^3
#
#
#
# Elastic Constant Matrix: (Units=GPa)
#
#
# Indices 1 2 3 4 5 6 
#
# 1 105.5372 18.3621 36.2979 -5.7669 8.2353 5.4296
# 2 18.3621 77.5752 38.9725 -3.5836 1.4846 16.5468
# 3 36.2979 38.9725 114.8162 -19.2979 0.9242 -4.4090
# 4 -5.7669 -3.5836 -19.2979 40.0147 -1.6191 3.2251
# 5 8.2353 1.4846 0.9242 -1.6191 48.8052 -2.6723
# 6 5.4296 16.5468 -4.4090 3.2251 -2.6723 52.6872
#
#
#
# Elastic Compliance Matrix: (Units=1/GPa)
#
#
# Indices 1 2 3 4 5 6 
#
# 1 0.010920 -0.000628 -0.003280 -0.000034 -0.001833 -0.001294
# 2 -0.000628 0.017298 -0.006064 -0.001021 -0.000659 -0.005846
# 3 -0.003280 -0.006064 0.012742 0.004917 0.000827 0.003050
# 4 -0.000034 -0.001021 0.004917 0.027371 0.000803 -0.000899
# 5 -0.001833 -0.000659 0.000827 0.000803 0.020911 0.001477
# 6 -0.001294 -0.005846 0.003050 -0.000899 0.001477 0.021334
#
#
# Mechanical properties :
#
#
# Convention : Reuss Voigt Hill
#
# Bulk Modulus (GPa) = 47.58039 53.91040 50.74540
# Shear Modulus (GPa) = 36.35698 41.92116 39.13907
#
# Velocity S-wave (km/s) = 3.89095 4.17809 4.03707
# Velocity P-wave (km/s) = 6.32447 6.76196 6.54687
#
# Compressibility (1/GPa) = 0.02101706
#
# Stress axis : x y z
#
# Youngs Moduli (GPa) = 91.57185 57.80944 78.48243
#
# Poissons Ratio (x) = 0.03628 0.25742
# Poissons Ratio (y) = 0.05747 0.47592
# Poissons Ratio (z) = 0.30035 0.35056
#
# Static dielectric constant tensor:
#      x y z
#    x 4.783280 0.367720 0.026190 
#    y 0.367720 5.280860 0.130310 
#    z 0.026190 0.130310 4.119230 
# 
# 
# High freq. dielectric constant tensor:
#      x y z
#    x 1.977180 0.010070 0.000540 
#    y 0.010070 1.954910 0.007940 
#    z 0.000540 0.007940 1.950590 
# 
# From -- ./inp_files/333943.got.cif
#   From: 2010.06.25/outbox.cif.g09.slc.cpg/sg2_167_cif.got.tgz:333943.got - 2010.06.27 13:26:56.
