data_PCOD8024917
_publ_section_title
;
Structure prediction by ZEFSAII (Michael W. Deem and Ramdas Pophale) SiO2 
 PCOD8024917
Probable space group: P -1
;
_chemical_formula_sum "Si O2"
_cell_formula_units_Z 14
_cell_length_a 11.531012
_cell_length_b 7.887553
_cell_length_c 24.377150
_cell_angle_alpha 146.853521
_cell_angle_beta 30.068158
_cell_angle_gamma 138.632080
_cell_volume 604.677301
_symmetry_space_group_name_H-M "P -1"
_symmetry_group_IT_number 2
_symmetry_cell_setting 'triclinic'
loop_
_space_group_symop_operation_xyz
x,y,z
-x,-y,-z
loop_
_atom_site_type_symbol
_atom_site_label
_atom_site_fract_x
_atom_site_fract_y
_atom_site_fract_z
Si Si1 0.531762 0.218487 0.450230
Si Si2 0.602491 0.892360 0.151678
Si Si3 0.035419 0.109109 0.829206
Si Si4 0.724385 0.595335 0.572173
Si Si5 0.251365 0.639411 0.382197
Si Si6 0.920899 0.206219 0.020841
Si Si7 0.380274 0.314192 0.139488
O O1 0.500000 0.500000 0.500000
O O2 0.596757 0.312081 0.511755
O O3 0.713929 0.998627 0.290468
O O4 0.294501 0.995337 0.482169
O O5 0.477931 0.539106 0.110217
O O6 0.405829 0.105562 0.311202
O O7 0.696277 0.001879 0.082672
O O8 0.837791 0.938162 0.103723
O O9 0.062769 0.427730 0.867638
O O10 0.892984 0.805279 0.778796
O O11 0.887588 0.188536 0.964675
O O12 0.708791 0.564245 0.635666
O O13 0.996800 0.623518 0.454682
O O14 0.425718 0.516678 0.231671
O O15 0.500000 0.000000 0.000000
#
# Coordination Sequence:
#
# PCOD8024917 Si02
#       7
#     2   2   2   2   2   2   2
#     4  12  25  43  74 103 135 185 230 287 350 418
#     4  11  24  43  69  98 141 172 240 288 349 408
#     4  11  23  43  70  96 140 180 234 280 362 407
#     4  11  25  47  69 103 137 186 230 294 342 417
#     4  11  26  47  70  99 144 181 236 284 350 418
#     4  10  23  44  66 100 132 187 227 295 341 421
#     4  12  25  44  69 102 137 185 229 291 349 419
#
# _framework density 23.152844999999999
#
# number of rings (size 3 to 8) (size 9 to 14) (size 15 to 20)
#    0.000    0.857    2.857    3.857    6.000    1.714 
#    0.000    0.000    0.000    0.000    0.000    0.000 
#    0.000    0.000    0.000    0.000    0.000    0.000 
#
# Total GULP energy -173473.869200 kJ/mol
# GULP energy per Si atom -12390.990657 kJ/mol
# Density = 2.310015 g / cm^3
# Si number density = 23.152845 Si / 1000 Ang^3
#
#
#
# Elastic Constant Matrix: (Units=GPa)
#
#
# Indices 1 2 3 4 5 6 
#
# 1 81.3272 41.2722 48.3241 7.4069 -2.5790 9.9557
# 2 41.2722 159.8675 47.3623 21.1796 1.3762 -10.9125
# 3 48.3241 47.3623 127.3995 17.7930 -11.2967 -9.2071
# 4 7.4069 21.1796 17.7930 29.6891 -4.3051 4.7938
# 5 -2.5790 1.3762 -11.2967 -4.3051 34.2748 4.6555
# 6 9.9557 -10.9125 -9.2071 4.7938 4.6555 36.9133
#
#
#
# Elastic Compliance Matrix: (Units=1/GPa)
#
#
# Indices 1 2 3 4 5 6 
#
# 1 0.019141 -0.004012 -0.006826 0.003720 0.000995 -0.008659
# 2 -0.004012 0.008594 -0.000748 -0.005723 -0.002218 0.004459
# 3 -0.006826 -0.000748 0.012037 -0.005490 0.002105 0.005069
# 4 0.003720 -0.005723 -0.005490 0.042577 0.005444 -0.010280
# 5 0.000995 -0.002218 0.002105 0.005444 0.031406 -0.005067
# 6 -0.008659 0.004459 0.005069 -0.010280 -0.005067 0.033983
#
#
# Mechanical properties :
#
#
# Convention : Reuss Voigt Hill
#
# Bulk Modulus (GPa) = 60.24397 71.39018 65.81708
# Shear Modulus (GPa) = 28.33791 35.61782 31.97787
#
# Velocity S-wave (km/s) = 3.50229 3.92647 3.72043
# Velocity P-wave (km/s) = 6.51394 7.17339 6.85160
#
# Compressibility (1/GPa) = 0.01659917
#
# Stress axis : x y z
#
# Youngs Moduli (GPa) = 52.24493 116.35662 83.08019
#
# Poissons Ratio (x) = 0.46678 0.56711
# Poissons Ratio (y) = 0.20959 0.06218
# Poissons Ratio (z) = 0.35662 0.08709
#
# Static dielectric constant tensor:
#      x y z
#    x 4.246530 0.240430 0.007970 
#    y 0.240430 4.791260 -0.019050 
#    z 0.007970 -0.019050 4.150780 
# 
# 
# High freq. dielectric constant tensor:
#      x y z
#    x 1.905070 0.003310 -0.011320 
#    y 0.003310 1.922740 0.000700 
#    z -0.011320 0.000700 1.921470 
# 
# From -- ./inp_files/618180.got.cif
#   From: 2010.06.25/outbox.cif.g09.slc.cpg/sg2_310_cif.got.tgz:618180.got - 2010.06.27 13:26:56.
