data_PCOD8024211
_publ_section_title
;
Structure prediction by ZEFSAII (Michael W. Deem and Ramdas Pophale) SiO2 
 PCOD8024211
Probable space group: P -1
;
_chemical_formula_sum "Si O2"
_cell_formula_units_Z 16
_cell_length_a 8.577429
_cell_length_b 14.958499
_cell_length_c 8.542505
_cell_angle_alpha 68.222838
_cell_angle_beta 46.653817
_cell_angle_gamma 65.214983
_cell_volume 717.873596
_symmetry_space_group_name_H-M "P -1"
_symmetry_group_IT_number 2
_symmetry_cell_setting 'triclinic'
loop_
_space_group_symop_operation_xyz
x,y,z
-x,-y,-z
loop_
_atom_site_type_symbol
_atom_site_label
_atom_site_fract_x
_atom_site_fract_y
_atom_site_fract_z
Si Si1 0.333792 0.758482 0.990977
Si Si2 0.345428 0.526637 0.735577
Si Si3 0.037967 0.617696 0.257759
Si Si4 0.120315 0.359070 0.992922
Si Si5 0.774974 0.040315 0.220974
Si Si6 0.436496 0.156090 0.969799
Si Si7 0.655238 0.579023 0.746381
Si Si8 0.596729 0.015723 0.674804
O O1 0.112132 0.718997 0.173891
O O2 0.309613 0.840812 0.817887
O O3 0.367005 0.808518 0.101032
O O4 0.550507 0.669697 0.873195
O O5 0.500000 0.500000 0.500000
O O6 0.274353 0.428093 0.909684
O O7 0.474938 0.573699 0.743701
O O8 0.124432 0.609203 0.783189
O O9 0.263747 0.527759 0.153051
O O10 0.904865 0.621586 0.187411
O O11 0.878753 0.603238 0.514763
O O12 0.223537 0.244816 0.029527
O O13 0.792316 0.018597 0.411891
O O14 0.613990 0.981290 0.289843
O O15 0.000000 0.000000 0.000000
O O16 0.343454 0.079877 0.191533
O O17 0.540196 0.112060 0.762264
#
# Coordination Sequence:
#
# PCOD8024211 Si02
#       8
#     2   2   2   2   2   2   2   2
#     4  11  24  41  65  98 130 177 215 274 330 392
#     4  11  23  40  61  93 132 176 221 275 330 380
#     4  11  24  40  65  93 129 175 225 269 323 391
#     4  11  24  38  67  95 130 175 222 273 324 398
#     4  10  23  42  74 100 130 169 222 274 334 403
#     4  10  23  44  70  98 138 173 219 278 337 396
#     4  11  24  41  62  93 133 176 219 274 328 389
#     4   9  22  47  70  97 134 172 212 280 341 393
#
# _framework density 22.288046000000001
#
# number of rings (size 3 to 8) (size 9 to 14) (size 15 to 20)
#    0.000    1.500    2.500    1.125    7.000    2.000 
#    0.000    9.375    0.000    0.000    0.000    0.000 
#    0.000    0.000    0.000    0.000    0.000    0.000 
#
# Total GULP energy -198399.883782 kJ/mol
# GULP energy per Si atom -12399.992736 kJ/mol
# Density = 2.223732 g / cm^3
# Si number density = 22.288046 Si / 1000 Ang^3
#
#
#
# Elastic Constant Matrix: (Units=GPa)
#
#
# Indices 1 2 3 4 5 6 
#
# 1 74.4787 48.1971 32.8900 -0.3111 1.1392 9.2572
# 2 48.1971 138.7874 53.6837 7.2982 4.9731 5.7432
# 3 32.8900 53.6837 130.7056 16.5783 7.5659 4.5115
# 4 -0.3111 7.2982 16.5783 28.8594 1.8804 -1.7524
# 5 1.1392 4.9731 7.5659 1.8804 34.8095 -1.8723
# 6 9.2572 5.7432 4.5115 -1.7524 -1.8723 42.9973
#
#
#
# Elastic Compliance Matrix: (Units=1/GPa)
#
#
# Indices 1 2 3 4 5 6 
#
# 1 0.018498 -0.005422 -0.002729 0.002937 0.000451 -0.002833
# 2 -0.005422 0.010192 -0.002649 -0.001071 -0.000644 0.000012
# 3 -0.002729 -0.002649 0.010176 -0.005133 -0.001488 -0.000400
# 4 0.002937 -0.001071 -0.005133 0.038049 -0.000799 0.001565
# 5 0.000451 -0.000644 -0.001488 -0.000799 0.029246 0.001386
# 6 -0.002833 0.000012 -0.000400 0.001565 0.001386 0.024032
#
#
# Mechanical properties :
#
#
# Convention : Reuss Voigt Hill
#
# Bulk Modulus (GPa) = 57.91326 68.16814 63.04070
# Shear Modulus (GPa) = 31.73670 35.27997 33.50833
#
# Velocity S-wave (km/s) = 3.77760 3.98290 3.88160
# Velocity P-wave (km/s) = 6.71323 7.19741 6.95953
#
# Compressibility (1/GPa) = 0.01726720
#
# Stress axis : x y z
#
# Youngs Moduli (GPa) = 54.06121 98.12032 98.26707
#
# Poissons Ratio (x) = 0.53197 0.26814
# Poissons Ratio (y) = 0.29310 0.26030
# Poissons Ratio (z) = 0.14751 0.25991
#
# Static dielectric constant tensor:
#      x y z
#    x 4.386740 0.177060 0.198420 
#    y 0.177060 4.224990 0.009980 
#    z 0.198420 0.009980 4.259690 
# 
# 
# High freq. dielectric constant tensor:
#      x y z
#    x 1.880710 0.008120 0.002240 
#    y 0.008120 1.882070 0.001270 
#    z 0.002240 0.001270 1.877510 
# 
# From -- ./inp_files/206161.got.cif
#   From: 2010.06.25/outbox.cif.g09.slc.cpg/sg2_104_cif.got.tgz:206161.got - 2010.06.27 13:26:56.
