data_PCOD8024133
_publ_section_title
;
Structure prediction by ZEFSAII (Michael W. Deem and Ramdas Pophale) SiO2 
 PCOD8024133
Probable space group: P -1
;
_chemical_formula_sum "Si O2"
_cell_formula_units_Z 12
_cell_length_a 7.465476
_cell_length_b 5.718462
_cell_length_c 14.525639
_cell_angle_alpha 95.227115
_cell_angle_beta 66.512132
_cell_angle_gamma 122.798963
_cell_volume 471.760311
_symmetry_space_group_name_H-M "P -1"
_symmetry_group_IT_number 2
_symmetry_cell_setting 'triclinic'
loop_
_space_group_symop_operation_xyz
x,y,z
-x,-y,-z
loop_
_atom_site_type_symbol
_atom_site_label
_atom_site_fract_x
_atom_site_fract_y
_atom_site_fract_z
Si Si1 0.486940 0.960322 0.741323
Si Si2 0.708788 0.194269 0.034077
Si Si3 0.911186 0.042553 0.262542
Si Si4 0.775706 0.725175 0.960788
Si Si5 0.129346 0.494906 0.383044
Si Si6 0.546621 0.488343 0.384627
O O1 0.418137 0.798398 0.846735
O O2 0.296229 0.033524 0.767785
O O3 0.464540 0.788425 0.648893
O O4 0.756654 0.226263 0.694589
O O5 0.868387 0.529505 0.978413
O O6 0.500000 0.000000 0.000000
O O7 0.835111 0.014627 0.013577
O O8 0.141499 0.178544 0.157710
O O9 0.944732 0.238485 0.348478
O O10 0.815905 0.739167 0.315863
O O11 0.500000 0.500000 0.000000
O O12 0.347146 0.480367 0.365950
O O13 0.000000 0.500000 0.500000
O O14 0.500000 0.500000 0.500000
#
# Coordination Sequence:
#
# PCOD8024133 Si02
#       6
#     2   2   2   2   2   2
#     4  11  26  44  71 103 142 189 239 300 362 439
#     4  10  23  42  71 101 147 186 243 295 359 430
#     4  11  26  44  72 101 143 190 240 296 370 432
#     4  10  23  43  69 105 143 190 243 296 356 435
#     4  11  24  45  72 101 140 186 240 302 367 435
#     4  11  26  46  69 106 142 180 242 303 364 440
#
# _framework density 25.436646
#
# number of rings (size 3 to 8) (size 9 to 14) (size 15 to 20)
#    0.000    1.333    0.000    4.000   11.667    8.000 
#    0.000    0.000    0.000    0.000    0.000    0.000 
#    0.000    0.000    0.000    0.000    0.000    0.000 
#
# Total GULP energy -148665.704066 kJ/mol
# GULP energy per Si atom -12388.808672 kJ/mol
# Density = 2.537875 g / cm^3
# Si number density = 25.436646 Si / 1000 Ang^3
#
#
#
# Elastic Constant Matrix: (Units=GPa)
#
#
# Indices 1 2 3 4 5 6 
#
# 1 60.9494 20.8657 13.5862 -7.1316 -5.5653 -14.4441
# 2 20.8657 155.4053 25.9797 -7.4065 -0.9307 -10.2675
# 3 13.5862 25.9797 158.1471 -5.7703 -1.4081 -3.6544
# 4 -7.1316 -7.4065 -5.7703 54.8180 4.8193 -1.8364
# 5 -5.5653 -0.9307 -1.4081 4.8193 33.9532 1.9178
# 6 -14.4441 -10.2675 -3.6544 -1.8364 1.9178 30.9635
#
#
#
# Elastic Compliance Matrix: (Units=1/GPa)
#
#
# Indices 1 2 3 4 5 6 
#
# 1 0.019757 -0.001784 -0.001104 0.002292 0.002339 0.008485
# 2 -0.001784 0.006955 -0.000934 0.000685 -0.000318 0.001424
# 3 -0.001104 -0.000934 0.006586 0.000422 0.000008 -0.000023
# 4 0.002292 0.000685 0.000422 0.018979 -0.002430 0.002622
# 5 0.002339 -0.000318 0.000008 -0.002430 0.030230 -0.001030
# 6 0.008485 0.001424 -0.000023 0.002622 -0.001030 0.036943
#
#
# Mechanical properties :
#
#
# Convention : Reuss Voigt Hill
#
# Bulk Modulus (GPa) = 38.98025 55.04054 47.01040
# Shear Modulus (GPa) = 36.86054 44.88494 40.87274
#
# Velocity S-wave (km/s) = 3.81085 4.20524 4.01290
# Velocity P-wave (km/s) = 5.89247 6.72786 6.32397
#
# Compressibility (1/GPa) = 0.02565402
#
# Stress axis : x y z
#
# Youngs Moduli (GPa) = 50.61621 143.77381 151.82667
#
# Poissons Ratio (x) = 0.25654 0.16756
# Poissons Ratio (y) = 0.09031 0.14184
# Poissons Ratio (z) = 0.05586 0.13432
#
# Static dielectric constant tensor:
#      x y z
#    x -11.609490 6.821670 -0.584780 
#    y 6.821670 2.036860 -0.053420 
#    z -0.584780 -0.053420 4.546900 
# 
# 
# High freq. dielectric constant tensor:
#      x y z
#    x 2.023580 0.011730 -0.000340 
#    y 0.011730 2.036150 -0.006350 
#    z -0.000340 -0.006350 2.021460 
# 
# From -- ./inp_files/31490.got.cif
#   From: 2010.06.25/outbox.cif.g09.slc.cpg/sg2_16_cif.got.tgz:31490.got - 2010.06.27 13:26:56.
