data_PCOD8024715
_publ_section_title
;
Structure prediction by ZEFSAII (Michael W. Deem and Ramdas Pophale) SiO2 
 PCOD8024715
Probable space group: P -1
;
_chemical_formula_sum "Si O2"
_cell_formula_units_Z 14
_cell_length_a 18.451655
_cell_length_b 6.741815
_cell_length_c 13.374783
_cell_angle_alpha 102.490629
_cell_angle_beta 158.744633
_cell_angle_gamma 76.818349
_cell_volume 587.241130
_symmetry_space_group_name_H-M "P -1"
_symmetry_group_IT_number 2
_symmetry_cell_setting 'triclinic'
loop_
_space_group_symop_operation_xyz
x,y,z
-x,-y,-z
loop_
_atom_site_type_symbol
_atom_site_label
_atom_site_fract_x
_atom_site_fract_y
_atom_site_fract_z
Si Si1 0.917491 0.958743 0.526944
Si Si2 0.883739 0.574974 0.547415
Si Si3 0.211708 0.535261 0.225447
Si Si4 0.361663 0.328840 0.572958
Si Si5 0.592341 0.071639 0.520162
Si Si6 0.204670 0.286626 0.996207
Si Si7 0.254299 0.747122 0.806528
O O1 0.734079 0.066642 0.237975
O O2 0.050242 0.801375 0.610427
O O3 0.033664 0.129182 0.750721
O O4 0.840783 0.814750 0.497937
O O5 0.808771 0.560038 0.563427
O O6 0.753834 0.461740 0.287687
O O7 0.117812 0.480069 0.837236
O O8 0.383392 0.486938 0.526249
O O9 0.244084 0.756976 0.242009
O O10 0.245003 0.360922 0.167287
O O11 0.000000 0.500000 0.000000
O O12 0.297764 0.119352 0.417705
O O13 0.564249 0.280594 0.888057
O O14 0.415402 0.165169 0.227346
O O15 0.500000 0.000000 0.500000
#
# Coordination Sequence:
#
# PCOD8024715 Si02
#       7
#     2   2   2   2   2   2   2
#     4  10  23  43  71 100 140 180 233 292 343 419
#     4  11  25  41  73  99 140 185 227 293 351 414
#     4  12  28  47  72 106 146 182 235 296 360 413
#     4  12  26  44  70 103 141 185 233 292 352 420
#     4  12  28  45  72 105 142 190 238 289 346 428
#     4  11  24  44  69 102 137 180 234 283 350 423
#     4  10  23  44  65 103 137 181 238 284 352 413
#
# _framework density 23.84029
#
# number of rings (size 3 to 8) (size 9 to 14) (size 15 to 20)
#    0.000    0.857    4.286    1.286    6.000    2.286 
#    0.000    0.000    0.000    0.000    0.000    0.000 
#    0.000    0.000    0.000    0.000    0.000    0.000 
#
# Total GULP energy -173441.330351 kJ/mol
# GULP energy per Si atom -12388.666454 kJ/mol
# Density = 2.378603 g / cm^3
# Si number density = 23.840290 Si / 1000 Ang^3
#
#
#
# Elastic Constant Matrix: (Units=GPa)
#
#
# Indices 1 2 3 4 5 6 
#
# 1 74.6250 41.6941 19.3412 21.8180 -23.7744 -0.3040
# 2 41.6941 129.6784 40.2306 10.6030 -14.2826 9.9954
# 3 19.3412 40.2306 84.8632 -14.0691 -18.7129 13.0554
# 4 21.8180 10.6030 -14.0691 35.0132 -1.2041 -9.8004
# 5 -23.7744 -14.2826 -18.7129 -1.2041 37.6362 -0.3363
# 6 -0.3040 9.9954 13.0554 -9.8004 -0.3363 47.7839
#
#
#
# Elastic Compliance Matrix: (Units=1/GPa)
#
#
# Indices 1 2 3 4 5 6 
#
# 1 0.025078 -0.004313 -0.003444 -0.015604 0.011983 -0.001113
# 2 -0.004313 0.010769 -0.004578 -0.002905 -0.001021 -0.001632
# 3 -0.003444 -0.004578 0.017911 0.010412 0.005309 -0.001785
# 4 -0.015604 -0.002905 0.010412 0.045129 -0.004277 0.006889
# 5 0.011983 -0.001021 0.005309 -0.004277 0.036239 -0.001783
# 6 -0.001113 -0.001632 -0.001785 0.006889 -0.001783 0.023150
#
#
# Mechanical properties :
#
#
# Convention : Reuss Voigt Hill
#
# Bulk Modulus (GPa) = 34.37955 54.63317 44.50636
# Shear Modulus (GPa) = 25.95474 36.61338 31.28406
#
# Velocity S-wave (km/s) = 3.30311 3.92315 3.62641
# Velocity P-wave (km/s) = 5.38512 6.59451 6.02026
#
# Compressibility (1/GPa) = 0.02908706
#
# Stress axis : x y z
#
# Youngs Moduli (GPa) = 39.87537 92.85688 55.83314
#
# Poissons Ratio (x) = 0.40050 0.19230
# Poissons Ratio (y) = 0.17199 0.25561
# Poissons Ratio (z) = 0.13734 0.42511
#
# Static dielectric constant tensor:
#      x y z
#    x 4.336300 -0.019730 -0.334600 
#    y -0.019730 4.649140 -0.343710 
#    z -0.334600 -0.343710 4.256600 
# 
# 
# High freq. dielectric constant tensor:
#      x y z
#    x 1.933990 -0.011770 -0.029370 
#    y -0.011770 1.964230 -0.019600 
#    z -0.029370 -0.019600 1.936780 
# 
# From -- ./inp_files/60763.got.cif
#   From: 2010.06.25/outbox.cif.g09.slc.cpg/sg2_31_cif.got.tgz:60763.got - 2010.06.27 13:26:56.
