data_PCOD8024532
_publ_section_title
;
Structure prediction by ZEFSAII (Michael W. Deem and Ramdas Pophale) SiO2 
 PCOD8024532
Probable space group: P -1
;
_chemical_formula_sum "Si O2"
_cell_formula_units_Z 16
_cell_length_a 14.312151
_cell_length_b 10.760877
_cell_length_c 15.000475
_cell_angle_alpha 107.116350
_cell_angle_beta 19.569488
_cell_angle_gamma 108.434854
_cell_volume 734.057808
_symmetry_space_group_name_H-M "P -1"
_symmetry_group_IT_number 2
_symmetry_cell_setting 'triclinic'
loop_
_space_group_symop_operation_xyz
x,y,z
-x,-y,-z
loop_
_atom_site_type_symbol
_atom_site_label
_atom_site_fract_x
_atom_site_fract_y
_atom_site_fract_z
Si Si1 0.861327 0.284212 0.597216
Si Si2 0.829511 0.934705 0.013535
Si Si3 0.220082 0.942764 0.501986
Si Si4 0.315192 0.232087 0.419989
Si Si5 0.960149 0.791089 0.035604
Si Si6 0.384446 0.490521 0.199675
Si Si7 0.269792 0.695939 0.087671
Si Si8 0.524110 0.348035 0.436717
O O1 0.927721 0.151965 0.461935
O O2 0.717495 0.366357 0.665578
O O3 0.679985 0.250128 0.843992
O O4 0.135284 0.371996 0.406621
O O5 0.080508 0.913072 0.716914
O O6 0.863979 0.078873 0.055490
O O7 0.542954 0.918103 0.212311
O O8 0.824213 0.824117 0.070836
O O9 0.180458 0.088915 0.540262
O O10 0.498818 0.309342 0.347793
O O11 0.054732 0.312612 0.649952
O O12 0.523501 0.215554 0.146391
O O13 0.714361 0.738675 0.312161
O O14 0.171650 0.682241 0.808905
O O15 0.500000 0.500000 0.000000
O O16 0.630789 0.452170 0.036186
O O17 0.500000 0.500000 0.500000
#
# Coordination Sequence:
#
# PCOD8024532 Si02
#       8
#     2   2   2   2   2   2   2   2
#     4  10  23  43  68  96 133 176 213 278 325 380
#     4  11  23  43  71  99 130 168 223 284 326 398
#     4  12  25  42  67 102 134 168 221 274 333 381
#     4  12  24  43  65  94 136 173 220 267 322 401
#     4  11  22  46  72  94 130 177 221 270 345 384
#     4   9  20  44  65  88 127 174 216 267 328 374
#     4  11  23  43  66  95 129 181 217 260 325 390
#     4  12  25  46  67  99 138 179 215 272 335 397
#
# _framework density 21.796648000000001
#
# number of rings (size 3 to 8) (size 9 to 14) (size 15 to 20)
#    0.000    1.000    3.750    2.625    3.500    3.000 
#    6.750    0.000    0.000    0.000    0.000    0.000 
#    0.000    0.000    0.000    0.000    0.000    0.000 
#
# Total GULP energy -198362.993528 kJ/mol
# GULP energy per Si atom -12397.687096 kJ/mol
# Density = 2.174704 g / cm^3
# Si number density = 21.796648 Si / 1000 Ang^3
#
#
#
# Elastic Constant Matrix: (Units=GPa)
#
#
# Indices 1 2 3 4 5 6 
#
# 1 88.8826 48.9024 32.9288 2.8159 5.0488 -23.4342
# 2 48.9024 85.9152 15.9915 14.3105 12.1280 -1.1207
# 3 32.9288 15.9915 109.8240 1.9098 5.4055 -14.0854
# 4 2.8159 14.3105 1.9098 30.7948 -9.6615 -0.1488
# 5 5.0488 12.1280 5.4055 -9.6615 42.8701 6.6018
# 6 -23.4342 -1.1207 -14.0854 -0.1488 6.6018 26.5426
#
#
#
# Elastic Compliance Matrix: (Units=1/GPa)
#
#
# Indices 1 2 3 4 5 6 
#
# 1 0.025608 -0.014375 -0.002977 0.004383 -0.000764 0.020637
# 2 -0.014375 0.022214 0.000204 -0.010782 -0.005453 -0.010349
# 3 -0.002977 0.000204 0.010509 -0.001018 -0.001785 0.003396
# 4 0.004383 -0.010782 -0.001018 0.040864 0.011848 0.000157
# 5 -0.000764 -0.005453 -0.001785 0.011848 0.029249 -0.009060
# 6 0.020637 -0.010349 0.003396 0.000157 -0.009060 0.059515
#
#
# Mechanical properties :
#
#
# Convention : Reuss Voigt Hill
#
# Bulk Modulus (GPa) = 41.60371 53.36304 47.48337
# Shear Modulus (GPa) = 21.71384 32.49478 27.10431
#
# Velocity S-wave (km/s) = 3.15969 3.86530 3.53017
# Velocity P-wave (km/s) = 5.69563 6.66754 6.20065
#
# Compressibility (1/GPa) = 0.02403632
#
# Stress axis : x y z
#
# Youngs Moduli (GPa) = 39.04992 45.01593 95.15331
#
# Poissons Ratio (x) = 0.64710 0.28326
# Poissons Ratio (y) = 0.56134 -0.01941
# Poissons Ratio (z) = 0.11625 -0.00918
#
# Static dielectric constant tensor:
#      x y z
#    x 4.092590 -0.612410 -0.078890 
#    y -0.612410 4.158270 0.071060 
#    z -0.078890 0.071060 3.763440 
# 
# 
# High freq. dielectric constant tensor:
#      x y z
#    x 1.851610 -0.031400 0.003340 
#    y -0.031400 1.840550 0.004720 
#    z 0.003340 0.004720 1.875650 
# 
# From -- ./inp_files/531850.got.cif
#   From: 2010.06.25/outbox.cif.g09.slc.cpg/sg2_266_cif.got.tgz:531850.got - 2010.06.27 13:26:56.
