data_PCOD8024561
_publ_section_title
;
Structure prediction by ZEFSAII (Michael W. Deem and Ramdas Pophale) SiO2 
 PCOD8024561
Probable space group: P -1
;
_chemical_formula_sum "Si O2"
_cell_formula_units_Z 16
_cell_length_a 18.905900
_cell_length_b 11.921811
_cell_length_c 10.711240
_cell_angle_alpha 35.991430
_cell_angle_beta 148.909604
_cell_angle_gamma 136.651364
_cell_volume 727.934885
_symmetry_space_group_name_H-M "P -1"
_symmetry_group_IT_number 2
_symmetry_cell_setting 'triclinic'
loop_
_space_group_symop_operation_xyz
x,y,z
-x,-y,-z
loop_
_atom_site_type_symbol
_atom_site_label
_atom_site_fract_x
_atom_site_fract_y
_atom_site_fract_z
Si Si1 0.186386 0.116133 0.939541
Si Si2 0.065872 0.838271 0.816609
Si Si3 0.208261 0.235364 0.404151
Si Si4 0.561218 0.997183 0.956282
Si Si5 0.912641 0.057812 0.702455
Si Si6 0.693852 0.150650 0.452381
Si Si7 0.342500 0.510553 0.726352
Si Si8 0.294108 0.626454 0.265598
O O1 0.259576 0.307052 0.816982
O O2 0.026299 0.154796 0.689399
O O3 0.180687 0.937727 0.996176
O O4 0.270617 0.046620 0.248567
O O5 0.935826 0.719116 0.793873
O O6 0.143916 0.703159 0.966344
O O7 0.000000 0.000000 0.500000
O O8 0.293919 0.445869 0.333023
O O9 0.177263 0.131745 0.318328
O O10 0.296560 0.099698 0.743208
O O11 0.588673 0.214144 0.751717
O O12 0.458050 0.879625 0.808987
O O13 0.500000 0.000000 0.000000
O O14 0.803693 0.197729 0.461955
O O15 0.000000 0.000000 0.000000
O O16 0.711562 0.328097 0.413199
O O17 0.323770 0.559148 0.510468
O O18 0.500000 0.500000 0.000000
#
# Coordination Sequence:
#
# PCOD8024561 Si02
#       8
#     2   2   2   2   2   2   2   2
#     4  10  23  43  68  99 139 178 226 284 341 404
#     4  11  21  42  69  97 141 176 221 285 346 402
#     4  11  23  44  68 100 135 175 234 282 337 410
#     4  12  26  46  68  97 140 185 231 283 344 406
#     4   9  21  45  68  94 134 181 225 282 338 395
#     4  11  23  45  69  97 139 183 228 284 344 401
#     4  12  26  42  69 107 139 179 232 277 343 421
#     4  12  26  43  71 102 135 182 227 288 348 408
#
# _framework density 21.979987000000001
#
# number of rings (size 3 to 8) (size 9 to 14) (size 15 to 20)
#    0.000    1.000    3.750    2.625    1.750    2.000 
#    4.500    0.000    0.000    0.000    0.000    0.000 
#    0.000    0.000    0.000    0.000    0.000    0.000 
#
# Total GULP energy -198337.394551 kJ/mol
# GULP energy per Si atom -12396.087159 kJ/mol
# Density = 2.192996 g / cm^3
# Si number density = 21.979987 Si / 1000 Ang^3
#
#
#
# Elastic Constant Matrix: (Units=GPa)
#
#
# Indices 1 2 3 4 5 6 
#
# 1 89.2941 41.7389 25.9080 -9.8129 7.3601 3.2494
# 2 41.7389 139.5045 47.0192 0.9268 -0.3387 4.4407
# 3 25.9080 47.0192 103.4397 7.6246 0.2609 -0.0420
# 4 -9.8129 0.9268 7.6246 39.1038 -0.6820 -6.8414
# 5 7.3601 -0.3387 0.2609 -0.6820 33.2051 -0.8192
# 6 3.2494 4.4407 -0.0420 -6.8414 -0.8192 35.3157
#
#
#
# Elastic Compliance Matrix: (Units=1/GPa)
#
#
# Indices 1 2 3 4 5 6 
#
# 1 0.014195 -0.003520 -0.002242 0.004001 -0.003087 -0.000163
# 2 -0.003520 0.009384 -0.003342 -0.000607 0.000866 -0.000958
# 3 -0.002242 -0.003342 0.011953 -0.002790 0.000314 0.000108
# 4 0.004001 -0.000607 -0.002790 0.028030 -0.000169 0.005131
# 5 -0.003087 0.000866 0.000314 -0.000169 0.030824 0.000858
# 6 -0.000163 -0.000958 0.000108 0.005131 0.000858 0.029465
#
#
# Mechanical properties :
#
#
# Convention : Reuss Voigt Hill
#
# Bulk Modulus (GPa) = 57.72497 62.39671 60.06084
# Shear Modulus (GPa) = 33.82139 36.02972 34.92556
#
# Velocity S-wave (km/s) = 3.92693 4.05310 3.99051
# Velocity P-wave (km/s) = 6.84694 7.09599 6.97258
#
# Compressibility (1/GPa) = 0.01732353
#
# Stress axis : x y z
#
# Youngs Moduli (GPa) = 70.44753 106.55952 83.66030
#
# Poissons Ratio (x) = 0.37511 0.18760
# Poissons Ratio (y) = 0.24799 0.27959
# Poissons Ratio (z) = 0.15797 0.35612
#
# Static dielectric constant tensor:
#      x y z
#    x 4.493750 0.273330 0.596370 
#    y 0.273330 4.042670 0.093110 
#    z 0.596370 0.093110 3.453130 
# 
# 
# High freq. dielectric constant tensor:
#      x y z
#    x 1.865880 -0.006150 0.009140 
#    y -0.006150 1.868510 0.016760 
#    z 0.009140 0.016760 1.865270 
# 
# From -- ./inp_files/367866.got.cif
#   From: 2010.06.25/outbox.cif.g09.slc.cpg/sg2_184_cif.got.tgz:367866.got - 2010.06.27 13:26:56.
