data_PCOD8024677
_publ_section_title
;
Structure prediction by ZEFSAII (Michael W. Deem and Ramdas Pophale) SiO2 
 PCOD8024677
Probable space group: P -1
;
_chemical_formula_sum "Si O2"
_cell_formula_units_Z 16
_cell_length_a 18.550037
_cell_length_b 9.585333
_cell_length_c 18.159717
_cell_angle_alpha 141.571987
_cell_angle_beta 151.643001
_cell_angle_gamma 28.733588
_cell_volume 736.299536
_symmetry_space_group_name_H-M "P -1"
_symmetry_group_IT_number 2
_symmetry_cell_setting 'triclinic'
loop_
_space_group_symop_operation_xyz
x,y,z
-x,-y,-z
loop_
_atom_site_type_symbol
_atom_site_label
_atom_site_fract_x
_atom_site_fract_y
_atom_site_fract_z
Si Si1 0.573308 0.163743 0.099028
Si Si2 0.659447 0.505829 0.108861
Si Si3 0.575034 0.640128 0.352654
Si Si4 0.909844 0.921760 0.704631
Si Si5 0.073232 0.348491 0.884701
Si Si6 0.246984 0.481430 0.223631
Si Si7 0.630088 0.874506 0.356201
Si Si8 0.816704 0.775714 0.705256
O O1 0.606590 0.339546 0.258751
O O2 0.776054 0.949232 0.147473
O O3 0.394423 0.404906 0.986718
O O4 0.500000 0.000000 0.000000
O O5 0.876030 0.192034 0.176097
O O6 0.663598 0.739303 0.250476
O O7 0.500000 0.500000 0.000000
O O8 0.739450 0.604200 0.537059
O O9 0.583028 0.724649 0.311212
O O10 0.362528 0.895607 0.299162
O O11 0.933760 0.789643 0.751558
O O12 0.753057 0.271554 0.709672
O O13 0.829820 0.811581 0.530834
O O14 0.907823 0.362076 0.783627
O O15 0.964836 0.615533 0.840460
O O16 0.195113 0.363032 0.062259
O O17 0.454106 0.219849 0.336931
#
# Coordination Sequence:
#
# PCOD8024677 Si02
#       8
#     2   2   2   2   2   2   2   2
#     4  12  26  42  64  99 137 175 225 279 329 393
#     4  12  24  44  69  96 134 176 218 272 337 398
#     4  10  23  43  70  95 134 183 218 275 336 399
#     4  11  26  41  69 102 129 175 224 277 330 394
#     4  11  24  43  64  99 134 175 225 268 342 397
#     4  11  24  41  68 100 131 170 225 281 327 392
#     4  11  22  46  68  97 136 171 225 274 337 398
#     4  10  23  45  68  96 135 177 224 270 339 398
#
# _framework density 21.730288999999999
#
# number of rings (size 3 to 8) (size 9 to 14) (size 15 to 20)
#    0.000    1.000    3.750    2.250    5.250    1.000 
#    2.250    0.000    0.000    0.000    0.000    0.000 
#    0.000    0.000    0.000    0.000    0.000    0.000 
#
# Total GULP energy -198410.456833 kJ/mol
# GULP energy per Si atom -12400.653552 kJ/mol
# Density = 2.168083 g / cm^3
# Si number density = 21.730289 Si / 1000 Ang^3
#
#
#
# Elastic Constant Matrix: (Units=GPa)
#
#
# Indices 1 2 3 4 5 6 
#
# 1 65.2690 31.7590 44.6886 -1.6925 -1.0654 -2.6836
# 2 31.7590 103.8494 29.0440 3.4639 10.0740 -2.1676
# 3 44.6886 29.0440 59.0301 -1.9338 7.3483 0.3936
# 4 -1.6925 3.4639 -1.9338 43.5945 -0.0651 -3.9266
# 5 -1.0654 10.0740 7.3483 -0.0651 27.5500 0.2080
# 6 -2.6836 -2.1676 0.3936 -3.9266 0.2080 42.4687
#
#
#
# Elastic Compliance Matrix: (Units=1/GPa)
#
#
# Indices 1 2 3 4 5 6 
#
# 1 0.035548 -0.004575 -0.025886 0.000815 0.009937 0.002279
# 2 -0.004575 0.012023 -0.001989 -0.001205 -0.004047 0.000251
# 3 -0.025886 -0.001989 0.038875 0.000683 -0.010626 -0.001982
# 4 0.000815 -0.001205 0.000683 0.023289 0.000329 0.002135
# 5 0.009937 -0.004047 -0.010626 0.000329 0.040994 0.000349
# 6 0.002279 0.000251 -0.001982 0.002135 0.000349 0.023918
#
#
# Mechanical properties :
#
#
# Convention : Reuss Voigt Hill
#
# Bulk Modulus (GPa) = 46.41484 48.79239 47.60362
# Shear Modulus (GPa) = 20.26509 30.89978 25.58244
#
# Velocity S-wave (km/s) = 3.05712 3.77499 3.43486
# Velocity P-wave (km/s) = 5.81955 6.44229 6.13882
#
# Compressibility (1/GPa) = 0.02154483
#
# Stress axis : x y z
#
# Youngs Moduli (GPa) = 28.13071 83.17488 25.72369
#
# Poissons Ratio (x) = 0.38054 0.66589
# Poissons Ratio (y) = 0.12870 0.05117
# Poissons Ratio (z) = 0.72820 0.16545
#
# Static dielectric constant tensor:
#      x y z
#    x 4.709640 0.962120 -0.138430 
#    y 0.962120 5.081610 -0.067730 
#    z -0.138430 -0.067730 3.986040 
# 
# 
# High freq. dielectric constant tensor:
#      x y z
#    x 1.854830 -0.003500 -0.005700 
#    y -0.003500 1.854990 -0.004840 
#    z -0.005700 -0.004840 1.856940 
# 
# From -- ./inp_files/243102.got.cif
#   From: 2010.06.25/outbox.cif.g09.slc.cpg/sg2_122_cif.got.tgz:243102.got - 2010.06.27 13:26:56.
