data_PCOD8024168
_publ_section_title
;
Structure prediction by ZEFSAII (Michael W. Deem and Ramdas Pophale) SiO2 
 PCOD8024168
Probable space group: P -1
;
_chemical_formula_sum "Si O2"
_cell_formula_units_Z 14
_cell_length_a 8.190222
_cell_length_b 20.083742
_cell_length_c 9.322519
_cell_angle_alpha 51.931746
_cell_angle_beta 113.004196
_cell_angle_gamma 148.424721
_cell_volume 597.542147
_symmetry_space_group_name_H-M "P -1"
_symmetry_group_IT_number 2
_symmetry_cell_setting 'triclinic'
loop_
_space_group_symop_operation_xyz
x,y,z
-x,-y,-z
loop_
_atom_site_type_symbol
_atom_site_label
_atom_site_fract_x
_atom_site_fract_y
_atom_site_fract_z
Si Si1 0.170131 0.548073 0.344194
Si Si2 0.882900 0.284007 0.427215
Si Si3 0.875805 0.121724 0.497643
Si Si4 0.630713 0.977086 0.175270
Si Si5 0.193861 0.118547 0.785706
Si Si6 0.189385 0.281296 0.114816
Si Si7 0.950018 0.596844 0.974413
O O1 0.557297 0.711951 0.289335
O O2 0.000000 0.500000 0.500000
O O3 0.088958 0.420323 0.432915
O O4 0.055213 0.562885 0.156950
O O5 0.066494 0.272377 0.453137
O O6 0.553761 0.112233 0.617052
O O7 0.827142 0.311838 0.217566
O O8 0.902210 0.044392 0.692494
O O9 0.109119 0.197098 0.342386
O O10 0.500000 0.000000 0.500000
O O11 0.604981 0.874579 0.232386
O O12 0.006521 0.157886 0.089004
O O13 0.500000 0.000000 0.000000
O O14 0.000000 0.000000 0.000000
O O15 0.027219 0.309104 0.046824
O O16 0.573460 0.435571 0.005402
#
# Coordination Sequence:
#
# PCOD8024168 Si02
#       7
#     2   2   2   2   2   2   2
#     4  12  25  46  69 104 147 181 238 302 359 427
#     4  11  25  45  74 100 140 197 232 295 366 424
#     4  11  24  47  71 102 144 189 243 294 357 425
#     4  12  25  46  73 107 144 191 240 302 365 426
#     4  12  29  44  71 107 144 190 243 296 362 430
#     4  10  23  42  72 100 141 187 238 292 358 433
#     4  10  24  45  70 106 142 187 236 297 364 430
#
# _framework density 23.429310999999998
#
# number of rings (size 3 to 8) (size 9 to 14) (size 15 to 20)
#    0.000    0.857    2.857    3.000    6.000    2.286 
#    0.000    0.000    0.000    0.000    0.000    0.000 
#    0.000    0.000    0.000    0.000    0.000    0.000 
#
# Total GULP energy -173433.668905 kJ/mol
# GULP energy per Si atom -12388.119208 kJ/mol
# Density = 2.337598 g / cm^3
# Si number density = 23.429311 Si / 1000 Ang^3
#
#
#
# Elastic Constant Matrix: (Units=GPa)
#
#
# Indices 1 2 3 4 5 6 
#
# 1 72.2251 38.6372 44.1340 17.3383 10.5600 -7.6588
# 2 38.6372 124.8200 31.5217 -10.9693 12.4586 -12.2492
# 3 44.1340 31.5217 165.9675 6.3192 -1.1822 15.0773
# 4 17.3383 -10.9693 6.3192 30.8927 3.4458 0.3417
# 5 10.5600 12.4586 -1.1822 3.4458 43.6552 -1.4824
# 6 -7.6588 -12.2492 15.0773 0.3417 -1.4824 40.3122
#
#
#
# Elastic Compliance Matrix: (Units=1/GPa)
#
#
# Indices 1 2 3 4 5 6 
#
# 1 0.025587 -0.007206 -0.005288 -0.015567 -0.002889 0.004675
# 2 -0.007206 0.011661 -0.000854 0.008580 -0.002206 0.002340
# 3 -0.005288 -0.000854 0.007950 0.000915 0.001524 -0.004189
# 4 -0.015567 0.008580 0.000915 0.044223 -0.002188 -0.001148
# 5 -0.002889 -0.002206 0.001524 -0.002188 0.024419 -0.000872
# 6 0.004675 0.002340 -0.004189 -0.001148 -0.000872 0.027950
#
#
# Mechanical properties :
#
#
# Convention : Reuss Voigt Hill
#
# Bulk Modulus (GPa) = 54.04364 65.73316 59.88840
# Shear Modulus (GPa) = 28.62817 39.55332 34.09075
#
# Velocity S-wave (km/s) = 3.49935 4.11323 3.81865
# Velocity P-wave (km/s) = 6.28045 7.11864 6.71264
#
# Compressibility (1/GPa) = 0.01850357
#
# Stress axis : x y z
#
# Youngs Moduli (GPa) = 39.08281 85.75331 125.78329
#
# Poissons Ratio (x) = 0.61791 0.66515
# Poissons Ratio (y) = 0.28162 0.10737
# Poissons Ratio (z) = 0.20667 0.07320
#
# Static dielectric constant tensor:
#      x y z
#    x 3.894800 -0.374980 0.001100 
#    y -0.374980 4.165510 -0.123760 
#    z 0.001100 -0.123760 4.499010 
# 
# 
# High freq. dielectric constant tensor:
#      x y z
#    x 1.915020 -0.023990 -0.007600 
#    y -0.023990 1.927110 -0.011710 
#    z -0.007600 -0.011710 1.947750 
# 
# From -- ./inp_files/223278.got.cif
#   From: 2010.06.25/outbox.cif.g09.slc.cpg/sg2_112_cif.got.tgz:223278.got - 2010.06.27 13:26:56.
