data_PCOD8024881
_publ_section_title
;
Structure prediction by ZEFSAII (Michael W. Deem and Ramdas Pophale) SiO2 
 PCOD8024881
Probable space group: P -1
;
_chemical_formula_sum "Si O2"
_cell_formula_units_Z 16
_cell_length_a 9.211086
_cell_length_b 11.891806
_cell_length_c 12.396260
_cell_angle_alpha 46.110370
_cell_angle_beta 104.371167
_cell_angle_gamma 127.860983
_cell_volume 734.115925
_symmetry_space_group_name_H-M "P -1"
_symmetry_group_IT_number 2
_symmetry_cell_setting 'triclinic'
loop_
_space_group_symop_operation_xyz
x,y,z
-x,-y,-z
loop_
_atom_site_type_symbol
_atom_site_label
_atom_site_fract_x
_atom_site_fract_y
_atom_site_fract_z
Si Si1 0.378220 0.470975 0.800786
Si Si2 0.445776 0.122841 0.351544
Si Si3 0.915133 0.099508 0.691607
Si Si4 0.707088 0.199231 0.945777
Si Si5 0.641023 0.386571 0.003281
Si Si6 0.183179 0.681336 0.346965
Si Si7 0.665325 0.525787 0.449047
Si Si8 0.057766 0.246238 0.046734
O O1 0.515676 0.712113 0.667988
O O2 0.470349 0.395698 0.940234
O O3 0.340872 0.399213 0.719055
O O4 0.171687 0.381637 0.872259
O O5 0.500000 0.000000 0.500000
O O6 0.214921 0.969075 0.393232
O O7 0.565262 0.227279 0.192403
O O8 0.798068 0.123803 0.745960
O O9 0.128189 0.305050 0.569121
O O10 0.932980 0.933049 0.838539
O O11 0.683340 0.321749 0.945084
O O12 0.827229 0.338569 0.771391
O O13 0.833844 0.150017 0.061803
O O14 0.500000 0.000000 0.000000
O O15 0.836604 0.608678 0.925519
O O16 0.358135 0.679735 0.418709
O O17 0.000000 0.500000 0.500000
O O18 0.500000 0.500000 0.500000
#
# Coordination Sequence:
#
# PCOD8024881 Si02
#       8
#     2   2   2   2   2   2   2   2
#     4  11  22  43  71  97 133 182 225 279 340 409
#     4  11  22  43  72 101 132 179 233 281 337 414
#     4  11  22  43  70 100 130 176 239 276 327 425
#     4  12  27  41  70 105 137 179 229 290 345 406
#     4  11  23  45  67 104 142 172 230 290 347 406
#     4  10  23  44  64  96 139 180 226 279 346 412
#     4  11  25  41  65  97 144 180 219 285 354 399
#     4  11  23  43  70  99 131 180 229 279 338 409
#
# _framework density 21.794923000000001
#
# number of rings (size 3 to 8) (size 9 to 14) (size 15 to 20)
#    0.000    1.000    2.500    4.875    3.500    4.000 
#    0.000    1.875    0.000    0.000    0.000    0.000 
#    0.000    0.000    0.000    0.000    0.000    0.000 
#
# Total GULP energy -198309.439973 kJ/mol
# GULP energy per Si atom -12394.339998 kJ/mol
# Density = 2.174532 g / cm^3
# Si number density = 21.794923 Si / 1000 Ang^3
#
#
#
# Elastic Constant Matrix: (Units=GPa)
#
#
# Indices 1 2 3 4 5 6 
#
# 1 151.2656 66.3367 41.3415 -6.0842 15.5575 1.3412
# 2 66.3367 121.1497 33.2561 -8.4689 2.7059 5.0917
# 3 41.3415 33.2561 97.2491 0.3806 17.9101 -5.4090
# 4 -6.0842 -8.4689 0.3806 22.7682 -3.0822 5.8730
# 5 15.5575 2.7059 17.9101 -3.0822 41.7419 5.5768
# 6 1.3412 5.0917 -5.4090 5.8730 5.5768 46.4618
#
#
#
# Elastic Compliance Matrix: (Units=1/GPa)
#
#
# Indices 1 2 3 4 5 6 
#
# 1 0.009400 -0.004517 -0.002011 0.000495 -0.002339 0.000208
# 2 -0.004517 0.011821 -0.002772 0.004212 0.002731 -0.002348
# 3 -0.002011 -0.002772 0.013258 -0.003287 -0.005399 0.002969
# 4 0.000495 0.004212 -0.003287 0.048397 0.005547 -0.007642
# 5 -0.002339 0.002731 -0.005399 0.005547 0.028036 -0.004927
# 6 0.000208 -0.002348 0.002969 -0.007642 -0.004927 0.023677
#
#
# Mechanical properties :
#
#
# Convention : Reuss Voigt Hill
#
# Bulk Modulus (GPa) = 62.97862 72.39256 67.68559
# Shear Modulus (GPa) = 31.54938 37.44303 34.49620
#
# Velocity S-wave (km/s) = 3.80880 4.14934 3.98271
# Velocity P-wave (km/s) = 6.94992 7.49956 7.22997
#
# Compressibility (1/GPa) = 0.01587840
#
# Stress axis : x y z
#
# Youngs Moduli (GPa) = 106.38284 84.59817 75.42589
#
# Poissons Ratio (x) = 0.38212 0.15168
# Poissons Ratio (y) = 0.48052 0.20910
# Poissons Ratio (z) = 0.21394 0.23452
#
# Static dielectric constant tensor:
#      x y z
#    x 4.238700 -0.065380 0.344320 
#    y -0.065380 4.337200 -0.038830 
#    z 0.344320 -0.038830 3.937470 
# 
# 
# High freq. dielectric constant tensor:
#      x y z
#    x 1.866110 -0.001470 0.018780 
#    y -0.001470 1.863170 0.001460 
#    z 0.018780 0.001460 1.846190 
# 
# From -- ./inp_files/189150.got.cif
#   From: 2010.06.25/outbox.cif.g09.slc.cpg/sg2_95_cif.got.tgz:189150.got - 2010.06.27 13:26:56.
