data_PCOD8024647
_publ_section_title
;
Structure prediction by ZEFSAII (Michael W. Deem and Ramdas Pophale) SiO2 
 PCOD8024647
Probable space group: P -1
;
_chemical_formula_sum "Si O2"
_cell_formula_units_Z 16
_cell_length_a 17.620399
_cell_length_b 9.266952
_cell_length_c 8.490246
_cell_angle_alpha 100.063768
_cell_angle_beta 133.957177
_cell_angle_gamma 53.334959
_cell_volume 728.259283
_symmetry_space_group_name_H-M "P -1"
_symmetry_group_IT_number 2
_symmetry_cell_setting 'triclinic'
loop_
_space_group_symop_operation_xyz
x,y,z
-x,-y,-z
loop_
_atom_site_type_symbol
_atom_site_label
_atom_site_fract_x
_atom_site_fract_y
_atom_site_fract_z
Si Si1 0.521014 0.477000 0.209865
Si Si2 0.260518 0.980809 0.550707
Si Si3 0.058334 0.359775 0.755465
Si Si4 0.296363 0.497780 0.019605
Si Si5 0.772752 0.696021 0.293210
Si Si6 0.283194 0.120014 0.292890
Si Si7 0.988040 0.868988 0.563648
Si Si8 0.432848 0.273181 0.499015
O O1 0.582228 0.573187 0.379035
O O2 0.618381 0.248805 0.348738
O O3 0.500000 0.500000 0.000000
O O4 0.374173 0.577819 0.106023
O O5 0.308583 0.074317 0.750358
O O6 0.228088 0.080837 0.354523
O O7 0.128864 0.015458 0.443621
O O8 0.141520 0.392723 0.766595
O O9 0.061502 0.200104 0.649180
O O10 0.893337 0.565692 0.579311
O O11 0.138227 0.280792 0.020190
O O12 0.328063 0.351316 0.891638
O O13 0.131766 0.694605 0.828335
O O14 0.352846 0.378428 0.240634
O O15 0.355154 0.208772 0.461066
O O16 0.400993 0.919118 0.325131
O O17 0.000000 0.000000 0.500000
#
# Coordination Sequence:
#
# PCOD8024647 Si02
#       8
#     2   2   2   2   2   2   2   2
#     4  12  28  44  68 100 139 179 228 286 341 406
#     4  11  25  42  68 106 137 170 235 285 333 403
#     4   9  19  39  67  94 133 178 224 270 339 401
#     4  11  22  45  71  94 138 186 220 279 349 405
#     4   9  20  39  67 100 128 174 229 274 330 405
#     4  11  24  43  71 102 135 183 229 285 338 402
#     4  10  23  43  70 101 135 184 229 276 349 410
#     4  11  26  45  68 100 138 186 224 273 354 416
#
# _framework density 21.970196000000001
#
# number of rings (size 3 to 8) (size 9 to 14) (size 15 to 20)
#    0.000    1.500    2.500    1.875    7.000    1.000 
#    0.000    1.250    0.000    0.000    0.000    0.000 
#    0.000    0.000    0.000    0.000    0.000    0.000 
#
# Total GULP energy -198310.904179 kJ/mol
# GULP energy per Si atom -12394.431511 kJ/mol
# Density = 2.192019 g / cm^3
# Si number density = 21.970196 Si / 1000 Ang^3
#
#
#
# Elastic Constant Matrix: (Units=GPa)
#
#
# Indices 1 2 3 4 5 6 
#
# 1 114.1017 19.3654 30.3344 -0.8875 -3.9806 22.3633
# 2 19.3654 112.4022 50.1004 12.1173 -4.3249 11.5601
# 3 30.3344 50.1004 116.7521 5.2496 -9.8624 9.2933
# 4 -0.8875 12.1173 5.2496 23.1235 6.7066 -6.1479
# 5 -3.9806 -4.3249 -9.8624 6.7066 29.1240 -3.6240
# 6 22.3633 11.5601 9.2933 -6.1479 -3.6240 29.3809
#
#
#
# Elastic Compliance Matrix: (Units=1/GPa)
#
#
# Indices 1 2 3 4 5 6 
#
# 1 0.010861 0.000027 -0.002149 -0.001213 0.000064 -0.007844
# 2 0.000027 0.012152 -0.004419 -0.007003 0.001339 -0.004704
# 3 -0.002149 -0.004419 0.011354 -0.001292 0.003181 -0.000095
# 4 -0.001213 -0.007003 -0.001292 0.054484 -0.012453 0.013952
# 5 0.000064 0.001339 0.003181 -0.012453 0.038559 0.000569
# 6 -0.007844 -0.004704 -0.000095 0.013952 0.000569 0.044876
#
#
# Mechanical properties :
#
#
# Convention : Reuss Voigt Hill
#
# Bulk Modulus (GPa) = 46.98358 60.31736 53.65047
# Shear Modulus (GPa) = 25.97888 32.55607 29.26748
#
# Velocity S-wave (km/s) = 3.44242 3.85363 3.65382
# Velocity P-wave (km/s) = 6.10180 6.87855 6.50178
#
# Compressibility (1/GPa) = 0.02128403
#
# Stress axis : x y z
#
# Youngs Moduli (GPa) = 92.07246 82.29138 88.07328
#
# Poissons Ratio (x) = -0.00219 0.18927
# Poissons Ratio (y) = -0.00245 0.38921
# Poissons Ratio (z) = 0.19786 0.36366
#
# Static dielectric constant tensor:
#      x y z
#    x 4.169660 0.326230 0.313130 
#    y 0.326230 4.050810 0.066900 
#    z 0.313130 0.066900 4.044810 
# 
# 
# High freq. dielectric constant tensor:
#      x y z
#    x 1.860570 0.018860 0.004340 
#    y 0.018860 1.870260 -0.003960 
#    z 0.004340 -0.003960 1.861230 
# 
# From -- ./inp_files/329221.got.cif
#   From: 2010.06.25/outbox.cif.g09.slc.cpg/sg2_165_cif.got.tgz:329221.got - 2010.06.27 13:26:56.
