data_PCOD8024474
_publ_section_title
;
Structure prediction by ZEFSAII (Michael W. Deem and Ramdas Pophale) SiO2 
 PCOD8024474
Probable space group: P -1
;
_chemical_formula_sum "Si O2"
_cell_formula_units_Z 16
_cell_length_a 8.965918
_cell_length_b 6.775212
_cell_length_c 13.042687
_cell_angle_alpha 92.274150
_cell_angle_beta 67.633113
_cell_angle_gamma 93.436381
_cell_volume 731.244315
_symmetry_space_group_name_H-M "P -1"
_symmetry_group_IT_number 2
_symmetry_cell_setting 'triclinic'
loop_
_space_group_symop_operation_xyz
x,y,z
-x,-y,-z
loop_
_atom_site_type_symbol
_atom_site_label
_atom_site_fract_x
_atom_site_fract_y
_atom_site_fract_z
Si Si1 0.332558 0.387019 0.012663
Si Si2 0.471577 0.981745 0.310905
Si Si3 0.411475 0.634566 0.606457
Si Si4 0.117126 0.377318 0.361397
Si Si5 0.274897 0.324386 0.789052
Si Si6 0.916747 0.346295 0.810795
Si Si7 0.714574 0.940356 0.822539
Si Si8 0.784306 0.298732 0.525209
O O1 0.181939 0.512050 0.087591
O O2 0.328511 0.172417 0.063330
O O3 0.500000 0.500000 0.000000
O O4 0.318963 0.349948 0.895864
O O5 0.632254 0.861414 0.284483
O O6 0.306451 0.872212 0.390125
O O7 0.479346 0.181341 0.378149
O O8 0.449643 0.015100 0.195082
O O9 0.500000 0.500000 0.500000
O O10 0.342822 0.521000 0.720380
O O11 0.264932 0.714424 0.580928
O O12 0.053006 0.544708 0.303527
O O13 0.189736 0.199980 0.279550
O O14 0.250161 0.492747 0.402854
O O15 0.977683 0.284404 0.470877
O O16 0.084446 0.295017 0.819581
O O17 0.817547 0.139807 0.821486
#
# Coordination Sequence:
#
# PCOD8024474 Si02
#       8
#     2   2   2   2   2   2   2   2
#     4  11  26  47  73  98 132 175 225 280 340 400
#     4  12  26  41  69 103 136 177 233 268 334 407
#     4  12  25  42  66  98 143 181 221 276 330 394
#     4  10  23  43  67  98 138 178 226 276 332 398
#     4  12  27  44  70 101 137 178 220 282 338 397
#     4  11  24  46  71  99 135 174 226 277 342 399
#     4  11  25  44  71  97 133 176 225 280 331 400
#     4  11  22  42  65  99 136 180 223 272 331 394
#
# _framework density 21.880513000000001
#
# number of rings (size 3 to 8) (size 9 to 14) (size 15 to 20)
#    0.000    0.750    3.750    3.000    3.500    4.000 
#    0.000    0.000    0.000    0.000    0.000    0.000 
#    0.000    0.000    0.000    0.000    0.000    0.000 
#
# Total GULP energy -198389.075668 kJ/mol
# GULP energy per Si atom -12399.317229 kJ/mol
# Density = 2.183071 g / cm^3
# Si number density = 21.880513 Si / 1000 Ang^3
#
#
#
# Elastic Constant Matrix: (Units=GPa)
#
#
# Indices 1 2 3 4 5 6 
#
# 1 107.8758 39.3477 26.3839 -9.0140 12.5018 11.6406
# 2 39.3477 112.6458 32.0843 -6.7634 8.3554 17.1514
# 3 26.3839 32.0843 111.0002 -10.4874 16.7663 6.8033
# 4 -9.0140 -6.7634 -10.4874 24.5264 0.2614 8.4720
# 5 12.5018 8.3554 16.7663 0.2614 38.7194 0.3103
# 6 11.6406 17.1514 6.8033 8.4720 0.3103 34.6541
#
#
#
# Elastic Compliance Matrix: (Units=1/GPa)
#
#
# Indices 1 2 3 4 5 6 
#
# 1 0.011549 -0.002809 -0.000915 0.004256 -0.002729 -0.003326
# 2 -0.002809 0.011414 -0.001927 0.003049 -0.000702 -0.005066
# 3 -0.000915 -0.001927 0.010942 0.004531 -0.004042 -0.001959
# 4 0.004256 0.003049 0.004531 0.050755 -0.004207 -0.016199
# 5 -0.002729 -0.000702 -0.004042 -0.004207 0.028615 0.002830
# 6 -0.003326 -0.005066 -0.001959 -0.016199 0.002830 0.036800
#
#
# Mechanical properties :
#
#
# Convention : Reuss Voigt Hill
#
# Bulk Modulus (GPa) = 44.24223 58.57262 51.40742
# Shear Modulus (GPa) = 29.60114 35.16036 32.38075
#
# Velocity S-wave (km/s) = 3.68211 4.01300 3.85111
# Velocity P-wave (km/s) = 6.19201 6.94979 6.58182
#
# Compressibility (1/GPa) = 0.02260284
#
# Stress axis : x y z
#
# Youngs Moduli (GPa) = 86.58665 87.61191 91.39047
#
# Poissons Ratio (x) = 0.24612 0.08362
# Poissons Ratio (y) = 0.24324 0.17610
# Poissons Ratio (z) = 0.07923 0.16882
#
# Static dielectric constant tensor:
#      x y z
#    x 4.249740 -0.026560 0.323250 
#    y -0.026560 4.084710 -0.052420 
#    z 0.323250 -0.052420 4.159420 
# 
# 
# High freq. dielectric constant tensor:
#      x y z
#    x 1.866460 0.004280 0.008970 
#    y 0.004280 1.869160 -0.000910 
#    z 0.008970 -0.000910 1.869000 
# 
# From -- ./inp_files/488396.got.cif
#   From: 2010.06.25/outbox.cif.g09.slc.cpg/sg2_245_cif.got.tgz:488396.got - 2010.06.27 13:26:56.
