data_PCOD8024581
_publ_section_title
;
Structure prediction by ZEFSAII (Michael W. Deem and Ramdas Pophale) SiO2 
 PCOD8024581
Probable space group: P -1
;
_chemical_formula_sum "Si O2"
_cell_formula_units_Z 14
_cell_length_a 14.809109
_cell_length_b 10.208883
_cell_length_c 14.233408
_cell_angle_alpha 108.686943
_cell_angle_beta 128.197651
_cell_angle_gamma 28.673673
_cell_volume 655.676059
_symmetry_space_group_name_H-M "P -1"
_symmetry_group_IT_number 2
_symmetry_cell_setting 'triclinic'
loop_
_space_group_symop_operation_xyz
x,y,z
-x,-y,-z
loop_
_atom_site_type_symbol
_atom_site_label
_atom_site_fract_x
_atom_site_fract_y
_atom_site_fract_z
Si Si1 0.452180 0.315251 0.876017
Si Si2 0.710785 0.282138 0.269658
Si Si3 0.970205 0.191136 0.902182
Si Si4 0.727717 0.467296 0.483031
Si Si5 0.475858 0.687139 0.553971
Si Si6 0.916412 0.434237 0.437918
Si Si7 0.238344 0.611659 0.995724
O O1 0.318366 0.608294 0.823594
O O2 0.329117 0.413884 0.922357
O O3 0.355037 0.297518 0.740855
O O4 0.788229 0.970768 0.018006
O O5 0.597425 0.511118 0.329541
O O6 0.518696 0.359592 0.168189
O O7 0.028668 0.888285 0.392824
O O8 0.706536 0.487149 0.730653
O O9 0.053367 0.939778 0.910805
O O10 0.907674 0.314207 0.997099
O O11 0.508966 0.737525 0.488706
O O12 0.835791 0.488414 0.506793
O O13 0.500000 0.500000 0.500000
O O14 0.168744 0.055325 0.482677
O O15 0.000000 0.500000 0.500000
#
# Coordination Sequence:
#
# PCOD8024581 Si02
#       7
#     2   2   2   2   2   2   2
#     4  10  20  35  55  80 116 153 187 232 291 346
#     4   9  16  30  54  89 122 146 179 241 298 338
#     4  10  20  31  53  88 117 146 187 235 284 342
#     4  10  19  34  57  84 120 154 192 241 289 340
#     4  12  22  37  65  94 117 151 197 240 290 348
#     4  11  26  43  58  83 119 157 198 243 293 348
#     4  10  17  29  51  83 122 147 176 228 293 347
#
# _framework density 21.352007
#
# number of rings (size 3 to 8) (size 9 to 14) (size 15 to 20)
#    0.000    1.714    0.000    8.571    0.000    5.143 
#    0.000    0.714    0.000    6.000    0.000    0.000 
#    0.000    0.000    0.000    0.000    0.000    0.000 
#
# Total GULP energy -173518.777797 kJ/mol
# GULP energy per Si atom -12394.198414 kJ/mol
# Density = 2.130341 g / cm^3
# Si number density = 21.352007 Si / 1000 Ang^3
#
#
#
# Elastic Constant Matrix: (Units=GPa)
#
#
# Indices 1 2 3 4 5 6 
#
# 1 97.4677 33.0273 18.1928 16.8113 0.7845 -28.6939
# 2 33.0273 48.8115 10.3282 3.4648 -4.2081 -25.3958
# 3 18.1928 10.3282 96.6964 -3.6726 0.3521 -3.1143
# 4 16.8113 3.4648 -3.6726 19.1081 -6.3679 -3.4783
# 5 0.7845 -4.2081 0.3521 -6.3679 29.2715 13.2907
# 6 -28.6939 -25.3958 -3.1143 -3.4783 13.2907 43.9689
#
#
#
# Elastic Compliance Matrix: (Units=1/GPa)
#
#
# Indices 1 2 3 4 5 6 
#
# 1 0.019229 -0.006703 -0.003219 -0.017782 -0.009860 0.010023
# 2 -0.006703 0.033023 -0.001702 0.001830 -0.001553 0.015193
# 3 -0.003219 -0.001702 0.011252 0.005530 0.002027 -0.002461
# 4 -0.017782 0.001830 0.005530 0.073962 0.021696 -0.010863
# 5 -0.009860 -0.001553 0.002027 0.021696 0.047967 -0.019970
# 6 0.010023 0.015193 -0.002461 -0.010863 -0.019970 0.043062
#
#
# Mechanical properties :
#
#
# Convention : Reuss Voigt Hill
#
# Bulk Modulus (GPa) = 24.83949 40.67470 32.75709
# Shear Modulus (GPa) = 18.85640 30.56485 24.71062
#
# Velocity S-wave (km/s) = 2.97496 3.78759 3.40560
# Velocity P-wave (km/s) = 4.84346 6.18213 5.55328
#
# Compressibility (1/GPa) = 0.04025847
#
# Stress axis : x y z
#
# Youngs Moduli (GPa) = 52.00486 30.28156 88.87045
#
# Poissons Ratio (x) = 0.20298 0.28603
# Poissons Ratio (y) = 0.34859 0.15123
# Poissons Ratio (z) = 0.16738 0.05153
#
# Static dielectric constant tensor:
#      x y z
#    x 3.790100 -0.650340 -0.148880 
#    y -0.650340 3.693160 -0.041660 
#    z -0.148880 -0.041660 4.063250 
# 
# 
# High freq. dielectric constant tensor:
#      x y z
#    x 1.813270 -0.057620 -0.010040 
#    y -0.057620 1.798510 -0.005290 
#    z -0.010040 -0.005290 1.853250 
# 
# From -- ./inp_files/531894.got.cif
#   From: 2010.06.25/outbox.cif.g09.slc.cpg/sg2_266_cif.got.tgz:531894.got - 2010.06.27 13:26:56.
