data_PCOD8024002
_publ_section_title
;
Structure prediction by ZEFSAII (Michael W. Deem and Ramdas Pophale) SiO2 
 PCOD8024002
Probable space group: P -1
;
_chemical_formula_sum "Si O2"
_cell_formula_units_Z 16
_cell_length_a 14.093101
_cell_length_b 7.793791
_cell_length_c 11.420891
_cell_angle_alpha 58.401492
_cell_angle_beta 61.115410
_cell_angle_gamma 103.322094
_cell_volume 712.273822
_symmetry_space_group_name_H-M "P -1"
_symmetry_group_IT_number 2
_symmetry_cell_setting 'triclinic'
loop_
_space_group_symop_operation_xyz
x,y,z
-x,-y,-z
loop_
_atom_site_type_symbol
_atom_site_label
_atom_site_fract_x
_atom_site_fract_y
_atom_site_fract_z
Si Si1 0.756789 0.739485 0.703102
Si Si2 0.340457 0.372082 0.828608
Si Si3 0.679935 0.342600 0.079796
Si Si4 0.159169 0.759417 0.840105
Si Si5 0.815907 0.093348 0.753224
Si Si6 0.870653 0.599390 0.489658
Si Si7 0.599017 0.858260 0.601516
Si Si8 0.845912 0.822153 0.212057
O O1 0.832199 0.980445 0.664557
O O2 0.855833 0.762850 0.534959
O O3 0.636360 0.733026 0.719048
O O4 0.695568 0.466516 0.900737
O O5 0.256465 0.435612 0.935307
O O6 0.509860 0.627272 0.636724
O O7 0.281503 0.311020 0.755751
O O8 0.308923 0.124793 0.004696
O O9 0.775318 0.256916 0.072628
O O10 0.509499 0.108765 0.287102
O O11 0.268581 0.854276 0.632164
O O12 0.156447 0.992696 0.767303
O O13 0.000000 0.500000 0.000000
O O14 0.783725 0.290133 0.678681
O O15 0.963884 0.252341 0.676488
O O16 0.816452 0.597900 0.393878
O O17 0.000000 0.000000 0.000000
#
# Coordination Sequence:
#
# PCOD8024002 Si02
#       8
#     2   2   2   2   2   2   2   2
#     4  11  22  43  73 101 136 189 235 292 353 420
#     4   9  22  43  69  90 140 185 223 288 354 409
#     4   9  23  43  70 100 138 179 229 288 351 412
#     4  12  26  42  71 107 134 186 240 281 351 434
#     4  10  23  42  68  99 144 185 231 302 355 411
#     4  11  24  42  66 107 137 186 242 291 356 420
#     4  10  23  47  70 100 144 181 238 287 359 418
#     4  12  24  44  67  97 147 181 232 298 349 411
#
# _framework density 22.463273000000001
#
# number of rings (size 3 to 8) (size 9 to 14) (size 15 to 20)
#    0.750    0.750    2.500    1.875    3.500    3.500 
#    0.000    0.625    0.000    0.000    0.000    0.000 
#    0.000    0.000    0.000    0.000    0.000    0.000 
#
# Total GULP energy -198223.151337 kJ/mol
# GULP energy per Si atom -12388.946959 kJ/mol
# Density = 2.241215 g / cm^3
# Si number density = 22.463273 Si / 1000 Ang^3
#
#
#
# Elastic Constant Matrix: (Units=GPa)
#
#
# Indices 1 2 3 4 5 6 
#
# 1 153.8046 21.4049 62.4290 -5.5882 19.6994 11.3176
# 2 21.4049 65.3000 15.4840 -1.9504 11.4529 8.1006
# 3 62.4290 15.4840 115.7643 -13.8270 3.8223 17.8622
# 4 -5.5882 -1.9504 -13.8270 28.8139 1.5680 0.2653
# 5 19.6994 11.4529 3.8223 1.5680 39.9615 3.2321
# 6 11.3176 8.1006 17.8622 0.2653 3.2321 36.1196
#
#
#
# Elastic Compliance Matrix: (Units=1/GPa)
#
#
# Indices 1 2 3 4 5 6 
#
# 1 0.008996 -0.001236 -0.004620 -0.000359 -0.003630 0.000071
# 2 -0.001236 0.016994 -0.000997 0.000673 -0.003984 -0.002580
# 3 -0.004620 -0.000997 0.012536 0.005011 0.001548 -0.004704
# 4 -0.000359 0.000673 0.005011 0.037205 -0.001742 -0.002634
# 5 -0.003630 -0.003984 0.001548 -0.001742 0.027975 -0.001225
# 6 0.000071 -0.002580 -0.004704 -0.002634 -0.001225 0.030697
#
#
# Mechanical properties :
#
#
# Convention : Reuss Voigt Hill
#
# Bulk Modulus (GPa) = 40.28809 59.27830 49.78319
# Shear Modulus (GPa) = 31.97312 36.68241 34.32776
#
# Velocity S-wave (km/s) = 3.77683 4.04542 3.91343
# Velocity P-wave (km/s) = 6.08221 6.94743 6.52917
#
# Compressibility (1/GPa) = 0.02482123
#
# Stress axis : x y z
#
# Youngs Moduli (GPa) = 111.16546 58.84360 79.76983
#
# Poissons Ratio (x) = 0.07274 0.36851
# Poissons Ratio (y) = 0.13741 0.07949
# Poissons Ratio (z) = 0.51355 0.05864
#
# Static dielectric constant tensor:
#      x y z
#    x 4.148500 -0.095000 0.187930 
#    y -0.095000 3.830850 -0.063730 
#    z 0.187930 -0.063730 3.722550 
# 
# 
# High freq. dielectric constant tensor:
#      x y z
#    x 1.899610 0.000640 0.015220 
#    y 0.000640 1.859600 -0.001120 
#    z 0.015220 -0.001120 1.876630 
# 
# From -- ./inp_files/446946.got.cif
#   From: 2010.06.25/outbox.cif.g09.slc.cpg/sg2_224_cif.got.tgz:446946.got - 2010.06.27 13:26:56.
