data_PCOD8024149
_publ_section_title
;
Structure prediction by ZEFSAII (Michael W. Deem and Ramdas Pophale) SiO2 
 PCOD8024149
Probable space group: P -1
;
_chemical_formula_sum "Si O2"
_cell_formula_units_Z 14
_cell_length_a 6.721048
_cell_length_b 14.563801
_cell_length_c 21.764916
_cell_angle_alpha 28.100275
_cell_angle_beta 59.528858
_cell_angle_gamma 79.681894
_cell_volume 649.224062
_symmetry_space_group_name_H-M "P -1"
_symmetry_group_IT_number 2
_symmetry_cell_setting 'triclinic'
loop_
_space_group_symop_operation_xyz
x,y,z
-x,-y,-z
loop_
_atom_site_type_symbol
_atom_site_label
_atom_site_fract_x
_atom_site_fract_y
_atom_site_fract_z
Si Si1 0.289595 0.744307 0.471555
Si Si2 0.354405 0.882338 0.904516
Si Si3 0.685688 0.810988 0.806137
Si Si4 0.360211 0.782373 0.100005
Si Si5 0.671026 0.388549 0.138426
Si Si6 0.659747 0.958993 0.403925
Si Si7 0.335313 0.454087 0.824951
O O1 0.544337 0.821938 0.436054
O O2 0.004893 0.438237 0.700621
O O3 0.454059 0.833368 0.325750
O O4 0.177090 0.904665 0.407656
O O5 0.440086 0.727226 0.947849
O O6 0.437877 0.917993 0.941818
O O7 0.995220 0.718545 0.052032
O O8 0.515872 0.617399 0.886741
O O9 0.964178 0.834738 0.775241
O O10 0.510595 0.655867 0.157885
O O11 0.500000 0.000000 0.000000
O O12 0.684007 0.552193 0.094314
O O13 0.523028 0.099798 0.354173
O O14 0.000000 0.500000 0.000000
O O15 0.534733 0.750524 0.599198
#
# Coordination Sequence:
#
# PCOD8024149 Si02
#       7
#     2   2   2   2   2   2   2
#     4   9  21  44  63  98 135 164 224 274 321 398
#     4  10  23  42  71  94 132 177 217 270 336 386
#     4   9  21  40  65  95 138 175 208 262 326 386
#     4  12  27  46  71  97 126 174 230 278 333 388
#     4  11  23  38  62 104 137 173 224 254 322 405
#     4  11  21  40  67  95 140 178 208 271 325 393
#     4  12  23  43  67  97 136 177 220 272 326 388
#
# _framework density 21.564207
#
# number of rings (size 3 to 8) (size 9 to 14) (size 15 to 20)
#    0.857    0.571    4.286    0.429    4.000    3.429 
#    0.000    0.714    0.000    0.000    0.000    0.000 
#    0.000    0.000    0.000    0.000    0.000    0.000 
#
# Total GULP energy -173560.469577 kJ/mol
# GULP energy per Si atom -12397.176398 kJ/mol
# Density = 2.151513 g / cm^3
# Si number density = 21.564207 Si / 1000 Ang^3
#
#
#
# Elastic Constant Matrix: (Units=GPa)
#
#
# Indices 1 2 3 4 5 6 
#
# 1 139.8409 47.1223 38.4413 -3.1971 -6.1810 20.3259
# 2 47.1223 128.4002 43.4607 -6.2629 2.0438 24.2007
# 3 38.4413 43.4607 88.0565 3.2182 -10.0514 6.6774
# 4 -3.1971 -6.2629 3.2182 30.2952 7.7302 -0.7884
# 5 -6.1810 2.0438 -10.0514 7.7302 35.9201 2.0611
# 6 20.3259 24.2007 6.6774 -0.7884 2.0611 32.1071
#
#
#
# Elastic Compliance Matrix: (Units=1/GPa)
#
#
# Indices 1 2 3 4 5 6 
#
# 1 0.009102 -0.001638 -0.002769 0.000558 0.000994 -0.004002
# 2 -0.001638 0.011423 -0.004860 0.003209 -0.002620 -0.006315
# 3 -0.002769 -0.004860 0.015547 -0.004165 0.004946 0.001763
# 4 0.000558 0.003209 -0.004165 0.036478 -0.009078 -0.000428
# 5 0.000994 -0.002620 0.004946 -0.009078 0.031608 -0.001935
# 6 -0.004002 -0.006315 0.001763 -0.000428 -0.001935 0.038187
#
#
# Mechanical properties :
#
#
# Convention : Reuss Voigt Hill
#
# Bulk Modulus (GPa) = 57.01706 68.26067 62.63887
# Shear Modulus (GPa) = 29.98945 34.81604 32.40275
#
# Velocity S-wave (km/s) = 3.73326 4.02248 3.88057
# Velocity P-wave (km/s) = 6.71424 7.30049 7.01349
#
# Compressibility (1/GPa) = 0.01753861
#
# Stress axis : x y z
#
# Youngs Moduli (GPa) = 109.86127 87.54414 64.32130
#
# Poissons Ratio (x) = 0.14336 0.17810
# Poissons Ratio (y) = 0.17990 0.31262
# Poissons Ratio (z) = 0.30419 0.42549
#
# Static dielectric constant tensor:
#      x y z
#    x 4.789170 -0.431200 0.906390 
#    y -0.431200 3.918660 -0.399500 
#    z 0.906390 -0.399500 4.644550 
# 
# 
# High freq. dielectric constant tensor:
#      x y z
#    x 1.863280 0.019000 0.010830 
#    y 0.019000 1.811170 0.009470 
#    z 0.010830 0.009470 1.856930 
# 
# From -- ./inp_files/583594.got.cif
#   From: 2010.06.25/outbox.cif.g09.slc.cpg/sg2_292_cif.got.tgz:583594.got - 2010.06.27 13:26:56.
