data_PCOD8024886
_publ_section_title
;
Structure prediction by ZEFSAII (Michael W. Deem and Ramdas Pophale) SiO2 
 PCOD8024886
Probable space group: P -1
;
_chemical_formula_sum "Si O2"
_cell_formula_units_Z 16
_cell_length_a 8.718234
_cell_length_b 8.857156
_cell_length_c 23.499041
_cell_angle_alpha 44.196686
_cell_angle_beta 37.875193
_cell_angle_gamma 44.629808
_cell_volume 730.214876
_symmetry_space_group_name_H-M "P -1"
_symmetry_group_IT_number 2
_symmetry_cell_setting 'triclinic'
loop_
_space_group_symop_operation_xyz
x,y,z
-x,-y,-z
loop_
_atom_site_type_symbol
_atom_site_label
_atom_site_fract_x
_atom_site_fract_y
_atom_site_fract_z
Si Si1 0.139588 0.254740 0.888797
Si Si2 0.029360 0.341862 0.606628
Si Si3 0.934601 0.638953 0.922612
Si Si4 0.998480 0.164958 0.543748
Si Si5 0.989348 0.121633 0.790298
Si Si6 0.594241 0.746181 0.303467
Si Si7 0.677784 0.192039 0.973795
Si Si8 0.594606 0.321909 0.467431
O O1 0.353036 0.182748 0.794818
O O2 0.127820 0.492524 0.856459
O O3 0.837085 0.291707 0.946139
O O4 0.241764 0.073318 0.959382
O O5 0.913812 0.621252 0.561292
O O6 0.899716 0.271785 0.719031
O O7 0.346318 0.260541 0.534631
O O8 0.970669 0.194948 0.611954
O O9 0.636997 0.687959 0.972210
O O10 0.014732 0.861794 0.843064
O O11 0.000000 0.500000 0.000000
O O12 0.707441 0.173831 0.608085
O O13 0.180862 0.927880 0.525354
O O14 0.273424 0.131064 0.723403
O O15 0.774921 0.227468 0.873073
O O16 0.706253 0.465797 0.350369
O O17 0.500000 0.500000 0.500000
#
# Coordination Sequence:
#
# PCOD8024886 Si02
#       8
#     2   2   2   2   2   2   2   2
#     4  10  23  44  67  96 132 178 224 275 337 407
#     4  10  23  44  65 100 131 174 224 275 330 403
#     4  12  25  42  66 100 132 178 224 284 343 387
#     4  10  24  44  70  95 134 177 218 274 344 393
#     4  11  23  45  63  96 135 169 227 277 328 405
#     4  10  24  43  64  98 129 176 222 267 336 406
#     4  10  23  45  67  89 139 174 222 281 333 408
#     4  11  22  45  67  96 138 168 219 277 333 401
#
# _framework density 21.911359999999998
#
# number of rings (size 3 to 8) (size 9 to 14) (size 15 to 20)
#    0.000    1.500    2.500    1.125    3.500    2.000 
#    6.750    0.000    0.000    0.000    0.000    0.000 
#    0.000    0.000    0.000    0.000    0.000    0.000 
#
# Total GULP energy -198215.661602 kJ/mol
# GULP energy per Si atom -12388.478850 kJ/mol
# Density = 2.186149 g / cm^3
# Si number density = 21.911360 Si / 1000 Ang^3
#
#
#
# Elastic Constant Matrix: (Units=GPa)
#
#
# Indices 1 2 3 4 5 6 
#
# 1 67.2863 53.4599 35.5006 -6.0978 19.5413 -5.8991
# 2 53.4599 141.3226 38.9233 -9.4345 -0.1064 9.8123
# 3 35.5006 38.9233 115.6649 -18.6931 18.2052 -1.4716
# 4 -6.0978 -9.4345 -18.6931 20.8563 2.1631 1.0116
# 5 19.5413 -0.1064 18.2052 2.1631 39.2830 -4.1101
# 6 -5.8991 9.8123 -1.4716 1.0116 -4.1101 28.7235
#
#
#
# Elastic Compliance Matrix: (Units=1/GPa)
#
#
# Indices 1 2 3 4 5 6 
#
# 1 0.029514 -0.010739 -0.003044 0.001977 -0.012604 0.007701
# 2 -0.010739 0.012009 -0.001588 0.000572 0.005491 -0.005624
# 3 -0.003044 -0.001588 0.012519 0.010145 -0.004903 -0.000500
# 4 0.001977 0.000572 0.010145 0.058961 -0.009209 -0.002664
# 5 -0.012604 0.005491 -0.004903 -0.009209 0.034578 0.000557
# 6 0.007701 -0.005624 -0.000500 -0.002664 0.000557 0.038465
#
#
# Mechanical properties :
#
#
# Convention : Reuss Voigt Hill
#
# Bulk Modulus (GPa) = 42.91719 64.44903 53.68311
# Shear Modulus (GPa) = 22.26617 30.86523 26.56570
#
# Velocity S-wave (km/s) = 3.19124 3.75726 3.48576
# Velocity P-wave (km/s) = 5.76263 6.94982 6.38388
#
# Compressibility (1/GPa) = 0.02330069
#
# Stress axis : x y z
#
# Youngs Moduli (GPa) = 33.88167 83.27398 79.87627
#
# Poissons Ratio (x) = 0.89426 0.24312
# Poissons Ratio (y) = 0.36385 0.12688
# Poissons Ratio (z) = 0.10313 0.13227
#
# Static dielectric constant tensor:
#      x y z
#    x 4.346630 -0.058460 0.132390 
#    y -0.058460 3.724050 -0.265280 
#    z 0.132390 -0.265280 4.257450 
# 
# 
# High freq. dielectric constant tensor:
#      x y z
#    x 1.880530 0.007160 0.003860 
#    y 0.007160 1.843290 -0.009760 
#    z 0.003860 -0.009760 1.867700 
# 
# From -- ./inp_files/606604.got.cif
#   From: 2010.06.25/outbox.cif.g09.slc.cpg/sg2_304_cif.got.tgz:606604.got - 2010.06.27 13:26:56.
