data_PCOD8024693
_publ_section_title
;
Structure prediction by ZEFSAII (Michael W. Deem and Ramdas Pophale) SiO2 
 PCOD8024693
Probable space group: P -1
;
_chemical_formula_sum "Si O2"
_cell_formula_units_Z 12
_cell_length_a 7.171235
_cell_length_b 20.718266
_cell_length_c 11.604080
_cell_angle_alpha 23.657386
_cell_angle_beta 143.489076
_cell_angle_gamma 142.661644
_cell_volume 398.904680
_symmetry_space_group_name_H-M "P -1"
_symmetry_group_IT_number 2
_symmetry_cell_setting 'triclinic'
loop_
_space_group_symop_operation_xyz
x,y,z
-x,-y,-z
loop_
_atom_site_type_symbol
_atom_site_label
_atom_site_fract_x
_atom_site_fract_y
_atom_site_fract_z
Si Si1 0.784315 0.181209 0.812658
Si Si2 0.395785 0.423521 0.287261
Si Si3 0.246020 0.337200 0.597606
Si Si4 0.593762 0.797737 0.795099
Si Si5 0.851481 0.289155 0.074872
Si Si6 0.495488 0.965887 0.822968
O O1 0.603248 0.287272 0.631136
O O2 0.529722 0.024269 0.878808
O O3 0.964281 0.318442 0.582968
O O4 0.040100 0.112825 0.128993
O O5 0.171052 0.407313 0.318739
O O6 0.202864 0.384187 0.135190
O O7 0.608339 0.609433 0.081370
O O8 0.636598 0.416992 0.710444
O O9 0.246528 0.141698 0.902865
O O10 0.353381 0.813607 0.754153
O O11 0.450219 0.869600 0.495896
O O12 0.858433 0.155535 0.193524
#
# Coordination Sequence:
#
# PCOD8024693 Si02
#       6
#     2   2   2   2   2   2
#     4  11  25  42  72  98 139 171 225 277 335 393
#     4  12  25  44  69 104 132 177 224 274 334 401
#     4   9  24  44  68  99 132 175 223 273 335 387
#     4  11  24  43  71  98 136 179 223 271 337 399
#     4   9  23  41  70  95 137 174 223 274 333 394
#     4  10  23  43  70  97 131 183 220 274 336 390
#
# _framework density 30.082376
#
# number of rings (size 3 to 8) (size 9 to 14) (size 15 to 20)
#    1.000    0.667    0.000    3.000    2.333    7.333 
#    0.000    0.000    0.000    0.000    0.000    0.000 
#    0.000    0.000    0.000    0.000    0.000    0.000 
#
# Total GULP energy -148793.301027 kJ/mol
# GULP energy per Si atom -12399.441752 kJ/mol
# Density = 3.001391 g / cm^3
# Si number density = 30.082376 Si / 1000 Ang^3
#
#
#
# Elastic Constant Matrix: (Units=GPa)
#
#
# Indices 1 2 3 4 5 6 
#
# 1 76.2891 41.1788 16.2063 0.8112 -0.6705 -22.4085
# 2 41.1788 200.5543 32.9800 7.8836 -8.3784 -22.4020
# 3 16.2063 32.9800 135.4558 4.3791 -15.5495 -20.0553
# 4 0.8112 7.8836 4.3791 47.0555 -10.1258 -3.7862
# 5 -0.6705 -8.3784 -15.5495 -10.1258 36.3971 7.8966
# 6 -22.4085 -22.4020 -20.0553 -3.7862 7.8966 49.5255
#
#
#
# Elastic Compliance Matrix: (Units=1/GPa)
#
#
# Indices 1 2 3 4 5 6 
#
# 1 0.016524 -0.002675 -0.000611 0.000331 -0.001856 0.006341
# 2 -0.002675 0.005833 -0.000879 -0.000660 0.000531 0.000937
# 3 -0.000611 -0.000879 0.008331 0.000190 0.002910 0.002250
# 4 0.000331 -0.000660 0.000190 0.022708 0.006103 0.000691
# 5 -0.001856 0.000531 0.002910 0.006103 0.031362 -0.003955
# 6 0.006341 0.000937 0.002250 0.000691 -0.003955 0.025079
#
#
# Mechanical properties :
#
#
# Convention : Reuss Voigt Hill
#
# Bulk Modulus (GPa) = 44.72584 65.89217 55.30900
# Shear Modulus (GPa) = 39.80339 48.05790 43.93065
#
# Velocity S-wave (km/s) = 3.64145 4.00126 3.82559
# Velocity P-wave (km/s) = 5.70792 6.58014 6.15949
#
# Compressibility (1/GPa) = 0.02235844
#
# Stress axis : x y z
#
# Youngs Moduli (GPa) = 60.51773 171.44726 120.03880
#
# Poissons Ratio (x) = 0.45856 0.07331
# Poissons Ratio (y) = 0.16186 0.10552
# Poissons Ratio (z) = 0.03696 0.15072
#
# Static dielectric constant tensor:
#      x y z
#    x 4.968550 -0.300360 -0.079060 
#    y -0.300360 6.012470 -0.135920 
#    z -0.079060 -0.135920 5.549900 
# 
# 
# High freq. dielectric constant tensor:
#      x y z
#    x 2.206300 -0.022890 -0.009880 
#    y -0.022890 2.263920 -0.011640 
#    z -0.009880 -0.011640 2.257090 
# 
# From -- ./inp_files/404102.got.cif
#   From: 2010.06.25/outbox.cif.g09.slc.cpg/sg2_203_cif.got.tgz:404102.got - 2010.06.27 13:26:56.
