data_PCOD8024866
_publ_section_title
;
Structure prediction by ZEFSAII (Michael W. Deem and Ramdas Pophale) SiO2 
 PCOD8024866
Probable space group: P -1
;
_chemical_formula_sum "Si O2"
_cell_formula_units_Z 12
_cell_length_a 7.515504
_cell_length_b 6.842211
_cell_length_c 24.203081
_cell_angle_alpha 37.684706
_cell_angle_beta 45.031288
_cell_angle_gamma 55.436126
_cell_volume 538.192852
_symmetry_space_group_name_H-M "P -1"
_symmetry_group_IT_number 2
_symmetry_cell_setting 'triclinic'
loop_
_space_group_symop_operation_xyz
x,y,z
-x,-y,-z
loop_
_atom_site_type_symbol
_atom_site_label
_atom_site_fract_x
_atom_site_fract_y
_atom_site_fract_z
Si Si1 0.102504 0.112688 0.202998
Si Si2 0.610094 0.834867 0.135375
Si Si3 0.223479 0.913688 0.339266
Si Si4 0.045304 0.682147 0.005620
Si Si5 0.444703 0.884907 0.682804
Si Si6 0.708320 0.831225 0.529124
O O1 0.099972 0.452038 0.097295
O O2 0.830656 0.935450 0.300141
O O3 0.318058 0.907870 0.169484
O O4 0.181842 0.133572 0.245369
O O5 0.628140 0.476884 0.233729
O O6 0.784615 0.874696 0.033667
O O7 0.721786 0.074459 0.104329
O O8 0.300258 0.553976 0.384889
O O9 0.980802 0.936600 0.426520
O O10 0.450247 0.059966 0.291682
O O11 0.000000 0.500000 0.000000
O O12 0.647274 0.976791 0.570981
O O13 0.500000 0.000000 0.500000
#
# Coordination Sequence:
#
# PCOD8024866 Si02
#       6
#     2   2   2   2   2   2
#     4  11  23  43  67  99 133 169 224 271 320 397
#     4  10  23  44  63  99 133 163 228 268 316 404
#     4  11  25  43  67  97 136 175 219 276 325 386
#     4  10  24  45  69  96 134 175 216 273 333 390
#     4  11  24  43  67  98 133 177 221 266 332 387
#     4  11  23  45  67  97 138 172 224 273 320 398
#
# _framework density 22.296841000000001
#
# number of rings (size 3 to 8) (size 9 to 14) (size 15 to 20)
#    0.000    1.333    3.333    1.000    4.667    2.667 
#    9.000    0.000    0.000    0.000    0.000    0.000 
#    0.000    0.000    0.000    0.000    0.000    0.000 
#
# Total GULP energy -148699.556384 kJ/mol
# GULP energy per Si atom -12391.629699 kJ/mol
# Density = 2.224609 g / cm^3
# Si number density = 22.296841 Si / 1000 Ang^3
#
#
#
# Elastic Constant Matrix: (Units=GPa)
#
#
# Indices 1 2 3 4 5 6 
#
# 1 164.9458 69.0831 50.7881 19.7611 2.1331 4.8543
# 2 69.0831 97.1809 34.0700 22.5386 -10.7307 -6.2616
# 3 50.7881 34.0700 79.3791 11.4641 6.1262 3.0596
# 4 19.7611 22.5386 11.4641 35.3090 -7.7069 -8.1498
# 5 2.1331 -10.7307 6.1262 -7.7069 38.1488 11.6598
# 6 4.8543 -6.2616 3.0596 -8.1498 11.6598 44.7782
#
#
#
# Elastic Compliance Matrix: (Units=1/GPa)
#
#
# Indices 1 2 3 4 5 6 
#
# 1 0.009701 -0.005626 -0.003429 -0.001374 -0.001396 -0.001491
# 2 -0.005626 0.017326 -0.003397 -0.005618 0.004252 0.001135
# 3 -0.003429 -0.003397 0.016911 -0.002386 -0.003742 -0.000719
# 4 -0.001374 -0.005618 -0.002386 0.035563 0.004596 0.004802
# 5 -0.001396 0.004252 -0.003742 0.004596 0.030915 -0.006212
# 6 -0.001491 0.001135 -0.000719 0.004802 -0.006212 0.025193
#
#
# Mechanical properties :
#
#
# Convention : Reuss Voigt Hill
#
# Bulk Modulus (GPa) = 52.53780 72.15423 62.34602
# Shear Modulus (GPa) = 29.96578 36.15151 33.05864
#
# Velocity S-wave (km/s) = 3.66997 4.03100 3.85471
# Velocity P-wave (km/s) = 6.44765 7.35501 6.91623
#
# Compressibility (1/GPa) = 0.01903391
#
# Stress axis : x y z
#
# Youngs Moduli (GPa) = 103.08210 57.71703 59.13403
#
# Poissons Ratio (x) = 0.32470 0.20275
# Poissons Ratio (y) = 0.57991 0.20091
# Poissons Ratio (z) = 0.35343 0.19609
#
# Static dielectric constant tensor:
#      x y z
#    x 4.054230 -0.532030 -0.307570 
#    y -0.532030 4.419150 0.494950 
#    z -0.307570 0.494950 4.219530 
# 
# 
# High freq. dielectric constant tensor:
#      x y z
#    x 1.874150 -0.020720 -0.012620 
#    y -0.020720 1.878300 0.024970 
#    z -0.012620 0.024970 1.881320 
# 
# From -- ./inp_files/4501.got.cif
#   From: 2010.06.25/outbox.cif.g09.slc.cpg/sg2_3_cif.got.tgz:4501.got - 2010.06.27 13:26:56.
