data_PCOD8024665
_publ_section_title
;
Structure prediction by ZEFSAII (Michael W. Deem and Ramdas Pophale) SiO2 
 PCOD8024665
Probable space group: P -1
;
_chemical_formula_sum "Si O2"
_cell_formula_units_Z 8
_cell_length_a 4.899298
_cell_length_b 12.460822
_cell_length_c 5.581284
_cell_angle_alpha 118.473348
_cell_angle_beta 93.254248
_cell_angle_gamma 90.886447
_cell_volume 298.683521
_symmetry_space_group_name_H-M "P -1"
_symmetry_group_IT_number 2
_symmetry_cell_setting 'triclinic'
loop_
_space_group_symop_operation_xyz
x,y,z
-x,-y,-z
loop_
_atom_site_type_symbol
_atom_site_label
_atom_site_fract_x
_atom_site_fract_y
_atom_site_fract_z
Si Si1 0.812030 0.145071 0.258456
Si Si2 0.495648 0.301303 0.764021
Si Si3 0.717746 0.882684 0.085528
Si Si4 0.734491 0.492414 0.318127
O O1 0.705651 0.254876 0.527651
O O2 0.840459 0.020897 0.284889
O O3 0.596447 0.112931 0.003706
O O4 0.102321 0.181877 0.182058
O O5 0.291229 0.193806 0.748341
O O6 0.284207 0.397434 0.755210
O O7 0.695410 0.363195 0.041370
O O8 0.500000 0.500000 0.500000
O O9 0.000000 0.500000 0.500000
#
# Coordination Sequence:
#
# PCOD8024665 Si02
#       4
#     2   2   2   2
#     4  10  23  43  70 108 146 181 231 290 351 429
#     4  11  25  46  78 102 141 197 236 288 366 425
#     4  10  23  43  70 108 146 181 231 290 351 429
#     4  11  28  49  69 104 143 183 246 305 349 414
#
# _framework density 26.784203000000002
#
# number of rings (size 3 to 8) (size 9 to 14) (size 15 to 20)
#    0.000    1.500    0.000    2.250    0.000   18.000 
#    0.000   11.250    0.000    4.500    0.000    0.000 
#    0.000    0.000    0.000    0.000    0.000    0.000 
#
# Total GULP energy -99223.764595 kJ/mol
# GULP energy per Si atom -12402.970574 kJ/mol
# Density = 2.672324 g / cm^3
# Si number density = 26.784203 Si / 1000 Ang^3
#
#
#
# Elastic Constant Matrix: (Units=GPa)
#
#
# Indices 1 2 3 4 5 6 
#
# 1 138.8788 30.2713 15.3629 -6.8326 -1.0259 -3.0772
# 2 30.2713 129.0011 -6.7681 -8.4982 1.8032 7.1677
# 3 15.3629 -6.7681 88.3230 15.4583 -6.8529 -12.5507
# 4 -6.8326 -8.4982 15.4583 40.7103 -6.1355 -6.3492
# 5 -1.0259 1.8032 -6.8529 -6.1355 47.3911 -7.0403
# 6 -3.0772 7.1677 -12.5507 -6.3492 -7.0403 28.7917
#
#
#
# Elastic Compliance Matrix: (Units=1/GPa)
#
#
# Indices 1 2 3 4 5 6 
#
# 1 0.007910 -0.001891 -0.001648 0.001789 0.000398 0.001090
# 2 -0.001891 0.008396 0.000501 0.000862 -0.000474 -0.002000
# 3 -0.001648 0.000501 0.013248 -0.004096 0.002085 0.005081
# 4 0.001789 0.000862 -0.004096 0.028003 0.003827 0.005302
# 5 0.000398 -0.000474 0.002085 0.003827 0.023046 0.007549
# 6 0.001090 -0.002000 0.005081 0.005302 0.007549 0.040577
#
#
# Mechanical properties :
#
#
# Convention : Reuss Voigt Hill
#
# Bulk Modulus (GPa) = 42.59452 48.21501 45.40477
# Shear Modulus (GPa) = 37.01445 44.53440 40.77442
#
# Velocity S-wave (km/s) = 3.72149 4.08206 3.90594
# Velocity P-wave (km/s) = 5.86544 6.34492 6.10988
#
# Compressibility (1/GPa) = 0.02347720
#
# Stress axis : x y z
#
# Youngs Moduli (GPa) = 126.42106 119.09893 75.48460
#
# Poissons Ratio (x) = 0.22521 0.12441
# Poissons Ratio (y) = 0.23905 -0.03778
# Poissons Ratio (z) = 0.20835 -0.05961
#
# Static dielectric constant tensor:
#      x y z
#    x 4.518230 0.229050 0.024650 
#    y 0.229050 4.841340 -0.230280 
#    z 0.024650 -0.230280 4.602040 
# 
# 
# High freq. dielectric constant tensor:
#      x y z
#    x 2.078170 -0.001120 -0.005020 
#    y -0.001120 2.093310 0.000490 
#    z -0.005020 0.000490 2.069550 
# 
# From -- ./inp_files/1741.got.cif
#   From: 2010.06.25/outbox.cif.g09.slc.cpg/sg2_1_cif.got.tgz:1741.got - 2010.06.27 13:26:56.
