data_PCOD8024101
_publ_section_title
;
Structure prediction by ZEFSAII (Michael W. Deem and Ramdas Pophale) SiO2 
 PCOD8024101
Probable space group: P -1
;
_chemical_formula_sum "Si O2"
_cell_formula_units_Z 12
_cell_length_a 9.903345
_cell_length_b 5.404561
_cell_length_c 11.583776
_cell_angle_alpha 105.235900
_cell_angle_beta 122.083693
_cell_angle_gamma 74.030958
_cell_volume 499.832405
_symmetry_space_group_name_H-M "P -1"
_symmetry_group_IT_number 2
_symmetry_cell_setting 'triclinic'
loop_
_space_group_symop_operation_xyz
x,y,z
-x,-y,-z
loop_
_atom_site_type_symbol
_atom_site_label
_atom_site_fract_x
_atom_site_fract_y
_atom_site_fract_z
Si Si1 0.524770 0.359656 0.747964
Si Si2 0.059561 0.955809 0.893671
Si Si3 0.766231 0.212501 0.640080
Si Si4 0.992034 0.497469 0.309004
Si Si5 0.807012 0.776673 0.440130
Si Si6 0.394417 0.085136 0.073818
O O1 0.606264 0.278947 0.651535
O O2 0.333110 0.401786 0.644673
O O3 0.574670 0.632085 0.839748
O O4 0.572722 0.132491 0.837079
O O5 0.110101 0.648758 0.846431
O O6 0.906347 0.044833 0.756222
O O7 0.206330 0.110735 0.955602
O O8 0.000000 0.000000 0.000000
O O9 0.838654 0.466925 0.668215
O O10 0.729438 0.064031 0.486448
O O11 0.879244 0.763082 0.339132
O O12 0.040338 0.322211 0.421797
O O13 0.500000 0.000000 0.000000
#
# Coordination Sequence:
#
# PCOD8024101 Si02
#       6
#     2   2   2   2   2   2
#     4  12  27  45  71 102 139 180 228 283 342 404
#     4  11  23  43  66  99 137 175 232 278 339 410
#     4  11  24  41  71  97 134 181 224 289 338 403
#     4  10  23  42  70  96 133 182 228 286 339 399
#     4  10  24  44  65 101 134 176 235 279 344 404
#     4  12  28  46  70 102 140 185 226 278 343 407
#
# _framework density 24.008046
#
# number of rings (size 3 to 8) (size 9 to 14) (size 15 to 20)
#    0.000    1.000    1.667    3.500    9.333    2.000 
#    0.000    0.000    0.000    0.000    0.000    0.000 
#    0.000    0.000    0.000    0.000    0.000    0.000 
#
# Total GULP energy -148697.309476 kJ/mol
# GULP energy per Si atom -12391.442456 kJ/mol
# Density = 2.395340 g / cm^3
# Si number density = 24.008046 Si / 1000 Ang^3
#
#
#
# Elastic Constant Matrix: (Units=GPa)
#
#
# Indices 1 2 3 4 5 6 
#
# 1 163.8416 17.1215 46.3692 21.5112 -13.8571 0.6392
# 2 17.1215 92.7678 39.4100 33.9937 -15.0038 12.3950
# 3 46.3692 39.4100 112.5835 42.4965 -9.1882 -1.2346
# 4 21.5112 33.9937 42.4965 37.5446 -0.6597 2.6695
# 5 -13.8571 -15.0038 -9.1882 -0.6597 51.3535 9.9872
# 6 0.6392 12.3950 -1.2346 2.6695 9.9872 36.9133
#
#
#
# Elastic Compliance Matrix: (Units=1/GPa)
#
#
# Indices 1 2 3 4 5 6 
#
# 1 0.007105 0.000885 -0.002245 -0.002236 0.001911 -0.000850
# 2 0.000885 0.018895 -0.000137 -0.016840 0.006881 -0.007009
# 3 -0.002245 -0.000137 0.016609 -0.017457 0.001828 0.001408
# 4 -0.002236 -0.016840 -0.017457 0.062573 -0.008399 0.002857
# 5 0.001911 0.006881 0.001828 -0.008399 0.023796 -0.008113
# 6 -0.000850 -0.007009 0.001408 0.002857 -0.008113 0.031494
#
#
# Mechanical properties :
#
#
# Convention : Reuss Voigt Hill
#
# Bulk Modulus (GPa) = 25.24388 63.88825 44.56606
# Shear Modulus (GPa) = 28.30103 42.91509 35.60806
#
# Velocity S-wave (km/s) = 3.43711 4.23251 3.85537
# Velocity P-wave (km/s) = 5.12730 7.11016 6.19853
#
# Compressibility (1/GPa) = 0.03961356
#
# Stress axis : x y z
#
# Youngs Moduli (GPa) = 140.74679 52.92446 60.20770
#
# Poissons Ratio (x) = -0.04682 0.13518
# Poissons Ratio (y) = -0.12451 0.00826
# Poissons Ratio (z) = 0.31600 0.00726
#
# Static dielectric constant tensor:
#      x y z
#    x 4.812870 0.030840 0.010180 
#    y 0.030840 4.522140 0.511040 
#    z 0.010180 0.511040 4.260550 
# 
# 
# High freq. dielectric constant tensor:
#      x y z
#    x 1.970430 0.000280 -0.009470 
#    y 0.000280 1.934580 0.023570 
#    z -0.009470 0.023570 1.967920 
# 
# From -- ./inp_files/19659.got.cif
#   From: 2010.06.25/outbox.cif.g09.slc.cpg/sg2_10_cif.got.tgz:19659.got - 2010.06.27 13:26:56.
