data_PCOD8024053
_publ_section_title
;
Structure prediction by ZEFSAII (Michael W. Deem and Ramdas Pophale) SiO2 
 PCOD8024053
Probable space group: P -1
;
_chemical_formula_sum "Si O2"
_cell_formula_units_Z 14
_cell_length_a 11.589367
_cell_length_b 11.483368
_cell_length_c 19.966116
_cell_angle_alpha 157.229222
_cell_angle_beta 136.746440
_cell_angle_gamma 55.718471
_cell_volume 643.287446
_symmetry_space_group_name_H-M "P -1"
_symmetry_group_IT_number 2
_symmetry_cell_setting 'triclinic'
loop_
_space_group_symop_operation_xyz
x,y,z
-x,-y,-z
loop_
_atom_site_type_symbol
_atom_site_label
_atom_site_fract_x
_atom_site_fract_y
_atom_site_fract_z
Si Si1 0.336892 0.150242 0.729812
Si Si2 0.500180 0.663890 0.849125
Si Si3 0.107402 0.786856 0.567657
Si Si4 0.913909 0.768591 0.097721
Si Si5 0.781199 0.699106 0.570692
Si Si6 0.591590 0.850253 0.691199
Si Si7 0.732198 0.412708 0.159978
O O1 0.215198 0.231773 0.666373
O O2 0.223967 0.966905 0.648960
O O3 0.433228 0.918025 0.620120
O O4 0.500000 0.500000 0.000000
O O5 0.366342 0.370378 0.588661
O O6 0.427717 0.633218 0.878503
O O7 0.696327 0.631929 0.914810
O O8 0.500000 0.000000 0.000000
O O9 0.219778 0.653562 0.595323
O O10 0.924769 0.459568 0.299693
O O11 0.052170 0.053137 0.721953
O O12 0.020739 0.038321 0.229913
O O13 0.000000 0.500000 0.000000
O O14 0.740180 0.867874 0.708340
O O15 0.500000 0.500000 0.500000
O O16 0.677295 0.111626 0.925705
#
# Coordination Sequence:
#
# PCOD8024053 Si02
#       7
#     2   2   2   2   2   2   2
#     4  10  23  42  69  97 141 187 237 292 366 427
#     4  12  24  48  77 102 142 199 238 288 371 430
#     4  12  23  49  70 104 143 194 244 294 362 442
#     4  12  28  44  74 112 148 184 243 309 356 424
#     4  12  26  46  75 104 148 186 247 296 356 439
#     4  11  23  45  68 106 139 186 243 299 352 433
#     4  11  25  43  75 100 143 192 240 295 369 426
#
# _framework density 21.763209
#
# number of rings (size 3 to 8) (size 9 to 14) (size 15 to 20)
#    0.000    0.571    4.286    4.286    6.000    2.286 
#    2.571    0.000    0.000    0.000    0.000    0.000 
#    0.000    0.000    0.000    0.000    0.000    0.000 
#
# Total GULP energy -173535.188132 kJ/mol
# GULP energy per Si atom -12395.370581 kJ/mol
# Density = 2.171367 g / cm^3
# Si number density = 21.763209 Si / 1000 Ang^3
#
#
#
# Elastic Constant Matrix: (Units=GPa)
#
#
# Indices 1 2 3 4 5 6 
#
# 1 145.3095 37.9776 49.5876 -4.1863 7.5321 -7.1144
# 2 37.9776 116.4539 45.0488 9.9266 -1.4062 -9.6684
# 3 49.5876 45.0488 99.2382 -10.7647 -3.0594 -7.7144
# 4 -4.1863 9.9266 -10.7647 45.4252 3.1142 0.7060
# 5 7.5321 -1.4062 -3.0594 3.1142 45.0532 6.2992
# 6 -7.1144 -9.6684 -7.7144 0.7060 6.2992 38.2636
#
#
#
# Elastic Compliance Matrix: (Units=1/GPa)
#
#
# Indices 1 2 3 4 5 6 
#
# 1 0.008635 -0.001393 -0.003638 0.000354 -0.001873 0.000822
# 2 -0.001393 0.011330 -0.004716 -0.003768 0.000293 0.001674
# 3 -0.003638 -0.004716 0.014573 0.004064 0.001055 0.000821
# 4 0.000354 -0.003768 0.004064 0.023941 -0.001520 -0.000259
# 5 -0.001873 0.000293 0.001055 -0.001520 0.023235 -0.003859
# 6 0.000822 0.001674 0.000821 -0.000259 -0.003859 0.027516
#
#
# Mechanical properties :
#
#
# Convention : Reuss Voigt Hill
#
# Bulk Modulus (GPa) = 66.47894 69.58105 68.03000
# Shear Modulus (GPa) = 37.38650 40.97424 39.18037
#
# Velocity S-wave (km/s) = 4.14922 4.34375 4.24760
# Velocity P-wave (km/s) = 7.31898 7.56299 7.44199
#
# Compressibility (1/GPa) = 0.01504236
#
# Stress axis : x y z
#
# Youngs Moduli (GPa) = 115.80833 88.26380 68.62190
#
# Poissons Ratio (x) = 0.12298 0.24963
# Poissons Ratio (y) = 0.16136 0.32365
# Poissons Ratio (z) = 0.42128 0.41629
#
# Static dielectric constant tensor:
#      x y z
#    x 61.825100 -83.229500 -42.468990 
#    y -83.229500 124.756460 61.293510 
#    z -42.468990 61.293510 35.141950 
# 
# 
# High freq. dielectric constant tensor:
#      x y z
#    x 1.870940 0.002160 0.008660 
#    y 0.002160 1.867440 0.001380 
#    z 0.008660 0.001380 1.849830 
# 
# From -- ./inp_files/280001.got.cif
#   From: 2010.06.25/outbox.cif.g09.slc.cpg/sg2_141_cif.got.tgz:280001.got - 2010.06.27 13:26:56.
