data_PCOD8024014
_publ_section_title
;
Structure prediction by ZEFSAII (Michael W. Deem and Ramdas Pophale) SiO2 
 PCOD8024014
Probable space group: P -1
;
_chemical_formula_sum "Si O2"
_cell_formula_units_Z 16
_cell_length_a 10.711290
_cell_length_b 8.673730
_cell_length_c 13.470497
_cell_angle_alpha 122.283689
_cell_angle_beta 75.064083
_cell_angle_gamma 136.643210
_cell_volume 707.753217
_symmetry_space_group_name_H-M "P -1"
_symmetry_group_IT_number 2
_symmetry_cell_setting 'triclinic'
loop_
_space_group_symop_operation_xyz
x,y,z
-x,-y,-z
loop_
_atom_site_type_symbol
_atom_site_label
_atom_site_fract_x
_atom_site_fract_y
_atom_site_fract_z
Si Si1 0.206067 0.288399 0.355986
Si Si2 0.739796 0.196506 0.758210
Si Si3 0.932220 0.741572 0.976058
Si Si4 0.590875 0.510931 0.084068
Si Si5 0.781410 0.967324 0.340089
Si Si6 0.710786 0.944232 0.877149
Si Si7 0.833734 0.968574 0.545870
Si Si8 0.393708 0.848949 0.567980
O O1 0.271405 0.248722 0.230432
O O2 0.282573 0.243144 0.415672
O O3 0.287268 0.561839 0.460849
O O4 0.983344 0.086515 0.322272
O O5 0.704518 0.086802 0.839780
O O6 0.883312 0.217097 0.670473
O O7 0.534915 0.980582 0.676588
O O8 0.829035 0.491134 0.837971
O O9 0.789606 0.629348 0.056521
O O10 0.110375 0.822517 0.013118
O O11 0.000000 0.000000 0.000000
O O12 0.622435 0.706682 0.220807
O O13 0.465570 0.231950 0.071487
O O14 0.500000 0.500000 0.000000
O O15 0.718389 0.881515 0.439055
O O16 0.766542 0.164136 0.380225
O O17 0.000000 0.000000 0.500000
O O18 0.500000 0.000000 0.500000
#
# Coordination Sequence:
#
# PCOD8024014 Si02
#       8
#     2   2   2   2   2   2   2   2
#     4  10  23  42  69 102 140 189 235 292 372 427
#     4  11  26  46  71 108 149 190 244 303 368 429
#     4  12  26  49  76 103 146 196 247 303 364 430
#     4  12  25  44  72 106 140 190 248 292 361 427
#     4  11  22  42  68 100 146 184 238 296 355 438
#     4  11  25  47  75 103 146 194 243 306 359 437
#     4   9  21  43  68 103 136 180 230 292 359 432
#     4  12  24  39  65 104 145 183 238 297 358 432
#
# _framework density 22.606750000000002
#
# number of rings (size 3 to 8) (size 9 to 14) (size 15 to 20)
#    0.000    1.000    3.750    2.250    3.500    1.500 
#    4.500    0.000    0.000    0.000    0.000    0.000 
#    0.000    0.000    0.000    0.000    0.000    0.000 
#
# Total GULP energy -198213.206928 kJ/mol
# GULP energy per Si atom -12388.325433 kJ/mol
# Density = 2.255530 g / cm^3
# Si number density = 22.606750 Si / 1000 Ang^3
#
#
#
# Elastic Constant Matrix: (Units=GPa)
#
#
# Indices 1 2 3 4 5 6 
#
# 1 82.9481 30.1261 11.1733 -3.5360 8.8866 -8.7105
# 2 30.1261 109.8860 35.3192 -5.1340 5.8996 2.2718
# 3 11.1733 35.3192 102.3069 4.3294 6.5077 -10.0077
# 4 -3.5360 -5.1340 4.3294 33.9613 -1.9710 -1.4785
# 5 8.8866 5.8996 6.5077 -1.9710 50.4422 -3.4375
# 6 -8.7105 2.2718 -10.0077 -1.4785 -3.4375 32.4542
#
#
#
# Elastic Compliance Matrix: (Units=1/GPa)
#
#
# Indices 1 2 3 4 5 6 
#
# 1 0.014079 -0.003892 0.000269 0.000915 -0.001752 0.003990
# 2 -0.003892 0.011586 -0.003923 0.001697 -0.000303 -0.003020
# 3 0.000269 -0.003923 0.011605 -0.001934 -0.000906 0.003741
# 4 0.000915 0.001697 -0.001934 0.030154 0.001138 0.001025
# 5 -0.001752 -0.000303 -0.000906 0.001138 0.020432 0.001487
# 6 0.003990 -0.003020 0.003741 0.001025 0.001487 0.033453
#
#
# Mechanical properties :
#
#
# Convention : Reuss Voigt Hill
#
# Bulk Modulus (GPa) = 45.08885 49.81979 47.45432
# Shear Modulus (GPa) = 34.77228 37.93971 36.35600
#
# Velocity S-wave (km/s) = 3.92616 4.10109 4.01458
# Velocity P-wave (km/s) = 6.36720 6.67163 6.52119
#
# Compressibility (1/GPa) = 0.02217843
#
# Stress axis : x y z
#
# Youngs Moduli (GPa) = 71.02906 86.30960 86.17076
#
# Poissons Ratio (x) = 0.33591 -0.02319
# Poissons Ratio (y) = 0.27644 0.33803
# Poissons Ratio (z) = -0.01911 0.33858
#
# Static dielectric constant tensor:
#      x y z
#    x 4.523300 -0.108300 0.057070 
#    y -0.108300 4.076640 -0.329560 
#    z 0.057070 -0.329560 4.455440 
# 
# 
# High freq. dielectric constant tensor:
#      x y z
#    x 1.900330 -0.006460 0.001000 
#    y -0.006460 1.878790 -0.007450 
#    z 0.001000 -0.007450 1.907510 
# 
# From -- ./inp_files/516258.got.cif
#   From: 2010.06.25/outbox.cif.g09.slc.cpg/sg2_259_cif.got.tgz:516258.got - 2010.06.27 13:26:56.
