data_PCOD8024908
_publ_section_title
;
Structure prediction by ZEFSAII (Michael W. Deem and Ramdas Pophale) SiO2 
 PCOD8024908
Probable space group: P -1
;
_chemical_formula_sum "Si O2"
_cell_formula_units_Z 16
_cell_length_a 13.711843
_cell_length_b 9.484882
_cell_length_c 13.921196
_cell_angle_alpha 80.013024
_cell_angle_beta 36.251204
_cell_angle_gamma 106.561643
_cell_volume 721.054957
_symmetry_space_group_name_H-M "P -1"
_symmetry_group_IT_number 2
_symmetry_cell_setting 'triclinic'
loop_
_space_group_symop_operation_xyz
x,y,z
-x,-y,-z
loop_
_atom_site_type_symbol
_atom_site_label
_atom_site_fract_x
_atom_site_fract_y
_atom_site_fract_z
Si Si1 0.749643 0.011315 0.466195
Si Si2 0.508589 0.413522 0.599964
Si Si3 0.019059 0.709687 0.245761
Si Si4 0.346452 0.989139 0.780877
Si Si5 0.913519 0.571079 0.740350
Si Si6 0.640231 0.773819 0.764827
Si Si7 0.996824 0.121383 0.068672
Si Si8 0.043716 0.806085 0.432847
O O1 0.530032 0.977077 0.621657
O O2 0.838394 0.983002 0.304251
O O3 0.977110 0.242342 0.297535
O O4 0.664097 0.837915 0.628383
O O5 0.500000 0.500000 0.500000
O O6 0.754290 0.599080 0.440537
O O7 0.482398 0.225953 0.626229
O O8 0.274527 0.324524 0.855531
O O9 0.031407 0.547220 0.243707
O O10 0.082597 0.787703 0.294889
O O11 0.225080 0.911656 0.992203
O O12 0.134682 0.830260 0.888064
O O13 0.038660 0.665029 0.524440
O O14 0.633881 0.429012 0.968551
O O15 0.791305 0.725330 0.662562
O O16 0.732674 0.952330 0.744503
O O17 0.000000 0.000000 0.000000
#
# Coordination Sequence:
#
# PCOD8024908 Si02
#       8
#     2   2   2   2   2   2   2   2
#     4  11  23  43  68 100 133 178 221 274 337 401
#     4  11  24  43  65  99 136 169 228 275 328 400
#     4  12  24  42  70 100 134 181 221 277 332 392
#     4  11  23  44  65  97 138 177 223 270 334 402
#     4  11  23  45  65 100 135 176 224 274 336 401
#     4  10  23  44  65  96 137 172 224 275 337 399
#     4  10  24  43  68  96 135 175 222 280 328 394
#     4  10  25  41  68  99 133 174 228 276 332 396
#
# _framework density 22.189710999999999
#
# number of rings (size 3 to 8) (size 9 to 14) (size 15 to 20)
#    0.000    1.250    3.750    1.125    5.250    1.500 
#    0.000    1.250    0.000    0.000    0.000    0.000 
#    0.000    0.000    0.000    0.000    0.000    0.000 
#
# Total GULP energy -198360.004341 kJ/mol
# GULP energy per Si atom -12397.500271 kJ/mol
# Density = 2.213921 g / cm^3
# Si number density = 22.189711 Si / 1000 Ang^3
#
#
#
# Elastic Constant Matrix: (Units=GPa)
#
#
# Indices 1 2 3 4 5 6 
#
# 1 90.8653 19.7054 27.2190 7.0852 6.9329 -5.8270
# 2 19.7054 52.6254 25.1795 -3.5232 14.2133 -1.7822
# 3 27.2190 25.1795 109.9888 11.8093 -5.8621 4.6983
# 4 7.0852 -3.5232 11.8093 20.4076 2.0310 15.8395
# 5 6.9329 14.2133 -5.8621 2.0310 56.0064 3.0852
# 6 -5.8270 -1.7822 4.6983 15.8395 3.0852 27.3450
#
#
#
# Elastic Compliance Matrix: (Units=1/GPa)
#
#
# Indices 1 2 3 4 5 6 
#
# 1 0.014300 -0.004953 -0.001487 -0.013195 -0.000780 0.010711
# 2 -0.004953 0.026873 -0.006758 0.016194 -0.007131 -0.006719
# 3 -0.001487 -0.006758 0.012154 -0.010020 0.003393 0.002576
# 4 -0.013195 0.016194 -0.010020 0.113100 -0.004041 -0.065092
# 5 -0.000780 -0.007131 0.003393 -0.004041 0.020327 -0.001167
# 6 0.010711 -0.006719 0.002576 -0.065092 -0.001167 0.075808
#
#
# Mechanical properties :
#
#
# Convention : Reuss Voigt Hill
#
# Bulk Modulus (GPa) = 37.13307 44.18749 40.66028
# Shear Modulus (GPa) = 16.78213 32.84351 24.81282
#
# Velocity S-wave (km/s) = 2.75308 3.85141 3.34760
# Velocity P-wave (km/s) = 5.18427 6.30354 5.77110
#
# Compressibility (1/GPa) = 0.02693017
#
# Stress axis : x y z
#
# Youngs Moduli (GPa) = 69.92859 37.21196 82.27944
#
# Poissons Ratio (x) = 0.18431 0.12239
# Poissons Ratio (y) = 0.34635 0.55606
# Poissons Ratio (z) = 0.10402 0.25148
#
# Static dielectric constant tensor:
#      x y z
#    x 4.482690 -0.157560 -0.282070 
#    y -0.157560 3.679340 -0.096790 
#    z -0.282070 -0.096790 4.265100 
# 
# 
# High freq. dielectric constant tensor:
#      x y z
#    x 1.896830 -0.012800 -0.006210 
#    y -0.012800 1.848100 -0.004840 
#    z -0.006210 -0.004840 1.882350 
# 
# From -- ./inp_files/529613.got.cif
#   From: 2010.06.25/outbox.cif.g09.slc.cpg/sg2_265_cif.got.tgz:529613.got - 2010.06.27 13:26:56.
