data_PCOD8024284
_publ_section_title
;
Structure prediction by ZEFSAII (Michael W. Deem and Ramdas Pophale) SiO2 
 PCOD8024284
Probable space group: P -1
;
_chemical_formula_sum "Si O2"
_cell_formula_units_Z 12
_cell_length_a 10.846298
_cell_length_b 14.070207
_cell_length_c 10.626024
_cell_angle_alpha 43.230073
_cell_angle_beta 62.403352
_cell_angle_gamma 32.098083
_cell_volume 534.764818
_symmetry_space_group_name_H-M "P -1"
_symmetry_group_IT_number 2
_symmetry_cell_setting 'triclinic'
loop_
_space_group_symop_operation_xyz
x,y,z
-x,-y,-z
loop_
_atom_site_type_symbol
_atom_site_label
_atom_site_fract_x
_atom_site_fract_y
_atom_site_fract_z
Si Si1 0.672424 0.987395 0.221832
Si Si2 0.728621 0.741769 0.217360
Si Si3 0.144121 0.660333 0.485982
Si Si4 0.831229 0.278984 0.305579
Si Si5 0.114534 0.490245 0.069425
Si Si6 0.717769 0.226513 0.858910
O O1 0.744500 0.785246 0.311143
O O2 0.872533 0.867943 0.346829
O O3 0.409898 0.198607 0.218601
O O4 0.651984 0.118038 0.990810
O O5 0.681714 0.615987 0.371978
O O6 0.992050 0.551314 0.201829
O O7 0.500000 0.000000 0.000000
O O8 0.122191 0.677717 0.628591
O O9 0.272913 0.700061 0.348648
O O10 0.526541 0.500039 0.214760
O O11 0.921470 0.312772 0.123429
O O12 0.000000 0.000000 0.500000
O O13 0.000000 0.500000 0.000000
O O14 0.000000 0.000000 0.000000
#
# Coordination Sequence:
#
# PCOD8024284 Si02
#       6
#     2   2   2   2   2   2
#     4  10  23  43  64  92 127 165 210 262 317 366
#     4  12  23  39  68  91 125 172 206 256 321 371
#     4  11  23  42  63  94 126 161 213 259 311 385
#     4  11  24  40  65  94 125 168 208 263 320 369
#     4  11  22  44  61  91 131 161 213 262 305 380
#     4   9  21  43  64  89 124 162 212 261 307 376
#
# _framework density 22.439769999999999
#
# number of rings (size 3 to 8) (size 9 to 14) (size 15 to 20)
#    0.000    1.333    3.333    2.000    4.667    0.667 
#    6.000    2.500    0.000    0.000    0.000    0.000 
#    0.000    0.000    0.000    0.000    0.000    0.000 
#
# Total GULP energy -148674.110953 kJ/mol
# GULP energy per Si atom -12389.509246 kJ/mol
# Density = 2.238870 g / cm^3
# Si number density = 22.439770 Si / 1000 Ang^3
#
#
#
# Elastic Constant Matrix: (Units=GPa)
#
#
# Indices 1 2 3 4 5 6 
#
# 1 59.0477 24.4021 22.4323 -17.4077 4.0279 0.2083
# 2 24.4021 97.8649 30.8633 -17.9682 1.4383 -3.5842
# 3 22.4323 30.8633 101.4244 -23.7381 -9.9682 -8.6541
# 4 -17.4077 -17.9682 -23.7381 45.4240 -2.8032 0.2808
# 5 4.0279 1.4383 -9.9682 -2.8032 38.8500 -10.2252
# 6 0.2083 -3.5842 -8.6541 0.2808 -10.2252 32.5413
#
#
#
# Elastic Compliance Matrix: (Units=1/GPa)
#
#
# Indices 1 2 3 4 5 6 
#
# 1 0.021192 -0.003469 -0.002953 0.005030 -0.003072 -0.002312
# 2 -0.003469 0.012289 -0.002442 0.002227 -0.000409 0.000579
# 3 -0.002953 -0.002442 0.013459 0.005247 0.005552 0.005028
# 4 0.005030 0.002227 0.005247 0.027759 0.003386 0.002433
# 5 -0.003072 -0.000409 0.005552 0.003386 0.030652 0.011053
# 6 -0.002312 0.000579 0.005028 0.002433 0.011053 0.035598
#
#
# Mechanical properties :
#
#
# Convention : Reuss Voigt Hill
#
# Bulk Modulus (GPa) = 34.23296 45.97027 40.10162
# Shear Modulus (GPa) = 29.68873 35.40567 32.54720
#
# Velocity S-wave (km/s) = 3.64131 3.97647 3.81258
# Velocity P-wave (km/s) = 5.74173 6.45087 6.10660
#
# Compressibility (1/GPa) = 0.02921161
#
# Stress axis : x y z
#
# Youngs Moduli (GPa) = 47.18854 81.37185 74.30165
#
# Poissons Ratio (x) = 0.28224 0.21944
# Poissons Ratio (y) = 0.16368 0.18145
# Poissons Ratio (z) = 0.13936 0.19872
#
# Static dielectric constant tensor:
#      x y z
#    x 4.034620 -0.319830 -0.314300 
#    y -0.319830 4.289270 -0.157560 
#    z -0.314300 -0.157560 4.642820 
# 
# 
# High freq. dielectric constant tensor:
#      x y z
#    x 1.873530 -0.025120 -0.006290 
#    y -0.025120 1.870690 -0.008310 
#    z -0.006290 -0.008310 1.910940 
# 
# From -- ./inp_files/160454.got.cif
#   From: 2010.06.25/outbox.cif.g09.slc.cpg/sg2_81_cif.got.tgz:160454.got - 2010.06.27 13:26:56.
