data_PCOD8024876
_publ_section_title
;
Structure prediction by ZEFSAII (Michael W. Deem and Ramdas Pophale) SiO2 
 PCOD8024876
Probable space group: P -1
;
_chemical_formula_sum "Si O2"
_cell_formula_units_Z 16
_cell_length_a 9.481722
_cell_length_b 20.251292
_cell_length_c 5.289767
_cell_angle_alpha 92.754798
_cell_angle_beta 87.680064
_cell_angle_gamma 43.156411
_cell_volume 689.690944
_symmetry_space_group_name_H-M "P -1"
_symmetry_group_IT_number 2
_symmetry_cell_setting 'triclinic'
loop_
_space_group_symop_operation_xyz
x,y,z
-x,-y,-z
loop_
_atom_site_type_symbol
_atom_site_label
_atom_site_fract_x
_atom_site_fract_y
_atom_site_fract_z
Si Si1 0.826844 0.884137 0.861543
Si Si2 0.537416 0.071381 0.183253
Si Si3 0.110130 0.031738 0.515675
Si Si4 0.543907 0.556517 0.113657
Si Si5 0.227976 0.342788 0.524510
Si Si6 0.470042 0.226086 0.992289
Si Si7 0.768370 0.508565 0.581075
Si Si8 0.795794 0.224918 0.897882
O O1 0.703723 0.867180 0.720489
O O2 0.849351 0.948378 0.748554
O O3 0.060139 0.784577 0.910831
O O4 0.665611 0.958843 0.110311
O O5 0.661862 0.061273 0.403874
O O6 0.545010 0.124087 0.969053
O O7 0.959058 0.135391 0.683886
O O8 0.000000 0.000000 0.500000
O O9 0.651577 0.507569 0.369079
O O10 0.341893 0.671125 0.205114
O O11 0.500000 0.500000 0.000000
O O12 0.668001 0.549583 0.874680
O O13 0.363430 0.275532 0.741675
O O14 0.221960 0.423372 0.533300
O O15 0.992646 0.398207 0.584974
O O16 0.312873 0.283830 0.248732
O O17 0.655160 0.214964 0.026131
#
# Coordination Sequence:
#
# PCOD8024876 Si02
#       8
#     2   2   2   2   2   2   2   2
#     4  10  23  44  64  92 143 174 231 276 350 410
#     4  10  24  42  64  98 132 185 220 286 343 416
#     4  11  23  41  72 100 137 180 230 282 345 416
#     4  12  26  45  71  99 144 187 229 286 346 423
#     4  11  24  42  73  99 134 176 227 301 341 407
#     4  12  24  42  70 106 136 176 237 285 347 412
#     4  11  23  47  69  99 135 180 235 285 357 402
#     4  11  25  41  67 101 134 179 233 284 345 406
#
# _framework density 23.198796999999999
#
# number of rings (size 3 to 8) (size 9 to 14) (size 15 to 20)
#    0.000    1.000    2.500    3.000    7.000    6.000 
#    2.250    0.000    0.000    0.000    0.000    0.000 
#    0.000    0.000    0.000    0.000    0.000    0.000 
#
# Total GULP energy -198211.944473 kJ/mol
# GULP energy per Si atom -12388.246530 kJ/mol
# Density = 2.314600 g / cm^3
# Si number density = 23.198797 Si / 1000 Ang^3
#
#
#
# Elastic Constant Matrix: (Units=GPa)
#
#
# Indices 1 2 3 4 5 6 
#
# 1 133.3925 37.8921 -0.8153 -15.7686 13.8516 -19.9424
# 2 37.8921 100.1012 12.1870 2.8095 6.5388 -19.3200
# 3 -0.8153 12.1870 72.9048 -2.3804 3.6226 -15.1396
# 4 -15.7686 2.8095 -2.3804 30.5600 -0.4388 8.3718
# 5 13.8516 6.5388 3.6226 -0.4388 29.6945 -5.4757
# 6 -19.9424 -19.3200 -15.1396 8.3718 -5.4757 39.2502
#
#
#
# Elastic Compliance Matrix: (Units=1/GPa)
#
#
# Indices 1 2 3 4 5 6 
#
# 1 0.009723 -0.003305 0.001485 0.004731 -0.003478 0.002391
# 2 -0.003305 0.012465 -0.001240 -0.004283 -0.000219 0.004861
# 3 0.001485 -0.001240 0.015208 0.000475 -0.001210 0.005740
# 4 0.004731 -0.004283 0.000475 0.037720 -0.002217 -0.007876
# 5 -0.003478 -0.000219 -0.001210 -0.002217 0.036044 0.003160
# 6 0.002391 0.004861 0.005740 -0.007876 0.003160 0.033420
#
#
# Mechanical properties :
#
#
# Convention : Reuss Voigt Hill
#
# Bulk Modulus (GPa) = 31.97465 44.99181 38.48323
# Shear Modulus (GPa) = 31.03178 37.04326 34.03752
#
# Velocity S-wave (km/s) = 3.66135 4.00030 3.83457
# Velocity P-wave (km/s) = 5.62910 6.38535 6.01912
#
# Compressibility (1/GPa) = 0.03127477
#
# Stress axis : x y z
#
# Youngs Moduli (GPa) = 102.85308 80.22685 65.75469
#
# Poissons Ratio (x) = 0.26517 -0.09766
# Poissons Ratio (y) = 0.33995 0.08155
# Poissons Ratio (z) = -0.15275 0.09950
#
# Static dielectric constant tensor:
#      x y z
#    x 4.670500 -0.274480 0.038320 
#    y -0.274480 4.378770 -0.166870 
#    z 0.038320 -0.166870 4.350970 
# 
# 
# High freq. dielectric constant tensor:
#      x y z
#    x 1.924950 -0.011650 0.005220 
#    y -0.011650 1.923580 -0.006780 
#    z 0.005220 -0.006780 1.906300 
# 
# From -- ./inp_files/48211.got.cif
#   From: 2010.06.25/outbox.cif.g09.slc.cpg/sg2_25_cif.got.tgz:48211.got - 2010.06.27 13:26:56.
