data_PCOD8024461
_publ_section_title
;
Structure prediction by ZEFSAII (Michael W. Deem and Ramdas Pophale) SiO2 
 PCOD8024461
Probable space group: P -1
;
_chemical_formula_sum "Si O2"
_cell_formula_units_Z 14
_cell_length_a 11.517740
_cell_length_b 6.157440
_cell_length_c 10.938348
_cell_angle_alpha 108.856126
_cell_angle_beta 54.202015
_cell_angle_gamma 97.615970
_cell_volume 593.811987
_symmetry_space_group_name_H-M "P -1"
_symmetry_group_IT_number 2
_symmetry_cell_setting 'triclinic'
loop_
_space_group_symop_operation_xyz
x,y,z
-x,-y,-z
loop_
_atom_site_type_symbol
_atom_site_label
_atom_site_fract_x
_atom_site_fract_y
_atom_site_fract_z
Si Si1 0.451272 0.646433 0.940022
Si Si2 0.832248 0.031805 0.293036
Si Si3 0.067178 0.357724 0.181301
Si Si4 0.755211 0.579914 0.136824
Si Si5 0.274289 0.101486 0.190074
Si Si6 0.663665 0.454205 0.421174
Si Si7 0.135492 0.235876 0.538347
O O1 0.318483 0.834893 0.084619
O O2 0.500000 0.500000 0.000000
O O3 0.397549 0.469416 0.839828
O O4 0.584983 0.776163 0.830156
O O5 0.769548 0.846939 0.208175
O O6 0.893437 0.944057 0.370097
O O7 0.695889 0.216603 0.430734
O O8 0.961960 0.160525 0.176515
O O9 0.208288 0.239437 0.138688
O O10 0.989098 0.556344 0.350718
O O11 0.115498 0.483656 0.049828
O O12 0.763593 0.439060 0.233034
O O13 0.153276 0.109662 0.373425
O O14 0.500000 0.500000 0.500000
O O15 0.711092 0.664684 0.510496
#
# Coordination Sequence:
#
# PCOD8024461 Si02
#       7
#     2   2   2   2   2   2   2
#     4  11  25  44  67 100 130 176 221 274 329 387
#     4  10  25  42  67  97 132 177 218 272 332 387
#     4  11  24  43  67 102 133 174 221 270 336 390
#     4  11  24  42  69  96 135 168 222 274 325 396
#     4  11  25  44  69  97 137 173 225 271 331 393
#     4  10  23  43  67  97 132 174 221 275 329 390
#     4  10  24  44  66  98 133 178 220 272 328 395
#
# _framework density 23.576485999999999
#
# number of rings (size 3 to 8) (size 9 to 14) (size 15 to 20)
#    0.000    1.429    1.429    1.714    4.000   12.571 
#    0.000    0.000    0.000    0.000    0.000    0.000 
#    0.000    0.000    0.000    0.000    0.000    0.000 
#
# Total GULP energy -173550.075041 kJ/mol
# GULP energy per Si atom -12396.433932 kJ/mol
# Density = 2.352282 g / cm^3
# Si number density = 23.576486 Si / 1000 Ang^3
#
#
#
# Elastic Constant Matrix: (Units=GPa)
#
#
# Indices 1 2 3 4 5 6 
#
# 1 86.5938 41.3565 16.5057 15.7429 -5.4076 0.9612
# 2 41.3565 101.5998 32.4157 5.7873 -5.0019 -10.5445
# 3 16.5057 32.4157 104.2672 3.2899 2.9070 -12.8369
# 4 15.7429 5.7873 3.2899 22.1305 -3.4915 -5.5319
# 5 -5.4076 -5.0019 2.9070 -3.4915 40.5083 3.1336
# 6 0.9612 -10.5445 -12.8369 -5.5319 3.1336 46.3057
#
#
#
# Elastic Compliance Matrix: (Units=1/GPa)
#
#
# Indices 1 2 3 4 5 6 
#
# 1 0.016751 -0.006250 -0.000802 -0.010867 0.000844 -0.003348
# 2 -0.006250 0.013539 -0.003001 0.002158 0.001040 0.002568
# 3 -0.000802 -0.003001 0.010994 0.000115 -0.001449 0.002493
# 4 -0.010867 0.002158 0.000115 0.054570 0.002964 0.007067
# 5 0.000844 0.001040 -0.001449 0.002964 0.025407 -0.001548
# 6 -0.003348 0.002568 0.002493 0.007067 -0.001548 0.023890
#
#
# Mechanical properties :
#
#
# Convention : Reuss Voigt Hill
#
# Bulk Modulus (GPa) = 47.21425 52.55740 49.88583
# Shear Modulus (GPa) = 29.01664 35.26776 32.14220
#
# Velocity S-wave (km/s) = 3.51200 3.87187 3.69632
# Velocity P-wave (km/s) = 6.04277 6.50609 6.27870
#
# Compressibility (1/GPa) = 0.02118005
#
# Stress axis : x y z
#
# Youngs Moduli (GPa) = 59.69677 73.86201 90.95694
#
# Poissons Ratio (x) = 0.46163 0.07292
# Poissons Ratio (y) = 0.37310 0.27292
# Poissons Ratio (z) = 0.04786 0.22163
#
# Static dielectric constant tensor:
#      x y z
#    x 4.280840 0.083330 -0.013650 
#    y 0.083330 4.355270 -0.102020 
#    z -0.013650 -0.102020 4.107350 
# 
# 
# High freq. dielectric constant tensor:
#      x y z
#    x 1.941910 0.007270 -0.002130 
#    y 0.007270 1.939720 -0.008430 
#    z -0.002130 -0.008430 1.919720 
# 
# From -- ./inp_files/69667.got.cif
#   From: 2010.06.25/outbox.cif.g09.slc.cpg/sg2_35_cif.got.tgz:69667.got - 2010.06.27 13:26:56.
