data_PCOD8024785
_publ_section_title
;
Structure prediction by ZEFSAII (Michael W. Deem and Ramdas Pophale) SiO2 
 PCOD8024785
Probable space group: P -1
;
_chemical_formula_sum "Si O2"
_cell_formula_units_Z 16
_cell_length_a 5.356790
_cell_length_b 12.142278
_cell_length_c 11.757492
_cell_angle_alpha 113.237638
_cell_angle_beta 100.478775
_cell_angle_gamma 91.914088
_cell_volume 686.295492
_symmetry_space_group_name_H-M "P -1"
_symmetry_group_IT_number 2
_symmetry_cell_setting 'triclinic'
loop_
_space_group_symop_operation_xyz
x,y,z
-x,-y,-z
loop_
_atom_site_type_symbol
_atom_site_label
_atom_site_fract_x
_atom_site_fract_y
_atom_site_fract_z
Si Si1 0.941991 0.637216 0.422958
Si Si2 0.303530 0.125936 0.528250
Si Si3 0.267171 0.309380 0.168870
Si Si4 0.767110 0.258324 0.710653
Si Si5 0.238078 0.052327 0.965239
Si Si6 0.814621 0.360770 0.319439
Si Si7 0.039366 0.052431 0.704756
Si Si8 0.286605 0.519246 0.079893
O O1 0.108314 0.640934 0.324666
O O2 0.113814 0.672439 0.561184
O O3 0.751415 0.736338 0.430701
O O4 0.798071 0.503620 0.366084
O O5 0.608963 0.149238 0.579942
O O6 0.210513 0.056012 0.607436
O O7 0.203019 0.050445 0.378152
O O8 0.526569 0.298159 0.256064
O O9 0.307634 0.430521 0.149669
O O10 0.018187 0.311244 0.229652
O O11 0.246237 0.195656 0.036976
O O12 0.957998 0.186361 0.770766
O O13 0.630813 0.340420 0.820773
O O14 0.189097 0.017018 0.814478
O O15 0.500000 0.000000 0.000000
O O16 0.000000 0.000000 0.000000
O O17 0.500000 0.500000 0.000000
O O18 0.000000 0.500000 0.000000
#
# Coordination Sequence:
#
# PCOD8024785 Si02
#       8
#     2   2   2   2   2   2   2   2
#     4  10  24  40  68 105 141 186 233 291 360 420
#     4  10  23  43  73 100 143 185 242 303 361 416
#     4  12  26  47  71 104 143 188 239 287 363 429
#     4  11  23  43  73 106 142 186 242 295 364 433
#     4  12  30  50  75 103 143 195 245 297 361 433
#     4  11  25  44  70 105 147 185 233 292 352 440
#     4  10  25  46  68 106 139 186 246 300 359 426
#     4  12  27  44  74 106 144 188 234 298 361 430
#
# _framework density 23.313573000000002
#
# number of rings (size 3 to 8) (size 9 to 14) (size 15 to 20)
#    0.000    1.000    1.250    3.375   12.250    1.000 
#    0.000    0.000    0.000    0.000    0.000    0.000 
#    0.000    0.000    0.000    0.000    0.000    0.000 
#
# Total GULP energy -198300.788599 kJ/mol
# GULP energy per Si atom -12393.799287 kJ/mol
# Density = 2.326051 g / cm^3
# Si number density = 23.313573 Si / 1000 Ang^3
#
#
#
# Elastic Constant Matrix: (Units=GPa)
#
#
# Indices 1 2 3 4 5 6 
#
# 1 110.6061 27.8015 30.7151 -5.6832 5.4678 -20.0646
# 2 27.8015 69.2995 45.1246 -7.0359 -2.5753 -7.4946
# 3 30.7151 45.1246 128.7888 0.6508 14.7963 -21.0225
# 4 -5.6832 -7.0359 0.6508 41.3953 -4.3119 3.0001
# 5 5.4678 -2.5753 14.7963 -4.3119 41.1130 9.9809
# 6 -20.0646 -7.4946 -21.0225 3.0001 9.9809 22.9401
#
#
#
# Elastic Compliance Matrix: (Units=1/GPa)
#
#
# Indices 1 2 3 4 5 6 
#
# 1 0.012533 -0.004918 0.001624 -0.000737 -0.005917 0.013514
# 2 -0.004918 0.022064 -0.009077 0.004758 0.008125 -0.009569
# 3 0.001624 -0.009077 0.014537 -0.003865 -0.010514 0.016856
# 4 -0.000737 0.004758 -0.003865 0.026278 0.006727 -0.008996
# 5 -0.005917 0.008125 -0.010514 0.006727 0.037203 -0.029222
# 6 0.013514 -0.009569 0.016856 -0.008996 -0.029222 0.081623
#
#
# Mechanical properties :
#
#
# Convention : Reuss Voigt Hill
#
# Bulk Modulus (GPa) = 41.00097 57.33074 49.16586
# Shear Modulus (GPa) = 22.01563 34.75989 28.38776
#
# Velocity S-wave (km/s) = 3.07632 3.86550 3.49327
# Velocity P-wave (km/s) = 5.49939 6.67588 6.11599
#
# Compressibility (1/GPa) = 0.02438966
#
# Stress axis : x y z
#
# Youngs Moduli (GPa) = 79.79223 45.32260 68.79085
#
# Poissons Ratio (x) = 0.22291 -0.11170
# Poissons Ratio (y) = 0.39244 0.62444
# Poissons Ratio (z) = -0.12956 0.41141
#
# Static dielectric constant tensor:
#      x y z
#    x 4.341750 -0.089540 0.188590 
#    y -0.089540 4.312010 0.078170 
#    z 0.188590 0.078170 4.386230 
# 
# 
# High freq. dielectric constant tensor:
#      x y z
#    x 1.918270 -0.012070 0.007910 
#    y -0.012070 1.938340 0.007000 
#    z 0.007910 0.007000 1.930770 
# 
# From -- ./inp_files/70785.got.cif
#   From: 2010.06.25/outbox.cif.g09.slc.cpg/sg2_36_cif.got.tgz:70785.got - 2010.06.27 13:26:56.
