data_PCOD8024710
_publ_section_title
;
Structure prediction by ZEFSAII (Michael W. Deem and Ramdas Pophale) SiO2 
 PCOD8024710
Probable space group: P -1
;
_chemical_formula_sum "Si O2"
_cell_formula_units_Z 14
_cell_length_a 15.016803
_cell_length_b 6.393881
_cell_length_c 15.840834
_cell_angle_alpha 79.658566
_cell_angle_beta 27.101179
_cell_angle_gamma 69.240770
_cell_volume 614.000227
_symmetry_space_group_name_H-M "P -1"
_symmetry_group_IT_number 2
_symmetry_cell_setting 'triclinic'
loop_
_space_group_symop_operation_xyz
x,y,z
-x,-y,-z
loop_
_atom_site_type_symbol
_atom_site_label
_atom_site_fract_x
_atom_site_fract_y
_atom_site_fract_z
Si Si1 0.202108 0.512880 0.033948
Si Si2 0.529000 0.233337 0.449165
Si Si3 0.785447 0.458811 0.169898
Si Si4 0.562040 0.963151 0.046518
Si Si5 0.955931 0.066703 0.746257
Si Si6 0.847863 0.654822 0.543126
Si Si7 0.796887 0.447883 0.428598
O O1 0.144784 0.774978 0.097431
O O2 0.985442 0.478104 0.216560
O O3 0.286100 0.497480 0.869622
O O4 0.388662 0.302684 0.945866
O O5 0.778506 0.211778 0.227882
O O6 0.420611 0.361298 0.617561
O O7 0.420386 0.365029 0.444202
O O8 0.500000 0.000000 0.500000
O O9 0.000000 0.500000 0.000000
O O10 0.380854 0.155766 0.243359
O O11 0.500000 0.000000 0.000000
O O12 0.780760 0.992676 0.861094
O O13 0.013275 0.220572 0.620814
O O14 0.170378 0.820209 0.597764
O O15 0.801628 0.499391 0.521319
O O16 0.000000 0.500000 0.500000
#
# Coordination Sequence:
#
# PCOD8024710 Si02
#       7
#     2   2   2   2   2   2   2
#     4  10  23  43  70  99 135 183 230 285 346 410
#     4  11  27  45  71 104 140 183 235 296 352 418
#     4  11  25  47  68 104 138 182 236 287 356 418
#     4  11  25  43  68 103 136 175 232 278 342 417
#     4  10  24  44  68  96 142 178 224 288 339 409
#     4  11  25  42  68 102 138 181 225 280 347 412
#     4  10  23  45  67 101 138 178 235 282 348 416
#
# _framework density 22.801296000000001
#
# number of rings (size 3 to 8) (size 9 to 14) (size 15 to 20)
#    0.000    1.429    1.429    2.571    6.000    9.714 
#    0.000    0.000    0.000    0.000    0.000    0.000 
#    0.000    0.000    0.000    0.000    0.000    0.000 
#
# Total GULP energy -173437.367413 kJ/mol
# GULP energy per Si atom -12388.383387 kJ/mol
# Density = 2.274940 g / cm^3
# Si number density = 22.801296 Si / 1000 Ang^3
#
#
#
# Elastic Constant Matrix: (Units=GPa)
#
#
# Indices 1 2 3 4 5 6 
#
# 1 122.9844 73.9349 43.9252 -4.0118 30.2762 -11.6678
# 2 73.9349 164.5939 44.2871 1.7585 6.6705 8.5187
# 3 43.9252 44.2871 123.1586 -7.6693 15.7289 -0.6416
# 4 -4.0118 1.7585 -7.6693 42.5358 5.6506 -5.5750
# 5 30.2762 6.6705 15.7289 5.6506 46.2012 0.3137
# 6 -11.6678 8.5187 -0.6416 -5.5750 0.3137 27.4783
#
#
#
# Elastic Compliance Matrix: (Units=1/GPa)
#
#
# Indices 1 2 3 4 5 6 
#
# 1 0.016572 -0.007139 -0.001779 0.004172 -0.009803 0.010167
# 2 -0.007139 0.009976 -0.001797 -0.002865 0.004246 -0.006796
# 3 -0.001779 -0.001797 0.009805 0.002023 -0.002164 0.000466
# 4 0.004172 -0.002865 0.002023 0.026283 -0.006279 0.008111
# 5 -0.009803 0.004246 -0.002164 -0.006279 0.029008 -0.007135
# 6 0.010167 -0.006796 0.000466 0.008111 -0.007135 0.044554
#
#
# Mechanical properties :
#
#
# Convention : Reuss Voigt Hill
#
# Bulk Modulus (GPa) = 67.00911 81.67014 74.33962
# Shear Modulus (GPa) = 30.74960 39.81570 35.28265
#
# Velocity S-wave (km/s) = 3.67630 4.18329 3.93796
# Velocity P-wave (km/s) = 6.89002 7.69605 7.30416
#
# Compressibility (1/GPa) = 0.01492334
#
# Stress axis : x y z
#
# Youngs Moduli (GPa) = 60.34241 100.23842 101.98895
#
# Poissons Ratio (x) = 0.71560 0.18140
# Poissons Ratio (y) = 0.43079 0.18330
# Poissons Ratio (z) = 0.10733 0.18016
#
# Static dielectric constant tensor:
#      x y z
#    x 4.124850 0.264540 0.063770 
#    y 0.264540 4.930920 -0.178170 
#    z 0.063770 -0.178170 4.470110 
# 
# 
# High freq. dielectric constant tensor:
#      x y z
#    x 1.902190 0.008370 0.009890 
#    y 0.008370 1.906760 -0.011190 
#    z 0.009890 -0.011190 1.914400 
# 
# From -- ./inp_files/140812.got.cif
#   From: 2010.06.25/outbox.cif.g09.slc.cpg/sg2_71_cif.got.tgz:140812.got - 2010.06.27 13:26:56.
