data_PCOD8024421
_publ_section_title
;
Structure prediction by ZEFSAII (Michael W. Deem and Ramdas Pophale) SiO2 
 PCOD8024421
Probable space group: P -1
;
_chemical_formula_sum "Si O2"
_cell_formula_units_Z 16
_cell_length_a 12.607133
_cell_length_b 7.554719
_cell_length_c 9.718924
_cell_angle_alpha 80.074100
_cell_angle_beta 125.762312
_cell_angle_gamma 98.161647
_cell_volume 738.899588
_symmetry_space_group_name_H-M "P -1"
_symmetry_group_IT_number 2
_symmetry_cell_setting 'triclinic'
loop_
_space_group_symop_operation_xyz
x,y,z
-x,-y,-z
loop_
_atom_site_type_symbol
_atom_site_label
_atom_site_fract_x
_atom_site_fract_y
_atom_site_fract_z
Si Si1 0.573783 0.594263 0.415798
Si Si2 0.651430 0.060867 0.097525
Si Si3 0.969732 0.700858 0.318825
Si Si4 0.357128 0.065418 0.412165
Si Si5 0.248248 0.179519 0.026433
Si Si6 0.823117 0.002169 0.495319
Si Si7 0.847856 0.606632 0.515050
Si Si8 0.399239 0.549127 0.031520
O O1 0.500000 0.500000 0.500000
O O2 0.622021 0.788562 0.473936
O O3 0.705804 0.512535 0.464245
O O4 0.469170 0.608112 0.216626
O O5 0.677644 0.276655 0.094409
O O6 0.699144 0.981187 0.001421
O O7 0.732528 0.983035 0.294287
O O8 0.500000 0.000000 0.000000
O O9 0.045715 0.533697 0.338600
O O10 0.905426 0.802342 0.126830
O O11 0.858368 0.628274 0.353449
O O12 0.060281 0.847170 0.452996
O O13 0.258447 0.929676 0.440686
O O14 0.500000 0.000000 0.500000
O O15 0.280894 0.134951 0.213645
O O16 0.306040 0.376664 0.008597
O O17 0.877457 0.801590 0.584276
O O18 0.500000 0.500000 0.000000
#
# Coordination Sequence:
#
# PCOD8024421 Si02
#       8
#     2   2   2   2   2   2   2   2
#     4  11  23  44  68 100 138 175 226 279 356 412
#     4  12  24  41  67 103 135 172 233 296 341 404
#     4  11  25  42  71  97 136 187 235 276 338 411
#     4  11  25  45  69  99 140 180 224 284 354 418
#     4  12  25  44  64 102 138 177 235 281 337 414
#     4  11  25  43  71  98 136 183 227 285 346 403
#     4  10  23  43  67 101 134 179 233 283 331 412
#     4  12  25  39  70 101 137 179 224 290 352 399
#
# _framework density 21.653824
#
# number of rings (size 3 to 8) (size 9 to 14) (size 15 to 20)
#    0.000    0.750    3.750    4.125    7.000    0.500 
#    0.000    2.500    0.000    0.000    0.000    0.000 
#    0.000    0.000    0.000    0.000    0.000    0.000 
#
# Total GULP energy -198298.616053 kJ/mol
# GULP energy per Si atom -12393.663503 kJ/mol
# Density = 2.160454 g / cm^3
# Si number density = 21.653824 Si / 1000 Ang^3
#
#
#
# Elastic Constant Matrix: (Units=GPa)
#
#
# Indices 1 2 3 4 5 6 
#
# 1 111.8632 28.9330 19.5083 -4.6031 2.5291 -4.1182
# 2 28.9330 105.9664 24.5095 0.0878 0.4426 -18.1138
# 3 19.5083 24.5095 108.9521 3.5114 3.7452 -6.9718
# 4 -4.6031 0.0878 3.5114 27.1831 -1.7038 3.9498
# 5 2.5291 0.4426 3.7452 -1.7038 33.4344 -4.7776
# 6 -4.1182 -18.1138 -6.9718 3.9498 -4.7776 39.5711
#
#
#
# Elastic Compliance Matrix: (Units=1/GPa)
#
#
# Indices 1 2 3 4 5 6 
#
# 1 0.009880 -0.002502 -0.001287 0.001900 -0.000559 -0.000601
# 2 -0.002502 0.011357 -0.001801 -0.000872 0.000884 0.004815
# 3 -0.001287 -0.001801 0.009955 -0.001681 -0.000959 0.000848
# 4 0.001900 -0.000872 -0.001681 0.038016 0.001404 -0.004123
# 5 -0.000559 0.000884 -0.000959 0.001404 0.030653 0.003738
# 6 -0.000601 0.004815 0.000848 -0.004123 0.003738 0.028425
#
#
# Mechanical properties :
#
#
# Convention : Reuss Voigt Hill
#
# Bulk Modulus (GPa) = 49.96865 52.52038 51.24451
# Shear Modulus (GPa) = 34.21485 36.95978 35.58732
#
# Velocity S-wave (km/s) = 3.97934 4.13588 4.05837
# Velocity P-wave (km/s) = 6.65130 6.86401 6.75849
#
# Compressibility (1/GPa) = 0.02001255
#
# Stress axis : x y z
#
# Youngs Moduli (GPa) = 101.21804 88.05400 100.44953
#
# Poissons Ratio (x) = 0.22030 0.12924
# Poissons Ratio (y) = 0.25324 0.18091
# Poissons Ratio (z) = 0.13023 0.15858
#
# Static dielectric constant tensor:
#      x y z
#    x 5.255380 -0.105470 0.047690 
#    y -0.105470 4.236100 0.142160 
#    z 0.047690 0.142160 3.963220 
# 
# 
# High freq. dielectric constant tensor:
#      x y z
#    x 1.857430 -0.005420 0.002150 
#    y -0.005420 1.857010 0.002280 
#    z 0.002150 0.002280 1.845560 
# 
# From -- ./inp_files/243735.got.cif
#   From: 2010.06.25/outbox.cif.g09.slc.cpg/sg2_122_cif.got.tgz:243735.got - 2010.06.27 13:26:56.
