data_PCOD8024291
_publ_section_title
;
Structure prediction by ZEFSAII (Michael W. Deem and Ramdas Pophale) SiO2 
 PCOD8024291
Probable space group: P -1
;
_chemical_formula_sum "Si O2"
_cell_formula_units_Z 16
_cell_length_a 9.378546
_cell_length_b 8.779337
_cell_length_c 16.042029
_cell_angle_alpha 61.748831
_cell_angle_beta 129.432118
_cell_angle_gamma 83.085809
_cell_volume 705.938811
_symmetry_space_group_name_H-M "P -1"
_symmetry_group_IT_number 2
_symmetry_cell_setting 'triclinic'
loop_
_space_group_symop_operation_xyz
x,y,z
-x,-y,-z
loop_
_atom_site_type_symbol
_atom_site_label
_atom_site_fract_x
_atom_site_fract_y
_atom_site_fract_z
Si Si1 0.260724 0.480952 0.684515
Si Si2 0.849655 0.940208 0.414286
Si Si3 0.233274 0.098575 0.787448
Si Si4 0.461046 0.603482 0.586719
Si Si5 0.977643 0.241180 0.083898
Si Si6 0.849658 0.209000 0.735856
Si Si7 0.437614 0.652528 0.013837
Si Si8 0.625057 0.725312 0.756304
O O1 0.307305 0.250031 0.753258
O O2 0.331696 0.527309 0.611070
O O3 0.985914 0.679671 0.552648
O O4 0.413670 0.482278 0.813999
O O5 0.871252 0.941055 0.321929
O O6 0.574719 0.105329 0.294419
O O7 0.000000 0.000000 0.500000
O O8 0.061833 0.198194 0.778049
O O9 0.462507 0.846563 0.959635
O O10 0.722046 0.392247 0.712156
O O11 0.323657 0.737628 0.418487
O O12 0.490521 0.759263 0.612423
O O13 0.200325 0.216889 0.206186
O O14 0.838534 0.232687 0.110446
O O15 0.071740 0.014898 0.129796
O O16 0.787368 0.466578 0.906371
O O17 0.500000 0.500000 0.000000
#
# Coordination Sequence:
#
# PCOD8024291 Si02
#       8
#     2   2   2   2   2   2   2   2
#     4  12  24  42  70 102 132 178 230 276 335 410
#     4  12  22  41  70  99 131 176 225 279 332 396
#     4  11  24  41  66 102 137 175 227 274 340 401
#     4  11  23  43  66  96 137 174 225 270 341 398
#     4  10  23  43  64  96 131 172 226 270 340 393
#     4  10  24  42  64  94 138 178 212 283 334 397
#     4  11  23  45  69  98 138 179 221 286 336 399
#     4  11  23  42  67  99 128 175 229 275 330 408
#
# _framework density 22.664852
#
# number of rings (size 3 to 8) (size 9 to 14) (size 15 to 20)
#    0.000    1.000    3.750    2.250    1.750    4.000 
#    0.000    0.000    0.000    0.000    0.000    0.000 
#    0.000    0.000    0.000    0.000    0.000    0.000 
#
# Total GULP energy -198230.025170 kJ/mol
# GULP energy per Si atom -12389.376573 kJ/mol
# Density = 2.261327 g / cm^3
# Si number density = 22.664852 Si / 1000 Ang^3
#
#
#
# Elastic Constant Matrix: (Units=GPa)
#
#
# Indices 1 2 3 4 5 6 
#
# 1 84.5690 40.1035 31.5688 -9.0342 10.7210 -0.8118
# 2 40.1035 77.0383 18.7014 -10.8411 -2.7686 -17.0809
# 3 31.5688 18.7014 76.5311 -18.0268 3.8240 -7.3906
# 4 -9.0342 -10.8411 -18.0268 41.9957 -1.1614 4.7302
# 5 10.7210 -2.7686 3.8240 -1.1614 29.6814 -3.2153
# 6 -0.8118 -17.0809 -7.3906 4.7302 -3.2153 36.2921
#
#
#
# Elastic Compliance Matrix: (Units=1/GPa)
#
#
# Indices 1 2 3 4 5 6 
#
# 1 0.020131 -0.010843 -0.006000 -0.000536 -0.008239 -0.006535
# 2 -0.010843 0.021375 0.000455 0.002425 0.007054 0.010219
# 3 -0.006000 0.000455 0.017053 0.005842 0.000549 0.002840
# 4 -0.000536 0.002425 0.005842 0.026976 0.000599 -0.001144
# 5 -0.008239 0.007054 0.000549 0.000599 0.037986 0.006535
# 6 -0.006535 0.010219 0.002840 -0.001144 0.006535 0.033524
#
#
# Mechanical properties :
#
#
# Convention : Reuss Voigt Hill
#
# Bulk Modulus (GPa) = 38.78500 46.54287 42.66393
# Shear Modulus (GPa) = 25.19962 31.44480 28.32221
#
# Velocity S-wave (km/s) = 3.33804 3.72880 3.53882
# Velocity P-wave (km/s) = 5.65740 6.25447 5.96342
#
# Compressibility (1/GPa) = 0.02578316
#
# Stress axis : x y z
#
# Youngs Moduli (GPa) = 49.67495 46.78292 58.63986
#
# Poissons Ratio (x) = 0.50729 0.35183
# Poissons Ratio (y) = 0.53865 -0.02669
# Poissons Ratio (z) = 0.29804 -0.02129
#
# Static dielectric constant tensor:
#      x y z
#    x 4.099960 -0.284560 0.510070 
#    y -0.284560 4.285650 -0.796610 
#    z 0.510070 -0.796610 5.621600 
# 
# 
# High freq. dielectric constant tensor:
#      x y z
#    x 1.878230 -0.005620 0.007140 
#    y -0.005620 1.897960 -0.018230 
#    z 0.007140 -0.018230 1.905200 
# 
# From -- ./inp_files/494526.got.cif
#   From: 2010.06.25/outbox.cif.g09.slc.cpg/sg2_248_cif.got.tgz:494526.got - 2010.06.27 13:26:56.
