data_PCOD8024460
_publ_section_title
;
Structure prediction by ZEFSAII (Michael W. Deem and Ramdas Pophale) SiO2 
 PCOD8024460
Probable space group: P -1
;
_chemical_formula_sum "Si O2"
_cell_formula_units_Z 16
_cell_length_a 11.366587
_cell_length_b 17.899277
_cell_length_c 6.762336
_cell_angle_alpha 61.578752
_cell_angle_beta 43.724912
_cell_angle_gamma 46.114939
_cell_volume 684.525455
_symmetry_space_group_name_H-M "P -1"
_symmetry_group_IT_number 2
_symmetry_cell_setting 'triclinic'
loop_
_space_group_symop_operation_xyz
x,y,z
-x,-y,-z
loop_
_atom_site_type_symbol
_atom_site_label
_atom_site_fract_x
_atom_site_fract_y
_atom_site_fract_z
Si Si1 0.787014 0.897800 0.233300
Si Si2 0.753928 0.726449 0.386822
Si Si3 0.386791 0.279507 0.826540
Si Si4 0.232933 0.722296 0.800127
Si Si5 0.177296 0.585126 0.278131
Si Si6 0.527327 0.933232 0.861141
Si Si7 0.399897 0.368618 0.073440
Si Si8 0.699533 0.398346 0.487809
O O1 0.685802 0.843344 0.320471
O O2 0.728696 0.910013 0.521955
O O3 0.674489 0.005999 0.115858
O O4 0.035640 0.831166 0.984820
O O5 0.790020 0.684137 0.171376
O O6 0.569323 0.721133 0.708461
O O7 0.945173 0.664212 0.383944
O O8 0.588437 0.264949 0.496812
O O9 0.451067 0.171001 0.976676
O O10 0.293908 0.368025 0.995439
O O11 0.156057 0.683013 0.757782
O O12 0.312264 0.629204 0.983661
O O13 0.252157 0.477903 0.222008
O O14 0.184078 0.575827 0.523029
O O15 0.500000 0.000000 0.000000
O O16 0.624037 0.340510 0.783663
O O17 0.500000 0.500000 0.500000
#
# Coordination Sequence:
#
# PCOD8024460 Si02
#       8
#     2   2   2   2   2   2   2   2
#     4  10  23  43  67  97 130 172 220 272 349 389
#     4  11  23  40  63  95 134 170 224 276 330 391
#     4  11  24  41  68 100 130 174 227 273 332 396
#     4  10  24  43  65 100 136 176 221 277 320 402
#     4  11  24  40  62  94 138 180 222 273 327 386
#     4  11  22  44  73  95 128 173 216 281 343 404
#     4  11  23  39  62  92 136 177 221 276 321 388
#     4  11  23  41  65  91 131 186 226 264 326 391
#
# _framework density 23.373856
#
# number of rings (size 3 to 8) (size 9 to 14) (size 15 to 20)
#    0.000    1.250    3.750    1.500    3.500    5.000 
#    0.000    0.625    0.000    0.000    0.000    0.000 
#    0.000    0.000    0.000    0.000    0.000    0.000 
#
# Total GULP energy -198217.044321 kJ/mol
# GULP energy per Si atom -12388.565270 kJ/mol
# Density = 2.332066 g / cm^3
# Si number density = 23.373856 Si / 1000 Ang^3
#
#
#
# Elastic Constant Matrix: (Units=GPa)
#
#
# Indices 1 2 3 4 5 6 
#
# 1 109.9632 40.9437 37.3212 4.1879 48.3862 -3.0020
# 2 40.9437 63.6884 24.5619 1.7662 9.9794 0.0512
# 3 37.3212 24.5619 92.8408 2.7199 29.8889 0.5353
# 4 4.1879 1.7662 2.7199 50.4081 15.2576 5.4234
# 5 48.3862 9.9794 29.8889 15.2576 46.1643 2.9870
# 6 -3.0020 0.0512 0.5353 5.4234 2.9870 23.4195
#
#
#
# Elastic Compliance Matrix: (Units=1/GPa)
#
#
# Indices 1 2 3 4 5 6 
#
# 1 0.024921 -0.012667 0.001754 0.005820 -0.026781 0.005250
# 2 -0.012667 0.023961 -0.005214 -0.003069 0.012646 -0.002459
# 3 0.001754 -0.005214 0.015014 0.002577 -0.011332 0.000742
# 4 0.005820 -0.003069 0.002577 0.024154 -0.014894 -0.003000
# 5 -0.026781 0.012646 -0.011332 -0.014894 0.059734 -0.007371
# 6 0.005250 -0.002459 0.000742 -0.003000 -0.007371 0.044996
#
#
# Mechanical properties :
#
#
# Convention : Reuss Voigt Hill
#
# Bulk Modulus (GPa) = 31.60370 52.46065 42.03217
# Shear Modulus (GPa) = 21.22413 34.90944 28.06678
#
# Velocity S-wave (km/s) = 3.01662 3.86881 3.46898
# Velocity P-wave (km/s) = 5.06790 6.51535 5.83667
#
# Compressibility (1/GPa) = 0.03164187
#
# Stress axis : x y z
#
# Youngs Moduli (GPa) = 40.12701 41.73434 66.60533
#
# Poissons Ratio (x) = 0.52864 -0.11684
# Poissons Ratio (y) = 0.50828 0.34731
# Poissons Ratio (z) = -0.07039 0.21762
#
# Static dielectric constant tensor:
#      x y z
#    x 4.244070 0.411220 0.342380 
#    y 0.411220 4.286410 -0.286740 
#    z 0.342380 -0.286740 4.751220 
# 
# 
# High freq. dielectric constant tensor:
#      x y z
#    x 1.916100 0.016020 0.027120 
#    y 0.016020 1.908140 -0.010650 
#    z 0.027120 -0.010650 1.947550 
# 
# From -- ./inp_files/81289.got.cif
#   From: 2010.06.25/outbox.cif.g09.slc.cpg/sg2_41_cif.got.tgz:81289.got - 2010.06.27 13:26:56.
