data_PCOD8024573
_publ_section_title
;
Structure prediction by ZEFSAII (Michael W. Deem and Ramdas Pophale) SiO2 
 PCOD8024573
Probable space group: P -1
;
_chemical_formula_sum "Si O2"
_cell_formula_units_Z 16
_cell_length_a 8.460011
_cell_length_b 17.566311
_cell_length_c 12.359920
_cell_angle_alpha 127.705616
_cell_angle_beta 51.091824
_cell_angle_gamma 147.304880
_cell_volume 756.860836
_symmetry_space_group_name_H-M "P -1"
_symmetry_group_IT_number 2
_symmetry_cell_setting 'triclinic'
loop_
_space_group_symop_operation_xyz
x,y,z
-x,-y,-z
loop_
_atom_site_type_symbol
_atom_site_label
_atom_site_fract_x
_atom_site_fract_y
_atom_site_fract_z
Si Si1 0.924824 0.263860 0.776091
Si Si2 0.942178 0.750508 0.767950
Si Si3 0.368976 0.219403 0.242329
Si Si4 0.836895 0.851115 0.487438
Si Si5 0.615987 0.494252 0.054232
Si Si6 0.281816 0.039465 0.954659
Si Si7 0.983171 0.456791 0.767811
Si Si8 0.205829 0.647658 0.480216
O O1 0.570185 0.158024 0.856525
O O2 0.951924 0.167166 0.632849
O O3 0.123195 0.345045 0.870062
O O4 0.059170 0.386772 0.739053
O O5 0.828925 0.777183 0.741523
O O6 0.659192 0.611880 0.836385
O O7 0.130705 0.729019 0.619552
O O8 0.174173 0.890158 0.869109
O O9 0.225693 0.157860 0.367351
O O10 0.711300 0.377303 0.243250
O O11 0.368140 0.111167 0.098161
O O12 0.539352 0.732674 0.441845
O O13 0.000000 0.000000 0.500000
O O14 0.500000 0.500000 0.000000
O O15 0.754884 0.438308 0.923399
O O16 0.000000 0.000000 0.000000
O O17 0.822448 0.371002 0.651911
O O18 0.000000 0.500000 0.500000
#
# Coordination Sequence:
#
# PCOD8024573 Si02
#       8
#     2   2   2   2   2   2   2   2
#     4  12  24  45  72 102 136 185 234 285 339 411
#     4  11  24  44  68 100 139 181 230 284 340 418
#     4  11  23  44  72 100 133 184 229 282 345 413
#     4  12  28  46  66 101 143 183 231 285 351 414
#     4  12  25  41  68 109 141 176 231 286 348 404
#     4  10  23  43  69 101 134 173 224 283 345 402
#     4  12  23  42  73 103 135 178 238 286 337 411
#     4  12  25  43  66  98 138 182 230 284 345 403
#
# _framework density 21.139949000000001
#
# number of rings (size 3 to 8) (size 9 to 14) (size 15 to 20)
#    0.000    0.500    3.750    5.625    0.000    5.000 
#    0.000    6.250    0.000    0.000    0.000    0.000 
#    0.000    0.000    0.000    0.000    0.000    0.000 
#
# Total GULP energy -198459.247226 kJ/mol
# GULP energy per Si atom -12403.702952 kJ/mol
# Density = 2.109183 g / cm^3
# Si number density = 21.139949 Si / 1000 Ang^3
#
#
#
# Elastic Constant Matrix: (Units=GPa)
#
#
# Indices 1 2 3 4 5 6 
#
# 1 83.3258 28.3204 31.2719 -3.2071 17.3863 -0.1770
# 2 28.3204 124.9966 41.4995 -0.1852 6.8047 10.4354
# 3 31.2719 41.4995 145.3173 5.7795 2.1593 2.4747
# 4 -3.2071 -0.1852 5.7795 39.5925 -1.9594 -4.2465
# 5 17.3863 6.8047 2.1593 -1.9594 37.1646 1.9614
# 6 -0.1770 10.4354 2.4747 -4.2465 1.9614 26.8010
#
#
#
# Elastic Compliance Matrix: (Units=1/GPa)
#
#
# Indices 1 2 3 4 5 6 
#
# 1 0.015215 -0.002396 -0.002586 0.001487 -0.006555 0.001987
# 2 -0.002396 0.009569 -0.002142 -0.000234 -0.000331 -0.003557
# 3 -0.002586 -0.002142 0.008092 -0.001372 0.001071 -0.000226
# 4 0.001487 -0.000234 -0.001372 0.026068 0.000573 0.004316
# 5 -0.006555 -0.000331 0.001071 0.000573 0.030115 -0.002126
# 6 0.001987 -0.003557 -0.000226 0.004316 -0.002126 0.039570
#
#
# Mechanical properties :
#
#
# Convention : Reuss Voigt Hill
#
# Bulk Modulus (GPa) = 53.68023 61.75816 57.71920
# Shear Modulus (GPa) = 33.53756 37.54815 35.54286
#
# Velocity S-wave (km/s) = 3.98735 4.21904 4.10483
# Velocity P-wave (km/s) = 6.82983 7.28087 7.05895
#
# Compressibility (1/GPa) = 0.01862883
#
# Stress axis : x y z
#
# Youngs Moduli (GPa) = 65.72460 104.50546 123.57552
#
# Poissons Ratio (x) = 0.25036 0.31953
# Poissons Ratio (y) = 0.15745 0.26474
# Poissons Ratio (z) = 0.16994 0.22388
#
# Static dielectric constant tensor:
#      x y z
#    x 3.793600 0.136810 -0.256970 
#    y 0.136810 3.901640 0.230600 
#    z -0.256970 0.230600 3.263730 
# 
# 
# High freq. dielectric constant tensor:
#      x y z
#    x 1.829290 0.008410 -0.003990 
#    y 0.008410 1.837770 0.007250 
#    z -0.003990 0.007250 1.847620 
# 
# From -- ./inp_files/206376.got.cif
#   From: 2010.06.25/outbox.cif.g09.slc.cpg/sg2_104_cif.got.tgz:206376.got - 2010.06.27 13:26:56.
