data_PCOD8024276
_publ_section_title
;
Structure prediction by ZEFSAII (Michael W. Deem and Ramdas Pophale) SiO2 
 PCOD8024276
Probable space group: P -1
;
_chemical_formula_sum "Si O2"
_cell_formula_units_Z 16
_cell_length_a 14.426872
_cell_length_b 12.734167
_cell_length_c 11.274376
_cell_angle_alpha 128.686225
_cell_angle_beta 27.609563
_cell_angle_gamma 118.215367
_cell_volume 730.223138
_symmetry_space_group_name_H-M "P -1"
_symmetry_group_IT_number 2
_symmetry_cell_setting 'triclinic'
loop_
_space_group_symop_operation_xyz
x,y,z
-x,-y,-z
loop_
_atom_site_type_symbol
_atom_site_label
_atom_site_fract_x
_atom_site_fract_y
_atom_site_fract_z
Si Si1 0.074637 0.662969 0.967526
Si Si2 0.543872 0.508883 0.706687
Si Si3 0.943163 0.951656 0.211800
Si Si4 0.204304 0.498341 0.920607
Si Si5 0.727975 0.911778 0.192005
Si Si6 0.967883 0.589918 0.483595
Si Si7 0.720404 0.231701 0.711845
Si Si8 0.432147 0.324089 0.906050
O O1 0.219597 0.556999 0.635432
O O2 0.850395 0.625834 0.183285
O O3 0.153854 0.636872 0.994377
O O4 0.055489 0.823307 0.074212
O O5 0.469337 0.448170 0.869677
O O6 0.438283 0.462838 0.674702
O O7 0.454959 0.676223 0.938472
O O8 0.814733 0.896655 0.216122
O O9 0.781509 0.067029 0.553587
O O10 0.121250 0.021859 0.011797
O O11 0.064109 0.510812 0.203995
O O12 0.705180 0.760902 0.071789
O O13 0.500000 0.000000 0.500000
O O14 0.000000 0.500000 0.500000
O O15 0.066136 0.721260 0.486685
O O16 0.719026 0.623426 0.772149
O O17 0.644490 0.241742 0.665803
#
# Coordination Sequence:
#
# PCOD8024276 Si02
#       8
#     2   2   2   2   2   2   2   2
#     4  11  24  42  66  89 123 167 212 253 300 374
#     4  11  23  38  65  92 123 161 206 257 307 363
#     4  11  24  38  60  90 128 164 207 250 313 369
#     4  10  23  43  64  90 121 165 211 257 303 364
#     4  11  22  37  57  88 131 164 202 254 308 371
#     4  11  22  38  62  92 126 156 206 259 314 362
#     4  11  23  37  58  95 126 161 198 256 313 371
#     4  12  21  35  62  92 127 163 199 255 318 362
#
# _framework density 21.911110999999998
#
# number of rings (size 3 to 8) (size 9 to 14) (size 15 to 20)
#    0.000    1.000    5.000    3.000    3.500    0.000 
#    0.000    2.500    0.000    3.750    0.000    0.000 
#    0.000    0.000    0.000    0.000    0.000    0.000 
#
# Total GULP energy -198224.773681 kJ/mol
# GULP energy per Si atom -12389.048355 kJ/mol
# Density = 2.186124 g / cm^3
# Si number density = 21.911111 Si / 1000 Ang^3
#
#
#
# Elastic Constant Matrix: (Units=GPa)
#
#
# Indices 1 2 3 4 5 6 
#
# 1 63.4770 10.1288 6.0408 -9.3847 -12.7714 -7.2825
# 2 10.1288 67.0627 20.9110 18.0362 0.0436 -6.6360
# 3 6.0408 20.9110 82.0096 24.4757 -5.9590 -8.8093
# 4 -9.3847 18.0362 24.4757 26.3536 4.6614 -7.0222
# 5 -12.7714 0.0436 -5.9590 4.6614 31.0109 -6.2027
# 6 -7.2825 -6.6360 -8.8093 -7.0222 -6.2027 40.4010
#
#
#
# Elastic Compliance Matrix: (Units=1/GPa)
#
#
# Indices 1 2 3 4 5 6 
#
# 1 0.021257 -0.005568 -0.003457 0.014902 0.007024 0.005832
# 2 -0.005568 0.019943 -0.000043 -0.015708 -0.000064 -0.000477
# 3 -0.003457 -0.000043 0.018677 -0.019233 0.005237 0.000903
# 4 0.014902 -0.015708 -0.019233 0.075250 -0.007272 0.007875
# 5 0.007024 -0.000064 0.005237 -0.007272 0.038653 0.007068
# 6 0.005832 -0.000477 0.000903 0.007875 0.007068 0.028376
#
#
# Mechanical properties :
#
#
# Convention : Reuss Voigt Hill
#
# Bulk Modulus (GPa) = 23.95702 31.85672 27.90687
# Shear Modulus (GPa) = 21.34884 31.25102 26.29993
#
# Velocity S-wave (km/s) = 3.12483 3.78069 3.46829
# Velocity P-wave (km/s) = 4.89662 5.79903 5.36682
#
# Compressibility (1/GPa) = 0.04174143
#
# Stress axis : x y z
#
# Youngs Moduli (GPa) = 47.04389 50.14257 53.54181
#
# Poissons Ratio (x) = 0.27920 0.18508
# Poissons Ratio (y) = 0.26194 0.00230
# Poissons Ratio (z) = 0.16262 0.00215
#
# Static dielectric constant tensor:
#      x y z
#    x 4.499420 0.499100 -0.138760 
#    y 0.499100 4.069350 -0.011010 
#    z -0.138760 -0.011010 4.530130 
# 
# 
# High freq. dielectric constant tensor:
#      x y z
#    x 1.873610 0.024270 -0.020720 
#    y 0.024270 1.839190 0.000160 
#    z -0.020720 0.000160 1.860350 
# 
# From -- ./inp_files/451717.got.cif
#   From: 2010.06.25/outbox.cif.g09.slc.cpg/sg2_226_cif.got.tgz:451717.got - 2010.06.27 13:26:56.
