data_PCOD8024970
_publ_section_title
;
Structure prediction by ZEFSAII (Michael W. Deem and Ramdas Pophale) SiO2 
 PCOD8024970
Probable space group: P -1
;
_chemical_formula_sum "Si O2"
_cell_formula_units_Z 16
_cell_length_a 12.132968
_cell_length_b 9.199533
_cell_length_c 8.887791
_cell_angle_alpha 132.456928
_cell_angle_beta 91.751358
_cell_angle_gamma 72.834818
_cell_volume 678.996343
_symmetry_space_group_name_H-M "P -1"
_symmetry_group_IT_number 2
_symmetry_cell_setting 'triclinic'
loop_
_space_group_symop_operation_xyz
x,y,z
-x,-y,-z
loop_
_atom_site_type_symbol
_atom_site_label
_atom_site_fract_x
_atom_site_fract_y
_atom_site_fract_z
Si Si1 0.522918 0.878674 0.190155
Si Si2 0.038678 0.750399 0.586621
Si Si3 0.248359 0.753911 0.434847
Si Si4 0.336742 0.787936 0.925059
Si Si5 0.490723 0.320159 0.637279
Si Si6 0.138627 0.803306 0.146049
Si Si7 0.995578 0.379628 0.185762
Si Si8 0.755364 0.898340 0.127393
O O1 0.513545 0.729735 0.221447
O O2 0.658597 0.790980 0.074754
O O3 0.482636 0.125604 0.405867
O O4 0.439018 0.863394 0.042622
O O5 0.178992 0.663623 0.490555
O O6 0.971435 0.616532 0.406383
O O7 0.023649 0.752864 0.766812
O O8 0.981133 0.990743 0.693809
O O9 0.390387 0.631897 0.358076
O O10 0.199264 0.722617 0.249822
O O11 0.220995 0.003599 0.645222
O O12 0.381650 0.532463 0.734556
O O13 0.296581 0.894952 0.837509
O O14 0.226177 0.869171 0.090261
O O15 0.100074 0.617949 0.943526
O O16 0.128688 0.278180 0.058453
#
# Coordination Sequence:
#
# PCOD8024970 Si02
#       8
#     2   2   2   2   2   2   2   2
#     4  10  23  44  67 100 139 176 223 282 333 399
#     4  11  24  44  68  97 134 177 223 278 339 396
#     4  11  24  44  70  96 139 178 219 285 332 402
#     4  12  24  43  73  99 135 184 226 274 342 404
#     4  10  24  45  67 103 138 177 225 279 339 399
#     4  12  24  44  68  99 137 175 227 277 334 402
#     4  11  25  45  67 100 135 178 222 280 341 398
#     4  11  24  45  70 100 142 178 225 284 335 403
#
# _framework density 23.564191999999998
#
# number of rings (size 3 to 8) (size 9 to 14) (size 15 to 20)
#    0.000    1.000    3.750    2.250    1.750    3.500 
#    2.250    0.000    0.000    0.000    0.000    0.000 
#    0.000    0.000    0.000    0.000    0.000    0.000 
#
# Total GULP energy -198459.996696 kJ/mol
# GULP energy per Si atom -12403.749793 kJ/mol
# Density = 2.351056 g / cm^3
# Si number density = 23.564192 Si / 1000 Ang^3
#
#
#
# Elastic Constant Matrix: (Units=GPa)
#
#
# Indices 1 2 3 4 5 6 
#
# 1 128.8908 6.0474 38.2175 -12.0212 -2.3325 24.5352
# 2 6.0474 14.8234 13.0094 2.2117 -10.0105 3.5175
# 3 38.2175 13.0094 94.3008 -12.2695 11.8342 -1.6758
# 4 -12.0212 2.2117 -12.2695 25.4050 5.8072 -3.5347
# 5 -2.3325 -10.0105 11.8342 5.8072 48.9221 -4.7206
# 6 24.5352 3.5175 -1.6758 -3.5347 -4.7206 32.7251
#
#
#
# Elastic Compliance Matrix: (Units=1/GPa)
#
#
# Indices 1 2 3 4 5 6 
#
# 1 0.010799 0.002606 -0.004911 0.001054 0.001308 -0.008326
# 2 0.002606 0.120120 -0.026181 -0.031552 0.033354 -0.014802
# 3 -0.004911 -0.026181 0.019406 0.012881 -0.011112 0.007278
# 4 0.001054 -0.031552 0.012881 0.053249 -0.015184 0.006822
# 5 0.001308 0.033354 -0.011112 -0.015184 0.031605 -0.002216
# 6 -0.008326 -0.014802 0.007278 0.006822 -0.002216 0.039181
#
#
# Mechanical properties :
#
#
# Convention : Reuss Voigt Hill
#
# Bulk Modulus (GPa) = 10.71213 39.17373 24.94293
# Shear Modulus (GPa) = 13.79502 33.45983 23.62743
#
# Velocity S-wave (km/s) = 2.42218 3.77230 3.16995
# Velocity P-wave (km/s) = 3.51829 5.96943 4.89961
#
# Compressibility (1/GPa) = 0.09335214
#
# Stress axis : x y z
#
# Youngs Moduli (GPa) = 92.59929 8.32503 51.52971
#
# Poissons Ratio (x) = -0.02169 0.25306
# Poissons Ratio (y) = -0.24128 1.34911
# Poissons Ratio (z) = 0.45475 0.21796
#
# Static dielectric constant tensor:
#      x y z
#    x 4.458420 0.232810 -0.042880 
#    y 0.232810 3.872830 -0.160580 
#    z -0.042880 -0.160580 4.322530 
# 
# 
# High freq. dielectric constant tensor:
#      x y z
#    x 1.950560 0.017220 0.000590 
#    y 0.017220 1.903040 -0.008030 
#    z 0.000590 -0.008030 1.948870 
# 
# From -- ./inp_files/245950.got.cif
#   From: 2010.06.25/outbox.cif.g09.slc.cpg/sg2_123_cif.got.tgz:245950.got - 2010.06.27 13:26:56.
