data_PCOD8024212
_publ_section_title
;
Structure prediction by ZEFSAII (Michael W. Deem and Ramdas Pophale) SiO2 
 PCOD8024212
Probable space group: P -1
;
_chemical_formula_sum "Si O2"
_cell_formula_units_Z 16
_cell_length_a 4.994740
_cell_length_b 8.896289
_cell_length_c 20.508862
_cell_angle_alpha 110.800136
_cell_angle_beta 122.363498
_cell_angle_gamma 86.376793
_cell_volume 710.229692
_symmetry_space_group_name_H-M "P -1"
_symmetry_group_IT_number 2
_symmetry_cell_setting 'triclinic'
loop_
_space_group_symop_operation_xyz
x,y,z
-x,-y,-z
loop_
_atom_site_type_symbol
_atom_site_label
_atom_site_fract_x
_atom_site_fract_y
_atom_site_fract_z
Si Si1 0.244361 0.115604 0.476085
Si Si2 0.443380 0.477718 0.769543
Si Si3 0.626900 0.852761 0.364024
Si Si4 0.559673 0.212438 0.260217
Si Si5 0.804079 0.035957 0.917373
Si Si6 0.766442 0.882225 0.664425
Si Si7 0.650546 0.758885 0.053945
Si Si8 0.177864 0.518855 0.877768
O O1 0.301085 0.222097 0.566469
O O2 0.312005 0.211728 0.430697
O O3 0.500000 0.000000 0.500000
O O4 0.891803 0.010104 0.408442
O O5 0.368203 0.291034 0.708351
O O6 0.368089 0.598055 0.720860
O O7 0.205779 0.501010 0.801086
O O8 0.809194 0.520458 0.848334
O O9 0.294415 0.928898 0.324240
O O10 0.455565 0.206962 0.321338
O O11 0.862146 0.121165 0.272568
O O12 0.273074 0.121829 0.163319
O O13 0.471462 0.088914 0.904468
O O14 0.008664 0.182962 0.926412
O O15 0.000000 0.000000 0.000000
O O16 0.688254 0.628568 0.093571
O O17 0.387281 0.687011 0.954593
#
# Coordination Sequence:
#
# PCOD8024212 Si02
#       8
#     2   2   2   2   2   2   2   2
#     4   9  20  42  73 102 132 167 224 270 319 399
#     4  12  27  43  66  97 140 173 214 278 343 387
#     4  10  23  42  74 100 131 176 221 265 336 392
#     4  12  26  42  64 101 137 174 225 275 337 387
#     4  12  25  41  67  90 135 182 227 267 334 400
#     4  11  23  43  69  97 135 172 221 279 315 400
#     4  11  24  42  66  94 121 176 235 271 335 386
#     4  11  25  43  65  94 134 167 222 293 325 392
#
# _framework density 22.527925
#
# number of rings (size 3 to 8) (size 9 to 14) (size 15 to 20)
#    0.000    1.000    1.250    4.875    8.750    2.000 
#    0.000    1.250    0.000    0.000    0.000    0.000 
#    0.000    0.000    0.000    0.000    0.000    0.000 
#
# Total GULP energy -198360.860840 kJ/mol
# GULP energy per Si atom -12397.553803 kJ/mol
# Density = 2.247665 g / cm^3
# Si number density = 22.527925 Si / 1000 Ang^3
#
#
#
# Elastic Constant Matrix: (Units=GPa)
#
#
# Indices 1 2 3 4 5 6 
#
# 1 97.8483 17.4502 20.8574 -11.0798 -7.0819 4.9211
# 2 17.4502 68.4389 25.6339 -14.4973 -8.9615 4.4237
# 3 20.8574 25.6339 73.8292 -15.4986 -7.3305 3.9053
# 4 -11.0798 -14.4973 -15.4986 32.6790 4.8662 -3.6190
# 5 -7.0819 -8.9615 -7.3305 4.8662 44.6809 -12.1391
# 6 4.9211 4.4237 3.9053 -3.6190 -12.1391 28.9572
#
#
#
# Elastic Compliance Matrix: (Units=1/GPa)
#
#
# Indices 1 2 3 4 5 6 
#
# 1 0.011257 -0.001516 -0.002134 0.001934 0.000684 -0.000865
# 2 -0.001516 0.018053 -0.004575 0.004984 0.001969 -0.000435
# 3 -0.002134 -0.004575 0.016909 0.005109 0.000908 -0.000200
# 4 0.001934 0.004984 0.005109 0.036319 -0.001198 0.002258
# 5 0.000684 0.001969 0.000908 -0.001198 0.025930 0.010181
# 6 -0.000865 -0.000435 -0.000200 0.002258 0.010181 0.039324
#
#
# Mechanical properties :
#
#
# Convention : Reuss Voigt Hill
#
# Bulk Modulus (GPa) = 33.59112 40.88881 37.23997
# Shear Modulus (GPa) = 28.70820 33.00842 30.85831
#
# Velocity S-wave (km/s) = 3.57366 3.83198 3.70507
# Velocity P-wave (km/s) = 5.65432 6.14560 5.90507
#
# Compressibility (1/GPa) = 0.02976977
#
# Stress axis : x y z
#
# Youngs Moduli (GPa) = 88.83190 55.39139 59.13843
#
# Poissons Ratio (x) = 0.08395 0.12621
# Poissons Ratio (y) = 0.13463 0.27058
# Poissons Ratio (z) = 0.18959 0.25343
#
# Static dielectric constant tensor:
#      x y z
#    x 4.049100 0.042970 -0.269650 
#    y 0.042970 3.773310 -0.261980 
#    z -0.269650 -0.261980 4.752060 
# 
# 
# High freq. dielectric constant tensor:
#      x y z
#    x 1.905990 -0.003340 -0.007310 
#    y -0.003340 1.857000 -0.024220 
#    z -0.007310 -0.024220 1.895870 
# 
# From -- ./inp_files/582450.got.cif
#   From: 2010.06.25/outbox.cif.g09.slc.cpg/sg2_292_cif.got.tgz:582450.got - 2010.06.27 13:26:56.
