data_PCOD8024808
_publ_section_title
;
Structure prediction by ZEFSAII (Michael W. Deem and Ramdas Pophale) SiO2 
 PCOD8024808
Probable space group: P -1
;
_chemical_formula_sum "Si O2"
_cell_formula_units_Z 14
_cell_length_a 14.843308
_cell_length_b 8.954285
_cell_length_c 20.684334
_cell_angle_alpha 137.607437
_cell_angle_beta 29.207682
_cell_angle_gamma 147.391624
_cell_volume 722.889508
_symmetry_space_group_name_H-M "P -1"
_symmetry_group_IT_number 2
_symmetry_cell_setting 'triclinic'
loop_
_space_group_symop_operation_xyz
x,y,z
-x,-y,-z
loop_
_atom_site_type_symbol
_atom_site_label
_atom_site_fract_x
_atom_site_fract_y
_atom_site_fract_z
Si Si1 0.088129 0.059491 0.280505
Si Si2 0.373364 0.626261 0.775685
Si Si3 0.298887 0.742153 0.627376
Si Si4 0.437652 0.733955 0.916367
Si Si5 0.166164 0.149932 0.502625
Si Si6 0.771968 0.972295 0.345283
Si Si7 0.943375 0.450137 0.154844
O O1 0.362810 0.296904 0.197362
O O2 0.007700 0.133865 0.291025
O O3 0.943933 0.044027 0.427319
O O4 0.024901 0.757710 0.215564
O O5 0.444118 0.778291 0.849092
O O6 0.589367 0.789227 0.643671
O O7 0.179296 0.640218 0.867680
O O8 0.293639 0.314485 0.734015
O O9 0.185121 0.424981 0.586259
O O10 0.183210 0.833932 0.680609
O O11 0.233380 0.767936 0.749785
O O12 0.573296 0.926172 0.502424
O O13 0.176759 0.467247 0.012479
O O14 0.500000 0.000000 0.000000
O O15 0.000000 0.000000 0.500000
#
# Coordination Sequence:
#
# PCOD8024808 Si02
#       7
#     2   2   2   2   2   2   2
#     4   9  17  31  50  75 101 129 159 200 249 285
#     4  10  18  31  53  75  97 128 166 202 243 289
#     4   9  18  33  52  74 101 129 161 201 244 288
#     4  10  19  31  49  74 103 127 161 208 245 283
#     4  10  17  29  52  78 102 122 158 207 245 286
#     4   9  18  33  54  72  99 132 162 197 246 296
#     4   9  18  31  51  74  95 129 169 203 234 286
#
# _framework density 19.366720999999998
#
# number of rings (size 3 to 8) (size 9 to 14) (size 15 to 20)
#    0.000    2.571    1.429    1.286    0.000    3.429 
#    0.000    2.143    3.143    0.000    0.000    0.000 
#    0.000    0.000    0.000    0.000    0.000    0.000 
#
# Total GULP energy -173497.431150 kJ/mol
# GULP energy per Si atom -12392.673654 kJ/mol
# Density = 1.932264 g / cm^3
# Si number density = 19.366721 Si / 1000 Ang^3
#
#
#
# Elastic Constant Matrix: (Units=GPa)
#
#
# Indices 1 2 3 4 5 6 
#
# 1 162.6531 32.6957 61.6708 -14.4841 -8.1824 14.1836
# 2 32.6957 23.4387 27.8014 -12.6113 -5.3668 5.8050
# 3 61.6708 27.8014 92.1159 -16.5432 2.6863 5.5354
# 4 -14.4841 -12.6113 -16.5432 15.2555 10.4723 0.5368
# 5 -8.1824 -5.3668 2.6863 10.4723 33.6811 -3.8623
# 6 14.1836 5.8050 5.5354 0.5368 -3.8623 31.6238
#
#
#
# Elastic Compliance Matrix: (Units=1/GPa)
#
#
# Indices 1 2 3 4 5 6 
#
# 1 0.009642 -0.010795 -0.004363 -0.006405 0.002833 -0.001125
# 2 -0.010795 0.118531 -0.012535 0.081709 -0.010130 -0.017347
# 3 -0.004363 -0.012535 0.020335 0.013771 -0.009034 -0.000639
# 4 -0.006405 0.081709 0.013771 0.174781 -0.046639 -0.023199
# 5 0.002833 -0.010130 -0.009034 -0.046639 0.044955 0.008452
# 6 -0.001125 -0.017347 -0.000639 -0.023199 0.008452 0.036848
#
#
# Mechanical properties :
#
#
# Convention : Reuss Voigt Hill
#
# Bulk Modulus (GPa) = 10.73845 58.06039 34.39942
# Shear Modulus (GPa) = 10.17256 26.51471 18.34364
#
# Velocity S-wave (km/s) = 2.29434 3.70413 3.08096
# Velocity P-wave (km/s) = 3.54620 6.95260 5.51879
#
# Compressibility (1/GPa) = 0.09312332
#
# Stress axis : x y z
#
# Youngs Moduli (GPa) = 103.70859 8.43663 49.17656
#
# Poissons Ratio (x) = 0.09107 0.21455
# Poissons Ratio (y) = 1.11951 0.61641
# Poissons Ratio (z) = 0.45247 0.10575
#
# Static dielectric constant tensor:
#      x y z
#    x 3.645480 0.213590 -0.019400 
#    y 0.213590 3.247910 -0.442660 
#    z -0.019400 -0.442660 4.032490 
# 
# 
# High freq. dielectric constant tensor:
#      x y z
#    x 1.762260 0.022880 0.003460 
#    y 0.022880 1.702210 -0.021030 
#    z 0.003460 -0.021030 1.758730 
# 
# From -- ./inp_files/161555.got.cif
#   From: 2010.06.25/outbox.cif.g09.slc.cpg/sg2_81_cif.got.tgz:161555.got - 2010.06.27 13:26:56.
