data_PCOD8024728
_publ_section_title
;
Structure prediction by ZEFSAII (Michael W. Deem and Ramdas Pophale) SiO2 
 PCOD8024728
Probable space group: P -1
;
_chemical_formula_sum "Si O2"
_cell_formula_units_Z 14
_cell_length_a 8.777557
_cell_length_b 5.111947
_cell_length_c 17.271388
_cell_angle_alpha 114.153047
_cell_angle_beta 121.343101
_cell_angle_gamma 51.728897
_cell_volume 515.242774
_symmetry_space_group_name_H-M "P -1"
_symmetry_group_IT_number 2
_symmetry_cell_setting 'triclinic'
loop_
_space_group_symop_operation_xyz
x,y,z
-x,-y,-z
loop_
_atom_site_type_symbol
_atom_site_label
_atom_site_fract_x
_atom_site_fract_y
_atom_site_fract_z
Si Si1 0.159175 0.500243 0.482087
Si Si2 0.180775 0.608214 0.234531
Si Si3 0.255733 0.698279 0.961806
Si Si4 0.372601 0.049793 0.348275
Si Si5 0.736869 0.862728 0.183319
Si Si6 0.743821 0.005874 0.373318
Si Si7 0.716437 0.696492 0.938053
O O1 0.300741 0.156953 0.430928
O O2 0.310075 0.618975 0.572823
O O3 0.000000 0.500000 0.500000
O O4 0.995210 0.774261 0.409858
O O5 0.274524 0.368113 0.304051
O O6 0.201553 0.398550 0.138615
O O7 0.936551 0.893669 0.219609
O O8 0.310974 0.786222 0.273448
O O9 0.181925 0.536679 0.855509
O O10 0.500000 0.500000 0.000000
O O11 0.194053 0.628451 0.022525
O O12 0.180243 0.089636 0.977930
O O13 0.625832 0.890830 0.389936
O O14 0.656096 0.993467 0.264391
O O15 0.540021 0.086500 0.101471
#
# Coordination Sequence:
#
# PCOD8024728 Si02
#       7
#     2   2   2   2   2   2   2
#     4  11  26  47  74 107 141 179 242 286 353 422
#     4  12  27  43  73 107 138 187 240 287 342 429
#     4  10  23  43  71 103 139 187 233 292 349 415
#     4  12  27  47  71 106 144 183 236 286 353 414
#     4  11  23  45  73 101 142 188 236 287 355 410
#     4  11  25  47  73 102 142 189 227 294 350 418
#     4  11  24  46  70 102 145 181 239 289 352 410
#
# _framework density 27.171655999999999
#
# number of rings (size 3 to 8) (size 9 to 14) (size 15 to 20)
#    0.000    0.857    2.857    3.857    6.000    6.286 
#    2.571    0.000    0.000    0.000    0.000    0.000 
#    0.000    0.000    0.000    0.000    0.000    0.000 
#
# Total GULP energy -173598.712256 kJ/mol
# GULP energy per Si atom -12399.908018 kJ/mol
# Density = 2.710981 g / cm^3
# Si number density = 27.171656 Si / 1000 Ang^3
#
#
#
# Elastic Constant Matrix: (Units=GPa)
#
#
# Indices 1 2 3 4 5 6 
#
# 1 150.9008 28.7249 42.3324 9.9383 13.1340 1.6853
# 2 28.7249 42.2094 14.0380 4.7255 8.0220 11.5441
# 3 42.3324 14.0380 137.1519 30.5536 3.2548 5.2375
# 4 9.9383 4.7255 30.5536 46.1369 -4.4284 6.4067
# 5 13.1340 8.0220 3.2548 -4.4284 50.4387 1.8336
# 6 1.6853 11.5441 5.2375 6.4067 1.8336 55.2819
#
#
#
# Elastic Compliance Matrix: (Units=1/GPa)
#
#
# Indices 1 2 3 4 5 6 
#
# 1 0.008247 -0.004964 -0.001999 -0.000212 -0.001285 0.001042
# 2 -0.004964 0.029688 -0.001032 -0.000798 -0.003223 -0.005751
# 3 -0.001999 -0.001032 0.009282 -0.005659 -0.000413 0.000067
# 4 -0.000212 -0.000798 -0.005659 0.026168 0.002933 -0.002421
# 5 -0.001285 -0.003223 -0.000413 0.002933 0.020968 -0.000284
# 6 0.001042 -0.005751 0.000067 -0.002421 -0.000284 0.019542
#
#
# Mechanical properties :
#
#
# Convention : Reuss Voigt Hill
#
# Bulk Modulus (GPa) = 32.02591 55.60585 43.81588
# Shear Modulus (GPa) = 35.63924 46.71598 41.17761
#
# Velocity S-wave (km/s) = 3.62558 4.15093 3.89712
# Velocity P-wave (km/s) = 5.41650 6.59414 6.03412
#
# Compressibility (1/GPa) = 0.03122472
#
# Stress axis : x y z
#
# Youngs Moduli (GPa) = 121.25710 33.68361 107.73536
#
# Poissons Ratio (x) = 0.16721 0.21541
# Poissons Ratio (y) = 0.60195 0.11123
# Poissons Ratio (z) = 0.24244 0.03478
#
# Static dielectric constant tensor:
#      x y z
#    x 5.256400 -0.073110 0.472440 
#    y -0.073110 5.587440 0.439400 
#    z 0.472440 0.439400 5.918810 
# 
# 
# High freq. dielectric constant tensor:
#      x y z
#    x 2.110890 -0.012880 0.003260 
#    y -0.012880 2.085470 -0.003740 
#    z 0.003260 -0.003740 2.103350 
# 
# From -- ./inp_files/553867.got.cif
#   From: 2010.06.25/outbox.cif.g09.slc.cpg/sg2_277_cif.got.tgz:553867.got - 2010.06.27 13:26:56.
