data_PCOD8024058
_publ_section_title
;
Structure prediction by ZEFSAII (Michael W. Deem and Ramdas Pophale) SiO2 
 PCOD8024058
Probable space group: P -1
;
_chemical_formula_sum "Si O2"
_cell_formula_units_Z 16
_cell_length_a 8.912507
_cell_length_b 18.858489
_cell_length_c 8.601861
_cell_angle_alpha 140.275293
_cell_angle_beta 122.073778
_cell_angle_gamma 76.391105
_cell_volume 741.873655
_symmetry_space_group_name_H-M "P -1"
_symmetry_group_IT_number 2
_symmetry_cell_setting 'triclinic'
loop_
_space_group_symop_operation_xyz
x,y,z
-x,-y,-z
loop_
_atom_site_type_symbol
_atom_site_label
_atom_site_fract_x
_atom_site_fract_y
_atom_site_fract_z
Si Si1 0.559358 0.328485 0.305091
Si Si2 0.879738 0.506742 0.294868
Si Si3 0.437718 0.918164 0.685212
Si Si4 0.451322 0.517736 0.720679
Si Si5 0.177911 0.689143 0.312135
Si Si6 0.850393 0.671505 0.309747
Si Si7 0.196759 0.090590 0.302218
Si Si8 0.616617 0.937503 0.353426
O O1 0.414574 0.386888 0.406716
O O2 0.620171 0.401516 0.302382
O O3 0.728034 0.350940 0.556436
O O4 0.489410 0.191012 0.993252
O O5 0.667252 0.488295 0.198969
O O6 0.942415 0.627999 0.436295
O O7 0.000000 0.500000 0.500000
O O8 0.898774 0.413038 0.024784
O O9 0.319575 0.791257 0.463231
O O10 0.628947 0.927664 0.719563
O O11 0.310464 0.972248 0.596847
O O12 0.500000 0.000000 0.000000
O O13 0.669756 0.572253 0.975127
O O14 0.000160 0.718641 0.332812
O O15 0.793326 0.780011 0.521550
O O16 0.215757 0.077153 0.475889
O O17 0.000000 0.000000 0.000000
O O18 0.500000 0.000000 0.500000
#
# Coordination Sequence:
#
# PCOD8024058 Si02
#       8
#     2   2   2   2   2   2   2   2
#     4  11  23  43  73  98 138 176 229 279 351 404
#     4  12  28  44  67 103 140 179 230 278 344 413
#     4  11  23  44  69  97 132 179 228 277 347 406
#     4  11  25  44  73 102 133 182 225 288 345 402
#     4  12  26  43  68  99 138 182 223 283 343 409
#     4  12  25  45  68 100 138 179 230 282 347 401
#     4  11  25  44  68  99 133 177 229 287 340 406
#     4  10  23  42  69  98 133 177 225 276 339 406
#
# _framework density 21.567012999999999
#
# number of rings (size 3 to 8) (size 9 to 14) (size 15 to 20)
#    0.000    0.750    3.750    3.000    8.750    1.000 
#    0.000    3.750    0.000    0.000    0.000    0.000 
#    0.000    0.000    0.000    0.000    0.000    0.000 
#
# Total GULP energy -198278.613581 kJ/mol
# GULP energy per Si atom -12392.413349 kJ/mol
# Density = 2.151793 g / cm^3
# Si number density = 21.567013 Si / 1000 Ang^3
#
#
#
# Elastic Constant Matrix: (Units=GPa)
#
#
# Indices 1 2 3 4 5 6 
#
# 1 94.9616 31.3135 25.5884 2.6292 2.6128 9.7081
# 2 31.3135 168.7194 59.0171 -7.6188 -3.1386 1.8866
# 3 25.5884 59.0171 107.4223 -7.8153 -10.6407 -9.9209
# 4 2.6292 -7.6188 -7.8153 43.0540 -2.8795 -5.1490
# 5 2.6128 -3.1386 -10.6407 -2.8795 37.7283 5.6407
# 6 9.7081 1.8866 -9.9209 -5.1490 5.6407 28.9136
#
#
#
# Elastic Compliance Matrix: (Units=1/GPa)
#
#
# Indices 1 2 3 4 5 6 
#
# 1 0.012408 -0.001318 -0.003001 -0.002247 -0.001198 -0.005276
# 2 -0.001318 0.007589 -0.003950 0.000543 -0.000159 -0.001280
# 3 -0.003001 -0.003950 0.013216 0.002765 0.002963 0.005715
# 4 -0.002247 0.000543 0.002765 0.024777 0.002022 0.005686
# 5 -0.001198 -0.000159 0.002963 0.002022 0.028118 -0.003696
# 6 -0.005276 -0.001280 0.005715 0.005686 -0.003696 0.040135
#
#
# Mechanical properties :
#
#
# Convention : Reuss Voigt Hill
#
# Bulk Modulus (GPa) = 59.96625 66.99348 63.47987
# Shear Modulus (GPa) = 33.70617 38.95147 36.32882
#
# Velocity S-wave (km/s) = 3.95759 4.25440 4.10867
# Velocity P-wave (km/s) = 6.98200 7.43395 7.21151
#
# Compressibility (1/GPa) = 0.01667605
#
# Stress axis : x y z
#
# Youngs Moduli (GPa) = 80.59040 131.76700 75.66310
#
# Poissons Ratio (x) = 0.17366 0.22707
# Poissons Ratio (y) = 0.10621 0.29887
# Poissons Ratio (z) = 0.24186 0.52048
#
# Static dielectric constant tensor:
#      x y z
#    x 3.914690 -0.048750 -0.363480 
#    y -0.048750 4.230560 -0.201330 
#    z -0.363480 -0.201330 3.864650 
# 
# 
# High freq. dielectric constant tensor:
#      x y z
#    x 1.841220 -0.001470 -0.022710 
#    y -0.001470 1.874270 -0.003810 
#    z -0.022710 -0.003810 1.843990 
# 
# From -- ./inp_files/218981.got.cif
#   From: 2010.06.25/outbox.cif.g09.slc.cpg/sg2_110_cif.got.tgz:218981.got - 2010.06.27 13:26:56.
