data_PCOD8024635
_publ_section_title
;
Structure prediction by ZEFSAII (Michael W. Deem and Ramdas Pophale) SiO2 
 PCOD8024635
Probable space group: P -1
;
_chemical_formula_sum "Si O2"
_cell_formula_units_Z 14
_cell_length_a 11.771380
_cell_length_b 8.761610
_cell_length_c 18.040311
_cell_angle_alpha 32.283235
_cell_angle_beta 37.443802
_cell_angle_gamma 50.468145
_cell_volume 600.727777
_symmetry_space_group_name_H-M "P -1"
_symmetry_group_IT_number 2
_symmetry_cell_setting 'triclinic'
loop_
_space_group_symop_operation_xyz
x,y,z
-x,-y,-z
loop_
_atom_site_type_symbol
_atom_site_label
_atom_site_fract_x
_atom_site_fract_y
_atom_site_fract_z
Si Si1 0.613968 0.161293 0.773401
Si Si2 0.241956 0.394279 0.361746
Si Si3 0.020158 0.675785 0.103960
Si Si4 0.783366 0.624864 0.102453
Si Si5 0.424726 0.496833 0.957171
Si Si6 0.869523 0.038129 0.276529
Si Si7 0.896127 0.503516 0.394148
O O1 0.711213 0.330027 0.723125
O O2 0.402551 0.232828 0.842045
O O3 0.730875 0.252513 0.600922
O O4 0.612774 0.823879 0.924764
O O5 0.421152 0.330341 0.246632
O O6 0.079027 0.472480 0.360565
O O7 0.170611 0.113444 0.561332
O O8 0.896606 0.576612 0.138503
O O9 0.945431 0.477334 0.293352
O O10 0.237100 0.648860 0.987066
O O11 0.000000 0.000000 0.000000
O O12 0.738897 0.300525 0.225706
O O13 0.912193 0.826287 0.896239
O O14 0.500000 0.500000 0.000000
O O15 0.825715 0.813064 0.324243
#
# Coordination Sequence:
#
# PCOD8024635 Si02
#       7
#     2   2   2   2   2   2   2
#     4  11  26  44  74 103 138 180 232 286 340 410
#     4  11  25  44  73 104 139 174 239 286 338 402
#     4  12  26  45  70  97 145 181 222 284 344 413
#     4  11  25  43  70 106 138 183 228 277 353 407
#     4  12  26  46  72 102 137 185 231 279 346 412
#     4  10  23  43  69  98 141 177 226 284 339 399
#     4  11  24  46  69 104 141 180 230 285 341 405
#
# _framework density 23.305066
#
# number of rings (size 3 to 8) (size 9 to 14) (size 15 to 20)
#    0.000    0.857    2.857    3.857    8.000    5.714 
#    0.000    0.000    0.000    0.000    0.000    0.000 
#    0.000    0.000    0.000    0.000    0.000    0.000 
#
# Total GULP energy -173651.559479 kJ/mol
# GULP energy per Si atom -12403.682820 kJ/mol
# Density = 2.325202 g / cm^3
# Si number density = 23.305066 Si / 1000 Ang^3
#
#
#
# Elastic Constant Matrix: (Units=GPa)
#
#
# Indices 1 2 3 4 5 6 
#
# 1 88.5594 37.3957 52.8027 18.1659 4.2379 -10.9040
# 2 37.3957 132.6651 60.9825 21.1700 -0.9712 -28.8237
# 3 52.8027 60.9825 166.9487 34.7977 13.5971 0.4840
# 4 18.1659 21.1700 34.7977 50.4478 8.2299 2.6318
# 5 4.2379 -0.9712 13.5971 8.2299 28.1418 10.7278
# 6 -10.9040 -28.8237 0.4840 2.6318 10.7278 33.3848
#
#
#
# Elastic Compliance Matrix: (Units=1/GPa)
#
#
# Indices 1 2 3 4 5 6 
#
# 1 0.015167 -0.001155 -0.003765 -0.002363 -0.001611 0.004715
# 2 -0.001155 0.012232 -0.003486 -0.002706 -0.001038 0.010781
# 3 -0.003765 -0.003486 0.009252 -0.003090 -0.001761 -0.003564
# 4 -0.002363 -0.002706 -0.003090 0.024800 -0.004084 -0.003706
# 5 -0.001611 -0.001038 -0.001761 -0.004084 0.043529 -0.015063
# 6 0.004715 0.010781 -0.003564 -0.003706 -0.015063 0.045986
#
#
# Mechanical properties :
#
#
# Convention : Reuss Voigt Hill
#
# Bulk Modulus (GPa) = 50.40371 76.72612 63.56492
# Shear Modulus (GPa) = 28.67152 38.19438 33.43295
#
# Velocity S-wave (km/s) = 3.51133 4.05271 3.79169
# Velocity P-wave (km/s) = 6.17365 7.40900 6.81935
#
# Compressibility (1/GPa) = 0.01983981
#
# Stress axis : x y z
#
# Youngs Moduli (GPa) = 65.93376 81.75208 108.08851
#
# Poissons Ratio (x) = 0.09440 0.40696
# Poissons Ratio (y) = 0.07614 0.37674
# Poissons Ratio (z) = 0.24825 0.28495
#
# Static dielectric constant tensor:
#      x y z
#    x 4.156170 0.193660 0.133680 
#    y 0.193660 4.570010 0.280660 
#    z 0.133680 0.280660 4.679230 
# 
# 
# High freq. dielectric constant tensor:
#      x y z
#    x 1.910050 -0.000780 0.009170 
#    y -0.000780 1.934450 0.010760 
#    z 0.009170 0.010760 1.937310 
# 
# From -- ./inp_files/261933.got.cif
#   From: 2010.06.25/outbox.cif.g09.slc.cpg/sg2_131_cif.got.tgz:261933.got - 2010.06.27 13:26:56.
