data_PCOD8024932
_publ_section_title
;
Structure prediction by ZEFSAII (Michael W. Deem and Ramdas Pophale) SiO2 
 PCOD8024932
Probable space group: P -1
;
_chemical_formula_sum "Si O2"
_cell_formula_units_Z 16
_cell_length_a 9.289390
_cell_length_b 8.237830
_cell_length_c 25.774769
_cell_angle_alpha 126.040605
_cell_angle_beta 29.633938
_cell_angle_gamma 115.275186
_cell_volume 770.814180
_symmetry_space_group_name_H-M "P -1"
_symmetry_group_IT_number 2
_symmetry_cell_setting 'triclinic'
loop_
_space_group_symop_operation_xyz
x,y,z
-x,-y,-z
loop_
_atom_site_type_symbol
_atom_site_label
_atom_site_fract_x
_atom_site_fract_y
_atom_site_fract_z
Si Si1 0.717311 0.940532 0.604392
Si Si2 0.139110 0.293948 0.386850
Si Si3 0.454083 0.779599 0.455478
Si Si4 0.372337 0.609117 0.611895
Si Si5 0.137241 0.009095 0.161038
Si Si6 0.234994 0.707491 0.857012
Si Si7 0.287303 0.256328 0.741602
Si Si8 0.211726 0.984393 0.012875
O O1 0.767810 0.904103 0.642494
O O2 0.621317 0.734725 0.574763
O O3 0.447491 0.134204 0.718063
O O4 0.000000 0.000000 0.500000
O O5 0.416586 0.316916 0.269493
O O6 0.000000 0.500000 0.500000
O O7 0.873586 0.239525 0.425167
O O8 0.677350 0.574954 0.368725
O O9 0.477623 0.763479 0.382887
O O10 0.500000 0.000000 0.500000
O O11 0.500000 0.500000 0.500000
O O12 0.049181 0.757055 0.733183
O O13 0.150135 0.938203 0.083193
O O14 0.450820 0.983569 0.087217
O O15 0.980123 0.851778 0.212054
O O16 0.156348 0.486146 0.843520
O O17 0.174333 0.804003 0.951205
O O18 0.026235 0.819871 0.897199
#
# Coordination Sequence:
#
# PCOD8024932 Si02
#       8
#     2   2   2   2   2   2   2   2
#     4  11  20  36  57  92 132 166 199 246 321 382
#     4  12  22  40  66  93 131 168 201 264 327 380
#     4  12  24  39  59  99 136 168 204 252 330 394
#     4  11  24  39  64  93 131 164 206 261 319 382
#     4  10  23  44  66  91 128 171 210 269 317 376
#     4  11  23  42  67  94 123 170 218 266 315 379
#     4  11  22  38  65  94 128 161 212 267 313 383
#     4  10  24  45  66  86 123 176 220 258 320 369
#
# _framework density 20.757272
#
# number of rings (size 3 to 8) (size 9 to 14) (size 15 to 20)
#    0.000    1.000    3.750    3.750    3.500    1.000 
#    0.000    0.000    0.000    0.000    0.000    0.000 
#    0.000    0.000    0.000    0.000    0.000    0.000 
#
# Total GULP energy -198308.706485 kJ/mol
# GULP energy per Si atom -12394.294155 kJ/mol
# Density = 2.071003 g / cm^3
# Si number density = 20.757272 Si / 1000 Ang^3
#
#
#
# Elastic Constant Matrix: (Units=GPa)
#
#
# Indices 1 2 3 4 5 6 
#
# 1 71.7697 22.0907 18.8712 12.6415 -7.4697 3.0464
# 2 22.0907 138.8512 39.3682 22.4066 -15.4462 2.4482
# 3 18.8712 39.3682 95.0114 8.5672 -15.2477 7.1165
# 4 12.6415 22.4066 8.5672 35.5699 7.1323 -1.0765
# 5 -7.4697 -15.4462 -15.2477 7.1323 33.4556 -6.9678
# 6 3.0464 2.4482 7.1165 -1.0765 -6.9678 30.3833
#
#
#
# Elastic Compliance Matrix: (Units=1/GPa)
#
#
# Indices 1 2 3 4 5 6 
#
# 1 0.015983 -0.000760 -0.001768 -0.005487 0.003472 -0.000525
# 2 -0.000760 0.009503 -0.002587 -0.005965 0.004462 0.000728
# 3 -0.001768 -0.002587 0.012931 -0.001776 0.004326 -0.001714
# 4 -0.005487 -0.005965 -0.001776 0.036784 -0.012662 -0.000154
# 5 0.003472 0.004462 0.004326 -0.012662 0.038798 0.006728
# 6 -0.000525 0.000728 -0.001714 -0.000154 0.006728 0.034846
#
#
# Mechanical properties :
#
#
# Convention : Reuss Voigt Hill
#
# Bulk Modulus (GPa) = 35.47975 51.81027 43.64501
# Shear Modulus (GPa) = 29.67901 34.90191 32.29046
#
# Velocity S-wave (km/s) = 3.78539 4.10497 3.94842
# Velocity P-wave (km/s) = 6.01958 6.89072 6.46983
#
# Compressibility (1/GPa) = 0.02818509
#
# Stress axis : x y z
#
# Youngs Moduli (GPa) = 62.56790 105.23513 77.33440
#
# Poissons Ratio (x) = 0.08003 0.13673
# Poissons Ratio (y) = 0.04758 0.20006
# Poissons Ratio (z) = 0.11062 0.27224
#
# Static dielectric constant tensor:
#      x y z
#    x 3.895180 -0.015420 -0.293850 
#    y -0.015420 3.679240 -0.038940 
#    z -0.293850 -0.038940 4.042580 
# 
# 
# High freq. dielectric constant tensor:
#      x y z
#    x 1.813420 -0.004200 -0.010990 
#    y -0.004200 1.818310 0.000380 
#    z -0.010990 0.000380 1.809520 
# 
# From -- ./inp_files/187908.got.cif
#   From: 2010.06.25/outbox.cif.g09.slc.cpg/sg2_94_cif.got.tgz:187908.got - 2010.06.27 13:26:56.
