data_PCOD8024791
_publ_section_title
;
Structure prediction by ZEFSAII (Michael W. Deem and Ramdas Pophale) SiO2 
 PCOD8024791
Probable space group: P -1
;
_chemical_formula_sum "Si O2"
_cell_formula_units_Z 14
_cell_length_a 17.210435
_cell_length_b 4.896258
_cell_length_c 9.408190
_cell_angle_alpha 130.045445
_cell_angle_beta 118.075741
_cell_angle_gamma 64.680335
_cell_volume 526.266802
_symmetry_space_group_name_H-M "P -1"
_symmetry_group_IT_number 2
_symmetry_cell_setting 'triclinic'
loop_
_space_group_symop_operation_xyz
x,y,z
-x,-y,-z
loop_
_atom_site_type_symbol
_atom_site_label
_atom_site_fract_x
_atom_site_fract_y
_atom_site_fract_z
Si Si1 0.016419 0.712239 0.224667
Si Si2 0.647755 0.840481 0.847962
Si Si3 0.757883 0.866486 0.457021
Si Si4 0.467005 0.659936 0.290845
Si Si5 0.814128 0.827687 0.798689
Si Si6 0.091433 0.617037 0.755569
Si Si7 0.656441 0.279783 0.264349
O O1 0.119708 0.561533 0.304648
O O2 0.946142 0.658565 0.267270
O O3 0.994834 0.143598 0.319683
O O4 0.000000 0.500000 0.000000
O O5 0.584817 0.202078 0.852348
O O6 0.597490 0.498319 0.706211
O O7 0.730969 0.724902 0.776789
O O8 0.680620 0.937791 0.064659
O O9 0.785153 0.010003 0.681873
O O10 0.842244 0.606307 0.373425
O O11 0.678582 0.640831 0.334373
O O12 0.717181 0.198755 0.430442
O O13 0.550730 0.340003 0.225280
O O14 0.500000 0.000000 0.500000
O O15 0.859823 0.112861 0.019861
#
# Coordination Sequence:
#
# PCOD8024791 Si02
#       7
#     2   2   2   2   2   2   2
#     4  10  23  43  73 103 145 195 240 304 364 435
#     4  12  26  47  79 104 148 202 238 303 372 435
#     4  12  27  45  75 108 148 196 244 308 357 439
#     4  12  27  48  75 113 146 188 250 302 364 443
#     4  11  26  45  74 109 144 191 253 298 370 429
#     4  11  24  47  71 103 150 192 243 302 369 430
#     4  12  26  51  71 108 151 193 246 298 369 441
#
# _framework density 26.602477
#
# number of rings (size 3 to 8) (size 9 to 14) (size 15 to 20)
#    0.000    0.571    1.429    6.429    2.000    9.143 
#    0.000    0.000    0.000    0.000    0.000    0.000 
#    0.000    0.000    0.000    0.000    0.000    0.000 
#
# Total GULP energy -173702.516317 kJ/mol
# GULP energy per Si atom -12407.322594 kJ/mol
# Density = 2.654193 g / cm^3
# Si number density = 26.602477 Si / 1000 Ang^3
#
#
#
# Elastic Constant Matrix: (Units=GPa)
#
#
# Indices 1 2 3 4 5 6 
#
# 1 152.9542 43.7504 51.2333 -15.9164 -15.1642 -6.7831
# 2 43.7504 116.1370 19.5960 -22.3542 -2.5875 4.5166
# 3 51.2333 19.5960 101.0529 -17.3575 -14.4400 -2.7068
# 4 -15.9164 -22.3542 -17.3575 42.1640 -1.8504 -1.3218
# 5 -15.1642 -2.5875 -14.4400 -1.8504 34.8110 -9.2083
# 6 -6.7831 4.5166 -2.7068 -1.3218 -9.2083 33.5508
#
#
#
# Elastic Compliance Matrix: (Units=1/GPa)
#
#
# Indices 1 2 3 4 5 6 
#
# 1 0.008944 -0.002689 -0.003364 0.000788 0.003077 0.002774
# 2 -0.002689 0.010556 -0.000072 0.004458 -0.000706 -0.001989
# 3 -0.003364 -0.000072 0.013077 0.004338 0.004670 0.001837
# 4 0.000788 0.004458 0.004338 0.028437 0.004591 0.002289
# 5 0.003077 -0.000706 0.004670 0.004591 0.035080 0.010903
# 6 0.002774 -0.001989 0.001837 0.002289 0.010903 0.033865
#
#
# Mechanical properties :
#
#
# Convention : Reuss Voigt Hill
#
# Bulk Modulus (GPa) = 49.19707 66.58927 57.89317
# Shear Modulus (GPa) = 33.56086 39.14279 36.35182
#
# Velocity S-wave (km/s) = 3.55571 3.84004 3.70061
# Velocity P-wave (km/s) = 5.94903 6.68930 6.33000
#
# Compressibility (1/GPa) = 0.02032641
#
# Stress axis : x y z
#
# Youngs Moduli (GPa) = 111.80772 94.73725 76.47097
#
# Poissons Ratio (x) = 0.25479 0.25723
# Poissons Ratio (y) = 0.30070 0.00548
# Poissons Ratio (z) = 0.37610 0.00679
#
# Static dielectric constant tensor:
#      x y z
#    x 5.357810 -0.170140 -0.290120 
#    y -0.170140 5.234210 -0.437460 
#    z -0.290120 -0.437460 5.281040 
# 
# 
# High freq. dielectric constant tensor:
#      x y z
#    x 2.084900 -0.000440 -0.001860 
#    y -0.000440 2.075020 -0.004890 
#    z -0.001860 -0.004890 2.077470 
# 
# From -- ./inp_files/340695.got.cif
#   From: 2010.06.25/outbox.cif.g09.slc.cpg/sg2_171_cif.got.tgz:340695.got - 2010.06.27 13:26:56.
