data_PCOD8024292
_publ_section_title
;
Structure prediction by ZEFSAII (Michael W. Deem and Ramdas Pophale) SiO2 
 PCOD8024292
Probable space group: P -1
;
_chemical_formula_sum "Si O2"
_cell_formula_units_Z 16
_cell_length_a 16.023466
_cell_length_b 13.032359
_cell_length_c 8.744610
_cell_angle_alpha 82.789776
_cell_angle_beta 71.590074
_cell_angle_gamma 27.047930
_cell_volume 734.753223
_symmetry_space_group_name_H-M "P -1"
_symmetry_group_IT_number 2
_symmetry_cell_setting 'triclinic'
loop_
_space_group_symop_operation_xyz
x,y,z
-x,-y,-z
loop_
_atom_site_type_symbol
_atom_site_label
_atom_site_fract_x
_atom_site_fract_y
_atom_site_fract_z
Si Si1 0.414438 0.712461 0.138756
Si Si2 0.215736 0.122001 0.308151
Si Si3 0.209807 0.515547 0.547315
Si Si4 0.787151 0.781900 0.033913
Si Si5 0.530745 0.905792 0.345535
Si Si6 0.007124 0.939875 0.670382
Si Si7 0.348292 0.677802 0.696971
Si Si8 0.574811 0.200097 0.198460
O O1 0.586916 0.463076 0.172044
O O2 0.342416 0.881722 0.257723
O O3 0.502611 0.662425 0.938014
O O4 0.221982 0.843082 0.182453
O O5 0.981309 0.342824 0.443766
O O6 0.315766 0.078519 0.397805
O O7 0.227450 0.183066 0.143300
O O8 0.292750 0.366075 0.674653
O O9 0.145914 0.691429 0.622948
O O10 0.379602 0.345915 0.349288
O O11 0.601561 0.903698 0.166765
O O12 0.759238 0.922350 0.110690
O O13 0.000000 0.500000 0.000000
O O14 0.500000 0.000000 0.500000
O O15 0.115526 0.898846 0.739468
O O16 0.000000 0.000000 0.500000
O O17 0.500000 0.500000 0.500000
O O18 0.347153 0.798891 0.724407
#
# Coordination Sequence:
#
# PCOD8024292 Si02
#       8
#     2   2   2   2   2   2   2   2
#     4  10  23  43  64  97 136 171 219 269 326 397
#     4  10  24  42  71  96 129 178 219 268 341 391
#     4  11  22  42  67  97 133 171 224 265 327 394
#     4  11  23  47  68  96 134 176 222 283 327 386
#     4  12  24  43  69  98 134 166 225 281 329 395
#     4  11  22  40  67  98 131 174 215 266 327 398
#     4  12  22  40  72  96 134 177 213 269 338 387
#     4  11  24  42  67 100 136 172 225 274 325 398
#
# _framework density 21.776019000000002
#
# number of rings (size 3 to 8) (size 9 to 14) (size 15 to 20)
#    0.000    1.000    5.000    1.500    0.000    1.000 
#    0.000    1.250    2.750    0.000    0.000    0.000 
#    0.000    0.000    0.000    0.000    0.000    0.000 
#
# Total GULP energy -198448.636831 kJ/mol
# GULP energy per Si atom -12403.039802 kJ/mol
# Density = 2.172646 g / cm^3
# Si number density = 21.776019 Si / 1000 Ang^3
#
#
#
# Elastic Constant Matrix: (Units=GPa)
#
#
# Indices 1 2 3 4 5 6 
#
# 1 168.7636 66.4651 52.1292 -3.3520 7.7120 -20.0869
# 2 66.4651 113.2282 23.0465 -14.3190 8.1497 2.7382
# 3 52.1292 23.0465 88.3322 -2.0302 -5.5045 2.1608
# 4 -3.3520 -14.3190 -2.0302 21.6346 3.0571 -8.0510
# 5 7.7120 8.1497 -5.5045 3.0571 34.2897 -3.0287
# 6 -20.0869 2.7382 2.1608 -8.0510 -3.0287 39.3022
#
#
#
# Elastic Compliance Matrix: (Units=1/GPa)
#
#
# Indices 1 2 3 4 5 6 
#
# 1 0.010154 -0.004979 -0.004917 0.000146 -0.001397 0.005729
# 2 -0.004979 0.013041 -0.000422 0.007437 -0.002899 -0.002130
# 3 -0.004917 -0.000422 0.014592 -0.001380 0.003379 -0.003308
# 4 0.000146 0.007437 -0.001380 0.055841 -0.006064 0.010604
# 5 -0.001397 -0.002899 0.003379 -0.006064 0.031291 0.000472
# 6 0.005729 -0.002130 -0.003308 0.010604 0.000472 0.030911
#
#
# Mechanical properties :
#
#
# Convention : Reuss Voigt Hill
#
# Bulk Modulus (GPa) = 58.30315 72.62284 65.46300
# Shear Modulus (GPa) = 27.44507 34.29084 30.86796
#
# Velocity S-wave (km/s) = 3.55397 3.97256 3.76908
# Velocity P-wave (km/s) = 6.60856 7.37997 7.00489
#
# Compressibility (1/GPa) = 0.01715173
#
# Stress axis : x y z
#
# Youngs Moduli (GPa) = 98.48538 76.68165 68.52843
#
# Poissons Ratio (x) = 0.38181 0.33695
# Poissons Ratio (y) = 0.49037 0.02889
# Poissons Ratio (z) = 0.48425 0.03233
#
# Static dielectric constant tensor:
#      x y z
#    x 4.146320 0.186740 -0.281310 
#    y 0.186740 4.110280 -0.154140 
#    z -0.281310 -0.154140 3.961830 
# 
# 
# High freq. dielectric constant tensor:
#      x y z
#    x 1.860650 0.013360 -0.014140 
#    y 0.013360 1.859470 -0.009610 
#    z -0.014140 -0.009610 1.854780 
# 
# From -- ./inp_files/202257.got.cif
#   From: 2010.06.25/outbox.cif.g09.slc.cpg/sg2_102_cif.got.tgz:202257.got - 2010.06.27 13:26:56.
