data_PCOD8024903
_publ_section_title
;
Structure prediction by ZEFSAII (Michael W. Deem and Ramdas Pophale) SiO2 
 PCOD8024903
Probable space group: P -1
;
_chemical_formula_sum "Si O2"
_cell_formula_units_Z 16
_cell_length_a 20.167967
_cell_length_b 22.697828
_cell_length_c 13.474494
_cell_angle_alpha 35.351438
_cell_angle_beta 24.456987
_cell_angle_gamma 18.162464
_cell_volume 735.644058
_symmetry_space_group_name_H-M "P -1"
_symmetry_group_IT_number 2
_symmetry_cell_setting 'triclinic'
loop_
_space_group_symop_operation_xyz
x,y,z
-x,-y,-z
loop_
_atom_site_type_symbol
_atom_site_label
_atom_site_fract_x
_atom_site_fract_y
_atom_site_fract_z
Si Si1 0.277697 0.459323 0.499393
Si Si2 0.213267 0.812530 0.214445
Si Si3 0.646222 0.398720 0.224003
Si Si4 0.560908 0.894182 0.919617
Si Si5 0.920321 0.964135 0.742338
Si Si6 0.498376 0.148377 0.727704
Si Si7 0.685342 0.616389 0.668439
Si Si8 0.798221 0.767544 0.382627
O O1 0.540765 0.386949 0.291288
O O2 0.249978 0.366725 0.721365
O O3 0.396339 0.377317 0.338477
O O4 0.926559 0.703703 0.646348
O O5 0.353954 0.635876 0.323447
O O6 0.237351 0.895490 0.140042
O O7 0.413292 0.723199 0.965450
O O8 0.851472 0.989658 0.432422
O O9 0.743568 0.275235 0.355015
O O10 0.958514 0.291514 0.920995
O O11 0.417308 0.083104 0.883443
O O12 0.535178 0.833780 0.132263
O O13 0.341940 0.972395 0.022641
O O14 0.000000 0.000000 0.500000
O O15 0.689440 0.737279 0.497671
O O16 0.034153 0.379495 0.549419
O O17 0.500000 0.000000 0.500000
#
# Coordination Sequence:
#
# PCOD8024903 Si02
#       8
#     2   2   2   2   2   2   2   2
#     4  12  25  44  69 103 136 183 226 277 343 404
#     4  11  23  47  65  99 143 173 226 283 335 407
#     4  11  25  43  69  99 138 182 223 281 342 401
#     4  11  26  44  71 100 136 178 231 282 336 403
#     4  12  25  45  70 102 132 181 229 280 340 402
#     4  11  24  47  69  99 138 178 228 283 338 401
#     4  10  26  42  67 101 138 176 226 283 336 405
#     4  10  23  44  65  95 136 179 222 281 335 397
#
# _framework density 21.749648000000001
#
# number of rings (size 3 to 8) (size 9 to 14) (size 15 to 20)
#    0.000    1.000    3.750    1.125    8.750    3.000 
#    0.000    0.000    0.000    0.000    0.000    0.000 
#    0.000    0.000    0.000    0.000    0.000    0.000 
#
# Total GULP energy -198469.112323 kJ/mol
# GULP energy per Si atom -12404.319520 kJ/mol
# Density = 2.170015 g / cm^3
# Si number density = 21.749648 Si / 1000 Ang^3
#
#
#
# Elastic Constant Matrix: (Units=GPa)
#
#
# Indices 1 2 3 4 5 6 
#
# 1 121.3617 27.9710 28.2968 -6.2778 -11.4598 -4.1221
# 2 27.9710 100.7418 4.8823 -8.3749 -7.0143 7.7564
# 3 28.2968 4.8823 77.4496 1.3856 -9.1675 0.6517
# 4 -6.2778 -8.3749 1.3856 32.4313 2.8501 -2.0803
# 5 -11.4598 -7.0143 -9.1675 2.8501 29.3382 0.5546
# 6 -4.1221 7.7564 0.6517 -2.0803 0.5546 26.9870
#
#
#
# Elastic Compliance Matrix: (Units=1/GPa)
#
#
# Indices 1 2 3 4 5 6 
#
# 1 0.009932 -0.002524 -0.003269 0.001381 0.002076 0.002385
# 2 -0.002524 0.011159 0.000411 0.002004 0.001682 -0.003483
# 3 -0.003269 0.000411 0.014535 -0.001533 0.003534 -0.001159
# 4 0.001381 0.002004 -0.001533 0.032056 -0.002616 0.002197
# 5 0.002076 0.001682 0.003534 -0.002616 0.036679 -0.001207
# 6 0.002385 -0.003483 -0.001159 0.002197 -0.001207 0.038642
#
#
# Mechanical properties :
#
#
# Convention : Reuss Voigt Hill
#
# Bulk Modulus (GPa) = 40.21873 46.87259 43.54566
# Shear Modulus (GPa) = 30.85385 33.64483 32.24934
#
# Velocity S-wave (km/s) = 3.77050 3.93735 3.85483
# Velocity P-wave (km/s) = 6.12270 6.50139 6.31488
#
# Compressibility (1/GPa) = 0.02486404
#
# Stress axis : x y z
#
# Youngs Moduli (GPa) = 100.68431 89.61406 68.79709
#
# Poissons Ratio (x) = 0.22614 0.22488
# Poissons Ratio (y) = 0.25408 -0.02828
# Poissons Ratio (z) = 0.32911 -0.03684
#
# Static dielectric constant tensor:
#      x y z
#    x 3.937650 0.096630 -0.124630 
#    y 0.096630 4.393820 -0.078610 
#    z -0.124630 -0.078610 3.774290 
# 
# 
# High freq. dielectric constant tensor:
#      x y z
#    x 1.853250 0.006300 -0.013540 
#    y 0.006300 1.869540 -0.007230 
#    z -0.013540 -0.007230 1.851410 
# 
# From -- ./inp_files/467085.got.cif
#   From: 2010.06.25/outbox.cif.g09.slc.cpg/sg2_234_cif.got.tgz:467085.got - 2010.06.27 13:26:56.
