data_PCOD8024069
_publ_section_title
;
Structure prediction by ZEFSAII (Michael W. Deem and Ramdas Pophale) SiO2 
 PCOD8024069
Probable space group: P -1
;
_chemical_formula_sum "Si O2"
_cell_formula_units_Z 14
_cell_length_a 5.414869
_cell_length_b 18.768753
_cell_length_c 9.217373
_cell_angle_alpha 45.526083
_cell_angle_beta 56.021163
_cell_angle_gamma 55.390312
_cell_volume 529.091213
_symmetry_space_group_name_H-M "P -1"
_symmetry_group_IT_number 2
_symmetry_cell_setting 'triclinic'
loop_
_space_group_symop_operation_xyz
x,y,z
-x,-y,-z
loop_
_atom_site_type_symbol
_atom_site_label
_atom_site_fract_x
_atom_site_fract_y
_atom_site_fract_z
Si Si1 0.659048 0.454111 0.728917
Si Si2 0.960124 0.936383 0.242152
Si Si3 0.810822 0.661428 0.051430
Si Si4 0.304268 0.240719 0.340157
Si Si5 0.169694 0.368485 0.474577
Si Si6 0.386245 0.186956 0.860936
Si Si7 0.083751 0.915838 0.716646
O O1 0.350432 0.419014 0.857431
O O2 0.570088 0.576538 0.633169
O O3 0.879314 0.391792 0.879668
O O4 0.834135 0.447592 0.523101
O O5 0.311608 0.866070 0.259652
O O6 0.764233 0.854565 0.414787
O O7 0.783688 0.024427 0.288471
O O8 0.000000 0.000000 0.000000
O O9 0.558255 0.743547 0.119600
O O10 0.886474 0.726651 0.795221
O O11 0.219865 0.343731 0.323019
O O12 0.674882 0.196261 0.244971
O O13 0.167115 0.263886 0.708208
O O14 0.230781 0.102102 0.092849
O O15 0.000000 0.000000 0.500000
#
# Coordination Sequence:
#
# PCOD8024069 Si02
#       7
#     2   2   2   2   2   2   2
#     4  10  24  46  70 101 139 185 230 284 343 421
#     4  12  24  40  64  95 134 182 234 283 339 412
#     4  11  24  44  70 101 142 180 227 286 353 410
#     4  12  24  41  67 102 140 179 228 290 351 409
#     4  10  23  42  69  99 136 181 233 281 343 415
#     4  11  23  43  69  96 136 186 234 281 340 418
#     4  12  24  42  65  97 138 180 228 288 348 406
#
# _framework density 26.460467000000001
#
# number of rings (size 3 to 8) (size 9 to 14) (size 15 to 20)
#    0.000    0.857    0.000    7.714    0.000    8.571 
#    0.000    0.000    0.000    0.000    0.000    0.000 
#    0.000    0.000    0.000    0.000    0.000    0.000 
#
# Total GULP energy -173449.870538 kJ/mol
# GULP energy per Si atom -12389.276467 kJ/mol
# Density = 2.640024 g / cm^3
# Si number density = 26.460467 Si / 1000 Ang^3
#
#
#
# Elastic Constant Matrix: (Units=GPa)
#
#
# Indices 1 2 3 4 5 6 
#
# 1 70.8575 21.7377 13.3374 5.2766 0.8859 17.0101
# 2 21.7377 135.8614 20.7339 20.4039 11.9054 23.6250
# 3 13.3374 20.7339 105.4230 -1.2185 9.4743 10.7349
# 4 5.2766 20.4039 -1.2185 43.7839 11.9686 -0.5722
# 5 0.8859 11.9054 9.4743 11.9686 44.7685 -0.1660
# 6 17.0101 23.6250 10.7349 -0.5722 -0.1660 36.9385
#
#
#
# Elastic Compliance Matrix: (Units=1/GPa)
#
#
# Indices 1 2 3 4 5 6 
#
# 1 0.016370 -0.001088 -0.001278 -0.001774 0.000686 -0.006495
# 2 -0.001088 0.009308 -0.001104 -0.003984 -0.001174 -0.005198
# 3 -0.001278 -0.001104 0.010257 0.001554 -0.002273 -0.001672
# 4 -0.001774 -0.003984 0.001554 0.026738 -0.006370 0.003299
# 5 0.000686 -0.001174 -0.002273 -0.006370 0.024824 0.001109
# 6 -0.006495 -0.005198 -0.001672 0.003299 0.001109 0.033930
#
#
# Mechanical properties :
#
#
# Convention : Reuss Voigt Hill
#
# Bulk Modulus (GPa) = 34.48933 47.08444 40.78689
# Shear Modulus (GPa) = 36.22342 42.18704 39.20523
#
# Velocity S-wave (km/s) = 3.70396 3.99725 3.85340
# Velocity P-wave (km/s) = 5.59956 6.25595 5.93683
#
# Compressibility (1/GPa) = 0.02899447
#
# Stress axis : x y z
#
# Youngs Moduli (GPa) = 61.08735 107.43099 97.49486
#
# Poissons Ratio (x) = 0.11694 0.12457
# Poissons Ratio (y) = 0.06649 0.10765
# Poissons Ratio (z) = 0.07805 0.11862
#
# Static dielectric constant tensor:
#      x y z
#    x 5.033730 -1.309800 0.184130 
#    y -1.309800 8.514050 -0.298810 
#    z 0.184130 -0.298810 4.987490 
# 
# 
# High freq. dielectric constant tensor:
#      x y z
#    x 2.028010 0.015870 0.006660 
#    y 0.015870 2.072880 -0.006850 
#    z 0.006660 -0.006850 2.081090 
# 
# From -- ./inp_files/138440.got.cif
#   From: 2010.06.25/outbox.cif.g09.slc.cpg/sg2_70_cif.got.tgz:138440.got - 2010.06.27 13:26:56.
