data_PCOD8024827
_publ_section_title
;
Structure prediction by ZEFSAII (Michael W. Deem and Ramdas Pophale) SiO2 
 PCOD8024827
Probable space group: P -1
;
_chemical_formula_sum "Si O2"
_cell_formula_units_Z 14
_cell_length_a 8.990095
_cell_length_b 10.788989
_cell_length_c 8.521862
_cell_angle_alpha 111.503614
_cell_angle_beta 131.410079
_cell_angle_gamma 76.306902
_cell_volume 576.753403
_symmetry_space_group_name_H-M "P -1"
_symmetry_group_IT_number 2
_symmetry_cell_setting 'triclinic'
loop_
_space_group_symop_operation_xyz
x,y,z
-x,-y,-z
loop_
_atom_site_type_symbol
_atom_site_label
_atom_site_fract_x
_atom_site_fract_y
_atom_site_fract_z
Si Si1 0.689986 0.531059 0.364609
Si Si2 0.271134 0.603404 0.988005
Si Si3 0.468632 0.698608 0.684163
Si Si4 0.857953 0.668108 0.815167
Si Si5 0.393533 0.859133 0.005097
Si Si6 0.621232 0.053963 0.460261
Si Si7 0.049147 0.044767 0.883015
O O1 0.777406 0.495986 0.238323
O O2 0.707098 0.405911 0.440616
O O3 0.810224 0.654145 0.585962
O O4 0.455457 0.555213 0.194821
O O5 0.075057 0.604400 0.963145
O O6 0.318528 0.752649 0.032426
O O7 0.665860 0.608289 0.744579
O O8 0.424382 0.791554 0.544480
O O9 0.497632 0.790976 0.899542
O O10 0.847694 0.814241 0.949136
O O11 0.565143 0.955105 0.235035
O O12 0.203280 0.945414 0.861966
O O13 0.500000 0.000000 0.500000
O O14 0.855628 0.048335 0.643218
O O15 0.000000 0.000000 0.000000
#
# Coordination Sequence:
#
# PCOD8024827 Si02
#       7
#     2   2   2   2   2   2   2
#     4  10  25  47  65 100 136 181 220 286 330 395
#     4  10  23  43  74  98 131 177 235 266 339 401
#     4  11  26  47  67 101 143 174 224 283 340 396
#     4  12  23  41  69  95 138 177 225 276 328 403
#     4  11  24  46  68 103 142 171 221 288 334 400
#     4  12  24  43  71  98 135 181 220 276 343 397
#     4  12  24  40  68 107 129 176 232 273 332 409
#
# _framework density 24.273806
#
# number of rings (size 3 to 8) (size 9 to 14) (size 15 to 20)
#    0.000    0.857    4.286    1.286    6.000    1.143 
#    2.571    0.000    0.000    0.000    0.000    0.000 
#    0.000    0.000    0.000    0.000    0.000    0.000 
#
# Total GULP energy -173479.330237 kJ/mol
# GULP energy per Si atom -12391.380731 kJ/mol
# Density = 2.421856 g / cm^3
# Si number density = 24.273806 Si / 1000 Ang^3
#
#
#
# Elastic Constant Matrix: (Units=GPa)
#
#
# Indices 1 2 3 4 5 6 
#
# 1 100.3191 29.4636 17.2036 -11.8526 3.1947 -22.5908
# 2 29.4636 74.8155 24.7591 -6.2016 -0.2748 -7.7751
# 3 17.2036 24.7591 95.8239 3.2087 17.6834 -12.7315
# 4 -11.8526 -6.2016 3.2087 30.8632 -2.3374 -5.6782
# 5 3.1947 -0.2748 17.6834 -2.3374 20.2781 2.0085
# 6 -22.5908 -7.7751 -12.7315 -5.6782 2.0085 43.5021
#
#
#
# Elastic Compliance Matrix: (Units=1/GPa)
#
#
# Indices 1 2 3 4 5 6 
#
# 1 0.013504 -0.004050 -0.000257 0.005539 -0.002016 0.007029
# 2 -0.004050 0.016717 -0.004714 0.002623 0.005318 -0.000398
# 3 -0.000257 -0.004714 0.014790 -0.002953 -0.013617 0.003595
# 4 0.005539 0.002623 -0.002953 0.037066 0.005310 0.007074
# 5 -0.002016 0.005318 -0.013617 0.005310 0.062814 -0.006289
# 6 0.007029 -0.000398 0.003595 0.007074 -0.006289 0.028832
#
#
# Mechanical properties :
#
#
# Convention : Reuss Voigt Hill
#
# Bulk Modulus (GPa) = 37.08375 45.97903 41.53139
# Shear Modulus (GPa) = 24.90594 32.23082 28.56838
#
# Velocity S-wave (km/s) = 3.20666 3.64786 3.43435
# Velocity P-wave (km/s) = 5.38709 6.06015 5.73350
#
# Compressibility (1/GPa) = 0.02696599
#
# Stress axis : x y z
#
# Youngs Moduli (GPa) = 74.05471 59.81923 67.61513
#
# Poissons Ratio (x) = 0.24230 0.01740
# Poissons Ratio (y) = 0.29996 0.31875
# Poissons Ratio (z) = 0.01906 0.28200
#
# Static dielectric constant tensor:
#      x y z
#    x 4.992070 -0.946960 0.432750 
#    y -0.946960 5.363930 -0.397120 
#    z 0.432750 -0.397120 4.757290 
# 
# 
# High freq. dielectric constant tensor:
#      x y z
#    x 1.970070 -0.012060 0.000630 
#    y -0.012060 1.958550 0.017290 
#    z 0.000630 0.017290 1.963410 
# 
# From -- ./inp_files/182070.got.cif
#   From: 2010.06.25/outbox.cif.g09.slc.cpg/sg2_92_cif.got.tgz:182070.got - 2010.06.27 13:26:56.
