data_PCOD8024414
_publ_section_title
;
Structure prediction by ZEFSAII (Michael W. Deem and Ramdas Pophale) SiO2 
 PCOD8024414
Probable space group: P -1
;
_chemical_formula_sum "Si O2"
_cell_formula_units_Z 14
_cell_length_a 11.026441
_cell_length_b 9.238302
_cell_length_c 9.597684
_cell_angle_alpha 138.241684
_cell_angle_beta 66.228066
_cell_angle_gamma 126.295496
_cell_volume 523.437228
_symmetry_space_group_name_H-M "P -1"
_symmetry_group_IT_number 2
_symmetry_cell_setting 'triclinic'
loop_
_space_group_symop_operation_xyz
x,y,z
-x,-y,-z
loop_
_atom_site_type_symbol
_atom_site_label
_atom_site_fract_x
_atom_site_fract_y
_atom_site_fract_z
Si Si1 0.326030 0.399952 0.040223
Si Si2 0.132347 0.689958 0.429561
Si Si3 0.385519 0.594607 0.438114
Si Si4 0.006312 0.670470 0.990917
Si Si5 0.282030 0.218417 0.645148
Si Si6 0.880629 0.811856 0.574546
Si Si7 0.762224 0.136679 0.205322
O O1 0.252880 0.367304 0.894229
O O2 0.263934 0.136307 0.955233
O O3 0.500000 0.500000 0.000000
O O4 0.321157 0.584550 0.298536
O O5 0.127340 0.669805 0.586246
O O6 0.125977 0.465692 0.168728
O O7 0.973485 0.662874 0.428016
O O8 0.269448 0.959863 0.518923
O O9 0.550456 0.619010 0.377854
O O10 0.277172 0.335733 0.376820
O O11 0.387758 0.829240 0.685459
O O12 0.168396 0.770307 0.911584
O O13 0.000000 0.500000 0.000000
O O14 0.007138 0.919965 0.220725
O O15 0.154931 0.161516 0.549599
#
# Coordination Sequence:
#
# PCOD8024414 Si02
#       7
#     2   2   2   2   2   2   2
#     4   9  21  42  68 100 132 176 224 274 332 399
#     4  11  25  44  67  98 136 176 224 281 330 402
#     4  11  23  44  72  95 137 180 220 284 334 395
#     4  12  25  43  69 100 135 177 229 278 335 404
#     4  10  23  43  67 100 134 176 224 275 338 399
#     4  12  24  44  67  96 139 179 223 280 336 393
#     4  11  24  45  68 101 135 175 234 271 336 403
#
# _framework density 26.746283999999999
#
# number of rings (size 3 to 8) (size 9 to 14) (size 15 to 20)
#    0.000    1.143    4.286    1.286    0.000    8.000 
#    0.000    5.000    0.000    0.000    0.000    0.000 
#    0.000    0.000    0.000    0.000    0.000    0.000 
#
# Total GULP energy -173561.442093 kJ/mol
# GULP energy per Si atom -12397.245864 kJ/mol
# Density = 2.668541 g / cm^3
# Si number density = 26.746284 Si / 1000 Ang^3
#
#
#
# Elastic Constant Matrix: (Units=GPa)
#
#
# Indices 1 2 3 4 5 6 
#
# 1 56.1695 16.2517 29.8830 -13.5836 18.7501 5.8510
# 2 16.2517 129.8862 39.8525 -15.5009 1.5972 -0.1009
# 3 29.8830 39.8525 151.3044 -20.7451 -2.8056 5.0562
# 4 -13.5836 -15.5009 -20.7451 51.1837 1.2440 2.1131
# 5 18.7501 1.5972 -2.8056 1.2440 45.2861 -2.4014
# 6 5.8510 -0.1009 5.0562 2.1131 -2.4014 40.7491
#
#
#
# Elastic Compliance Matrix: (Units=1/GPa)
#
#
# Indices 1 2 3 4 5 6 
#
# 1 0.025810 -0.001199 -0.004132 0.005256 -0.011263 -0.004133
# 2 -0.001199 0.008592 -0.001827 0.001528 0.000057 0.000344
# 3 -0.004132 -0.001827 0.008184 0.001629 0.002217 -0.000380
# 4 0.005256 0.001528 0.001629 0.022219 -0.002860 -0.002274
# 5 -0.011263 0.000057 0.002217 -0.002860 0.027123 0.003089
# 6 -0.004133 0.000344 -0.000380 -0.002274 0.003089 0.025482
#
#
# Mechanical properties :
#
#
# Convention : Reuss Voigt Hill
#
# Bulk Modulus (GPa) = 35.37431 56.59271 45.98351
# Shear Modulus (GPa) = 35.42391 44.20196 39.81294
#
# Velocity S-wave (km/s) = 3.64324 4.06968 3.86235
# Velocity P-wave (km/s) = 5.56347 6.57937 6.09263
#
# Compressibility (1/GPa) = 0.02826910
#
# Stress axis : x y z
#
# Youngs Moduli (GPa) = 38.74490 116.39309 122.19500
#
# Poissons Ratio (x) = 0.13956 0.50488
# Poissons Ratio (y) = 0.04646 0.22327
# Poissons Ratio (z) = 0.16008 0.21267
#
# Static dielectric constant tensor:
#      x y z
#    x 4.645880 0.087510 -0.109500 
#    y 0.087510 5.071990 0.120200 
#    z -0.109500 0.120200 5.898660 
# 
# 
# High freq. dielectric constant tensor:
#      x y z
#    x 2.081620 0.021680 -0.009290 
#    y 0.021680 2.086550 -0.014620 
#    z -0.009290 -0.014620 2.109370 
# 
# From -- ./inp_files/226004.got.cif
#   From: 2010.06.25/outbox.cif.g09.slc.cpg/sg2_114_cif.got.tgz:226004.got - 2010.06.27 13:26:56.
