data_PCOD8024217
_publ_section_title
;
Structure prediction by ZEFSAII (Michael W. Deem and Ramdas Pophale) SiO2 
 PCOD8024217
Probable space group: P -1
;
_chemical_formula_sum "Si O2"
_cell_formula_units_Z 16
_cell_length_a 8.927714
_cell_length_b 11.912654
_cell_length_c 17.679820
_cell_angle_alpha 49.859258
_cell_angle_beta 151.179221
_cell_angle_gamma 121.988499
_cell_volume 689.794591
_symmetry_space_group_name_H-M "P -1"
_symmetry_group_IT_number 2
_symmetry_cell_setting 'triclinic'
loop_
_space_group_symop_operation_xyz
x,y,z
-x,-y,-z
loop_
_atom_site_type_symbol
_atom_site_label
_atom_site_fract_x
_atom_site_fract_y
_atom_site_fract_z
Si Si1 0.752922 0.835046 0.320779
Si Si2 0.513493 0.715543 0.512055
Si Si3 0.199642 0.844295 0.175087
Si Si4 0.237271 0.605041 0.590039
Si Si5 0.383585 0.839146 0.015251
Si Si6 0.503619 0.569264 0.089936
Si Si7 0.002018 0.464394 0.802924
Si Si8 0.830060 0.923235 0.653216
O O1 0.552028 0.860321 0.296654
O O2 0.518649 0.769092 0.183890
O O3 0.049703 0.718281 0.515552
O O4 0.896865 0.982191 0.295245
O O5 0.246263 0.800882 0.303515
O O6 0.365438 0.690242 0.539281
O O7 0.784246 0.819425 0.606205
O O8 0.667815 0.564050 0.607759
O O9 0.048448 0.707039 0.128203
O O10 0.000000 0.000000 0.000000
O O11 0.505250 0.520377 0.796232
O O12 0.000000 0.500000 0.500000
O O13 0.508496 0.741542 0.039905
O O14 0.002598 0.844089 0.837933
O O15 0.500000 0.000000 0.000000
O O16 0.818175 0.523910 0.201779
O O17 0.197646 0.531441 0.926888
O O18 0.500000 0.000000 0.500000
#
# Coordination Sequence:
#
# PCOD8024217 Si02
#       8
#     2   2   2   2   2   2   2   2
#     4  11  25  44  70 103 141 189 242 298 362 437
#     4  12  26  47  72 102 147 192 241 310 366 438
#     4  12  30  46  71 105 149 195 249 300 373 444
#     4  12  23  41  73 103 139 189 247 294 361 431
#     4  10  23  42  74 102 142 185 246 293 361 424
#     4  11  24  44  75 106 142 195 243 299 362 440
#     4  11  26  47  71 106 154 190 240 302 374 436
#     4  11  24  43  73 107 139 185 244 307 367 426
#
# _framework density 23.195311
#
# number of rings (size 3 to 8) (size 9 to 14) (size 15 to 20)
#    0.000    0.750    3.750    2.625    5.250    3.000 
#    0.000    0.000    0.000    0.000    0.000    0.000 
#    0.000    0.000    0.000    0.000    0.000    0.000 
#
# Total GULP energy -198243.941525 kJ/mol
# GULP energy per Si atom -12390.246345 kJ/mol
# Density = 2.314252 g / cm^3
# Si number density = 23.195311 Si / 1000 Ang^3
#
#
#
# Elastic Constant Matrix: (Units=GPa)
#
#
# Indices 1 2 3 4 5 6 
#
# 1 112.3857 34.4416 46.0117 -7.2826 2.8169 2.6791
# 2 34.4416 145.0412 53.8834 -3.2989 -7.9239 -16.5482
# 3 46.0117 53.8834 140.3340 -12.9426 -6.3000 -9.1871
# 4 -7.2826 -3.2989 -12.9426 40.9295 -6.9104 3.1134
# 5 2.8169 -7.9239 -6.3000 -6.9104 41.2357 0.3582
# 6 2.6791 -16.5482 -9.1871 3.1134 0.3582 32.1345
#
#
#
# Elastic Compliance Matrix: (Units=1/GPa)
#
#
# Indices 1 2 3 4 5 6 
#
# 1 0.010850 -0.001826 -0.003026 0.000801 -0.001396 -0.002772
# 2 -0.001826 0.008770 -0.002494 -0.000488 0.001313 0.003988
# 3 -0.003026 -0.002494 0.009461 0.002408 0.001564 0.001422
# 4 0.000801 -0.000488 0.002408 0.026249 0.004638 -0.002225
# 5 -0.001396 0.001313 0.001564 0.004638 0.025610 0.000505
# 6 -0.002772 0.003988 0.001422 -0.002225 0.000505 0.034021
#
#
# Mechanical properties :
#
#
# Convention : Reuss Voigt Hill
#
# Bulk Modulus (GPa) = 69.50123 74.04825 71.77474
# Shear Modulus (GPa) = 37.18848 40.42153 38.80501
#
# Velocity S-wave (km/s) = 4.00844 4.17905 4.09463
# Velocity P-wave (km/s) = 7.17300 7.43499 7.30517
#
# Compressibility (1/GPa) = 0.01438824
#
# Stress axis : x y z
#
# Youngs Moduli (GPa) = 92.16874 114.02012 105.69699
#
# Poissons Ratio (x) = 0.20825 0.31987
# Poissons Ratio (y) = 0.16834 0.26358
# Poissons Ratio (z) = 0.27893 0.28433
#
# Static dielectric constant tensor:
#      x y z
#    x 4.344940 0.292470 -0.883490 
#    y 0.292470 4.964910 -1.020840 
#    z -0.883490 -1.020840 5.880160 
# 
# 
# High freq. dielectric constant tensor:
#      x y z
#    x 1.896390 -0.009770 0.004090 
#    y -0.009770 1.930150 0.000350 
#    z 0.004090 0.000350 1.930900 
# 
# From -- ./inp_files/559818.got.cif
#   From: 2010.06.25/outbox.cif.g09.slc.cpg/sg2_280_cif.got.tgz:559818.got - 2010.06.27 13:26:56.
