data_PCOD8024177
_publ_section_title
;
Structure prediction by ZEFSAII (Michael W. Deem and Ramdas Pophale) SiO2 
 PCOD8024177
Probable space group: P -1
;
_chemical_formula_sum "Si O2"
_cell_formula_units_Z 12
_cell_length_a 7.075548
_cell_length_b 20.276516
_cell_length_c 4.968329
_cell_angle_alpha 111.154699
_cell_angle_beta 103.393781
_cell_angle_gamma 123.454319
_cell_volume 461.960775
_symmetry_space_group_name_H-M "P -1"
_symmetry_group_IT_number 2
_symmetry_cell_setting 'triclinic'
loop_
_space_group_symop_operation_xyz
x,y,z
-x,-y,-z
loop_
_atom_site_type_symbol
_atom_site_label
_atom_site_fract_x
_atom_site_fract_y
_atom_site_fract_z
Si Si1 0.510793 0.950204 0.681428
Si Si2 0.134308 0.800725 0.731876
Si Si3 0.549740 0.806775 0.053568
Si Si4 0.426078 0.404814 0.725523
Si Si5 0.906925 0.894662 0.812105
Si Si6 0.686103 0.403206 0.294062
O O1 0.256165 0.834175 0.511649
O O2 0.500000 0.000000 0.500000
O O3 0.500000 0.000000 0.000000
O O4 0.812630 0.986579 0.859562
O O5 0.016652 0.844811 0.859476
O O6 0.899486 0.682408 0.501482
O O7 0.367302 0.832149 0.073722
O O8 0.796910 0.864123 0.426324
O O9 0.356124 0.689615 0.789832
O O10 0.663538 0.850265 0.861430
O O11 0.446648 0.578198 0.501248
O O12 0.500000 0.500000 0.000000
O O13 0.540997 0.375202 0.919737
O O14 0.000000 0.500000 0.500000
#
# Coordination Sequence:
#
# PCOD8024177 Si02
#       6
#     2   2   2   2   2   2
#     4  10  23  42  72 103 143 193 238 295 358 427
#     4  11  25  46  73 104 146 189 243 295 365 429
#     4  12  25  43  73 104 141 195 234 296 364 428
#     4  12  26  46  74 105 145 193 242 305 369 437
#     4  11  24  46  67 104 149 183 244 296 352 426
#     4  12  25  47  70 104 150 186 245 310 358 441
#
# _framework density 25.976232
#
# number of rings (size 3 to 8) (size 9 to 14) (size 15 to 20)
#    0.000    0.667    3.333    4.000    0.000    8.000 
#    0.000    0.000    0.000    0.000    0.000    0.000 
#    0.000    0.000    0.000    0.000    0.000    0.000 
#
# Total GULP energy -148738.516220 kJ/mol
# GULP energy per Si atom -12394.876352 kJ/mol
# Density = 2.591711 g / cm^3
# Si number density = 25.976232 Si / 1000 Ang^3
#
#
#
# Elastic Constant Matrix: (Units=GPa)
#
#
# Indices 1 2 3 4 5 6 
#
# 1 112.7139 50.3594 28.0648 6.2001 14.2595 4.3444
# 2 50.3594 164.7623 40.1263 29.0965 7.1650 22.9078
# 3 28.0648 40.1263 103.9858 -4.5298 28.9914 13.2717
# 4 6.2001 29.0965 -4.5298 55.3702 1.5990 -2.0366
# 5 14.2595 7.1650 28.9914 1.5990 55.0218 5.5486
# 6 4.3444 22.9078 13.2717 -2.0366 5.5486 54.4912
#
#
#
# Elastic Compliance Matrix: (Units=1/GPa)
#
#
# Indices 1 2 3 4 5 6 
#
# 1 0.010749 -0.003092 -0.001311 0.000401 -0.001801 0.000961
# 2 -0.003092 0.008914 -0.002856 -0.004733 0.001600 -0.003145
# 3 -0.001311 -0.002856 0.013053 0.002850 -0.006133 -0.001143
# 4 0.000401 -0.004733 0.002850 0.020870 -0.001821 0.002229
# 5 -0.001801 0.001600 -0.006133 -0.001821 0.021852 -0.001328
# 6 0.000961 -0.003145 -0.001143 0.002229 -0.001328 0.020094
#
#
# Mechanical properties :
#
#
# Convention : Reuss Voigt Hill
#
# Bulk Modulus (GPa) = 54.95436 68.72922 61.84179
# Shear Modulus (GPa) = 43.06097 50.50409 46.78253
#
# Velocity S-wave (km/s) = 4.07591 4.41414 4.24839
# Velocity P-wave (km/s) = 6.58425 7.24537 6.92271
#
# Compressibility (1/GPa) = 0.01819692
#
# Stress axis : x y z
#
# Youngs Moduli (GPa) = 93.03458 112.18834 76.61320
#
# Poissons Ratio (x) = 0.34691 0.10042
# Poissons Ratio (y) = 0.28769 0.21880
# Poissons Ratio (z) = 0.12195 0.32041
#
# Static dielectric constant tensor:
#      x y z
#    x 5.483880 1.059080 0.958480 
#    y 1.059080 16.902910 7.951430 
#    z 0.958480 7.951430 10.020180 
# 
# 
# High freq. dielectric constant tensor:
#      x y z
#    x 2.066770 -0.008430 0.009940 
#    y -0.008430 2.071240 -0.000470 
#    z 0.009940 -0.000470 2.045000 
# 
# From -- ./inp_files/50442.got.cif
#   From: 2010.06.25/outbox.cif.g09.slc.cpg/sg2_26_cif.got.tgz:50442.got - 2010.06.27 13:26:56.
