data_PCOD8024164
_publ_section_title
;
Structure prediction by ZEFSAII (Michael W. Deem and Ramdas Pophale) SiO2 
 PCOD8024164
Probable space group: P -1
;
_chemical_formula_sum "Si O2"
_cell_formula_units_Z 14
_cell_length_a 14.440244
_cell_length_b 23.803482
_cell_length_c 14.480438
_cell_angle_alpha 160.108869
_cell_angle_beta 30.153973
_cell_angle_gamma 158.523675
_cell_volume 617.849742
_symmetry_space_group_name_H-M "P -1"
_symmetry_group_IT_number 2
_symmetry_cell_setting 'triclinic'
loop_
_space_group_symop_operation_xyz
x,y,z
-x,-y,-z
loop_
_atom_site_type_symbol
_atom_site_label
_atom_site_fract_x
_atom_site_fract_y
_atom_site_fract_z
Si Si1 0.253604 0.559214 0.341370
Si Si2 0.104309 0.170720 0.590195
Si Si3 0.503531 0.587965 0.996284
Si Si4 0.408574 0.263804 0.311969
Si Si5 0.682794 0.043103 0.487434
Si Si6 0.162484 0.215794 0.265621
Si Si7 0.353899 0.919933 0.215978
O O1 0.293097 0.413649 0.137810
O O2 0.000000 0.500000 0.500000
O O3 0.485154 0.827041 0.569945
O O4 0.276417 0.515559 0.147380
O O5 0.373658 0.412323 0.754903
O O6 0.168046 0.101767 0.338281
O O7 0.929257 0.214213 0.777934
O O8 0.000000 0.000000 0.500000
O O9 0.656924 0.831195 0.195627
O O10 0.284972 0.185179 0.195273
O O11 0.596378 0.532216 0.591600
O O12 0.565584 0.193848 0.081758
O O13 0.500000 0.000000 0.500000
O O14 0.629992 0.100277 0.718512
O O15 0.972798 0.239835 0.507360
O O16 0.000000 0.000000 0.000000
#
# Coordination Sequence:
#
# PCOD8024164 Si02
#       7
#     2   2   2   2   2   2   2
#     4  10  23  42  71  99 136 185 240 294 350 430
#     4  12  25  46  68 100 147 186 232 295 364 424
#     4  10  24  43  67 100 137 187 235 289 359 422
#     4  11  27  45  72 107 144 186 239 305 354 431
#     4  11  24  45  71 102 140 186 240 299 360 429
#     4  11  24  48  74 103 142 190 244 295 363 427
#     4  11  25  44  70 103 139 182 236 295 364 428
#
# _framework density 22.659230999999998
#
# number of rings (size 3 to 8) (size 9 to 14) (size 15 to 20)
#    0.000    1.143    2.857    1.714    6.000    3.429 
#    2.571    0.000    0.000    0.000    0.000    0.000 
#    0.000    0.000    0.000    0.000    0.000    0.000 
#
# Total GULP energy -173483.468150 kJ/mol
# GULP energy per Si atom -12391.676296 kJ/mol
# Density = 2.260766 g / cm^3
# Si number density = 22.659231 Si / 1000 Ang^3
#
#
#
# Elastic Constant Matrix: (Units=GPa)
#
#
# Indices 1 2 3 4 5 6 
#
# 1 125.5514 43.5752 42.4156 -1.7881 -17.8122 -0.3608
# 2 43.5752 110.5930 23.4955 -25.7267 -17.3047 -4.6295
# 3 42.4156 23.4955 92.3111 -14.4483 -9.6774 -3.4070
# 4 -1.7881 -25.7267 -14.4483 43.3903 17.1152 -3.9990
# 5 -17.8122 -17.3047 -9.6774 17.1152 32.1399 2.3248
# 6 -0.3608 -4.6295 -3.4070 -3.9990 2.3248 35.4943
#
#
#
# Elastic Compliance Matrix: (Units=1/GPa)
#
#
# Indices 1 2 3 4 5 6 
#
# 1 0.011839 -0.004204 -0.004761 -0.006282 0.006354 -0.002009
# 2 -0.004204 0.012564 0.000012 0.007367 0.000341 0.002405
# 3 -0.004761 0.000012 0.013746 0.005098 -0.001348 0.001935
# 4 -0.006282 0.007367 0.005098 0.036537 -0.017920 0.006676
# 5 0.006354 0.000341 -0.001348 -0.017920 0.044313 -0.004942
# 6 -0.002009 0.002405 0.001935 0.006676 -0.004942 0.029728
#
#
# Mechanical properties :
#
#
# Convention : Reuss Voigt Hill
#
# Bulk Modulus (GPa) = 49.40439 60.82535 55.11487
# Shear Modulus (GPa) = 28.83818 36.80283 32.82051
#
# Velocity S-wave (km/s) = 3.57135 4.03449 3.80996
# Velocity P-wave (km/s) = 6.23350 6.97170 6.61291
#
# Compressibility (1/GPa) = 0.02024112
#
# Stress axis : x y z
#
# Youngs Moduli (GPa) = 84.46871 79.59209 72.75107
#
# Poissons Ratio (x) = 0.33463 0.34635
# Poissons Ratio (y) = 0.35513 -0.00084
# Poissons Ratio (z) = 0.40214 -0.00092
#
# Static dielectric constant tensor:
#      x y z
#    x 4.048980 -0.139120 -0.031730 
#    y -0.139120 4.488580 0.130810 
#    z -0.031730 0.130810 4.250780 
# 
# 
# High freq. dielectric constant tensor:
#      x y z
#    x 1.896760 -0.002890 0.000130 
#    y -0.002890 1.907490 -0.005600 
#    z 0.000130 -0.005600 1.889050 
# 
# From -- ./inp_files/535435.got.cif
#   From: 2010.06.25/outbox.cif.g09.slc.cpg/sg2_268_cif.got.tgz:535435.got - 2010.06.27 13:26:56.
