data_PCOD8024479
_publ_section_title
;
Structure prediction by ZEFSAII (Michael W. Deem and Ramdas Pophale) SiO2 
 PCOD8024479
Probable space group: P -1
;
_chemical_formula_sum "Si O2"
_cell_formula_units_Z 14
_cell_length_a 8.977758
_cell_length_b 5.203031
_cell_length_c 18.466031
_cell_angle_alpha 88.374650
_cell_angle_beta 52.294632
_cell_angle_gamma 61.201945
_cell_volume 552.180580
_symmetry_space_group_name_H-M "P -1"
_symmetry_group_IT_number 2
_symmetry_cell_setting 'triclinic'
loop_
_space_group_symop_operation_xyz
x,y,z
-x,-y,-z
loop_
_atom_site_type_symbol
_atom_site_label
_atom_site_fract_x
_atom_site_fract_y
_atom_site_fract_z
Si Si1 0.695923 0.446260 0.992312
Si Si2 0.987752 0.393121 0.638767
Si Si3 0.779452 0.495717 0.156896
Si Si4 0.726232 0.330497 0.483714
Si Si5 0.455839 0.361631 0.316811
Si Si6 0.756080 0.904206 0.053697
Si Si7 0.085511 0.271952 0.774618
O O1 0.937772 0.220208 0.877042
O O2 0.500000 0.500000 0.000000
O O3 0.654399 0.773200 0.027927
O O4 0.667780 0.264161 0.067846
O O5 0.140345 0.518447 0.577693
O O6 0.959287 0.380302 0.734086
O O7 0.739074 0.634107 0.671598
O O8 0.111261 0.043947 0.573463
O O9 0.575442 0.456569 0.222925
O O10 0.685941 0.858340 0.155652
O O11 0.902490 0.444296 0.198890
O O12 0.961718 0.292837 0.038985
O O13 0.500000 0.500000 0.500000
O O14 0.666243 0.375564 0.585967
O O15 0.646723 0.036647 0.305441
#
# Coordination Sequence:
#
# PCOD8024479 Si02
#       7
#     2   2   2   2   2   2   2
#     4  11  24  43  68 104 146 188 238 299 351 427
#     4  12  29  47  74 111 141 190 241 295 361 435
#     4  10  24  42  72 100 142 188 240 296 354 424
#     4  12  26  51  77 104 149 188 233 300 367 425
#     4  12  26  46  76 103 147 188 242 298 357 432
#     4  10  23  43  67  99 140 190 240 286 364 413
#     4  11  26  45  72 106 145 188 244 294 363 420
#
# _framework density 25.354023999999999
#
# number of rings (size 3 to 8) (size 9 to 14) (size 15 to 20)
#    0.000    0.857    2.857    2.571    8.000    1.714 
#    0.000    0.000    0.000    0.000    0.000    0.000 
#    0.000    0.000    0.000    0.000    0.000    0.000 
#
# Total GULP energy -173508.488294 kJ/mol
# GULP energy per Si atom -12393.463450 kJ/mol
# Density = 2.529632 g / cm^3
# Si number density = 25.354024 Si / 1000 Ang^3
#
#
#
# Elastic Constant Matrix: (Units=GPa)
#
#
# Indices 1 2 3 4 5 6 
#
# 1 181.8891 25.3034 38.6923 -7.2916 -14.8971 -3.9157
# 2 25.3034 72.2567 6.6431 -13.4666 -14.6913 13.4449
# 3 38.6923 6.6431 98.9909 -21.2779 1.9474 6.3313
# 4 -7.2916 -13.4666 -21.2779 40.3647 4.6332 -3.0761
# 5 -14.8971 -14.6913 1.9474 4.6332 52.1199 -6.5371
# 6 -3.9157 13.4449 6.3313 -3.0761 -6.5371 49.5868
#
#
#
# Elastic Compliance Matrix: (Units=1/GPa)
#
#
# Indices 1 2 3 4 5 6 
#
# 1 0.006518 -0.002195 -0.002768 -0.001080 0.001646 0.001613
# 2 -0.002195 0.016870 0.001026 0.005099 0.003116 -0.004151
# 3 -0.002768 0.001026 0.012692 0.006592 -0.001806 -0.001947
# 4 -0.001080 0.005099 0.006592 0.029916 -0.001865 -0.000699
# 5 0.001646 0.003116 -0.001806 -0.001865 0.021041 0.002174
# 6 0.001613 -0.004151 -0.001947 -0.000699 0.002174 0.021911
#
#
# Mechanical properties :
#
#
# Convention : Reuss Voigt Hill
#
# Bulk Modulus (GPa) = 35.45346 54.93490 45.19418
# Shear Modulus (GPa) = 39.61185 47.24748 43.42967
#
# Velocity S-wave (km/s) = 3.95694 4.32152 4.14325
# Velocity P-wave (km/s) = 5.90680 6.82751 6.38378
#
# Compressibility (1/GPa) = 0.02820599
#
# Stress axis : x y z
#
# Youngs Moduli (GPa) = 153.41347 59.27679 78.78973
#
# Poissons Ratio (x) = 0.13011 0.21811
# Poissons Ratio (y) = 0.33673 -0.08084
# Poissons Ratio (z) = 0.42468 -0.06082
#
# Static dielectric constant tensor:
#      x y z
#    x 4.850910 0.100050 0.042530 
#    y 0.100050 4.466090 0.086480 
#    z 0.042530 0.086480 4.594500 
# 
# 
# High freq. dielectric constant tensor:
#      x y z
#    x 2.042200 0.012820 0.008940 
#    y 0.012820 1.997900 -0.007640 
#    z 0.008940 -0.007640 2.016050 
# 
# From -- ./inp_files/53697.got.cif
#   From: 2010.06.25/outbox.cif.g09.slc.cpg/sg2_27_cif.got.tgz:53697.got - 2010.06.27 13:26:56.
