data_PCOD8024278
_publ_section_title
;
Structure prediction by ZEFSAII (Michael W. Deem and Ramdas Pophale) SiO2 
 PCOD8024278
Probable space group: P -1
;
_chemical_formula_sum "Si O2"
_cell_formula_units_Z 16
_cell_length_a 16.890449
_cell_length_b 17.358441
_cell_length_c 8.503396
_cell_angle_alpha 129.793360
_cell_angle_beta 127.257619
_cell_angle_gamma 22.987685
_cell_volume 747.019015
_symmetry_space_group_name_H-M "P -1"
_symmetry_group_IT_number 2
_symmetry_cell_setting 'triclinic'
loop_
_space_group_symop_operation_xyz
x,y,z
-x,-y,-z
loop_
_atom_site_type_symbol
_atom_site_label
_atom_site_fract_x
_atom_site_fract_y
_atom_site_fract_z
Si Si1 0.845675 0.233658 0.459737
Si Si2 0.163177 0.468417 0.914746
Si Si3 0.045421 0.550708 0.366521
Si Si4 0.515547 0.569389 0.240957
Si Si5 0.122346 0.171987 0.736765
Si Si6 0.220583 0.541725 0.792823
Si Si7 0.854745 0.195351 0.770857
Si Si8 0.433240 0.172919 0.145177
O O1 0.663141 0.409564 0.351591
O O2 0.780194 0.305227 0.656788
O O3 0.017309 0.164620 0.534457
O O4 0.925031 0.049659 0.295433
O O5 0.286349 0.415306 0.853768
O O6 0.058774 0.459323 0.710898
O O7 0.327653 0.300191 0.024644
O O8 0.983765 0.700341 0.060999
O O9 0.044258 0.635920 0.612386
O O10 0.278707 0.326253 0.302981
O O11 0.910477 0.706346 0.261910
O O12 0.589756 0.606309 0.292601
O O13 0.292598 0.767390 0.307180
O O14 0.500000 0.500000 0.000000
O O15 0.362572 0.939668 0.740075
O O16 0.134763 0.724808 0.984618
O O17 0.500000 0.000000 0.000000
#
# Coordination Sequence:
#
# PCOD8024278 Si02
#       8
#     2   2   2   2   2   2   2   2
#     4  11  22  43  70  94 120 165 220 261 312 367
#     4  11  22  41  65  93 131 167 208 261 310 374
#     4  11  22  40  67  91 130 171 201 262 319 370
#     4  10  23  43  64  90 131 162 204 260 324 371
#     4  11  21  40  67  94 122 167 212 262 311 369
#     4  11  23  42  60  95 133 170 204 249 326 382
#     4  10  24  43  67  94 124 163 216 268 305 371
#     4  11  21  40  67  93 123 162 222 261 305 368
#
# _framework density 21.418465000000001
#
# number of rings (size 3 to 8) (size 9 to 14) (size 15 to 20)
#    0.000    1.250    5.000    1.500    1.750    2.000 
#    9.000    3.125    0.000    0.000    0.000    0.000 
#    0.000    0.000    0.000    0.000    0.000    0.000 
#
# Total GULP energy -198335.969752 kJ/mol
# GULP energy per Si atom -12395.998110 kJ/mol
# Density = 2.136972 g / cm^3
# Si number density = 21.418465 Si / 1000 Ang^3
#
#
#
# Elastic Constant Matrix: (Units=GPa)
#
#
# Indices 1 2 3 4 5 6 
#
# 1 109.3419 23.2794 14.9234 3.7512 -2.3619 6.6889
# 2 23.2794 82.7236 27.2872 -3.0645 -3.8709 -10.1931
# 3 14.9234 27.2872 98.4346 -2.9284 12.1496 -0.0148
# 4 3.7512 -3.0645 -2.9284 21.2631 0.6525 4.1639
# 5 -2.3619 -3.8709 12.1496 0.6525 35.0081 -5.5422
# 6 6.6889 -10.1931 -0.0148 4.1639 -5.5422 23.4817
#
#
#
# Elastic Compliance Matrix: (Units=1/GPa)
#
#
# Indices 1 2 3 4 5 6 
#
# 1 0.010223 -0.003200 -0.000707 -0.001572 -0.000027 -0.004029
# 2 -0.003200 0.015740 -0.004412 0.000382 0.004429 0.008719
# 3 -0.000707 -0.004412 0.012206 0.001983 -0.005334 -0.003317
# 4 -0.001572 0.000382 0.001983 0.049470 -0.003081 -0.008884
# 5 -0.000027 0.004429 -0.005334 -0.003081 0.032570 0.010160
# 6 -0.004029 0.008719 -0.003317 -0.008884 0.010160 0.051490
#
#
# Mechanical properties :
#
#
# Convention : Reuss Voigt Hill
#
# Bulk Modulus (GPa) = 46.44325 46.83114 46.63719
# Shear Modulus (GPa) = 25.57360 30.95123 28.26242
#
# Velocity S-wave (km/s) = 3.45918 3.80553 3.63648
# Velocity P-wave (km/s) = 6.13884 6.42042 6.28121
#
# Compressibility (1/GPa) = 0.02153165
#
# Stress axis : x y z
#
# Youngs Moduli (GPa) = 97.81694 63.53237 81.92589
#
# Poissons Ratio (x) = 0.20329 0.05792
# Poissons Ratio (y) = 0.31299 0.36147
# Poissons Ratio (z) = 0.06915 0.28032
#
# Static dielectric constant tensor:
#      x y z
#    x 4.320900 -0.187240 0.031640 
#    y -0.187240 3.687140 -0.044380 
#    z 0.031640 -0.044380 3.913120 
# 
# 
# High freq. dielectric constant tensor:
#      x y z
#    x 1.854660 -0.000250 0.008890 
#    y -0.000250 1.810900 -0.004610 
#    z 0.008890 -0.004610 1.849100 
# 
# From -- ./inp_files/39333.got.cif
#   From: 2010.06.25/outbox.cif.g09.slc.cpg/sg2_20_cif.got.tgz:39333.got - 2010.06.27 13:26:56.
