data_PCOD8024303
_publ_section_title
;
Structure prediction by ZEFSAII (Michael W. Deem and Ramdas Pophale) SiO2 
 PCOD8024303
Probable space group: P -1
;
_chemical_formula_sum "Si O2"
_cell_formula_units_Z 16
_cell_length_a 5.393807
_cell_length_b 12.738146
_cell_length_c 12.039840
_cell_angle_alpha 57.587563
_cell_angle_beta 85.813043
_cell_angle_gamma 78.039149
_cell_volume 682.462887
_symmetry_space_group_name_H-M "P -1"
_symmetry_group_IT_number 2
_symmetry_cell_setting 'triclinic'
loop_
_space_group_symop_operation_xyz
x,y,z
-x,-y,-z
loop_
_atom_site_type_symbol
_atom_site_label
_atom_site_fract_x
_atom_site_fract_y
_atom_site_fract_z
Si Si1 0.071853 0.634897 0.921794
Si Si2 0.187126 0.002191 0.804414
Si Si3 0.741462 0.854601 0.933723
Si Si4 0.670689 0.513705 0.381952
Si Si5 0.779987 0.947531 0.476789
Si Si6 0.697552 0.428785 0.829750
Si Si7 0.020027 0.339685 0.330862
Si Si8 0.881002 0.744690 0.211900
O O1 0.144432 0.667451 0.774460
O O2 0.828256 0.741345 0.906602
O O3 0.302770 0.624266 0.011986
O O4 0.000000 0.500000 0.000000
O O5 0.473577 0.942338 0.864397
O O6 0.971753 0.930134 0.895809
O O7 0.192534 0.000855 0.674429
O O8 0.100528 0.146216 0.764403
O O9 0.691101 0.798558 0.087258
O O10 0.500000 0.500000 0.500000
O O11 0.566027 0.542142 0.242873
O O12 0.859616 0.380445 0.426197
O O13 0.796491 0.630515 0.346772
O O14 0.813636 0.796518 0.570382
O O15 0.500000 0.000000 0.500000
O O16 0.000000 0.000000 0.500000
O O17 0.807302 0.556932 0.753127
O O18 0.850425 0.313546 0.817842
#
# Coordination Sequence:
#
# PCOD8024303 Si02
#       8
#     2   2   2   2   2   2   2   2
#     4   9  19  44  68  98 134 174 236 288 358 410
#     4  12  26  44  74  99 144 192 235 294 352 420
#     4  11  25  46  70 108 140 185 238 298 350 418
#     4  11  26  41  69 105 143 180 236 292 359 434
#     4  12  28  47  70 103 143 189 244 289 354 427
#     4   9  22  41  68  98 135 175 230 293 355 417
#     4  10  23  43  65 100 137 184 231 292 355 420
#     4  10  25  43  68 102 138 182 238 290 357 429
#
# _framework density 23.444500000000001
#
# number of rings (size 3 to 8) (size 9 to 14) (size 15 to 20)
#    0.000    1.500    0.000    3.750   10.500    1.500 
#    4.500    0.000    0.000    0.000    0.000    0.000 
#    0.000    0.000    0.000    0.000    0.000    0.000 
#
# Total GULP energy -198220.950430 kJ/mol
# GULP energy per Si atom -12388.809402 kJ/mol
# Density = 2.339114 g / cm^3
# Si number density = 23.444500 Si / 1000 Ang^3
#
#
#
# Elastic Constant Matrix: (Units=GPa)
#
#
# Indices 1 2 3 4 5 6 
#
# 1 99.1899 58.4094 22.4674 -6.0543 1.6889 -7.3211
# 2 58.4094 161.5601 15.9686 -18.7045 -9.8808 -15.1780
# 3 22.4674 15.9686 62.0869 1.6559 -7.1436 -19.9765
# 4 -6.0543 -18.7045 1.6559 35.4279 -10.0352 7.6243
# 5 1.6889 -9.8808 -7.1436 -10.0352 31.3299 3.9639
# 6 -7.3211 -15.1780 -19.9765 7.6243 3.9639 20.1715
#
#
#
# Elastic Compliance Matrix: (Units=1/GPa)
#
#
# Indices 1 2 3 4 5 6 
#
# 1 0.014054 -0.005096 -0.005121 -0.000313 -0.003247 -0.003049
# 2 -0.005096 0.009019 0.001022 0.004311 0.004293 0.003475
# 3 -0.005121 0.001022 0.027153 -0.007516 0.000778 0.028488
# 4 -0.000313 0.004311 -0.007516 0.039960 0.015299 -0.022422
# 5 -0.003247 0.004293 0.000778 0.015299 0.039892 -0.010799
# 6 -0.003049 0.003475 0.028488 -0.022422 -0.010799 0.089894
#
#
# Mechanical properties :
#
#
# Convention : Reuss Voigt Hill
#
# Bulk Modulus (GPa) = 31.41227 57.39196 44.40212
# Shear Modulus (GPa) = 20.08245 32.45195 26.26720
#
# Velocity S-wave (km/s) = 2.92994 3.72452 3.35087
# Velocity P-wave (km/s) = 4.98736 6.55966 5.82679
#
# Compressibility (1/GPa) = 0.03183469
#
# Stress axis : x y z
#
# Youngs Moduli (GPa) = 71.15608 110.87383 36.82828
#
# Poissons Ratio (x) = 0.56501 0.18861
# Poissons Ratio (y) = 0.36261 -0.03762
# Poissons Ratio (z) = 0.36441 -0.11326
#
# Static dielectric constant tensor:
#      x y z
#    x 4.013900 -0.035680 0.246530 
#    y -0.035680 4.627480 0.015250 
#    z 0.246530 0.015250 4.803930 
# 
# 
# High freq. dielectric constant tensor:
#      x y z
#    x 1.904300 -0.004640 0.010040 
#    y -0.004640 1.954170 -0.000810 
#    z 0.010040 -0.000810 1.939970 
# 
# From -- ./inp_files/78785.got.cif
#   From: 2010.06.25/outbox.cif.g09.slc.cpg/sg2_40_cif.got.tgz:78785.got - 2010.06.27 13:26:56.
