data_PCOD8024220
_publ_section_title
;
Structure prediction by ZEFSAII (Michael W. Deem and Ramdas Pophale) SiO2 
 PCOD8024220
Probable space group: P -1
;
_chemical_formula_sum "Si O2"
_cell_formula_units_Z 14
_cell_length_a 9.138083
_cell_length_b 9.680161
_cell_length_c 9.622491
_cell_angle_alpha 82.366135
_cell_angle_beta 133.478279
_cell_angle_gamma 80.720079
_cell_volume 573.156677
_symmetry_space_group_name_H-M "P -1"
_symmetry_group_IT_number 2
_symmetry_cell_setting 'triclinic'
loop_
_space_group_symop_operation_xyz
x,y,z
-x,-y,-z
loop_
_atom_site_type_symbol
_atom_site_label
_atom_site_fract_x
_atom_site_fract_y
_atom_site_fract_z
Si Si1 0.075206 0.815532 0.246171
Si Si2 0.042078 0.526290 0.366023
Si Si3 0.757854 0.277412 0.936690
Si Si4 0.592215 0.030261 0.913228
Si Si5 0.575224 0.100902 0.410375
Si Si6 0.698341 0.594970 0.899962
Si Si7 0.189550 0.274966 0.300281
O O1 0.124591 0.664836 0.387889
O O2 0.187616 0.773346 0.178017
O O3 0.184583 0.924237 0.375737
O O4 0.822304 0.903033 0.048492
O O5 0.213960 0.371134 0.437141
O O6 0.000000 0.500000 0.500000
O O7 0.819692 0.568154 0.129454
O O8 0.625726 0.454172 0.837183
O O9 0.608671 0.192436 0.912508
O O10 0.976635 0.231817 0.178397
O O11 0.500000 0.000000 0.000000
O O12 0.428696 0.028675 0.681090
O O13 0.508071 0.253562 0.254376
O O14 0.403010 0.127517 0.426698
O O15 0.854995 0.614046 0.876785
#
# Coordination Sequence:
#
# PCOD8024220 Si02
#       7
#     2   2   2   2   2   2   2
#     4  12  22  45  72  98 134 186 239 270 348 423
#     4  11  20  36  68 108 145 174 220 296 350 396
#     4  11  20  42  80  94 131 194 225 277 348 414
#     4  12  28  48  64  98 146 183 228 297 347 396
#     4  10  23  42  74  97 135 178 237 290 330 421
#     4   9  18  42  70 102 136 171 232 288 338 412
#     4   9  18  41  70 103 136 172 233 284 336 414
#
# _framework density 24.426129
#
# number of rings (size 3 to 8) (size 9 to 14) (size 15 to 20)
#    0.857    0.571    5.714    1.286    0.000    5.714 
#    5.143    1.429    0.000    0.000    0.000    0.000 
#    0.000    0.000    0.000    0.000    0.000    0.000 
#
# Total GULP energy -173552.555134 kJ/mol
# GULP energy per Si atom -12396.611081 kJ/mol
# Density = 2.437053 g / cm^3
# Si number density = 24.426129 Si / 1000 Ang^3
#
#
#
# Elastic Constant Matrix: (Units=GPa)
#
#
# Indices 1 2 3 4 5 6 
#
# 1 69.8849 20.8971 33.2833 8.3238 -31.9938 29.2723
# 2 20.8971 117.4640 16.1281 23.4982 1.0299 22.0610
# 3 33.2833 16.1281 80.7952 34.4088 -19.1334 8.2829
# 4 8.3238 23.4982 34.4088 42.0842 1.5782 13.3813
# 5 -31.9938 1.0299 -19.1334 1.5782 40.5114 3.4040
# 6 29.2723 22.0610 8.2829 13.3813 3.4040 36.4362
#
#
#
# Elastic Compliance Matrix: (Units=1/GPa)
#
#
# Indices 1 2 3 4 5 6 
#
# 1 0.076347 -0.002995 -0.020470 0.023009 0.055563 -0.068510
# 2 -0.002995 0.010368 0.001400 -0.005658 -0.001582 -0.001965
# 3 -0.020470 0.001400 0.029161 -0.026498 -0.002992 0.018980
# 4 0.023009 -0.005658 -0.026498 0.053056 0.006178 -0.029097
# 5 0.055563 -0.001582 -0.002992 0.006178 0.071315 -0.051932
# 6 -0.068510 -0.001965 0.018980 -0.029097 -0.051932 0.094898
#
#
# Mechanical properties :
#
#
# Convention : Reuss Voigt Hill
#
# Bulk Modulus (GPa) = 13.93790 45.41793 29.67791
# Shear Modulus (GPa) = 12.40108 36.99541 24.69824
#
# Velocity S-wave (km/s) = 2.25566 3.89599 3.18329
# Velocity P-wave (km/s) = 3.53589 6.23479 5.06829
#
# Compressibility (1/GPa) = 0.07174684
#
# Stress axis : x y z
#
# Youngs Moduli (GPa) = 13.09805 96.44668 34.29259
#
# Poissons Ratio (x) = 0.28883 0.70199
# Poissons Ratio (y) = 0.03922 -0.04802
# Poissons Ratio (z) = 0.26812 -0.13506
#
# Static dielectric constant tensor:
#      x y z
#    x 3.969850 0.131060 0.080340 
#    y 0.131060 4.984030 0.019820 
#    z 0.080340 0.019820 4.262100 
# 
# 
# High freq. dielectric constant tensor:
#      x y z
#    x 1.926690 0.010570 -0.002490 
#    y 0.010570 2.001710 -0.003030 
#    z -0.002490 -0.003030 1.972020 
# 
# From -- ./inp_files/187020.got.cif
#   From: 2010.06.25/outbox.cif.g09.slc.cpg/sg2_94_cif.got.tgz:187020.got - 2010.06.27 13:26:56.
