data_PCOD8024766
_publ_section_title
;
Structure prediction by ZEFSAII (Michael W. Deem and Ramdas Pophale) SiO2 
 PCOD8024766
Probable space group: P -1
;
_chemical_formula_sum "Si O2"
_cell_formula_units_Z 14
_cell_length_a 21.434964
_cell_length_b 21.532214
_cell_length_c 9.027621
_cell_angle_alpha 28.356206
_cell_angle_beta 152.077483
_cell_angle_gamma 161.133493
_cell_volume 603.829981
_symmetry_space_group_name_H-M "P -1"
_symmetry_group_IT_number 2
_symmetry_cell_setting 'triclinic'
loop_
_space_group_symop_operation_xyz
x,y,z
-x,-y,-z
loop_
_atom_site_type_symbol
_atom_site_label
_atom_site_fract_x
_atom_site_fract_y
_atom_site_fract_z
Si Si1 0.041355 0.398214 0.716473
Si Si2 0.210746 0.188453 0.825440
Si Si3 0.344422 0.501604 0.633484
Si Si4 0.288684 0.050802 0.520373
Si Si5 0.500826 0.651621 0.150211
Si Si6 0.028098 0.659713 0.648118
Si Si7 0.155900 0.974064 0.727492
O O1 0.000000 0.500000 0.500000
O O2 0.956548 0.345691 0.483243
O O3 0.281534 0.552672 0.893831
O O4 0.918207 0.194093 0.967948
O O5 0.248983 0.374244 0.546456
O O6 0.398059 0.255590 0.994800
O O7 0.015795 0.038212 0.620337
O O8 0.176503 0.085801 0.122637
O O9 0.472023 0.732787 0.405616
O O10 0.162332 0.387201 0.609500
O O11 0.500000 0.500000 0.000000
O O12 0.243583 0.884913 0.680942
O O13 0.184441 0.946384 0.677920
O O14 0.500000 0.500000 0.500000
O O15 0.630448 0.814172 0.210575
O O16 0.000000 0.500000 0.000000
#
# Coordination Sequence:
#
# PCOD8024766 Si02
#       7
#     2   2   2   2   2   2   2
#     4  12  29  50  71 101 148 190 235 291 355 425
#     4  11  22  44  72 109 145 182 236 295 352 414
#     4  10  23  43  72 107 141 175 236 291 350 410
#     4  11  24  41  73 106 143 184 232 294 352 412
#     4  12  26  45  73 107 146 186 236 291 355 421
#     4  12  27  48  74 100 141 188 239 289 350 421
#     4  12  25  43  72 108 145 187 232 291 358 418
#
# _framework density 23.185333
#
# number of rings (size 3 to 8) (size 9 to 14) (size 15 to 20)
#    0.000    0.571    2.857    5.143    4.000    1.143 
#    0.000    1.429    0.000    0.000    0.000    0.000 
#    0.000    0.000    0.000    0.000    0.000    0.000 
#
# Total GULP energy -173542.266302 kJ/mol
# GULP energy per Si atom -12395.876164 kJ/mol
# Density = 2.313256 g / cm^3
# Si number density = 23.185333 Si / 1000 Ang^3
#
#
#
# Elastic Constant Matrix: (Units=GPa)
#
#
# Indices 1 2 3 4 5 6 
#
# 1 157.8364 52.5889 50.7357 -0.9940 -12.2699 -15.1526
# 2 52.5889 146.4127 27.9897 -11.9459 -12.0534 -30.2364
# 3 50.7357 27.9897 74.4663 -12.5200 -25.8262 -16.5335
# 4 -0.9940 -11.9459 -12.5200 28.5682 2.8778 3.4212
# 5 -12.2699 -12.0534 -25.8262 2.8778 45.6873 -0.7094
# 6 -15.1526 -30.2364 -16.5335 3.4212 -0.7094 37.8729
#
#
#
# Elastic Compliance Matrix: (Units=1/GPa)
#
#
# Indices 1 2 3 4 5 6 
#
# 1 0.009083 -0.002647 -0.006637 -0.003384 -0.001815 -0.001105
# 2 -0.002647 0.009407 0.001097 0.003292 0.002287 0.006675
# 3 -0.006637 0.001097 0.025264 0.009017 0.012354 0.008666
# 4 -0.003384 0.003292 0.009017 0.039755 0.002579 0.001668
# 5 -0.001815 0.002287 0.012354 0.002579 0.028931 0.006802
# 6 -0.001105 0.006675 0.008666 0.001668 0.006802 0.035051
#
#
# Mechanical properties :
#
#
# Convention : Reuss Voigt Hill
#
# Bulk Modulus (GPa) = 36.52667 71.26045 53.89356
# Shear Modulus (GPa) = 28.90331 38.91909 33.91120
#
# Velocity S-wave (km/s) = 3.53458 4.10153 3.82856
# Velocity P-wave (km/s) = 5.69615 7.29602 6.54515
#
# Compressibility (1/GPa) = 0.02737726
#
# Stress axis : x y z
#
# Youngs Moduli (GPa) = 110.09977 106.30853 39.58280
#
# Poissons Ratio (x) = 0.28144 0.26271
# Poissons Ratio (y) = 0.29147 -0.04341
# Poissons Ratio (z) = 0.73074 -0.11659
#
# Static dielectric constant tensor:
#      x y z
#    x 4.209290 -0.252030 -0.381590 
#    y -0.252030 4.938480 0.056430 
#    z -0.381590 0.056430 3.580070 
# 
# 
# High freq. dielectric constant tensor:
#      x y z
#    x 1.927760 -0.008550 -0.014750 
#    y -0.008550 1.942520 -0.001470 
#    z -0.014750 -0.001470 1.889080 
# 
# From -- ./inp_files/349668.got.cif
#   From: 2010.06.25/outbox.cif.g09.slc.cpg/sg2_175_cif.got.tgz:349668.got - 2010.06.27 13:26:56.
