data_PCOD8024018
_publ_section_title
;
Structure prediction by ZEFSAII (Michael W. Deem and Ramdas Pophale) SiO2 
 PCOD8024018
Probable space group: P -1
;
_chemical_formula_sum "Si O2"
_cell_formula_units_Z 12
_cell_length_a 16.662486
_cell_length_b 5.095500
_cell_length_c 13.879330
_cell_angle_alpha 56.646345
_cell_angle_beta 147.084212
_cell_angle_gamma 107.938451
_cell_volume 503.346925
_symmetry_space_group_name_H-M "P -1"
_symmetry_group_IT_number 2
_symmetry_cell_setting 'triclinic'
loop_
_space_group_symop_operation_xyz
x,y,z
-x,-y,-z
loop_
_atom_site_type_symbol
_atom_site_label
_atom_site_fract_x
_atom_site_fract_y
_atom_site_fract_z
Si Si1 0.621921 0.190403 0.947328
Si Si2 0.092798 0.247336 0.563123
Si Si3 0.150273 0.313734 0.397345
Si Si4 0.186236 0.535821 0.060636
Si Si5 0.182339 0.841511 0.198317
Si Si6 0.550450 0.278950 0.189385
O O1 0.548014 0.973211 0.850447
O O2 0.730526 0.949777 0.186182
O O3 0.725024 0.356223 0.957166
O O4 0.482507 0.481402 0.799806
O O5 0.100633 0.433562 0.432820
O O6 0.000000 0.500000 0.500000
O O7 0.000000 0.000000 0.500000
O O8 0.243630 0.544503 0.398470
O O9 0.264063 0.929002 0.587175
O O10 0.998613 0.341069 0.174537
O O11 0.219436 0.701865 0.156872
O O12 0.257291 0.133359 0.227898
O O13 0.000000 0.000000 0.000000
O O14 0.500000 0.500000 0.000000
#
# Coordination Sequence:
#
# PCOD8024018 Si02
#       6
#     2   2   2   2   2   2
#     4  12  26  46  67 100 143 178 221 284 340 404
#     4  12  26  40  70 106 134 175 231 283 339 396
#     4  11  25  45  73 101 138 180 230 281 337 406
#     4  11  24  45  72 100 133 176 235 282 333 397
#     4  10  23  42  69 104 131 174 230 289 333 387
#     4  12  27  46  65 102 144 181 220 273 347 413
#
# _framework density 23.840418
#
# number of rings (size 3 to 8) (size 9 to 14) (size 15 to 20)
#    0.000    0.667    3.333    4.500    4.667    5.333 
#    0.000    5.000    0.000    0.000    0.000    0.000 
#    0.000    0.000    0.000    0.000    0.000    0.000 
#
# Total GULP energy -148842.489706 kJ/mol
# GULP energy per Si atom -12403.540809 kJ/mol
# Density = 2.378616 g / cm^3
# Si number density = 23.840418 Si / 1000 Ang^3
#
#
#
# Elastic Constant Matrix: (Units=GPa)
#
#
# Indices 1 2 3 4 5 6 
#
# 1 97.4184 34.4070 34.0605 -15.0012 -15.1003 -2.7298
# 2 34.4070 132.7319 17.9547 -12.9570 2.8808 -16.6565
# 3 34.0605 17.9547 69.8894 -22.2332 -3.8693 -8.8207
# 4 -15.0012 -12.9570 -22.2332 35.5777 3.3491 1.2770
# 5 -15.1003 2.8808 -3.8693 3.3491 34.3246 -1.9884
# 6 -2.7298 -16.6565 -8.8207 1.2770 -1.9884 52.4730
#
#
#
# Elastic Compliance Matrix: (Units=1/GPa)
#
#
# Indices 1 2 3 4 5 6 
#
# 1 0.014374 -0.003121 -0.005748 0.000822 0.005799 -0.001009
# 2 -0.003121 0.008901 0.000105 0.002104 -0.002166 0.002547
# 3 -0.005748 0.000105 0.020760 0.010583 -0.001060 0.002926
# 4 0.000822 0.002104 0.010583 0.035971 -0.002042 0.001537
# 5 0.005799 -0.002166 -0.001060 -0.002042 0.031987 0.000698
# 6 -0.001009 0.002547 0.002926 0.001537 0.000698 0.020294
#
#
# Mechanical properties :
#
#
# Convention : Reuss Voigt Hill
#
# Bulk Modulus (GPa) = 37.72564 52.54266 45.13415
# Shear Modulus (GPa) = 31.51587 38.71621 35.11604
#
# Velocity S-wave (km/s) = 3.63981 4.03423 3.84208
# Velocity P-wave (km/s) = 5.78989 6.61719 6.21732
#
# Compressibility (1/GPa) = 0.02650717
#
# Stress axis : x y z
#
# Youngs Moduli (GPa) = 69.56919 112.34961 48.16992
#
# Poissons Ratio (x) = 0.35062 0.27689
# Poissons Ratio (y) = 0.21711 -0.00507
# Poissons Ratio (z) = 0.39990 -0.01181
#
# Static dielectric constant tensor:
#      x y z
#    x 6.143690 1.049810 -0.842250 
#    y 1.049810 5.392380 -0.653520 
#    z -0.842250 -0.653520 4.611890 
# 
# 
# High freq. dielectric constant tensor:
#      x y z
#    x 1.955020 0.003510 -0.010330 
#    y 0.003510 1.959120 -0.008750 
#    z -0.010330 -0.008750 1.932630 
# 
# From -- ./inp_files/441063.got.cif
#   From: 2010.06.25/outbox.cif.g09.slc.cpg/sg2_221_cif.got.tgz:441063.got - 2010.06.27 13:26:56.
