data_PCOD8024673
_publ_section_title
;
Structure prediction by ZEFSAII (Michael W. Deem and Ramdas Pophale) SiO2 
 PCOD8024673
Probable space group: P -1
;
_chemical_formula_sum "Si O2"
_cell_formula_units_Z 14
_cell_length_a 10.997311
_cell_length_b 10.733521
_cell_length_c 10.706673
_cell_angle_alpha 136.795271
_cell_angle_beta 104.502719
_cell_angle_gamma 50.633251
_cell_volume 612.946174
_symmetry_space_group_name_H-M "P -1"
_symmetry_group_IT_number 2
_symmetry_cell_setting 'triclinic'
loop_
_space_group_symop_operation_xyz
x,y,z
-x,-y,-z
loop_
_atom_site_type_symbol
_atom_site_label
_atom_site_fract_x
_atom_site_fract_y
_atom_site_fract_z
Si Si1 0.254496 0.399208 0.020633
Si Si2 0.966341 0.669152 0.971548
Si Si3 0.867579 0.740570 0.477154
Si Si4 0.577849 0.231128 0.863117
Si Si5 0.436155 0.266835 0.207679
Si Si6 0.248272 0.865673 0.904774
Si Si7 0.815448 0.459702 0.439139
O O1 0.196827 0.249298 0.933606
O O2 0.297327 0.461137 0.206553
O O3 0.425114 0.239794 0.861811
O O4 0.094873 0.646715 0.083939
O O5 0.074961 0.392088 0.739542
O O6 0.909003 0.853236 0.977343
O O7 0.816239 0.627670 0.471384
O O8 0.021098 0.707262 0.550342
O O9 0.696062 0.035403 0.638282
O O10 0.500000 0.500000 0.000000
O O11 0.705551 0.125099 0.936264
O O12 0.591345 0.257060 0.235302
O O13 0.355823 0.355691 0.387835
O O14 0.500000 0.000000 0.000000
O O15 0.188748 0.717303 0.774427
#
# Coordination Sequence:
#
# PCOD8024673 Si02
#       7
#     2   2   2   2   2   2   2
#     4  10  23  43  70  93 139 173 229 269 336 399
#     4  11  23  45  71 104 125 187 225 278 336 399
#     4  11  24  42  70  96 139 175 226 280 341 398
#     4  11  27  47  65 101 138 181 216 286 343 402
#     4  11  19  43  67  97 137 178 221 278 336 401
#     4  11  24  41  73  98 138 176 232 278 333 406
#     4  11  23  40  68 106 129 179 232 277 332 403
#
# _framework density 22.840505
#
# number of rings (size 3 to 8) (size 9 to 14) (size 15 to 20)
#    0.000    1.143    2.857    3.857    4.000    1.714 
#    2.571    5.714    0.000    0.000    0.000    0.000 
#    0.000    0.000    0.000    0.000    0.000    0.000 
#
# Total GULP energy -173561.264055 kJ/mol
# GULP energy per Si atom -12397.233147 kJ/mol
# Density = 2.278852 g / cm^3
# Si number density = 22.840505 Si / 1000 Ang^3
#
#
#
# Elastic Constant Matrix: (Units=GPa)
#
#
# Indices 1 2 3 4 5 6 
#
# 1 89.1500 10.3277 39.1358 1.4920 -2.5813 -10.9351
# 2 10.3277 123.6801 22.6732 5.5834 6.9298 -5.8613
# 3 39.1358 22.6732 94.1197 18.9284 -6.5384 -2.5702
# 4 1.4920 5.5834 18.9284 30.0915 -2.3911 2.4342
# 5 -2.5813 6.9298 -6.5384 -2.3911 33.1166 -7.0461
# 6 -10.9351 -5.8613 -2.5702 2.4342 -7.0461 26.7448
#
#
#
# Elastic Compliance Matrix: (Units=1/GPa)
#
#
# Indices 1 2 3 4 5 6 
#
# 1 0.014721 0.000014 -0.006495 0.003011 0.001239 0.005450
# 2 0.000014 0.008662 -0.002087 -0.000554 -0.002003 0.001227
# 3 -0.006495 -0.002087 0.015805 -0.009032 0.002367 -0.000148
# 4 0.003011 -0.000554 -0.009032 0.039178 0.000730 -0.003132
# 5 0.001239 -0.002003 0.002367 0.000730 0.033138 0.008959
# 6 0.005450 0.001227 -0.000148 -0.003132 0.008959 0.042519
#
#
# Mechanical properties :
#
#
# Convention : Reuss Voigt Hill
#
# Bulk Modulus (GPa) = 45.34589 50.13593 47.74091
# Shear Modulus (GPa) = 28.00976 33.64478 30.82727
#
# Velocity S-wave (km/s) = 3.50568 3.84217 3.67778
# Velocity P-wave (km/s) = 6.02352 6.45609 6.24356
#
# Compressibility (1/GPa) = 0.02205271
#
# Stress axis : x y z
#
# Youngs Moduli (GPa) = 67.93205 115.44578 63.27076
#
# Poissons Ratio (x) = -0.00166 0.41094
# Poissons Ratio (y) = -0.00098 0.13204
# Poissons Ratio (z) = 0.44122 0.24093
#
# Static dielectric constant tensor:
#      x y z
#    x 4.419420 -0.212100 -0.188400 
#    y -0.212100 4.234450 -0.090640 
#    z -0.188400 -0.090640 3.852650 
# 
# 
# High freq. dielectric constant tensor:
#      x y z
#    x 1.924160 -0.011590 -0.016290 
#    y -0.011590 1.897740 -0.008870 
#    z -0.016290 -0.008870 1.867670 
# 
# From -- ./inp_files/424546.got.cif
#   From: 2010.06.25/outbox.cif.g09.slc.cpg/sg2_213_cif.got.tgz:424546.got - 2010.06.27 13:26:56.
