data_PCOD8024127
_publ_section_title
;
Structure prediction by ZEFSAII (Michael W. Deem and Ramdas Pophale) SiO2 
 PCOD8024127
Probable space group: P -1
;
_chemical_formula_sum "Si O2"
_cell_formula_units_Z 12
_cell_length_a 11.715133
_cell_length_b 14.413512
_cell_length_c 14.906685
_cell_angle_alpha 19.896229
_cell_angle_beta 42.026482
_cell_angle_gamma 43.926977
_cell_volume 570.863449
_symmetry_space_group_name_H-M "P -1"
_symmetry_group_IT_number 2
_symmetry_cell_setting 'triclinic'
loop_
_space_group_symop_operation_xyz
x,y,z
-x,-y,-z
loop_
_atom_site_type_symbol
_atom_site_label
_atom_site_fract_x
_atom_site_fract_y
_atom_site_fract_z
Si Si1 0.635024 0.132119 0.741135
Si Si2 0.554239 0.619094 0.058131
Si Si3 0.551915 0.939581 0.424016
Si Si4 0.881068 0.762582 0.302856
Si Si5 0.882957 0.777897 0.803418
Si Si6 0.376660 0.464592 0.469747
O O1 0.543664 0.263439 0.585450
O O2 0.704663 0.368571 0.548382
O O3 0.788401 0.902439 0.835194
O O4 0.500000 0.000000 0.000000
O O5 0.563811 0.293445 0.331142
O O6 0.443602 0.671002 0.167549
O O7 0.742707 0.714186 0.870120
O O8 0.467717 0.787457 0.872907
O O9 0.752717 0.832947 0.397191
O O10 0.500000 0.000000 0.500000
O O11 0.768662 0.710130 0.327606
O O12 0.000000 0.500000 0.500000
O O13 0.000000 0.000000 0.000000
O O14 0.000000 0.000000 0.500000
O O15 0.000000 0.500000 0.000000
#
# Coordination Sequence:
#
# PCOD8024127 Si02
#       6
#     2   2   2   2   2   2
#     4  11  23  42  73  97 133 179 237 269 314 423
#     4  11  22  44  71  91 129 182 219 266 324 404
#     4  11  24  45  70  93 125 177 233 262 318 404
#     4  11  24  43  66  99 137 171 214 285 342 380
#     4  12  25  43  62 101 141 171 211 276 352 382
#     4  10  23  42  71 101 129 183 233 268 330 404
#
# _framework density 21.020789000000001
#
# number of rings (size 3 to 8) (size 9 to 14) (size 15 to 20)
#    0.000    1.000    1.667    6.500    4.667    0.000 
#    9.000    0.000    0.000    0.000    0.000    0.000 
#    0.000    0.000    0.000    0.000    0.000    0.000 
#
# Total GULP energy -148786.908574 kJ/mol
# GULP energy per Si atom -12398.909048 kJ/mol
# Density = 2.097294 g / cm^3
# Si number density = 21.020789 Si / 1000 Ang^3
#
#
#
# Elastic Constant Matrix: (Units=GPa)
#
#
# Indices 1 2 3 4 5 6 
#
# 1 127.0028 67.2152 58.8758 7.6967 -7.1449 4.6635
# 2 67.2152 184.6233 61.1278 -4.3644 1.9734 3.4885
# 3 58.8758 61.1278 157.5555 6.2211 -6.5138 -4.8138
# 4 7.6967 -4.3644 6.2211 39.2337 -6.5396 1.5411
# 5 -7.1449 1.9734 -6.5138 -6.5396 52.3176 4.8659
# 6 4.6635 3.4885 -4.8138 1.5411 4.8659 31.6780
#
#
#
# Elastic Compliance Matrix: (Units=1/GPa)
#
#
# Indices 1 2 3 4 5 6 
#
# 1 0.011096 -0.003109 -0.002875 -0.001791 0.001221 -0.001828
# 2 -0.003109 0.007177 -0.001730 0.001595 -0.000658 -0.000572
# 3 -0.002875 -0.001730 0.008203 -0.000934 0.000406 0.001843
# 4 -0.001791 0.001595 -0.000934 0.026753 0.003093 -0.001831
# 5 0.001221 -0.000658 0.000406 0.003093 0.020047 -0.003275
# 6 -0.001828 -0.000572 0.001843 -0.001831 -0.003275 0.032772
#
#
# Mechanical properties :
#
#
# Convention : Reuss Voigt Hill
#
# Bulk Modulus (GPa) = 90.51967 93.73547 92.12757
# Shear Modulus (GPa) = 39.94928 43.44338 41.69633
#
# Velocity S-wave (km/s) = 4.36416 4.55101 4.45857
# Velocity P-wave (km/s) = 8.27949 8.50319 8.39209
#
# Compressibility (1/GPa) = 0.01104732
#
# Stress axis : x y z
#
# Youngs Moduli (GPa) = 90.12004 139.33974 121.91194
#
# Poissons Ratio (x) = 0.43317 0.35050
# Poissons Ratio (y) = 0.28016 0.21095
# Poissons Ratio (z) = 0.25910 0.24111
#
# Static dielectric constant tensor:
#      x y z
#    x 3.986800 -0.010530 -0.046230 
#    y -0.010530 3.619840 -0.018290 
#    z -0.046230 -0.018290 3.947110 
# 
# 
# High freq. dielectric constant tensor:
#      x y z
#    x 1.816500 0.005680 -0.008740 
#    y 0.005680 1.821190 -0.011690 
#    z -0.008740 -0.011690 1.844460 
# 
# From -- ./inp_files/23031.got.cif
#   From: 2010.06.25/outbox.cif.g09.slc.cpg/sg2_12_cif.got.tgz:23031.got - 2010.06.27 13:26:56.
