data_PCOD8024536
_publ_section_title
;
Structure prediction by ZEFSAII (Michael W. Deem and Ramdas Pophale) SiO2 
 PCOD8024536
Probable space group: P -1
;
_chemical_formula_sum "Si O2"
_cell_formula_units_Z 14
_cell_length_a 25.722910
_cell_length_b 31.021329
_cell_length_c 14.946969
_cell_angle_alpha 159.449570
_cell_angle_beta 20.352758
_cell_angle_gamma 170.766879
_cell_volume 652.670033
_symmetry_space_group_name_H-M "P -1"
_symmetry_group_IT_number 2
_symmetry_cell_setting 'triclinic'
loop_
_space_group_symop_operation_xyz
x,y,z
-x,-y,-z
loop_
_atom_site_type_symbol
_atom_site_label
_atom_site_fract_x
_atom_site_fract_y
_atom_site_fract_z
Si Si1 0.731086 0.573939 0.011676
Si Si2 0.357223 0.446246 0.217917
Si Si3 0.367296 0.419263 0.459468
Si Si4 0.382718 0.818904 0.010934
Si Si5 0.630541 0.917857 0.430333
Si Si6 0.282966 0.102770 0.232744
Si Si7 0.371322 0.109862 0.408365
O O1 0.589253 0.568803 0.161172
O O2 0.570897 0.478524 0.181590
O O3 0.661750 0.383256 0.722088
O O4 0.130308 0.891383 0.997248
O O5 0.362526 0.596364 0.489341
O O6 0.500000 0.500000 0.000000
O O7 0.980636 0.128069 0.231999
O O8 0.500000 0.500000 0.500000
O O9 0.394814 0.585770 0.716299
O O10 0.987745 0.100450 0.445673
O O11 0.602044 0.880047 0.829259
O O12 0.537451 0.942723 0.900939
O O13 0.000000 0.500000 0.000000
O O14 0.426780 0.981973 0.306707
O O15 0.617666 0.900072 0.523418
O O16 0.000000 0.000000 0.500000
#
# Coordination Sequence:
#
# PCOD8024536 Si02
#       7
#     2   2   2   2   2   2   2
#     4  11  22  42  66 100 141 177 233 288 336 415
#     4  12  22  40  68 102 142 174 230 288 342 400
#     4  11  21  39  68 100 133 177 233 285 342 401
#     4  12  25  45  69  99 142 186 230 285 347 411
#     4  12  25  41  66 102 138 183 231 282 348 412
#     4  10  23  43  68  96 136 181 230 284 337 406
#     4  12  22  41  68  98 138 183 230 285 339 409
#
# _framework density 21.450348999999999
#
# number of rings (size 3 to 8) (size 9 to 14) (size 15 to 20)
#    0.000    0.571    4.286    6.857    0.000    0.571 
#    0.000    0.000    0.000    5.143    0.000    0.000 
#    0.000    0.000    0.000    0.000    0.000    0.000 
#
# Total GULP energy -173506.280669 kJ/mol
# GULP energy per Si atom -12393.305762 kJ/mol
# Density = 2.140153 g / cm^3
# Si number density = 21.450349 Si / 1000 Ang^3
#
#
#
# Elastic Constant Matrix: (Units=GPa)
#
#
# Indices 1 2 3 4 5 6 
#
# 1 140.3901 24.2346 45.6361 -5.3218 11.0833 4.5404
# 2 24.2346 72.3738 37.1783 17.1216 -2.0394 8.8829
# 3 45.6361 37.1783 113.4667 15.7112 7.5156 2.4404
# 4 -5.3218 17.1216 15.7112 32.2074 -1.2544 0.7019
# 5 11.0833 -2.0394 7.5156 -1.2544 38.0683 0.9676
# 6 4.5404 8.8829 2.4404 0.7019 0.9676 35.6351
#
#
#
# Elastic Compliance Matrix: (Units=1/GPa)
#
#
# Indices 1 2 3 4 5 6 
#
# 1 0.008912 -0.002311 -0.003278 0.004233 -0.001922 -0.000366
# 2 -0.002311 0.019373 -0.004327 -0.008387 0.002394 -0.004138
# 3 -0.003278 -0.004327 0.012252 -0.004308 -0.001858 0.000792
# 4 0.004233 -0.008387 -0.004308 0.038300 0.000403 0.001081
# 5 -0.001922 0.002394 -0.001858 0.000403 0.027361 -0.000975
# 6 -0.000366 -0.004138 0.000792 0.001081 -0.000975 0.029091
#
#
# Mechanical properties :
#
#
# Convention : Reuss Voigt Hill
#
# Bulk Modulus (GPa) = 48.29658 60.03651 54.16655
# Shear Modulus (GPa) = 30.86007 35.79426 33.32716
#
# Velocity S-wave (km/s) = 3.79710 4.08941 3.94596
# Velocity P-wave (km/s) = 6.46439 7.09556 6.78732
#
# Compressibility (1/GPa) = 0.02070540
#
# Stress axis : x y z
#
# Youngs Moduli (GPa) = 112.21398 51.61847 81.62120
#
# Poissons Ratio (x) = 0.11928 0.26755
# Poissons Ratio (y) = 0.25931 0.35314
# Poissons Ratio (z) = 0.36783 0.22333
#
# Static dielectric constant tensor:
#      x y z
#    x 4.011680 -0.070010 -0.034370 
#    y -0.070010 4.355110 0.401950 
#    z -0.034370 0.401950 3.908160 
# 
# 
# High freq. dielectric constant tensor:
#      x y z
#    x 1.849370 -0.005890 0.005440 
#    y -0.005890 1.843740 0.022470 
#    z 0.005440 0.022470 1.832110 
# 
# From -- ./inp_files/427937.got.cif
#   From: 2010.06.25/outbox.cif.g09.slc.cpg/sg2_214_cif.got.tgz:427937.got - 2010.06.27 13:26:56.
