data_PCOD8024640
_publ_section_title
;
Structure prediction by ZEFSAII (Michael W. Deem and Ramdas Pophale) SiO2 
 PCOD8024640
Probable space group: P -1
;
_chemical_formula_sum "Si O2"
_cell_formula_units_Z 16
_cell_length_a 16.111270
_cell_length_b 10.614427
_cell_length_c 8.887071
_cell_angle_alpha 62.900278
_cell_angle_beta 58.092201
_cell_angle_gamma 109.408342
_cell_volume 748.676236
_symmetry_space_group_name_H-M "P -1"
_symmetry_group_IT_number 2
_symmetry_cell_setting 'triclinic'
loop_
_space_group_symop_operation_xyz
x,y,z
-x,-y,-z
loop_
_atom_site_type_symbol
_atom_site_label
_atom_site_fract_x
_atom_site_fract_y
_atom_site_fract_z
Si Si1 0.351727 0.981988 0.033155
Si Si2 0.600312 0.973391 0.387692
Si Si3 0.049430 0.200217 0.779245
Si Si4 0.902518 0.265758 0.068611
Si Si5 0.365754 0.669683 0.243795
Si Si6 0.567980 0.433313 0.048245
Si Si7 0.929759 0.270572 0.371630
Si Si8 0.901176 0.780394 0.622746
O O1 0.335502 0.802427 0.195790
O O2 0.210850 0.908724 0.283912
O O3 0.352144 0.994551 0.847484
O O4 0.505703 0.221145 0.816104
O O5 0.500000 0.000000 0.500000
O O6 0.745190 0.168044 0.242060
O O7 0.533822 0.748077 0.625760
O O8 0.213618 0.420302 0.567673
O O9 0.039257 0.178311 0.623350
O O10 0.928291 0.180379 0.960159
O O11 0.000000 0.000000 0.000000
O O12 0.893875 0.178509 0.286630
O O13 0.035097 0.525160 0.788624
O O14 0.419845 0.676845 0.025928
O O15 0.728882 0.642598 0.856995
O O16 0.500000 0.500000 0.000000
O O17 0.075514 0.345226 0.249774
O O18 0.000000 0.000000 0.500000
#
# Coordination Sequence:
#
# PCOD8024640 Si02
#       8
#     2   2   2   2   2   2   2   2
#     4  11  23  42  71 103 137 175 230 296 342 415
#     4  12  25  41  69 100 134 179 233 281 340 415
#     4  11  24  43  68  99 139 181 229 286 344 422
#     4  11  25  41  69 101 134 179 231 285 356 407
#     4  10  23  43  69  99 138 181 227 285 353 407
#     4  11  26  47  70  99 146 186 225 283 351 423
#     4  11  24  43  68 101 138 175 228 296 344 411
#     4  11  26  45  70 100 137 185 232 286 344 417
#
# _framework density 21.371054000000001
#
# number of rings (size 3 to 8) (size 9 to 14) (size 15 to 20)
#    0.000    1.000    2.500    3.000   10.500    3.000 
#    0.000    0.625    0.000    0.000    0.000    0.000 
#    0.000    0.000    0.000    0.000    0.000    0.000 
#
# Total GULP energy -198398.731010 kJ/mol
# GULP energy per Si atom -12399.920688 kJ/mol
# Density = 2.132241 g / cm^3
# Si number density = 21.371054 Si / 1000 Ang^3
#
#
#
# Elastic Constant Matrix: (Units=GPa)
#
#
# Indices 1 2 3 4 5 6 
#
# 1 129.8301 34.6106 61.7301 -2.9620 -9.7116 19.1163
# 2 34.6106 110.2263 51.2708 -2.9860 -7.0530 17.3824
# 3 61.7301 51.2708 128.0620 3.0051 0.0562 12.9006
# 4 -2.9620 -2.9860 3.0051 39.9401 2.0894 0.1729
# 5 -9.7116 -7.0530 0.0562 2.0894 38.9993 -0.8229
# 6 19.1163 17.3824 12.9006 0.1729 -0.8229 41.2824
#
#
#
# Elastic Compliance Matrix: (Units=1/GPa)
#
#
# Indices 1 2 3 4 5 6 
#
# 1 0.010746 -0.000500 -0.004676 0.000996 0.002470 -0.003259
# 2 -0.000500 0.011870 -0.004192 0.001081 0.001898 -0.003423
# 3 -0.004676 -0.004192 0.011753 -0.001448 -0.001857 0.000227
# 4 0.000996 0.001081 -0.001448 0.025352 -0.000925 -0.000589
# 5 0.002470 0.001898 -0.001857 -0.000925 0.026635 -0.000828
# 6 -0.003259 -0.003423 0.000227 -0.000589 -0.000828 0.027089
#
#
# Mechanical properties :
#
#
# Convention : Reuss Voigt Hill
#
# Bulk Modulus (GPa) = 63.97127 73.70462 68.83794
# Shear Modulus (GPa) = 36.39185 38.74482 37.56833
#
# Velocity S-wave (km/s) = 4.13105 4.26250 4.19729
# Velocity P-wave (km/s) = 7.26310 7.66734 7.46796
#
# Compressibility (1/GPa) = 0.01563202
#
# Stress axis : x y z
#
# Youngs Moduli (GPa) = 93.05415 84.24638 85.08368
#
# Poissons Ratio (x) = 0.04215 0.39785
# Poissons Ratio (y) = 0.04656 0.35671
# Poissons Ratio (z) = 0.43512 0.35320
#
# Static dielectric constant tensor:
#      x y z
#    x 3.940640 0.135790 -0.168450 
#    y 0.135790 3.928340 -0.043780 
#    z -0.168450 -0.043780 3.941880 
# 
# 
# High freq. dielectric constant tensor:
#      x y z
#    x 1.840910 0.006220 -0.006690 
#    y 0.006220 1.844680 0.001830 
#    z -0.006690 0.001830 1.843120 
# 
# From -- ./inp_files/306737.got.cif
#   From: 2010.06.25/outbox.cif.g09.slc.cpg/sg2_154_cif.got.tgz:306737.got - 2010.06.27 13:26:56.
