data_PCOD8024906
_publ_section_title
;
Structure prediction by ZEFSAII (Michael W. Deem and Ramdas Pophale) SiO2 
 PCOD8024906
Probable space group: P -1
;
_chemical_formula_sum "Si O2"
_cell_formula_units_Z 14
_cell_length_a 9.457495
_cell_length_b 12.823033
_cell_length_c 8.892037
_cell_angle_alpha 56.130051
_cell_angle_beta 129.656161
_cell_angle_gamma 116.452013
_cell_volume 682.506206
_symmetry_space_group_name_H-M "P -1"
_symmetry_group_IT_number 2
_symmetry_cell_setting 'triclinic'
loop_
_space_group_symop_operation_xyz
x,y,z
-x,-y,-z
loop_
_atom_site_type_symbol
_atom_site_label
_atom_site_fract_x
_atom_site_fract_y
_atom_site_fract_z
Si Si1 0.411670 0.277460 0.396306
Si Si2 0.663391 0.981297 0.010335
Si Si3 0.126089 0.128545 0.520430
Si Si4 0.810938 0.283236 0.206028
Si Si5 0.891101 0.553946 0.017936
Si Si6 0.485187 0.872405 0.685275
Si Si7 0.754586 0.267201 0.839613
O O1 0.295899 0.155078 0.496906
O O2 0.455446 0.238162 0.288780
O O3 0.597045 0.319559 0.588128
O O4 0.290959 0.391578 0.207884
O O5 0.613592 0.900934 0.892788
O O6 0.765954 0.120784 0.923400
O O7 0.798203 0.892242 0.246788
O O8 0.500000 0.000000 0.000000
O O9 0.016696 0.249221 0.342553
O O10 0.000000 0.000000 0.500000
O O11 0.821570 0.425374 0.169617
O O12 0.717837 0.180067 0.344986
O O13 0.706146 0.276994 0.977072
O O14 0.041416 0.655805 0.124315
O O15 0.000000 0.500000 0.000000
O O16 0.500000 0.000000 0.500000
#
# Coordination Sequence:
#
# PCOD8024906 Si02
#       7
#     2   2   2   2   2   2   2
#     4  12  23  41  69  96 131 174 216 271 330 377
#     4  12  20  38  64  95 129 169 217 263 327 398
#     4  12  20  38  66  96 126 173 217 266 327 387
#     4  11  23  43  65  94 135 170 218 273 311 392
#     4  10  23  44  65  96 130 172 230 265 308 385
#     4  12  24  41  65 100 134 166 212 275 336 387
#     4  11  21  41  70  95 128 172 222 263 318 390
#
# _framework density 20.512633000000001
#
# number of rings (size 3 to 8) (size 9 to 14) (size 15 to 20)
#    0.000    0.571    8.571    0.857    0.000    2.857 
#    5.143    2.857    0.000    0.000    0.000    0.000 
#    0.000    0.000    0.000    0.000    0.000    0.000 
#
# Total GULP energy -173514.535031 kJ/mol
# GULP energy per Si atom -12393.895359 kJ/mol
# Density = 2.046595 g / cm^3
# Si number density = 20.512633 Si / 1000 Ang^3
#
#
#
# Elastic Constant Matrix: (Units=GPa)
#
#
# Indices 1 2 3 4 5 6 
#
# 1 70.4875 32.5293 46.0193 10.6762 -7.8435 -0.2016
# 2 32.5293 94.1721 60.7418 2.1742 1.9970 10.3131
# 3 46.0193 60.7418 158.4364 11.7209 13.8088 -7.1726
# 4 10.6762 2.1742 11.7209 36.0881 -0.1189 -1.6436
# 5 -7.8435 1.9970 13.8088 -0.1189 27.8607 -4.6756
# 6 -0.2016 10.3131 -7.1726 -1.6436 -4.6756 39.7931
#
#
#
# Elastic Compliance Matrix: (Units=1/GPa)
#
#
# Indices 1 2 3 4 5 6 
#
# 1 0.020974 -0.004362 -0.004813 -0.004294 0.008790 0.001225
# 2 -0.004362 0.015991 -0.005168 0.001771 -0.000662 -0.005103
# 3 -0.004813 -0.005168 0.010418 -0.001556 -0.005743 0.002454
# 4 -0.004294 0.001771 -0.001556 0.029396 -0.000371 0.000409
# 5 0.008790 -0.000662 -0.005743 -0.000371 0.041947 0.004094
# 6 0.001225 -0.005103 0.002454 0.000409 0.004094 0.027399
#
#
# Mechanical properties :
#
#
# Convention : Reuss Voigt Hill
#
# Bulk Modulus (GPa) = 53.48461 66.85298 60.16879
# Shear Modulus (GPa) = 27.61782 33.00209 30.30995
#
# Velocity S-wave (km/s) = 3.67329 4.01542 3.84816
# Velocity P-wave (km/s) = 6.64239 7.35935 7.01004
#
# Compressibility (1/GPa) = 0.01869697
#
# Stress axis : x y z
#
# Youngs Moduli (GPa) = 47.67781 62.53531 95.99145
#
# Poissons Ratio (x) = 0.27278 0.46198
# Poissons Ratio (y) = 0.20797 0.49608
# Poissons Ratio (z) = 0.22946 0.32318
#
# Static dielectric constant tensor:
#      x y z
#    x 3.964690 0.384390 0.167800 
#    y 0.384390 4.488970 -0.072170 
#    z 0.167800 -0.072170 3.585870 
# 
# 
# High freq. dielectric constant tensor:
#      x y z
#    x 1.778650 0.020050 0.002370 
#    y 0.020050 1.807710 -0.005810 
#    z 0.002370 -0.005810 1.806150 
# 
# From -- ./inp_files/185510.got.cif
#   From: 2010.06.25/outbox.cif.g09.slc.cpg/sg2_93_cif.got.tgz:185510.got - 2010.06.27 13:26:56.
