data_PCOD8024372
_publ_section_title
;
Structure prediction by ZEFSAII (Michael W. Deem and Ramdas Pophale) SiO2 
 PCOD8024372
Probable space group: P -1
;
_chemical_formula_sum "Si O2"
_cell_formula_units_Z 14
_cell_length_a 8.808147
_cell_length_b 20.085563
_cell_length_c 6.644475
_cell_angle_alpha 68.976464
_cell_angle_beta 92.800135
_cell_angle_gamma 142.351758
_cell_volume 610.540029
_symmetry_space_group_name_H-M "P -1"
_symmetry_group_IT_number 2
_symmetry_cell_setting 'triclinic'
loop_
_space_group_symop_operation_xyz
x,y,z
-x,-y,-z
loop_
_atom_site_type_symbol
_atom_site_label
_atom_site_fract_x
_atom_site_fract_y
_atom_site_fract_z
Si Si1 0.732323 0.030904 0.226644
Si Si2 0.115562 0.614321 0.267156
Si Si3 0.819247 0.772525 0.285670
Si Si4 0.081916 0.645982 0.793706
Si Si5 0.332347 0.500835 0.410747
Si Si6 0.161149 0.835595 0.539832
Si Si7 0.433171 0.189003 0.638420
O O1 0.848619 0.103173 0.369554
O O2 0.426442 0.944556 0.291125
O O3 0.725347 0.942635 0.301258
O O4 0.931391 0.133935 0.953647
O O5 0.426631 0.758170 0.186648
O O6 0.000000 0.500000 0.500000
O O7 0.923378 0.603099 0.343102
O O8 0.072658 0.592595 0.048168
O O9 0.530104 0.646293 0.294879
O O10 0.791753 0.835942 0.338959
O O11 0.891808 0.738932 0.488942
O O12 0.785471 0.537183 0.782976
O O13 0.167261 0.760755 0.729702
O O14 0.309229 0.696173 0.616159
O O15 0.500000 0.500000 0.500000
#
# Coordination Sequence:
#
# PCOD8024372 Si02
#       7
#     2   2   2   2   2   2   2
#     4  10  24  42  66  94 136 177 222 273 329 389
#     4  11  24  46  67  97 133 176 220 269 335 397
#     4  12  23  42  68  98 137 172 223 275 326 393
#     4  10  24  43  71  94 139 174 216 277 332 392
#     4  11  24  42  65 104 134 169 223 269 333 398
#     4  10  23  43  66 102 126 176 224 270 337 395
#     4  10  24  44  64 101 130 177 225 271 329 395
#
# _framework density 22.930520999999999
#
# number of rings (size 3 to 8) (size 9 to 14) (size 15 to 20)
#    0.000    1.429    2.857    0.857    2.000    9.143 
#    0.000    0.000    0.000    0.000    0.000    0.000 
#    0.000    0.000    0.000    0.000    0.000    0.000 
#
# Total GULP energy -173452.287587 kJ/mol
# GULP energy per Si atom -12389.449113 kJ/mol
# Density = 2.287833 g / cm^3
# Si number density = 22.930521 Si / 1000 Ang^3
#
#
#
# Elastic Constant Matrix: (Units=GPa)
#
#
# Indices 1 2 3 4 5 6 
#
# 1 97.3608 16.0855 48.6597 13.8158 -12.1716 -3.8806
# 2 16.0855 107.5444 40.0759 11.9894 2.6924 -5.0946
# 3 48.6597 40.0759 109.9758 17.2076 7.7182 6.1053
# 4 13.8158 11.9894 17.2076 31.1374 2.8358 1.4576
# 5 -12.1716 2.6924 7.7182 2.8358 24.4180 6.6971
# 6 -3.8806 -5.0946 6.1053 1.4576 6.6971 38.5709
#
#
#
# Elastic Compliance Matrix: (Units=1/GPa)
#
#
# Indices 1 2 3 4 5 6 
#
# 1 0.015755 0.000644 -0.007340 -0.004173 0.010256 0.001209
# 2 0.000644 0.011098 -0.004080 -0.002414 0.000048 0.002259
# 3 -0.007340 -0.004080 0.014858 -0.002641 -0.006962 -0.002321
# 4 -0.004173 -0.002414 -0.002641 0.036854 -0.005029 -0.000840
# 5 0.010256 0.000048 -0.006962 -0.005029 0.050616 -0.006458
# 6 0.001209 0.002259 -0.002321 -0.000840 -0.006458 0.027867
#
#
# Mechanical properties :
#
#
# Convention : Reuss Voigt Hill
#
# Bulk Modulus (GPa) = 49.60403 58.28035 53.94219
# Shear Modulus (GPa) = 26.98056 32.82925 29.90491
#
# Velocity S-wave (km/s) = 3.43391 3.78786 3.61522
# Velocity P-wave (km/s) = 6.11569 6.67846 6.40326
#
# Compressibility (1/GPa) = 0.02015965
#
# Stress axis : x y z
#
# Youngs Moduli (GPa) = 63.47002 90.11002 67.30421
#
# Poissons Ratio (x) = -0.05806 0.49400
# Poissons Ratio (y) = -0.04090 0.27461
# Poissons Ratio (z) = 0.46586 0.36766
#
# Static dielectric constant tensor:
#      x y z
#    x 4.264610 -0.008330 -0.286010 
#    y -0.008330 4.409050 -0.027600 
#    z -0.286010 -0.027600 3.999750 
# 
# 
# High freq. dielectric constant tensor:
#      x y z
#    x 1.918160 -0.004450 -0.013350 
#    y -0.004450 1.917370 0.004250 
#    z -0.013350 0.004250 1.875460 
# 
# From -- ./inp_files/37502.got.cif
#   From: 2010.06.25/outbox.cif.g09.slc.cpg/sg2_19_cif.got.tgz:37502.got - 2010.06.27 13:26:56.
