data_PCOD8024483
_publ_section_title
;
Structure prediction by ZEFSAII (Michael W. Deem and Ramdas Pophale) SiO2 
 PCOD8024483
Probable space group: P -1
;
_chemical_formula_sum "Si O2"
_cell_formula_units_Z 16
_cell_length_a 19.161517
_cell_length_b 11.795003
_cell_length_c 14.528149
_cell_angle_alpha 150.111648
_cell_angle_beta 29.354149
_cell_angle_gamma 149.871331
_cell_volume 717.442260
_symmetry_space_group_name_H-M "P -1"
_symmetry_group_IT_number 2
_symmetry_cell_setting 'triclinic'
loop_
_space_group_symop_operation_xyz
x,y,z
-x,-y,-z
loop_
_atom_site_type_symbol
_atom_site_label
_atom_site_fract_x
_atom_site_fract_y
_atom_site_fract_z
Si Si1 0.853802 0.230706 0.955602
Si Si2 0.595468 0.573033 0.347784
Si Si3 0.194131 0.682058 0.126820
Si Si4 0.684709 0.270908 0.623905
Si Si5 0.846022 0.827533 0.819156
Si Si6 0.387881 0.769304 0.631507
Si Si7 0.181432 0.879220 0.470334
Si Si8 0.148280 0.763291 0.766144
O O1 0.837690 0.185424 0.833002
O O2 0.875256 0.000764 0.816665
O O3 0.693365 0.233477 0.179179
O O4 0.000000 0.500000 0.000000
O O5 0.500000 0.500000 0.500000
O O6 0.487644 0.608573 0.415820
O O7 0.751648 0.833710 0.369810
O O8 0.654226 0.371045 0.103196
O O9 0.236319 0.874923 0.299100
O O10 0.037544 0.425257 0.149848
O O11 0.695570 0.549372 0.785861
O O12 0.750759 0.275262 0.653730
O O13 0.790117 0.193998 0.378543
O O14 0.501692 0.062541 0.679697
O O15 0.991935 0.756617 0.610392
O O16 0.824274 0.968493 0.032899
O O17 0.251961 0.651943 0.626927
#
# Coordination Sequence:
#
# PCOD8024483 Si02
#       8
#     2   2   2   2   2   2   2   2
#     4  11  21  42  70 100 136 175 227 273 331 412
#     4  11  23  44  69  96 140 178 214 279 344 390
#     4  12  23  43  73 101 134 176 229 271 337 406
#     4  11  25  45  64  99 142 171 233 276 335 400
#     4  11  23  41  69  99 133 180 219 282 337 389
#     4  10  23  43  68 100 139 173 219 289 332 399
#     4  11  25  43  67 101 135 177 227 281 326 404
#     4  11  23  42  72  97 131 180 225 276 333 401
#
# _framework density 22.301448000000001
#
# number of rings (size 3 to 8) (size 9 to 14) (size 15 to 20)
#    0.000    1.000    6.250    0.750    0.000    5.500 
#    2.250    2.500    0.000    0.000    0.000    0.000 
#    0.000    0.000    0.000    0.000    0.000    0.000 
#
# Total GULP energy -198422.591242 kJ/mol
# GULP energy per Si atom -12401.411953 kJ/mol
# Density = 2.225069 g / cm^3
# Si number density = 22.301448 Si / 1000 Ang^3
#
#
#
# Elastic Constant Matrix: (Units=GPa)
#
#
# Indices 1 2 3 4 5 6 
#
# 1 101.8598 -0.4380 27.9427 -3.1299 3.9753 -12.3802
# 2 -0.4380 82.7492 13.0139 -8.1313 -7.4016 -18.7856
# 3 27.9427 13.0139 91.7092 -4.7196 11.6966 0.9488
# 4 -3.1299 -8.1313 -4.7196 37.9019 -5.8462 -6.2969
# 5 3.9753 -7.4016 11.6966 -5.8462 40.9955 -13.4877
# 6 -12.3802 -18.7856 0.9488 -6.2969 -13.4877 23.6230
#
#
#
# Elastic Compliance Matrix: (Units=1/GPa)
#
#
# Indices 1 2 3 4 5 6 
#
# 1 0.013929 0.007262 -0.006350 0.006803 0.009511 0.020574
# 2 0.007262 0.026806 -0.008565 0.015934 0.022936 0.042810
# 3 -0.006350 -0.008565 0.015570 -0.005588 -0.012561 -0.019426
# 4 0.006803 0.015934 -0.005588 0.039808 0.022650 0.040004
# 5 0.009511 0.022936 -0.012561 0.022650 0.054446 0.060852
# 6 0.020574 0.042810 -0.019426 0.040004 0.060852 0.133345
#
#
# Mechanical properties :
#
#
# Convention : Reuss Voigt Hill
#
# Bulk Modulus (GPa) = 24.39075 39.70618 32.04847
# Shear Modulus (GPa) = 15.98077 36.22403 26.10240
#
# Velocity S-wave (km/s) = 2.67981 4.03462 3.42487
# Velocity P-wave (km/s) = 4.53164 6.28866 5.48101
#
# Compressibility (1/GPa) = 0.04099915
#
# Stress axis : x y z
#
# Youngs Moduli (GPa) = 71.79172 37.30510 64.22713
#
# Poissons Ratio (x) = -0.27093 0.40787
# Poissons Ratio (y) = -0.52138 0.55009
# Poissons Ratio (z) = 0.45591 0.31951
#
# Static dielectric constant tensor:
#      x y z
#    x 4.048310 -0.051200 0.032310 
#    y -0.051200 4.138460 -0.138240 
#    z 0.032310 -0.138240 3.929640 
# 
# 
# High freq. dielectric constant tensor:
#      x y z
#    x 1.878280 -0.001540 -0.002490 
#    y -0.001540 1.882930 -0.016450 
#    z -0.002490 -0.016450 1.868610 
# 
# From -- ./inp_files/541006.got.cif
#   From: 2010.06.25/outbox.cif.g09.slc.cpg/sg2_271_cif.got.tgz:541006.got - 2010.06.27 13:26:56.
