data_PCOD8024553
_publ_section_title
;
Structure prediction by ZEFSAII (Michael W. Deem and Ramdas Pophale) SiO2 
 PCOD8024553
Probable space group: P -1
;
_chemical_formula_sum "Si O2"
_cell_formula_units_Z 16
_cell_length_a 25.479846
_cell_length_b 8.366951
_cell_length_c 25.602568
_cell_angle_alpha 44.771109
_cell_angle_beta 11.439893
_cell_angle_gamma 44.868817
_cell_volume 759.171932
_symmetry_space_group_name_H-M "P -1"
_symmetry_group_IT_number 2
_symmetry_cell_setting 'triclinic'
loop_
_space_group_symop_operation_xyz
x,y,z
-x,-y,-z
loop_
_atom_site_type_symbol
_atom_site_label
_atom_site_fract_x
_atom_site_fract_y
_atom_site_fract_z
Si Si1 0.067104 0.269839 0.520037
Si Si2 0.401563 0.021840 0.953916
Si Si3 0.846314 0.683223 0.353254
Si Si4 0.521928 0.228408 0.894553
Si Si5 0.006368 0.486919 0.636481
Si Si6 0.693959 0.582081 0.219119
Si Si7 0.664497 0.532848 0.139812
Si Si8 0.200586 0.790339 0.710033
O O1 0.041400 0.300632 0.600006
O O2 0.000000 0.500000 0.500000
O O3 0.864155 0.087926 0.743821
O O4 0.366907 0.176408 0.236244
O O5 0.479436 0.189445 0.884339
O O6 0.350274 0.191650 0.915596
O O7 0.911464 0.629987 0.362229
O O8 0.589169 0.566769 0.614192
O O9 0.794753 0.953037 0.334534
O O10 0.080813 0.588461 0.108897
O O11 0.812392 0.310237 0.601092
O O12 0.301437 0.420172 0.085673
O O13 0.500000 0.000000 0.000000
O O14 0.684166 0.483244 0.193475
O O15 0.420324 0.728210 0.466028
O O16 0.745150 0.362167 0.256443
O O17 0.921032 0.752207 0.965224
#
# Coordination Sequence:
#
# PCOD8024553 Si02
#       8
#     2   2   2   2   2   2   2   2
#     4  12  26  43  64  92 124 163 215 267 321 375
#     4  12  24  42  63  93 125 164 210 263 313 379
#     4  12  24  42  63  96 131 169 209 261 311 376
#     4  12  23  43  67  87 124 168 208 259 320 374
#     4  12  24  42  61  95 125 162 213 263 312 380
#     4  10  23  43  68  99 129 169 211 255 308 376
#     4  12  25  42  65  96 131 168 213 255 315 376
#     4  10  23  43  69  98 131 167 211 255 312 368
#
# _framework density 21.075595
#
# number of rings (size 3 to 8) (size 9 to 14) (size 15 to 20)
#    0.000    0.500    2.500    6.000    3.500    1.000 
#    0.000    0.000    0.000    0.000    0.000    0.000 
#    0.000    0.000    0.000    0.000    0.000    0.000 
#
# Total GULP energy -198523.045000 kJ/mol
# GULP energy per Si atom -12407.690312 kJ/mol
# Density = 2.102763 g / cm^3
# Si number density = 21.075595 Si / 1000 Ang^3
#
#
#
# Elastic Constant Matrix: (Units=GPa)
#
#
# Indices 1 2 3 4 5 6 
#
# 1 94.9209 14.2337 34.6225 2.2972 12.4163 2.0813
# 2 14.2337 112.2528 39.3894 -6.6947 3.9665 -2.4097
# 3 34.6225 39.3894 116.4200 2.7990 17.3346 -0.3292
# 4 2.2972 -6.6947 2.7990 25.9604 7.9492 -1.1229
# 5 12.4163 3.9665 17.3346 7.9492 22.9426 3.1443
# 6 2.0813 -2.4097 -0.3292 -1.1229 3.1443 25.5594
#
#
#
# Elastic Compliance Matrix: (Units=1/GPa)
#
#
# Indices 1 2 3 4 5 6 
#
# 1 0.012218 -0.000371 -0.002852 0.000485 -0.004494 -0.000492
# 2 -0.000371 0.010388 -0.003438 0.003213 -0.000266 0.001139
# 3 -0.002852 -0.003438 0.011618 0.000251 -0.006852 0.000912
# 4 0.000485 0.003213 0.000251 0.044699 -0.017089 0.004333
# 5 -0.004494 -0.000266 -0.006852 -0.017089 0.058213 -0.007660
# 6 -0.000492 0.001139 0.000912 0.004333 -0.007660 0.040416
#
#
# Mechanical properties :
#
#
# Convention : Reuss Voigt Hill
#
# Bulk Modulus (GPa) = 47.84668 55.56499 51.70583
# Shear Modulus (GPa) = 25.27280 30.58237 27.92759
#
# Velocity S-wave (km/s) = 3.46663 3.81344 3.64416
# Velocity P-wave (km/s) = 6.22696 6.76843 6.50333
#
# Compressibility (1/GPa) = 0.02090009
#
# Stress axis : x y z
#
# Youngs Moduli (GPa) = 81.84742 96.26860 86.07461
#
# Poissons Ratio (x) = 0.03575 0.24547
# Poissons Ratio (y) = 0.03040 0.29596
# Poissons Ratio (z) = 0.23341 0.33101
#
# Static dielectric constant tensor:
#      x y z
#    x 3.810840 -0.043210 0.009140 
#    y -0.043210 3.798870 0.032700 
#    z 0.009140 0.032700 4.106030 
# 
# 
# High freq. dielectric constant tensor:
#      x y z
#    x 1.834280 0.000400 0.002000 
#    y 0.000400 1.829710 0.000540 
#    z 0.002000 0.000540 1.847710 
# 
# From -- ./inp_files/48089.got.cif
#   From: 2010.06.25/outbox.cif.g09.slc.cpg/sg2_25_cif.got.tgz:48089.got - 2010.06.27 13:26:56.
