data_PCOD8024482
_publ_section_title
;
Structure prediction by ZEFSAII (Michael W. Deem and Ramdas Pophale) SiO2 
 PCOD8024482
Probable space group: P -1
;
_chemical_formula_sum "Si O2"
_cell_formula_units_Z 12
_cell_length_a 6.944588
_cell_length_b 12.146461
_cell_length_c 10.588651
_cell_angle_alpha 60.851741
_cell_angle_beta 106.869368
_cell_angle_gamma 58.626853
_cell_volume 455.736059
_symmetry_space_group_name_H-M "P -1"
_symmetry_group_IT_number 2
_symmetry_cell_setting 'triclinic'
loop_
_space_group_symop_operation_xyz
x,y,z
-x,-y,-z
loop_
_atom_site_type_symbol
_atom_site_label
_atom_site_fract_x
_atom_site_fract_y
_atom_site_fract_z
Si Si1 0.355209 0.717870 0.709433
Si Si2 0.397207 0.933597 0.434196
Si Si3 0.950567 0.372823 0.403067
Si Si4 0.562772 0.207064 0.058465
Si Si5 0.021969 0.277328 0.984583
Si Si6 0.875103 0.840470 0.196883
O O1 0.250254 0.896824 0.515731
O O2 0.099217 0.735726 0.616527
O O3 0.332513 0.746938 0.839425
O O4 0.725615 0.499754 0.865203
O O5 0.722100 0.724593 0.537168
O O6 0.500000 0.000000 0.500000
O O7 0.112972 0.111728 0.180329
O O8 0.988284 0.330835 0.583242
O O9 0.639684 0.618435 0.185622
O O10 0.878208 0.979860 0.180843
O O11 0.338092 0.211175 0.078589
O O12 0.913148 0.278717 0.824606
O O13 0.500000 0.000000 0.000000
#
# Coordination Sequence:
#
# PCOD8024482 Si02
#       6
#     2   2   2   2   2   2
#     4  12  26  43  69 107 134 171 230 281 328 401
#     4  12  23  43  70  96 137 179 219 275 338 393
#     4  12  25  42  72 101 133 180 225 275 339 394
#     4  11  22  43  70  97 139 175 223 277 334 396
#     4  11  23  44  69  98 137 180 223 274 338 397
#     4  10  23  43  68 100 133 181 226 269 337 404
#
# _framework density 26.331029999999998
#
# number of rings (size 3 to 8) (size 9 to 14) (size 15 to 20)
#    0.000    0.667    6.667    2.000    0.000    8.667 
#    0.000    1.667    0.000    0.000    0.000    0.000 
#    0.000    0.000    0.000    0.000    0.000    0.000 
#
# Total GULP energy -148877.103171 kJ/mol
# GULP energy per Si atom -12406.425264 kJ/mol
# Density = 2.627110 g / cm^3
# Si number density = 26.331030 Si / 1000 Ang^3
#
#
#
# Elastic Constant Matrix: (Units=GPa)
#
#
# Indices 1 2 3 4 5 6 
#
# 1 81.2623 0.9778 14.9207 5.4280 -24.4076 2.3271
# 2 0.9778 100.4658 14.6491 13.7817 -6.1400 -8.3215
# 3 14.9207 14.6491 155.8054 11.1426 -43.2666 -15.9258
# 4 5.4280 13.7817 11.1426 47.7046 0.6711 -6.3901
# 5 -24.4076 -6.1400 -43.2666 0.6711 44.9621 0.3230
# 6 2.3271 -8.3215 -15.9258 -6.3901 0.3230 25.3130
#
#
#
# Elastic Compliance Matrix: (Units=1/GPa)
#
#
# Indices 1 2 3 4 5 6 
#
# 1 0.015121 0.000491 0.001181 -0.002435 0.009458 -0.001221
# 2 0.000491 0.010668 -0.000130 -0.002774 0.001621 0.002659
# 3 0.001181 -0.000130 0.009785 -0.001797 0.010027 0.005423
# 4 -0.002435 -0.002774 -0.001797 0.023057 -0.003803 0.004050
# 5 0.009458 0.001621 0.010027 -0.003803 0.037270 0.004536
# 6 -0.001221 0.002659 0.005423 0.004050 0.004536 0.044868
#
#
# Mechanical properties :
#
#
# Convention : Reuss Voigt Hill
#
# Bulk Modulus (GPa) = 25.86652 44.29211 35.07931
# Shear Modulus (GPa) = 33.20747 44.06167 38.63457
#
# Velocity S-wave (km/s) = 3.55512 4.09513 3.83464
# Velocity P-wave (km/s) = 5.16689 6.26242 5.74085
#
# Compressibility (1/GPa) = 0.03866002
#
# Stress axis : x y z
#
# Youngs Moduli (GPa) = 66.13206 93.74155 102.20048
#
# Poissons Ratio (x) = -0.04607 -0.12074
# Poissons Ratio (y) = -0.03250 0.01326
# Poissons Ratio (z) = -0.07813 0.01216
#
# Static dielectric constant tensor:
#      x y z
#    x 4.771150 -0.086310 -0.196380 
#    y -0.086310 5.551030 0.175260 
#    z -0.196380 0.175260 4.931660 
# 
# 
# High freq. dielectric constant tensor:
#      x y z
#    x 2.051290 -0.005430 -0.008890 
#    y -0.005430 2.059920 -0.002230 
#    z -0.008890 -0.002230 2.071550 
# 
# From -- ./inp_files/389794.got.cif
#   From: 2010.06.25/outbox.cif.g09.slc.cpg/sg2_195_cif.got.tgz:389794.got - 2010.06.27 13:26:56.
