data_PCOD8024404
_publ_section_title
;
Structure prediction by ZEFSAII (Michael W. Deem and Ramdas Pophale) SiO2 
 PCOD8024404
Probable space group: P -1
;
_chemical_formula_sum "Si O2"
_cell_formula_units_Z 16
_cell_length_a 9.317890
_cell_length_b 15.294050
_cell_length_c 15.396575
_cell_angle_alpha 135.977864
_cell_angle_beta 134.863327
_cell_angle_gamma 29.186554
_cell_volume 723.791305
_symmetry_space_group_name_H-M "P -1"
_symmetry_group_IT_number 2
_symmetry_cell_setting 'triclinic'
loop_
_space_group_symop_operation_xyz
x,y,z
-x,-y,-z
loop_
_atom_site_type_symbol
_atom_site_label
_atom_site_fract_x
_atom_site_fract_y
_atom_site_fract_z
Si Si1 0.253190 0.510637 0.845330
Si Si2 0.867789 0.612901 0.436413
Si Si3 0.307982 0.962340 0.710301
Si Si4 0.154697 0.635333 0.434647
Si Si5 0.276883 0.334194 0.179268
Si Si6 0.754180 0.059675 0.523811
Si Si7 0.572258 0.115769 0.973114
Si Si8 0.278068 0.776844 0.042921
O O1 0.085079 0.528894 0.705612
O O2 0.372401 0.591413 0.924105
O O3 0.993999 0.641541 0.903700
O O4 0.533244 0.290116 0.835488
O O5 0.000000 0.500000 0.500000
O O6 0.037014 0.651474 0.491926
O O7 0.519920 0.815682 0.437504
O O8 0.405294 0.871150 0.590389
O O9 0.405301 0.062028 0.841058
O O10 0.453618 0.810790 0.740015
O O11 0.945383 0.100108 0.652601
O O12 0.500000 0.500000 0.500000
O O13 0.126899 0.540273 0.280561
O O14 0.972856 0.839241 0.469043
O O15 0.396057 0.266457 0.083373
O O16 0.581788 0.194653 0.947285
O O17 0.921878 0.944475 0.028508
#
# Coordination Sequence:
#
# PCOD8024404 Si02
#       8
#     2   2   2   2   2   2   2   2
#     4  10  23  43  66  96 140 171 225 280 339 416
#     4  11  26  44  72 102 136 183 227 284 353 404
#     4  11  24  43  71  99 137 176 234 283 345 406
#     4  11  24  45  68 104 142 176 233 282 338 415
#     4  11  23  44  68  99 136 183 218 284 344 408
#     4  11  25  46  71 100 135 187 231 286 342 415
#     4  11  25  44  70  98 136 179 229 284 344 404
#     4  10  24  44  65 100 135 177 226 281 339 409
#
# _framework density 22.105819
#
# number of rings (size 3 to 8) (size 9 to 14) (size 15 to 20)
#    0.000    1.250    2.500    2.250    7.000    2.500 
#    2.250    0.000    0.000    0.000    0.000    0.000 
#    0.000    0.000    0.000    0.000    0.000    0.000 
#
# Total GULP energy -198239.259277 kJ/mol
# GULP energy per Si atom -12389.953705 kJ/mol
# Density = 2.205551 g / cm^3
# Si number density = 22.105819 Si / 1000 Ang^3
#
#
#
# Elastic Constant Matrix: (Units=GPa)
#
#
# Indices 1 2 3 4 5 6 
#
# 1 131.4218 46.3482 49.5171 9.5405 11.7394 -20.1641
# 2 46.3482 91.1840 28.1686 -0.6165 2.0078 -6.6941
# 3 49.5171 28.1686 86.1680 -7.3459 7.5724 -11.4847
# 4 9.5405 -0.6165 -7.3459 32.3651 -1.7217 -0.4165
# 5 11.7394 2.0078 7.5724 -1.7217 27.6123 1.2975
# 6 -20.1641 -6.6941 -11.4847 -0.4165 1.2975 38.4074
#
#
#
# Elastic Compliance Matrix: (Units=1/GPa)
#
#
# Indices 1 2 3 4 5 6 
#
# 1 0.012543 -0.004371 -0.005281 -0.005141 -0.004090 0.004326
# 2 -0.004371 0.013771 -0.002101 0.001148 0.001531 -0.000562
# 3 -0.005281 -0.002101 0.016162 0.005113 -0.001801 0.001810
# 4 -0.005141 0.001148 0.005113 0.033737 0.002837 -0.000700
# 5 -0.004090 0.001531 -0.001801 0.002837 0.038688 -0.003695
# 6 0.004326 -0.000562 0.001810 -0.000700 -0.003695 0.028869
#
#
# Mechanical properties :
#
#
# Convention : Reuss Voigt Hill
#
# Bulk Modulus (GPa) = 52.71882 61.87129 57.29506
# Shear Modulus (GPa) = 28.80195 31.99296 30.39746
#
# Velocity S-wave (km/s) = 3.61350 3.80842 3.71224
# Velocity P-wave (km/s) = 6.42729 6.88391 6.65951
#
# Compressibility (1/GPa) = 0.01896856
#
# Stress axis : x y z
#
# Youngs Moduli (GPa) = 79.72663 72.61870 61.87197
#
# Poissons Ratio (x) = 0.31742 0.32675
# Poissons Ratio (y) = 0.34849 0.13002
# Poissons Ratio (z) = 0.42105 0.15260
#
# Static dielectric constant tensor:
#      x y z
#    x 4.226850 -0.115710 0.172930 
#    y -0.115710 4.120700 -0.106490 
#    z 0.172930 -0.106490 4.128300 
# 
# 
# High freq. dielectric constant tensor:
#      x y z
#    x 1.882020 -0.005250 0.010510 
#    y -0.005250 1.874790 -0.017490 
#    z 0.010510 -0.017490 1.863270 
# 
# From -- ./inp_files/505510.got.cif
#   From: 2010.06.25/outbox.cif.g09.slc.cpg/sg2_253_cif.got.tgz:505510.got - 2010.06.27 13:26:56.
