data_PCOD8024266
_publ_section_title
;
Structure prediction by ZEFSAII (Michael W. Deem and Ramdas Pophale) SiO2 
 PCOD8024266
Probable space group: P -1
;
_chemical_formula_sum "Si O2"
_cell_formula_units_Z 16
_cell_length_a 19.129884
_cell_length_b 13.357898
_cell_length_c 10.547756
_cell_angle_alpha 148.597047
_cell_angle_beta 147.521624
_cell_angle_gamma 35.022173
_cell_volume 705.454585
_symmetry_space_group_name_H-M "P -1"
_symmetry_group_IT_number 2
_symmetry_cell_setting 'triclinic'
loop_
_space_group_symop_operation_xyz
x,y,z
-x,-y,-z
loop_
_atom_site_type_symbol
_atom_site_label
_atom_site_fract_x
_atom_site_fract_y
_atom_site_fract_z
Si Si1 0.220477 0.486723 0.774476
Si Si2 0.643829 0.939362 0.583348
Si Si3 0.916569 0.400409 0.583825
Si Si4 0.164530 0.773380 0.485674
Si Si5 0.809811 0.731111 0.276028
Si Si6 0.129857 0.160276 0.970434
Si Si7 0.592791 0.591238 0.659387
Si Si8 0.339874 0.830628 0.379901
O O1 0.342323 0.272458 0.694799
O O2 0.140111 0.591213 0.637159
O O3 0.130571 0.420317 0.673852
O O4 0.283484 0.643935 0.104025
O O5 0.500000 0.000000 0.500000
O O6 0.635363 0.124516 0.678216
O O7 0.781028 0.914616 0.847747
O O8 0.876109 0.251070 0.455288
O O9 0.082550 0.323675 0.735152
O O10 0.861115 0.618356 0.809419
O O11 0.301636 0.593619 0.459941
O O12 0.035845 0.798795 0.220970
O O13 0.190271 0.991712 0.768468
O O14 0.773057 0.969813 0.512807
O O15 0.669587 0.700505 0.984889
O O16 0.500000 0.500000 0.500000
O O17 0.492107 0.766531 0.605150
#
# Coordination Sequence:
#
# PCOD8024266 Si02
#       8
#     2   2   2   2   2   2   2   2
#     4  10  23  43  63  99 135 174 220 275 332 399
#     4  10  24  40  66  99 137 179 220 275 334 395
#     4  11  23  43  70  98 133 171 222 279 335 397
#     4  11  25  42  70  99 128 178 224 273 340 388
#     4  11  24  44  66  99 132 177 224 275 335 393
#     4  10  23  43  64 100 134 166 221 278 333 390
#     4  12  26  46  68  96 140 178 225 277 328 402
#     4  11  25  42  66  98 134 179 224 268 337 396
#
# _framework density 22.680410999999999
#
# number of rings (size 3 to 8) (size 9 to 14) (size 15 to 20)
#    0.000    1.250    2.500    1.875    5.250    4.000 
#    0.000    0.000    0.000    0.000    0.000    0.000 
#    0.000    0.000    0.000    0.000    0.000    0.000 
#
# Total GULP energy -198327.009684 kJ/mol
# GULP energy per Si atom -12395.438105 kJ/mol
# Density = 2.262879 g / cm^3
# Si number density = 22.680411 Si / 1000 Ang^3
#
#
#
# Elastic Constant Matrix: (Units=GPa)
#
#
# Indices 1 2 3 4 5 6 
#
# 1 111.8537 47.9619 19.8531 -3.1787 3.4997 -12.1965
# 2 47.9619 116.8547 36.8061 -8.4210 -1.9676 10.0298
# 3 19.8531 36.8061 112.7736 9.5129 -9.0566 2.1503
# 4 -3.1787 -8.4210 9.5129 43.6771 2.2135 -9.1623
# 5 3.4997 -1.9676 -9.0566 2.2135 24.1182 -4.2810
# 6 -12.1965 10.0298 2.1503 -9.1623 -4.2810 23.6546
#
#
#
# Elastic Compliance Matrix: (Units=1/GPa)
#
#
# Indices 1 2 3 4 5 6 
#
# 1 0.012633 -0.005611 -0.000839 0.002085 -0.001097 0.009578
# 2 -0.005611 0.012570 -0.003129 0.001134 -0.000796 -0.007644
# 3 -0.000839 -0.003129 0.010654 -0.003322 0.004061 -0.000627
# 4 0.002085 0.001134 -0.003322 0.026343 -0.001968 0.010744
# 5 -0.001097 -0.000796 0.004061 -0.001968 0.044449 0.006685
# 6 0.009578 -0.007644 -0.000627 0.010744 0.006685 0.055883
#
#
# Mechanical properties :
#
#
# Convention : Reuss Voigt Hill
#
# Bulk Modulus (GPa) = 59.88033 61.19158 60.53595
# Shear Modulus (GPa) = 26.70113 34.08071 30.39092
#
# Velocity S-wave (km/s) = 3.43487 3.88061 3.66452
# Velocity P-wave (km/s) = 6.49540 6.86421 6.68235
#
# Compressibility (1/GPa) = 0.01669997
#
# Stress axis : x y z
#
# Youngs Moduli (GPa) = 79.15600 79.55145 93.85712
#
# Poissons Ratio (x) = 0.44638 0.07878
# Poissons Ratio (y) = 0.44416 0.29364
# Poissons Ratio (z) = 0.06644 0.24889
#
# Static dielectric constant tensor:
#      x y z
#    x 3.860920 0.096250 -0.128290 
#    y 0.096250 4.500130 -0.081160 
#    z -0.128290 -0.081160 4.291000 
# 
# 
# High freq. dielectric constant tensor:
#      x y z
#    x 1.879070 0.010070 -0.011050 
#    y 0.010070 1.912420 0.006790 
#    z -0.011050 0.006790 1.901210 
# 
# From -- ./inp_files/471817.got.cif
#   From: 2010.06.25/outbox.cif.g09.slc.cpg/sg2_236_cif.got.tgz:471817.got - 2010.06.27 13:26:56.
