data_PCOD8024703
_publ_section_title
;
Structure prediction by ZEFSAII (Michael W. Deem and Ramdas Pophale) SiO2 
 PCOD8024703
Probable space group: P -1
;
_chemical_formula_sum "Si O2"
_cell_formula_units_Z 14
_cell_length_a 17.816407
_cell_length_b 5.194233
_cell_length_c 22.411051
_cell_angle_alpha 87.329289
_cell_angle_beta 18.160478
_cell_angle_gamma 86.656670
_cell_volume 645.056600
_symmetry_space_group_name_H-M "P -1"
_symmetry_group_IT_number 2
_symmetry_cell_setting 'triclinic'
loop_
_space_group_symop_operation_xyz
x,y,z
-x,-y,-z
loop_
_atom_site_type_symbol
_atom_site_label
_atom_site_fract_x
_atom_site_fract_y
_atom_site_fract_z
Si Si1 0.145682 0.507677 0.950593
Si Si2 0.742016 0.449190 0.354002
Si Si3 0.354723 0.872601 0.162028
Si Si4 0.169441 0.075514 0.638907
Si Si5 0.397331 0.934397 0.923379
Si Si6 0.214553 0.370413 0.303992
Si Si7 0.445088 0.995002 0.747408
O O1 0.267338 0.780880 0.860881
O O2 0.345368 0.276430 0.800002
O O3 0.000000 0.500000 0.000000
O O4 0.974579 0.473860 0.136758
O O5 0.500000 0.500000 0.500000
O O6 0.742415 0.659438 0.403466
O O7 0.743748 0.162643 0.382448
O O8 0.268547 0.592317 0.211376
O O9 0.141524 0.097640 0.332948
O O10 0.500000 0.000000 0.000000
O O11 0.513392 0.836626 0.103447
O O12 0.291340 0.047529 0.481593
O O13 0.882315 0.095426 0.851485
O O14 0.549199 0.675090 0.832061
O O15 0.463436 0.989545 0.804832
O O16 0.000000 0.500000 0.500000
#
# Coordination Sequence:
#
# PCOD8024703 Si02
#       7
#     2   2   2   2   2   2   2
#     4  12  24  44  68  97 137 178 231 286 337 405
#     4  12  24  44  68  97 137 178 231 286 337 405
#     4  10  23  43  70  98 136 173 224 268 344 400
#     4  12  25  44  66  98 136 181 229 280 345 396
#     4  10  26  42  72  98 146 170 232 282 344 392
#     4  10  23  43  70  98 136 173 224 268 344 400
#     4  12  25  44  66  98 136 181 229 280 345 396
#
# _framework density 21.703523000000001
#
# number of rings (size 3 to 8) (size 9 to 14) (size 15 to 20)
#    0.857    0.000    2.857    4.286    4.000    1.143 
#    0.000    0.000    0.000    0.000    0.000    0.000 
#    0.000    0.000    0.000    0.000    0.000    0.000 
#
# Total GULP energy -173456.356298 kJ/mol
# GULP energy per Si atom -12389.739736 kJ/mol
# Density = 2.165412 g / cm^3
# Si number density = 21.703523 Si / 1000 Ang^3
#
#
#
# Elastic Constant Matrix: (Units=GPa)
#
#
# Indices 1 2 3 4 5 6 
#
# 1 53.0987 17.0350 16.1898 5.9745 23.8268 0.5064
# 2 17.0350 114.4122 5.3879 10.6633 -8.6714 -8.9876
# 3 16.1898 5.3879 135.3614 18.2275 16.5050 -17.6194
# 4 5.9745 10.6633 18.2275 40.4891 -4.6874 2.2587
# 5 23.8268 -8.6714 16.5050 -4.6874 36.1463 -4.5107
# 6 0.5064 -8.9876 -17.6194 2.2587 -4.5107 25.8581
#
#
#
# Elastic Compliance Matrix: (Units=1/GPa)
#
#
# Indices 1 2 3 4 5 6 
#
# 1 0.032968 -0.006843 -0.000983 -0.005038 -0.024518 -0.007530
# 2 -0.006843 0.010885 0.000411 -0.001494 0.007442 0.005626
# 3 -0.000983 0.000411 0.009402 -0.004946 -0.003388 0.006410
# 4 -0.005038 -0.001494 -0.004946 0.029308 0.008412 -0.004883
# 5 -0.024518 0.007442 -0.003388 0.008412 0.049327 0.008628
# 6 -0.007530 0.005626 0.006410 -0.004883 0.008628 0.047075
#
#
# Mechanical properties :
#
#
# Convention : Reuss Voigt Hill
#
# Bulk Modulus (GPa) = 26.02344 42.23308 34.12826
# Shear Modulus (GPa) = 24.20106 38.11602 31.15854
#
# Velocity S-wave (km/s) = 3.34290 4.19527 3.79310
# Velocity P-wave (km/s) = 5.18810 6.55502 5.91121
#
# Compressibility (1/GPa) = 0.03842690
#
# Stress axis : x y z
#
# Youngs Moduli (GPa) = 30.33228 91.86882 106.35720
#
# Poissons Ratio (x) = 0.62862 0.10455
# Poissons Ratio (y) = 0.20755 -0.04374
# Poissons Ratio (z) = 0.02982 -0.03778
#
# Static dielectric constant tensor:
#      x y z
#    x 2.615160 -3.634220 -1.086530 
#    y -3.634220 -7.482130 -4.316280 
#    z -1.086530 -4.316280 2.141830 
# 
# 
# High freq. dielectric constant tensor:
#      x y z
#    x 1.835330 0.002070 0.015650 
#    y 0.002070 1.874370 0.004310 
#    z 0.015650 0.004310 1.867990 
# 
# From -- ./inp_files/139178.got.cif
#   From: 2010.06.25/outbox.cif.g09.slc.cpg/sg2_70_cif.got.tgz:139178.got - 2010.06.27 13:26:56.
