data_PCOD8024533
_publ_section_title
;
Structure prediction by ZEFSAII (Michael W. Deem and Ramdas Pophale) SiO2 
 PCOD8024533
Probable space group: P -1
;
_chemical_formula_sum "Si O2"
_cell_formula_units_Z 12
_cell_length_a 9.189251
_cell_length_b 9.175274
_cell_length_c 10.265499
_cell_angle_alpha 70.636763
_cell_angle_beta 70.294559
_cell_angle_gamma 46.369518
_cell_volume 583.538982
_symmetry_space_group_name_H-M "P -1"
_symmetry_group_IT_number 2
_symmetry_cell_setting 'triclinic'
loop_
_space_group_symop_operation_xyz
x,y,z
-x,-y,-z
loop_
_atom_site_type_symbol
_atom_site_label
_atom_site_fract_x
_atom_site_fract_y
_atom_site_fract_z
Si Si1 0.443603 0.867347 0.908042
Si Si2 0.807387 0.032170 0.796083
Si Si3 0.251222 0.249781 0.703039
Si Si4 0.908807 0.618771 0.859105
Si Si5 0.799645 0.041273 0.281842
Si Si6 0.581065 0.275877 0.535272
O O1 0.685363 0.694855 0.882008
O O2 0.371772 0.092564 0.836388
O O3 0.349559 0.820329 0.835985
O O4 0.366092 0.866397 0.072448
O O5 0.713139 0.161416 0.656310
O O6 0.978913 0.036795 0.795570
O O7 0.910793 0.801607 0.802852
O O8 0.188808 0.153540 0.649748
O O9 0.396579 0.275103 0.578364
O O10 0.048960 0.468891 0.743735
O O11 0.000000 0.500000 0.000000
O O12 0.722242 0.168542 0.398948
O O13 0.500000 0.500000 0.500000
#
# Coordination Sequence:
#
# PCOD8024533 Si02
#       6
#     2   2   2   2   2   2
#     4  10  23  43  69  98 136 170 221 278 329 388
#     4  12  22  44  69 100 137 169 230 279 322 401
#     4  10  23  43  68  96 134 173 224 265 341 386
#     4  12  21  39  71 104 128 175 219 274 339 386
#     4  10  24  44  66  97 140 177 216 278 333 399
#     4  12  25  45  67  98 136 180 224 275 329 397
#
# _framework density 20.564177999999998
#
# number of rings (size 3 to 8) (size 9 to 14) (size 15 to 20)
#    1.000    0.000    3.333    4.000    0.000    1.333 
#    0.000    5.000    0.000    0.000    0.000    0.000 
#    0.000    0.000    0.000    0.000    0.000    0.000 
#
# Total GULP energy -148816.824176 kJ/mol
# GULP energy per Si atom -12401.402015 kJ/mol
# Density = 2.051737 g / cm^3
# Si number density = 20.564178 Si / 1000 Ang^3
#
#
#
# Elastic Constant Matrix: (Units=GPa)
#
#
# Indices 1 2 3 4 5 6 
#
# 1 114.9523 35.6554 17.6556 -7.9878 -7.8184 -6.1509
# 2 35.6554 96.0385 39.7098 -12.6007 -4.3269 -8.5836
# 3 17.6556 39.7098 78.6366 -1.1233 14.7708 2.0917
# 4 -7.9878 -12.6007 -1.1233 37.4120 -5.9752 -7.3732
# 5 -7.8184 -4.3269 14.7708 -5.9752 34.8584 1.0379
# 6 -6.1509 -8.5836 2.0917 -7.3732 1.0379 38.4523
#
#
#
# Elastic Compliance Matrix: (Units=1/GPa)
#
#
# Indices 1 2 3 4 5 6 
#
# 1 0.010156 -0.002634 -0.001502 0.001977 0.002884 0.001420
# 2 -0.002634 0.016783 -0.009116 0.006812 0.006375 0.004955
# 3 -0.001502 -0.009116 0.019680 -0.005295 -0.010594 -0.004075
# 4 0.001977 0.006812 -0.005295 0.032288 0.008827 0.008078
# 5 0.002884 0.006375 -0.010594 0.008827 0.036033 0.003181
# 6 0.001420 0.004955 -0.004075 0.008078 0.003181 0.029024
#
#
# Mechanical properties :
#
#
# Convention : Reuss Voigt Hill
#
# Bulk Modulus (GPa) = 49.70888 52.85210 51.28049
# Shear Modulus (GPa) = 28.22099 35.25164 31.73632
#
# Velocity S-wave (km/s) = 3.70853 4.14481 3.93272
# Velocity P-wave (km/s) = 6.52400 6.97587 6.75372
#
# Compressibility (1/GPa) = 0.02011713
#
# Stress axis : x y z
#
# Youngs Moduli (GPa) = 98.46169 59.58300 50.81324
#
# Poissons Ratio (x) = 0.15692 0.07630
# Poissons Ratio (y) = 0.25930 0.46321
# Poissons Ratio (z) = 0.14785 0.54316
#
# Static dielectric constant tensor:
#      x y z
#    x 3.806500 -0.019240 -0.072410 
#    y -0.019240 3.670860 0.023390 
#    z -0.072410 0.023390 3.589420 
# 
# 
# High freq. dielectric constant tensor:
#      x y z
#    x 1.816160 -0.005460 -0.005360 
#    y -0.005460 1.801150 0.007970 
#    z -0.005360 0.007970 1.803110 
# 
# From -- ./inp_files/44957.got.cif
#   From: 2010.06.25/outbox.cif.g09.slc.cpg/sg2_23_cif.got.tgz:44957.got - 2010.06.27 13:26:56.
