data_PCOD8024402
_publ_section_title
;
Structure prediction by ZEFSAII (Michael W. Deem and Ramdas Pophale) SiO2 
 PCOD8024402
Probable space group: P -1
;
_chemical_formula_sum "Si O2"
_cell_formula_units_Z 16
_cell_length_a 9.421690
_cell_length_b 20.971530
_cell_length_c 9.435690
_cell_angle_alpha 129.028039
_cell_angle_beta 105.130105
_cell_angle_gamma 117.078133
_cell_volume 787.692037
_symmetry_space_group_name_H-M "P -1"
_symmetry_group_IT_number 2
_symmetry_cell_setting 'triclinic'
loop_
_space_group_symop_operation_xyz
x,y,z
-x,-y,-z
loop_
_atom_site_type_symbol
_atom_site_label
_atom_site_fract_x
_atom_site_fract_y
_atom_site_fract_z
Si Si1 0.883906 0.535670 0.008775
Si Si2 0.150458 0.387299 0.182531
Si Si3 0.575433 0.128131 0.684118
Si Si4 0.274354 0.108657 0.787114
Si Si5 0.806367 0.054100 0.224341
Si Si6 0.379913 0.862764 0.612745
Si Si7 0.586449 0.631953 0.175262
Si Si8 0.574306 0.642490 0.859330
O O1 0.108372 0.696587 0.363814
O O2 0.809624 0.533514 0.829369
O O3 0.610285 0.403515 0.835144
O O4 0.000000 0.500000 0.000000
O O5 0.335850 0.489848 0.505774
O O6 0.178044 0.304201 0.024571
O O7 0.869929 0.271769 0.014922
O O8 0.418772 0.119098 0.725539
O O9 0.554688 0.141791 0.532022
O O10 0.500000 0.000000 0.500000
O O11 0.233028 0.046865 0.839970
O O12 0.405669 0.257135 0.058692
O O13 0.000000 0.000000 0.500000
O O14 0.680804 0.068350 0.306173
O O15 0.110841 0.211016 0.485714
O O16 0.636962 0.962945 0.911287
O O17 0.500000 0.500000 0.000000
O O18 0.528298 0.628249 0.993766
#
# Coordination Sequence:
#
# PCOD8024402 Si02
#       8
#     2   2   2   2   2   2   2   2
#     4  11  25  43  65  93 134 171 212 272 328 384
#     4  10  24  45  65  95 131 169 219 267 330 387
#     4  11  22  42  67  95 130 172 213 264 328 387
#     4  12  25  42  67  93 135 173 217 271 320 387
#     4  11  23  43  66 100 130 171 219 268 327 387
#     4  10  23  43  66  96 132 169 217 269 327 388
#     4  12  22  43  67  95 129 173 217 263 328 394
#     4  11  24  43  67  97 131 170 218 270 327 385
#
# _framework density 20.312508000000001
#
# number of rings (size 3 to 8) (size 9 to 14) (size 15 to 20)
#    0.000    1.000    5.000    1.500    5.250    2.500 
#    2.250    1.250    0.000    0.000    0.000    0.000 
#    0.000    0.000    0.000    0.000    0.000    0.000 
#
# Total GULP energy -198333.853581 kJ/mol
# GULP energy per Si atom -12395.865849 kJ/mol
# Density = 2.026628 g / cm^3
# Si number density = 20.312508 Si / 1000 Ang^3
#
#
#
# Elastic Constant Matrix: (Units=GPa)
#
#
# Indices 1 2 3 4 5 6 
#
# 1 133.3853 41.5255 29.3308 7.6036 17.0741 -1.3466
# 2 41.5255 85.4565 43.6079 14.9348 18.8884 -10.2162
# 3 29.3308 43.6079 111.9933 -4.2897 26.1544 3.7863
# 4 7.6036 14.9348 -4.2897 27.6695 -5.4969 1.8468
# 5 17.0741 18.8884 26.1544 -5.4969 33.7362 10.7968
# 6 -1.3466 -10.2162 3.7863 1.8468 10.7968 43.8681
#
#
#
# Elastic Compliance Matrix: (Units=1/GPa)
#
#
# Indices 1 2 3 4 5 6 
#
# 1 0.009052 -0.003273 -0.000542 -0.001346 -0.002634 0.000267
# 2 -0.003273 0.022867 -0.006186 -0.015376 -0.011839 0.009320
# 3 -0.000542 -0.006186 0.012877 0.004592 -0.005007 -0.001530
# 4 -0.001346 -0.015376 0.004592 0.049612 0.017117 -0.010320
# 5 -0.002634 -0.011839 -0.005007 0.017117 0.049146 -0.015222
# 6 0.000267 0.009320 -0.001530 -0.010320 -0.015222 0.029287
#
#
# Mechanical properties :
#
#
# Convention : Reuss Voigt Hill
#
# Bulk Modulus (GPa) = 40.33197 62.19595 51.26396
# Shear Modulus (GPa) = 24.86253 35.47949 30.17101
#
# Velocity S-wave (km/s) = 3.50237 4.18387 3.85819
# Velocity P-wave (km/s) = 6.02115 7.35021 6.71863
#
# Compressibility (1/GPa) = 0.02479422
#
# Stress axis : x y z
#
# Youngs Moduli (GPa) = 110.47766 43.73101 77.65916
#
# Poissons Ratio (x) = 0.14311 0.04208
# Poissons Ratio (y) = 0.36155 0.48041
# Poissons Ratio (z) = 0.05986 0.27053
#
# Static dielectric constant tensor:
#      x y z
#    x 5.142460 3.182510 0.886090 
#    y 3.182510 11.438170 1.652420 
#    z 0.886090 1.652420 4.125140 
# 
# 
# High freq. dielectric constant tensor:
#      x y z
#    x 1.803130 -0.008080 0.008700 
#    y -0.008080 1.795270 0.004450 
#    z 0.008700 0.004450 1.799450 
# 
# From -- ./inp_files/206814.got.cif
#   From: 2010.06.25/outbox.cif.g09.slc.cpg/sg2_104_cif.got.tgz:206814.got - 2010.06.27 13:26:56.
