data_PCOD8024800
_publ_section_title
;
Structure prediction by ZEFSAII (Michael W. Deem and Ramdas Pophale) SiO2 
 PCOD8024800
Probable space group: P -1
;
_chemical_formula_sum "Si O2"
_cell_formula_units_Z 16
_cell_length_a 13.367383
_cell_length_b 11.675559
_cell_length_c 12.373858
_cell_angle_alpha 100.654438
_cell_angle_beta 146.220132
_cell_angle_gamma 105.446813
_cell_volume 674.981307
_symmetry_space_group_name_H-M "P -1"
_symmetry_group_IT_number 2
_symmetry_cell_setting 'triclinic'
loop_
_space_group_symop_operation_xyz
x,y,z
-x,-y,-z
loop_
_atom_site_type_symbol
_atom_site_label
_atom_site_fract_x
_atom_site_fract_y
_atom_site_fract_z
Si Si1 0.208283 0.822237 0.655040
Si Si2 0.643943 0.662787 0.736831
Si Si3 0.738124 0.085743 0.644880
Si Si4 0.739327 0.743007 0.292724
Si Si5 0.510933 0.444448 0.176541
Si Si6 0.375282 0.086120 0.692668
Si Si7 0.822794 0.382745 0.714671
Si Si8 0.007691 0.531548 0.677154
O O1 0.120060 0.643185 0.532506
O O2 0.989417 0.775820 0.528670
O O3 0.231462 0.895716 0.572076
O O4 0.500000 0.000000 0.000000
O O5 0.500000 0.500000 0.500000
O O6 0.638349 0.624282 0.852382
O O7 0.485389 0.707152 0.582269
O O8 0.975110 0.825427 0.030148
O O9 0.788543 0.228227 0.648205
O O10 0.500000 0.000000 0.500000
O O11 0.611745 0.922041 0.425835
O O12 0.504260 0.569049 0.133387
O O13 0.831664 0.912467 0.455584
O O14 0.642778 0.715189 0.076861
O O15 0.823607 0.552998 0.491971
O O16 0.679907 0.276093 0.047952
O O17 0.009928 0.513468 0.804057
O O18 0.000000 0.500000 0.000000
#
# Coordination Sequence:
#
# PCOD8024800 Si02
#       8
#     2   2   2   2   2   2   2   2
#     4  12  25  43  69 103 142 190 243 298 367 440
#     4  11  25  45  77 110 147 198 252 313 375 451
#     4  12  27  47  72 110 150 193 255 310 376 451
#     4  11  24  42  70 105 145 188 236 308 368 438
#     4  10  23  43  73 107 140 190 250 294 372 447
#     4  12  26  44  71 103 148 190 241 304 374 445
#     4  11  23  45  76 104 143 194 248 307 376 439
#     4  11  24  45  70 103 144 193 241 303 366 442
#
# _framework density 23.704359
#
# number of rings (size 3 to 8) (size 9 to 14) (size 15 to 20)
#    0.000    0.750    2.500    4.875    3.500    5.000 
#    2.250    0.000    0.000    0.000    0.000    0.000 
#    0.000    0.000    0.000    0.000    0.000    0.000 
#
# Total GULP energy -198280.576823 kJ/mol
# GULP energy per Si atom -12392.536051 kJ/mol
# Density = 2.365041 g / cm^3
# Si number density = 23.704359 Si / 1000 Ang^3
#
#
#
# Elastic Constant Matrix: (Units=GPa)
#
#
# Indices 1 2 3 4 5 6 
#
# 1 137.9530 12.8866 45.7952 -2.6126 -19.4245 -1.8417
# 2 12.8866 68.0714 19.6431 3.6624 -6.3221 1.9140
# 3 45.7952 19.6431 101.2825 1.0199 -4.3533 -4.7288
# 4 -2.6126 3.6624 1.0199 39.5135 -4.0892 -3.1661
# 5 -19.4245 -6.3221 -4.3533 -4.0892 51.2811 2.5014
# 6 -1.8417 1.9140 -4.7288 -3.1661 2.5014 35.3172
#
#
#
# Elastic Compliance Matrix: (Units=1/GPa)
#
#
# Indices 1 2 3 4 5 6 
#
# 1 0.009036 -0.000345 -0.003902 0.001042 0.003140 -0.000162
# 2 -0.000345 0.015854 -0.002909 -0.001378 0.001540 -0.001499
# 3 -0.003902 -0.002909 0.012242 -0.000266 -0.000898 0.001633
# 4 0.001042 -0.001378 -0.000266 0.025916 0.002158 0.002264
# 5 0.003140 0.001540 -0.000898 0.002158 0.021041 -0.001337
# 6 -0.000162 -0.001499 0.001633 0.002264 -0.001337 0.028904
#
#
# Mechanical properties :
#
#
# Convention : Reuss Voigt Hill
#
# Bulk Modulus (GPa) = 43.81794 51.55073 47.68433
# Shear Modulus (GPa) = 37.06133 40.48782 38.77458
#
# Velocity S-wave (km/s) = 3.95838 4.13732 4.04884
# Velocity P-wave (km/s) = 6.27829 6.67965 6.48208
#
# Compressibility (1/GPa) = 0.02282170
#
# Stress axis : x y z
#
# Youngs Moduli (GPa) = 110.66809 63.07368 81.68500
#
# Poissons Ratio (x) = 0.02173 0.31873
# Poissons Ratio (y) = 0.03813 0.23762
# Poissons Ratio (z) = 0.43182 0.18348
#
# Static dielectric constant tensor:
#      x y z
#    x 5.449750 1.784790 0.978170 
#    y 1.784790 7.523200 1.382580 
#    z 0.978170 1.382580 4.972590 
# 
# 
# High freq. dielectric constant tensor:
#      x y z
#    x 1.955300 -0.002950 0.001860 
#    y -0.002950 1.935860 -0.007330 
#    z 0.001860 -0.007330 1.941310 
# 
# From -- ./inp_files/428594.got.cif
#   From: 2010.06.25/outbox.cif.g09.slc.cpg/sg2_215_cif.got.tgz:428594.got - 2010.06.27 13:26:56.
