data_PCOD8024524
_publ_section_title
;
Structure prediction by ZEFSAII (Michael W. Deem and Ramdas Pophale) SiO2 
 PCOD8024524
Probable space group: P -1
;
_chemical_formula_sum "Si O2"
_cell_formula_units_Z 16
_cell_length_a 13.132343
_cell_length_b 8.860510
_cell_length_c 9.789186
_cell_angle_alpha 55.112294
_cell_angle_beta 110.678675
_cell_angle_gamma 125.570101
_cell_volume 759.643776
_symmetry_space_group_name_H-M "P -1"
_symmetry_group_IT_number 2
_symmetry_cell_setting 'triclinic'
loop_
_space_group_symop_operation_xyz
x,y,z
-x,-y,-z
loop_
_atom_site_type_symbol
_atom_site_label
_atom_site_fract_x
_atom_site_fract_y
_atom_site_fract_z
Si Si1 0.465902 0.737794 0.402910
Si Si2 0.779022 0.330931 0.793603
Si Si3 0.241518 0.069701 0.871481
Si Si4 0.116127 0.223638 0.931830
Si Si5 0.252080 0.350716 0.207154
Si Si6 0.243700 0.015616 0.586156
Si Si7 0.487092 0.441489 0.745653
Si Si8 0.032377 0.550590 0.645622
O O1 0.350320 0.784058 0.299484
O O2 0.433464 0.599508 0.599714
O O3 0.452393 0.584673 0.352145
O O4 0.610314 0.938133 0.373891
O O5 0.770896 0.460455 0.851295
O O6 0.901277 0.496408 0.682025
O O7 0.803499 0.147312 0.957416
O O8 0.194585 0.217975 0.842363
O O9 0.391286 0.215132 0.878565
O O10 0.203254 0.028363 0.715752
O O11 0.086209 0.410396 0.806066
O O12 0.170418 0.232779 0.101402
O O13 0.000000 0.000000 0.000000
O O14 0.391897 0.444348 0.159921
O O15 0.229543 0.189763 0.403330
O O16 0.143634 0.789886 0.595135
O O17 0.000000 0.500000 0.500000
#
# Coordination Sequence:
#
# PCOD8024524 Si02
#       8
#     2   2   2   2   2   2   2   2
#     4   8  17  38  65  95 125 162 212 268 302 376
#     4  11  23  40  67  96 130 167 216 260 318 377
#     4  11  23  39  68  96 128 168 211 261 319 377
#     4  12  26  44  61  90 137 166 209 269 319 366
#     4  10  23  43  68  95 129 168 209 266 313 381
#     4  10  23  44  70  96 125 171 218 253 320 386
#     4   8  17  37  64  94 126 162 212 254 320 374
#     4  12  28  44  65  95 130 168 218 264 320 379
#
# _framework density 21.062505000000002
#
# number of rings (size 3 to 8) (size 9 to 14) (size 15 to 20)
#    0.000    1.750    1.250    3.750    5.250    7.500 
#    0.000    0.625    0.000    0.000    0.000    0.000 
#    0.000    0.000    0.000    0.000    0.000    0.000 
#
# Total GULP energy -198220.443331 kJ/mol
# GULP energy per Si atom -12388.777708 kJ/mol
# Density = 2.101457 g / cm^3
# Si number density = 21.062505 Si / 1000 Ang^3
#
#
#
# Elastic Constant Matrix: (Units=GPa)
#
#
# Indices 1 2 3 4 5 6 
#
# 1 74.9215 56.6652 25.0272 10.9716 6.2412 8.7727
# 2 56.6652 83.3017 44.0084 11.2615 -3.9737 21.3247
# 3 25.0272 44.0084 77.6001 12.0126 3.7175 10.7447
# 4 10.9716 11.2615 12.0126 38.3692 4.0342 2.5699
# 5 6.2412 -3.9737 3.7175 4.0342 26.2215 -1.4446
# 6 8.7727 21.3247 10.7447 2.5699 -1.4446 34.0648
#
#
#
# Elastic Compliance Matrix: (Units=1/GPa)
#
#
# Indices 1 2 3 4 5 6 
#
# 1 0.032120 -0.026074 0.004435 -0.002130 -0.011549 0.006323
# 2 -0.026074 0.041338 -0.013581 -0.000918 0.013754 -0.014227
# 3 0.004435 -0.013581 0.019718 -0.002965 -0.005391 0.001135
# 4 -0.002130 -0.000918 -0.002965 0.028260 -0.003572 -0.000225
# 5 -0.011549 0.013754 -0.005391 -0.003572 0.044185 -0.001792
# 6 0.006323 -0.014227 0.001135 -0.000225 -0.001792 0.036217
#
#
# Mechanical properties :
#
#
# Convention : Reuss Voigt Hill
#
# Bulk Modulus (GPa) = 43.98174 54.13611 49.05893
# Shear Modulus (GPa) = 17.86629 27.07260 22.46944
#
# Velocity S-wave (km/s) = 2.91563 3.58906 3.26973
# Velocity P-wave (km/s) = 5.67991 6.55237 6.13168
#
# Compressibility (1/GPa) = 0.02273671
#
# Stress axis : x y z
#
# Youngs Moduli (GPa) = 31.13341 24.19058 50.71436
#
# Poissons Ratio (x) = 0.63075 -0.22494
# Poissons Ratio (y) = 0.81177 0.68877
# Poissons Ratio (z) = -0.13809 0.32854
#
# Static dielectric constant tensor:
#      x y z
#    x 3.843290 0.289340 0.262590 
#    y 0.289340 3.839800 0.024130 
#    z 0.262590 0.024130 3.781060 
# 
# 
# High freq. dielectric constant tensor:
#      x y z
#    x 1.819950 0.023580 0.005130 
#    y 0.023580 1.828790 -0.001330 
#    z 0.005130 -0.001330 1.826110 
# 
# From -- ./inp_files/242656.got.cif
#   From: 2010.06.25/outbox.cif.g09.slc.cpg/sg2_122_cif.got.tgz:242656.got - 2010.06.27 13:26:56.
