data_PCOD8024244
_publ_section_title
;
Structure prediction by ZEFSAII (Michael W. Deem and Ramdas Pophale) SiO2 
 PCOD8024244
Probable space group: P -1
;
_chemical_formula_sum "Si O2"
_cell_formula_units_Z 16
_cell_length_a 8.480579
_cell_length_b 8.818737
_cell_length_c 18.077665
_cell_angle_alpha 73.690502
_cell_angle_beta 47.448668
_cell_angle_gamma 52.818901
_cell_volume 774.465169
_symmetry_space_group_name_H-M "P -1"
_symmetry_group_IT_number 2
_symmetry_cell_setting 'triclinic'
loop_
_space_group_symop_operation_xyz
x,y,z
-x,-y,-z
loop_
_atom_site_type_symbol
_atom_site_label
_atom_site_fract_x
_atom_site_fract_y
_atom_site_fract_z
Si Si1 0.219996 0.173490 0.095951
Si Si2 0.525201 0.152303 0.514068
Si Si3 0.780914 0.458061 0.912591
Si Si4 0.264240 0.606604 0.223639
Si Si5 0.786328 0.973855 0.600453
Si Si6 0.070975 0.007720 0.296246
Si Si7 0.991129 0.535027 0.584119
Si Si8 0.883919 0.379057 0.043579
O O1 0.231939 0.349675 0.093016
O O2 0.118431 0.119935 0.205053
O O3 0.018441 0.216539 0.086779
O O4 0.500000 0.000000 0.000000
O O5 0.271663 0.372889 0.554428
O O6 0.775812 0.143328 0.405268
O O7 0.500000 0.000000 0.500000
O O8 0.543934 0.096147 0.603152
O O9 0.883001 0.378588 0.808612
O O10 0.500000 0.500000 0.000000
O O11 0.950612 0.301845 0.947129
O O12 0.569089 0.518927 0.132163
O O13 0.238123 0.473424 0.306782
O O14 0.104506 0.822379 0.276091
O O15 0.716388 0.054364 0.696124
O O16 0.914237 0.746609 0.594297
O O17 0.000000 0.000000 0.500000
O O18 0.000000 0.500000 0.500000
O O19 0.000000 0.500000 0.000000
#
# Coordination Sequence:
#
# PCOD8024244 Si02
#       8
#     2   2   2   2   2   2   2   2
#     4  11  22  40  62  93 124 160 204 263 321 373
#     4  11  22  44  64  97 129 169 218 263 319 377
#     4   9  19  40  63  87 122 158 209 254 310 385
#     4  11  22  41  64  91 124 169 207 259 319 373
#     4  10  23  43  62  95 131 167 219 265 316 379
#     4  11  23  41  62  91 131 163 209 268 311 380
#     4  12  23  40  70  93 132 172 209 270 319 373
#     4   9  20  39  63  91 120 158 206 254 315 381
#
# _framework density 20.659417000000001
#
# number of rings (size 3 to 8) (size 9 to 14) (size 15 to 20)
#    0.000    1.500    2.500    3.750    1.750    2.000 
#    9.000    5.625    0.000    0.000    0.000    0.000 
#    0.000    0.000    0.000    0.000    0.000    0.000 
#
# Total GULP energy -198250.944877 kJ/mol
# GULP energy per Si atom -12390.684055 kJ/mol
# Density = 2.061240 g / cm^3
# Si number density = 20.659417 Si / 1000 Ang^3
#
#
#
# Elastic Constant Matrix: (Units=GPa)
#
#
# Indices 1 2 3 4 5 6 
#
# 1 147.7949 56.3322 63.9424 -14.4978 38.1524 -11.8958
# 2 56.3322 114.8496 41.3526 -14.5798 13.5964 -1.1238
# 3 63.9424 41.3526 123.9757 -27.3314 18.8958 -6.4047
# 4 -14.4978 -14.5798 -27.3314 40.6460 -3.3056 0.4573
# 5 38.1524 13.5964 18.8958 -3.3056 55.3737 -4.9147
# 6 -11.8958 -1.1238 -6.4047 0.4573 -4.9147 46.2584
#
#
#
# Elastic Compliance Matrix: (Units=1/GPa)
#
#
# Indices 1 2 3 4 5 6 
#
# 1 0.011270 -0.003539 -0.003763 -0.000245 -0.005475 0.001712
# 2 -0.003539 0.011202 -0.001622 0.001697 0.000267 -0.000851
# 3 -0.003763 -0.001622 0.012027 0.006100 -0.000702 0.000523
# 4 -0.000245 0.001697 0.006100 0.029176 -0.000546 0.000477
# 5 -0.005475 0.000267 -0.000702 -0.000546 0.022048 0.000849
# 6 0.001712 -0.000851 0.000523 0.000477 0.000849 0.022195
#
#
# Mechanical properties :
#
#
# Convention : Reuss Voigt Hill
#
# Bulk Modulus (GPa) = 60.05675 78.87498 69.46586
# Shear Modulus (GPa) = 38.07546 43.45515 40.76530
#
# Velocity S-wave (km/s) = 4.29768 4.59127 4.44690
# Velocity P-wave (km/s) = 7.33211 8.14665 7.75009
#
# Compressibility (1/GPa) = 0.01665092
#
# Stress axis : x y z
#
# Youngs Moduli (GPa) = 88.72851 89.26720 83.14605
#
# Poissons Ratio (x) = 0.31592 0.31292
# Poissons Ratio (y) = 0.31402 0.13485
# Poissons Ratio (z) = 0.33392 0.14478
#
# Static dielectric constant tensor:
#      x y z
#    x 4.813570 -0.161880 0.583980 
#    y -0.161880 3.081340 -0.128070 
#    z 0.583980 -0.128070 4.091250 
# 
# 
# High freq. dielectric constant tensor:
#      x y z
#    x 1.832360 0.002100 0.014750 
#    y 0.002100 1.789960 -0.023600 
#    z 0.014750 -0.023600 1.818900 
# 
# From -- ./inp_files/216841.got.cif
#   From: 2010.06.25/outbox.cif.g09.slc.cpg/sg2_109_cif.got.tgz:216841.got - 2010.06.27 13:26:56.
