data_PCOD8024892
_publ_section_title
;
Structure prediction by ZEFSAII (Michael W. Deem and Ramdas Pophale) SiO2 
 PCOD8024892
Probable space group: P -1
;
_chemical_formula_sum "Si O2"
_cell_formula_units_Z 16
_cell_length_a 15.057562
_cell_length_b 5.769078
_cell_length_c 14.868462
_cell_angle_alpha 119.526171
_cell_angle_beta 38.762142
_cell_angle_gamma 117.542294
_cell_volume 696.362169
_symmetry_space_group_name_H-M "P -1"
_symmetry_group_IT_number 2
_symmetry_cell_setting 'triclinic'
loop_
_space_group_symop_operation_xyz
x,y,z
-x,-y,-z
loop_
_atom_site_type_symbol
_atom_site_label
_atom_site_fract_x
_atom_site_fract_y
_atom_site_fract_z
Si Si1 0.122325 0.148991 0.653093
Si Si2 0.145385 0.787469 0.239758
Si Si3 0.389045 0.607829 0.543726
Si Si4 0.932441 0.778965 0.089395
Si Si5 0.628739 0.559043 0.036433
Si Si6 0.851825 0.310300 0.584351
Si Si7 0.364169 0.177214 0.735012
Si Si8 0.635213 0.709471 0.867701
O O1 0.257013 0.381057 0.585051
O O2 0.065103 0.082113 0.787201
O O3 0.002126 0.245500 0.703473
O O4 0.168490 0.879016 0.523469
O O5 0.132561 0.854831 0.367894
O O6 0.256498 0.023059 0.158846
O O7 0.211920 0.513960 0.116491
O O8 0.500000 0.500000 0.500000
O O9 0.478617 0.701492 0.401452
O O10 0.327576 0.859553 0.684899
O O11 0.765556 0.683487 0.178265
O O12 0.000000 0.500000 0.000000
O O13 0.000000 0.000000 0.000000
O O14 0.631436 0.775214 0.153617
O O15 0.501297 0.297330 0.094812
O O16 0.577435 0.692381 0.012328
O O17 0.716953 0.466063 0.724686
O O18 0.000000 0.500000 0.500000
#
# Coordination Sequence:
#
# PCOD8024892 Si02
#       8
#     2   2   2   2   2   2   2   2
#     4  12  26  47  77 100 145 195 238 317 373 442
#     4  11  24  45  68 107 137 186 241 298 367 452
#     4  11  26  49  68 107 142 191 256 303 376 444
#     4  12  28  49  75 113 151 200 261 315 381 456
#     4  10  24  42  70  99 142 188 228 302 366 441
#     4  11  25  42  69 107 141 180 243 302 367 447
#     4  11  26  46  74 103 147 194 250 312 370 457
#     4  10  23  44  65 104 143 178 239 285 375 444
#
# _framework density 22.976548999999999
#
# number of rings (size 3 to 8) (size 9 to 14) (size 15 to 20)
#    0.000    1.000    2.500    2.250    5.250    3.000 
#    0.000    0.000    0.000    0.000    0.000    0.000 
#    0.000    0.000    0.000    0.000    0.000    0.000 
#
# Total GULP energy -198266.009238 kJ/mol
# GULP energy per Si atom -12391.625577 kJ/mol
# Density = 2.292425 g / cm^3
# Si number density = 22.976549 Si / 1000 Ang^3
#
#
#
# Elastic Constant Matrix: (Units=GPa)
#
#
# Indices 1 2 3 4 5 6 
#
# 1 112.0627 27.2537 54.6328 6.3268 3.6761 9.6280
# 2 27.2537 104.5296 42.3254 -2.5077 10.8010 17.0251
# 3 54.6328 42.3254 134.1585 15.2245 23.9016 9.7473
# 4 6.3268 -2.5077 15.2245 29.2841 9.7065 -2.5687
# 5 3.6761 10.8010 23.9016 9.7065 56.5678 -0.2267
# 6 9.6280 17.0251 9.7473 -2.5687 -0.2267 40.9252
#
#
#
# Elastic Compliance Matrix: (Units=1/GPa)
#
#
# Indices 1 2 3 4 5 6 
#
# 1 0.011444 -0.001198 -0.004355 -0.000906 0.001476 -0.001205
# 2 -0.001198 0.011972 -0.003105 0.003042 -0.001433 -0.003776
# 3 -0.004355 -0.003105 0.011298 -0.004202 -0.003179 -0.000656
# 4 -0.000906 0.003042 -0.004202 0.038783 -0.005392 0.002353
# 5 0.001476 -0.001433 -0.003179 -0.005392 0.020127 0.000779
# 6 -0.001205 -0.003776 -0.000656 0.002353 0.000779 0.026598
#
#
# Mechanical properties :
#
#
# Convention : Reuss Voigt Hill
#
# Bulk Modulus (GPa) = 57.47560 66.57494 62.02527
# Shear Modulus (GPa) = 34.88268 40.45802 37.67035
#
# Velocity S-wave (km/s) = 3.90062 4.20079 4.05348
# Velocity P-wave (km/s) = 6.73466 7.25030 6.99723
#
# Compressibility (1/GPa) = 0.01739869
#
# Stress axis : x y z
#
# Youngs Moduli (GPa) = 87.37862 83.52575 88.51312
#
# Poissons Ratio (x) = 0.10010 0.38547
# Poissons Ratio (y) = 0.10472 0.27480
# Poissons Ratio (z) = 0.38053 0.25931
#
# Static dielectric constant tensor:
#      x y z
#    x 3.766330 -0.533400 -0.467390 
#    y -0.533400 3.764660 -0.375700 
#    z -0.467390 -0.375700 4.290090 
# 
# 
# High freq. dielectric constant tensor:
#      x y z
#    x 1.916380 0.007770 -0.007560 
#    y 0.007770 1.899670 -0.005180 
#    z -0.007560 -0.005180 1.929670 
# 
# From -- ./inp_files/525991.got.cif
#   From: 2010.06.25/outbox.cif.g09.slc.cpg/sg2_263_cif.got.tgz:525991.got - 2010.06.27 13:26:56.
