data_PCOD8024598
_publ_section_title
;
Structure prediction by ZEFSAII (Michael W. Deem and Ramdas Pophale) SiO2 
 PCOD8024598
Probable space group: P -1
;
_chemical_formula_sum "Si O2"
_cell_formula_units_Z 16
_cell_length_a 13.680476
_cell_length_b 8.372163
_cell_length_c 6.660715
_cell_angle_alpha 97.475460
_cell_angle_beta 111.671659
_cell_angle_gamma 84.803989
_cell_volume 702.187332
_symmetry_space_group_name_H-M "P -1"
_symmetry_group_IT_number 2
_symmetry_cell_setting 'triclinic'
loop_
_space_group_symop_operation_xyz
x,y,z
-x,-y,-z
loop_
_atom_site_type_symbol
_atom_site_label
_atom_site_fract_x
_atom_site_fract_y
_atom_site_fract_z
Si Si1 0.827311 0.912568 0.851390
Si Si2 0.219125 0.465688 0.771594
Si Si3 0.909163 0.081828 0.576669
Si Si4 0.037800 0.356314 0.860121
Si Si5 0.343460 0.276392 0.504346
Si Si6 0.469951 0.743445 0.086476
Si Si7 0.749229 0.157033 0.148964
Si Si8 0.404246 0.429964 0.178467
O O1 0.713878 0.864727 0.674887
O O2 0.903559 0.966154 0.742972
O O3 0.883783 0.764310 0.981619
O O4 0.812247 0.067715 0.005151
O O5 0.099532 0.423891 0.724664
O O6 0.257199 0.389815 0.575846
O O7 0.228776 0.655847 0.806517
O O8 0.292366 0.387090 0.990517
O O9 0.795546 0.085859 0.381462
O O10 0.937567 0.263834 0.687698
O O11 0.000000 0.000000 0.500000
O O12 0.000000 0.500000 0.000000
O O13 0.429127 0.191115 0.708661
O O14 0.403109 0.387444 0.406578
O O15 0.421667 0.617464 0.184735
O O16 0.375809 0.874204 0.979780
O O17 0.501907 0.667183 0.883510
#
# Coordination Sequence:
#
# PCOD8024598 Si02
#       8
#     2   2   2   2   2   2   2   2
#     4  12  27  46  67 100 140 176 220 282 342 402
#     4  10  23  43  69 104 132 175 232 280 331 397
#     4  12  27  47  70  93 138 187 217 273 352 396
#     4  12  26  46  74 101 132 174 235 289 327 400
#     4  11  22  39  73 100 137 177 223 280 337 394
#     4   9  21  39  67 102 136 176 226 272 331 404
#     4  11  26  45  67  99 142 178 221 278 332 410
#     4   9  18  40  67 101 140 172 219 283 333 390
#
# _framework density 22.785941000000001
#
# number of rings (size 3 to 8) (size 9 to 14) (size 15 to 20)
#    0.000    1.250    2.500    3.000    3.500    4.000 
#    0.000    1.250    0.000    0.000    0.000    0.000 
#    0.000    0.000    0.000    0.000    0.000    0.000 
#
# Total GULP energy -198387.505576 kJ/mol
# GULP energy per Si atom -12399.219098 kJ/mol
# Density = 2.273408 g / cm^3
# Si number density = 22.785941 Si / 1000 Ang^3
#
#
#
# Elastic Constant Matrix: (Units=GPa)
#
#
# Indices 1 2 3 4 5 6 
#
# 1 96.4037 21.5182 35.8231 -1.2386 -10.8665 -5.3617
# 2 21.5182 68.3761 26.6872 10.9841 -7.5926 -13.3901
# 3 35.8231 26.6872 111.0925 7.0191 0.1751 -11.4779
# 4 -1.2386 10.9841 7.0191 28.3755 1.8876 6.8089
# 5 -10.8665 -7.5926 0.1751 1.8876 50.4484 -5.0615
# 6 -5.3617 -13.3901 -11.4779 6.8089 -5.0615 32.0456
#
#
#
# Elastic Compliance Matrix: (Units=1/GPa)
#
#
# Indices 1 2 3 4 5 6 
#
# 1 0.012586 -0.002835 -0.003599 0.002531 0.002145 -0.000567
# 2 -0.002835 0.020434 -0.002330 -0.010110 0.003853 0.009986
# 3 -0.003599 -0.002330 0.011188 -0.002661 -0.000777 0.002874
# 4 0.002531 -0.010110 -0.002661 0.043719 -0.004077 -0.014687
# 5 0.002145 0.003853 -0.000777 -0.004077 0.021619 0.005971
# 6 -0.000567 0.009986 0.002874 -0.014687 0.005971 0.040377
#
#
# Mechanical properties :
#
#
# Convention : Reuss Voigt Hill
#
# Bulk Modulus (GPa) = 37.48265 49.32548 43.40407
# Shear Modulus (GPa) = 28.35342 34.96351 31.65846
#
# Velocity S-wave (km/s) = 3.53135 3.92143 3.73149
# Velocity P-wave (km/s) = 5.75437 6.49599 6.13639
#
# Compressibility (1/GPa) = 0.02667901
#
# Stress axis : x y z
#
# Youngs Moduli (GPa) = 79.45202 48.93746 89.38029
#
# Poissons Ratio (x) = 0.13876 0.32170
# Poissons Ratio (y) = 0.22529 0.20826
# Poissons Ratio (z) = 0.28597 0.11403
#
# Static dielectric constant tensor:
#      x y z
#    x 3.992050 0.041760 0.348370 
#    y 0.041760 3.849960 -0.033420 
#    z 0.348370 -0.033420 4.365680 
# 
# 
# High freq. dielectric constant tensor:
#      x y z
#    x 1.908090 0.001170 0.004420 
#    y 0.001170 1.880160 0.001910 
#    z 0.004420 0.001910 1.910030 
# 
# From -- ./inp_files/90076.got.cif
#   From: 2010.06.25/outbox.cif.g09.slc.cpg/sg2_46_cif.got.tgz:90076.got - 2010.06.27 13:26:56.
