data_PCOD8024181
_publ_section_title
;
Structure prediction by ZEFSAII (Michael W. Deem and Ramdas Pophale) SiO2 
 PCOD8024181
Probable space group: P -1
;
_chemical_formula_sum "Si O2"
_cell_formula_units_Z 16
_cell_length_a 11.422617
_cell_length_b 9.339468
_cell_length_c 9.661490
_cell_angle_alpha 45.759917
_cell_angle_beta 104.879524
_cell_angle_gamma 105.887145
_cell_volume 706.964567
_symmetry_space_group_name_H-M "P -1"
_symmetry_group_IT_number 2
_symmetry_cell_setting 'triclinic'
loop_
_space_group_symop_operation_xyz
x,y,z
-x,-y,-z
loop_
_atom_site_type_symbol
_atom_site_label
_atom_site_fract_x
_atom_site_fract_y
_atom_site_fract_z
Si Si1 0.247855 0.690321 0.639148
Si Si2 0.140239 0.495945 0.015124
Si Si3 0.241420 0.114407 0.366575
Si Si4 0.519839 0.086752 0.797997
Si Si5 0.257550 0.148187 0.661080
Si Si6 0.236385 0.770231 0.099892
Si Si7 0.489263 0.264322 0.197198
Si Si8 0.866975 0.482894 0.535080
O O1 0.389486 0.760997 0.665339
O O2 0.232043 0.549114 0.596558
O O3 0.198611 0.895611 0.434633
O O4 0.173945 0.582738 0.816452
O O5 0.151998 0.260685 0.181159
O O6 0.233284 0.613642 0.076354
O O7 0.000000 0.500000 0.000000
O O8 0.221981 0.059903 0.559326
O O9 0.378994 0.212174 0.305366
O O10 0.405507 0.210600 0.652476
O O11 0.647495 0.233234 0.757401
O O12 0.525971 0.896022 0.825721
O O13 0.500000 0.000000 0.000000
O O14 0.173834 0.323081 0.534264
O O15 0.223621 0.986837 0.883562
O O16 0.129372 0.689808 0.229492
O O17 0.500000 0.500000 0.000000
O O18 0.000000 0.500000 0.500000
#
# Coordination Sequence:
#
# PCOD8024181 Si02
#       8
#     2   2   2   2   2   2   2   2
#     4  12  26  46  72 107 146 182 238 305 355 422
#     4  12  26  46  73 104 141 193 248 292 347 423
#     4  12  25  45  76 106 140 188 244 289 368 432
#     4  10  23  42  72 107 143 182 232 285 366 434
#     4  11  25  45  75 102 143 186 235 292 362 431
#     4  11  24  47  71 104 145 183 236 295 352 425
#     4  12  25  43  72 109 149 185 230 303 368 430
#     4  12  29  47  70 105 142 189 245 290 356 420
#
# _framework density 22.631969000000002
#
# number of rings (size 3 to 8) (size 9 to 14) (size 15 to 20)
#    0.000    0.500    5.000    2.625    5.250    3.500 
#    0.000    0.000    0.000    0.000    0.000    0.000 
#    0.000    0.000    0.000    0.000    0.000    0.000 
#
# Total GULP energy -198234.474791 kJ/mol
# GULP energy per Si atom -12389.654674 kJ/mol
# Density = 2.258046 g / cm^3
# Si number density = 22.631969 Si / 1000 Ang^3
#
#
#
# Elastic Constant Matrix: (Units=GPa)
#
#
# Indices 1 2 3 4 5 6 
#
# 1 93.7202 9.4698 43.3593 -6.7853 2.0240 -23.3289
# 2 9.4698 80.7128 17.7957 10.8639 10.6920 -7.2038
# 3 43.3593 17.7957 135.2737 -10.8084 -18.7840 -9.9307
# 4 -6.7853 10.8639 -10.8084 32.7572 -13.6087 -1.3804
# 5 2.0240 10.6920 -18.7840 -13.6087 38.2069 1.2653
# 6 -23.3289 -7.2038 -9.9307 -1.3804 1.2653 26.6126
#
#
#
# Elastic Compliance Matrix: (Units=1/GPa)
#
#
# Indices 1 2 3 4 5 6 
#
# 1 0.016092 0.000705 -0.004776 0.000556 -0.003621 0.012716
# 2 0.000705 0.016629 -0.004623 -0.011376 -0.011126 0.003333
# 3 -0.004776 -0.004623 0.011569 0.008607 0.010339 -0.001166
# 4 0.000556 -0.011376 0.008607 0.047391 0.024202 0.001927
# 5 -0.003621 -0.011126 0.010339 0.024202 0.043285 -0.003130
# 6 0.012716 0.003333 -0.001166 0.001927 -0.003130 0.049439
#
#
# Mechanical properties :
#
#
# Convention : Reuss Voigt Hill
#
# Bulk Modulus (GPa) = 37.17102 50.10626 43.63864
# Shear Modulus (GPa) = 23.72379 35.45415 29.58897
#
# Velocity S-wave (km/s) = 3.24117 3.96226 3.61972
# Velocity P-wave (km/s) = 5.51966 6.56661 6.06577
#
# Compressibility (1/GPa) = 0.02690268
#
# Stress axis : x y z
#
# Youngs Moduli (GPa) = 62.14301 60.13756 86.43820
#
# Poissons Ratio (x) = -0.04238 0.41279
# Poissons Ratio (y) = -0.04379 0.39956
# Poissons Ratio (z) = 0.29677 0.27799
#
# Static dielectric constant tensor:
#      x y z
#    x 10.590650 0.496220 2.145690 
#    y 0.496220 4.242780 0.204750 
#    z 2.145690 0.204750 5.064360 
# 
# 
# High freq. dielectric constant tensor:
#      x y z
#    x 1.890140 -0.003340 -0.013420 
#    y -0.003340 1.895200 0.006820 
#    z -0.013420 0.006820 1.908960 
# 
# From -- ./inp_files/242176.got.cif
#   From: 2010.06.25/outbox.cif.g09.slc.cpg/sg2_122_cif.got.tgz:242176.got - 2010.06.27 13:26:56.
