data_PCOD8024914
_publ_section_title
;
Structure prediction by ZEFSAII (Michael W. Deem and Ramdas Pophale) SiO2 
 PCOD8024914
Probable space group: P -1
;
_chemical_formula_sum "Si O2"
_cell_formula_units_Z 16
_cell_length_a 14.832984
_cell_length_b 9.283301
_cell_length_c 9.394967
_cell_angle_alpha 101.486251
_cell_angle_beta 56.985993
_cell_angle_gamma 60.051287
_cell_volume 715.554675
_symmetry_space_group_name_H-M "P -1"
_symmetry_group_IT_number 2
_symmetry_cell_setting 'triclinic'
loop_
_space_group_symop_operation_xyz
x,y,z
-x,-y,-z
loop_
_atom_site_type_symbol
_atom_site_label
_atom_site_fract_x
_atom_site_fract_y
_atom_site_fract_z
Si Si1 0.594486 0.687135 0.623829
Si Si2 0.821674 0.418800 0.866019
Si Si3 0.813621 0.967298 0.483719
Si Si4 0.866796 0.930241 0.110628
Si Si5 0.214905 0.680331 0.829446
Si Si6 0.675595 0.858620 0.759054
Si Si7 0.258996 0.178328 0.998172
Si Si8 0.643191 0.431383 0.783299
O O1 0.652221 0.556987 0.402434
O O2 0.721790 0.675744 0.579820
O O3 0.566543 0.587036 0.743018
O O4 0.434326 0.936478 0.773485
O O5 0.733464 0.460236 0.806609
O O6 0.011481 0.236437 0.640797
O O7 0.780464 0.343289 0.009483
O O8 0.754866 0.644063 0.018369
O O9 0.809338 0.929444 0.313338
O O10 0.684633 0.998852 0.685995
O O11 0.772387 0.180372 0.574750
O O12 0.863825 0.801665 0.974566
O O13 0.754653 0.178861 0.203914
O O14 0.047382 0.800910 0.932186
O O15 0.788529 0.764403 0.781644
O O16 0.500000 0.000000 0.000000
O O17 0.500000 0.500000 0.000000
#
# Coordination Sequence:
#
# PCOD8024914 Si02
#       8
#     2   2   2   2   2   2   2   2
#     4  11  24  44  67  96 136 178 222 275 339 397
#     4  11  27  44  67 104 136 175 230 276 336 401
#     4  11  25  45  72  97 133 182 224 280 335 398
#     4  10  24  45  67  98 135 177 227 275 336 394
#     4  10  24  45  67  96 136 178 227 279 325 405
#     4  10  23  44  65  98 137 172 218 274 336 401
#     4  11  25  43  64 101 137 172 225 277 334 401
#     4  12  25  45  70  98 136 179 225 285 332 398
#
# _framework density 22.360275000000001
#
# number of rings (size 3 to 8) (size 9 to 14) (size 15 to 20)
#    0.000    1.250    2.500    1.875    8.750    4.500 
#    0.000    0.000    0.000    0.000    0.000    0.000 
#    0.000    0.000    0.000    0.000    0.000    0.000 
#
# Total GULP energy -198429.038172 kJ/mol
# GULP energy per Si atom -12401.814886 kJ/mol
# Density = 2.230938 g / cm^3
# Si number density = 22.360275 Si / 1000 Ang^3
#
#
#
# Elastic Constant Matrix: (Units=GPa)
#
#
# Indices 1 2 3 4 5 6 
#
# 1 83.6396 20.5577 13.6249 -5.6500 7.8124 10.5805
# 2 20.5577 108.8417 24.1797 8.4609 -16.8546 8.9391
# 3 13.6249 24.1797 67.3125 2.5369 -10.9700 3.8651
# 4 -5.6500 8.4609 2.5369 45.6242 3.5284 1.1736
# 5 7.8124 -16.8546 -10.9700 3.5284 22.2887 2.9279
# 6 10.5805 8.9391 3.8651 1.1736 2.9279 35.4009
#
#
#
# Elastic Compliance Matrix: (Units=1/GPa)
#
#
# Indices 1 2 3 4 5 6 
#
# 1 0.014862 -0.003674 -0.003284 0.003529 -0.009839 -0.002459
# 2 -0.003674 0.012397 -0.001683 -0.003422 0.010720 -0.002622
# 3 -0.003284 -0.001683 0.017735 -0.001749 0.009044 -0.001220
# 4 0.003529 -0.003422 -0.001749 0.023741 -0.008432 -0.000089
# 5 -0.009839 0.010720 0.009044 -0.008432 0.062953 -0.005681
# 6 -0.002459 -0.002622 -0.001220 -0.000089 -0.005681 0.030251
#
#
# Mechanical properties :
#
#
# Convention : Reuss Voigt Hill
#
# Bulk Modulus (GPa) = 36.08387 41.83537 38.95962
# Shear Modulus (GPa) = 26.53096 34.09153 30.31124
#
# Velocity S-wave (km/s) = 3.44833 3.90891 3.68582
# Velocity P-wave (km/s) = 5.65925 6.25484 5.96449
#
# Compressibility (1/GPa) = 0.02771321
#
# Stress axis : x y z
#
# Youngs Moduli (GPa) = 67.28368 80.66636 56.38465
#
# Poissons Ratio (x) = 0.29634 0.18517
# Poissons Ratio (y) = 0.24717 0.09490
# Poissons Ratio (z) = 0.22096 0.13576
#
# Static dielectric constant tensor:
#      x y z
#    x 4.239100 0.107570 0.330790 
#    y 0.107570 4.162950 0.054980 
#    z 0.330790 0.054980 3.926630 
# 
# 
# High freq. dielectric constant tensor:
#      x y z
#    x 1.880420 0.005390 0.015670 
#    y 0.005390 1.894040 0.000760 
#    z 0.015670 0.000760 1.871130 
# 
# From -- ./inp_files/217669.got.cif
#   From: 2010.06.25/outbox.cif.g09.slc.cpg/sg2_109_cif.got.tgz:217669.got - 2010.06.27 13:26:56.
