data_PCOD8024318
_publ_section_title
;
Structure prediction by ZEFSAII (Michael W. Deem and Ramdas Pophale) SiO2 
 PCOD8024318
Probable space group: P -1
;
_chemical_formula_sum "Si O2"
_cell_formula_units_Z 14
_cell_length_a 8.877613
_cell_length_b 14.070720
_cell_length_c 14.110106
_cell_angle_alpha 143.952536
_cell_angle_beta 77.389914
_cell_angle_gamma 128.564554
_cell_volume 635.674532
_symmetry_space_group_name_H-M "P -1"
_symmetry_group_IT_number 2
_symmetry_cell_setting 'triclinic'
loop_
_space_group_symop_operation_xyz
x,y,z
-x,-y,-z
loop_
_atom_site_type_symbol
_atom_site_label
_atom_site_fract_x
_atom_site_fract_y
_atom_site_fract_z
Si Si1 0.011280 0.191437 0.188787
Si Si2 0.794426 0.483535 0.161932
Si Si3 0.261773 0.852150 0.968684
Si Si4 0.337444 0.978230 0.732110
Si Si5 0.314792 0.991458 0.533055
Si Si6 0.730860 0.784814 0.407696
Si Si7 0.494585 0.764341 0.591409
O O1 0.288570 0.461665 0.401205
O O2 0.824652 0.067419 0.201693
O O3 0.944558 0.249384 0.155096
O O4 0.000000 0.000000 0.000000
O O5 0.651155 0.537044 0.244599
O O6 0.827053 0.389628 0.170314
O O7 0.626769 0.262381 0.927283
O O8 0.073505 0.750191 0.308355
O O9 0.337748 0.051080 0.193840
O O10 0.500000 0.000000 0.000000
O O11 0.240499 0.953957 0.622967
O O12 0.334232 0.783391 0.588501
O O13 0.424967 0.248575 0.681054
O O14 0.500000 0.000000 0.500000
O O15 0.694861 0.860047 0.567674
O O16 0.000000 0.000000 0.500000
#
# Coordination Sequence:
#
# PCOD8024318 Si02
#       7
#     2   2   2   2   2   2   2
#     4  12  26  42  68 104 136 168 223 280 331 403
#     4  10  23  43  65  91 140 164 225 275 322 393
#     4  11  24  43  67 100 133 180 216 265 345 400
#     4  11  23  42  67 101 129 178 220 266 341 397
#     4  11  23  41  68  97 128 181 223 269 331 382
#     4  10  23  45  66  96 135 173 225 278 321 389
#     4  11  23  42  71  95 138 175 221 273 334 393
#
# _framework density 22.023851000000001
#
# number of rings (size 3 to 8) (size 9 to 14) (size 15 to 20)
#    0.000    1.143    4.286    2.143    2.000    4.000 
#    2.571    0.000    0.000    0.000    0.000    0.000 
#    0.000    0.000    0.000    0.000    0.000    0.000 
#
# Total GULP energy -173449.495602 kJ/mol
# GULP energy per Si atom -12389.249686 kJ/mol
# Density = 2.197372 g / cm^3
# Si number density = 22.023851 Si / 1000 Ang^3
#
#
#
# Elastic Constant Matrix: (Units=GPa)
#
#
# Indices 1 2 3 4 5 6 
#
# 1 114.9143 40.8000 43.2160 1.5139 -23.5722 -4.0258
# 2 40.8000 105.6903 54.7333 -17.7303 -6.2289 8.0701
# 3 43.2160 54.7333 112.2225 -0.2083 -11.0408 1.3241
# 4 1.5139 -17.7303 -0.2083 30.6732 2.1420 -3.5973
# 5 -23.5722 -6.2289 -11.0408 2.1420 44.6705 -0.7082
# 6 -4.0258 8.0701 1.3241 -3.5973 -0.7082 44.1553
#
#
#
# Elastic Compliance Matrix: (Units=1/GPa)
#
#
# Indices 1 2 3 4 5 6 
#
# 1 0.012144 -0.003803 -0.002309 -0.002995 0.005478 0.001715
# 2 -0.003803 0.015853 -0.006405 0.009164 -0.001856 -0.002335
# 3 -0.002309 -0.006405 0.013040 -0.003555 0.001287 0.000300
# 4 -0.002995 0.009164 -0.003555 0.038377 -0.003002 0.001237
# 5 0.005478 -0.001856 0.001287 -0.003002 0.025495 0.000964
# 6 0.001715 -0.002335 0.000300 0.001237 0.000964 0.023338
#
#
# Mechanical properties :
#
#
# Convention : Reuss Voigt Hill
#
# Bulk Modulus (GPa) = 62.48647 67.81397 65.15022
# Shear Modulus (GPa) = 31.52277 36.83832 34.18055
#
# Velocity S-wave (km/s) = 3.78736 4.09425 3.94379
# Velocity P-wave (km/s) = 6.89632 7.29441 7.09816
#
# Compressibility (1/GPa) = 0.01600346
#
# Stress axis : x y z
#
# Youngs Moduli (GPa) = 82.34665 63.07981 76.68482
#
# Poissons Ratio (x) = 0.23988 0.17703
# Poissons Ratio (y) = 0.31315 0.49119
# Poissons Ratio (z) = 0.19010 0.40405
#
# Static dielectric constant tensor:
#      x y z
#    x 4.314880 -0.190110 -0.290710 
#    y -0.190110 3.857470 0.059030 
#    z -0.290710 0.059030 3.824070 
# 
# 
# High freq. dielectric constant tensor:
#      x y z
#    x 1.877630 -0.004570 -0.014630 
#    y -0.004570 1.863370 0.006740 
#    z -0.014630 0.006740 1.863210 
# 
# From -- ./inp_files/207157.got.cif
#   From: 2010.06.25/outbox.cif.g09.slc.cpg/sg2_104_cif.got.tgz:207157.got - 2010.06.27 13:26:56.
