data_PCOD8024781
_publ_section_title
;
Structure prediction by ZEFSAII (Michael W. Deem and Ramdas Pophale) SiO2 
 PCOD8024781
Probable space group: P -1
;
_chemical_formula_sum "Si O2"
_cell_formula_units_Z 14
_cell_length_a 13.465692
_cell_length_b 10.154917
_cell_length_c 13.310893
_cell_angle_alpha 43.391073
_cell_angle_beta 148.309844
_cell_angle_gamma 118.833666
_cell_volume 608.395060
_symmetry_space_group_name_H-M "P -1"
_symmetry_group_IT_number 2
_symmetry_cell_setting 'triclinic'
loop_
_space_group_symop_operation_xyz
x,y,z
-x,-y,-z
loop_
_atom_site_type_symbol
_atom_site_label
_atom_site_fract_x
_atom_site_fract_y
_atom_site_fract_z
Si Si1 0.467374 0.679914 0.102379
Si Si2 0.155468 0.101051 0.602140
Si Si3 0.061027 0.037714 0.774063
Si Si4 0.483953 0.719696 0.329381
Si Si5 0.868140 0.524963 0.088347
Si Si6 0.081193 0.584881 0.430878
Si Si7 0.844457 0.729762 0.756295
O O1 0.514709 0.700591 0.247539
O O2 0.683140 0.557624 0.305465
O O3 0.314809 0.561845 0.012398
O O4 0.374033 0.925725 0.853355
O O5 0.081308 0.324353 0.356734
O O6 0.123867 0.146870 0.670800
O O7 0.000000 0.000000 0.500000
O O8 0.931629 0.902082 0.704513
O O9 0.266961 0.882244 0.087115
O O10 0.932451 0.191379 0.665396
O O11 0.500000 0.500000 0.500000
O O12 0.643294 0.792962 0.482093
O O13 0.920970 0.616280 0.185143
O O14 0.802535 0.714533 0.848059
O O15 0.000000 0.500000 0.500000
O O16 0.000000 0.500000 0.000000
#
# Coordination Sequence:
#
# PCOD8024781 Si02
#       7
#     2   2   2   2   2   2   2
#     4  10  23  43  73 100 138 178 231 288 339 405
#     4   9  19  43  68 100 131 171 232 286 333 396
#     4  11  25  45  66 102 141 178 227 283 337 411
#     4  11  21  44  71 103 137 172 230 282 347 409
#     4  11  23  43  70 102 139 177 230 284 341 406
#     4  12  27  48  65  98 144 190 229 276 343 412
#     4  12  22  40  74 104 135 175 219 291 350 396
#
# _framework density 23.011361999999998
#
# number of rings (size 3 to 8) (size 9 to 14) (size 15 to 20)
#    0.000    1.143    4.286    2.571    0.000    2.857 
#    7.714    1.429    0.000    0.000    0.000    0.000 
#    0.000    0.000    0.000    0.000    0.000    0.000 
#
# Total GULP energy -173434.422590 kJ/mol
# GULP energy per Si atom -12388.173042 kJ/mol
# Density = 2.295899 g / cm^3
# Si number density = 23.011362 Si / 1000 Ang^3
#
#
#
# Elastic Constant Matrix: (Units=GPa)
#
#
# Indices 1 2 3 4 5 6 
#
# 1 87.7886 22.5703 55.3734 -5.1737 24.7838 -10.7398
# 2 22.5703 101.6923 50.5023 17.6529 22.2869 -12.6277
# 3 55.3734 50.5023 148.6316 9.8450 19.4077 -7.9457
# 4 -5.1737 17.6529 9.8450 46.6368 -0.3498 0.5014
# 5 24.7838 22.2869 19.4077 -0.3498 43.4707 -5.8888
# 6 -10.7398 -12.6277 -7.9457 0.5014 -5.8888 42.0923
#
#
#
# Elastic Compliance Matrix: (Units=1/GPa)
#
#
# Indices 1 2 3 4 5 6 
#
# 1 0.017419 0.000352 -0.005733 0.002929 -0.007199 0.002426
# 2 0.000352 0.013902 -0.003708 -0.004511 -0.005320 0.002870
# 3 -0.005733 -0.003708 0.010109 -0.001356 0.000568 -0.000571
# 4 0.002929 -0.004511 -0.001356 0.023781 0.001309 -0.000962
# 5 -0.007199 -0.005320 0.000568 0.001309 0.029703 0.000814
# 6 0.002426 0.002870 -0.000571 -0.000962 0.000814 0.025255
#
#
# Mechanical properties :
#
#
# Convention : Reuss Voigt Hill
#
# Bulk Modulus (GPa) = 43.00843 66.11161 54.56002
# Shear Modulus (GPa) = 34.22343 40.41772 37.32058
#
# Velocity S-wave (km/s) = 3.86066 4.19552 4.03157
# Velocity P-wave (km/s) = 6.21318 7.22926 6.74039
#
# Compressibility (1/GPa) = 0.02325126
#
# Stress axis : x y z
#
# Youngs Moduli (GPa) = 57.40953 71.92995 98.92230
#
# Poissons Ratio (x) = -0.02530 0.56714
# Poissons Ratio (y) = -0.02019 0.36679
# Poissons Ratio (z) = 0.32914 0.26671
#
# Static dielectric constant tensor:
#      x y z
#    x 4.635380 -0.399260 0.179680 
#    y -0.399260 4.965640 -0.559110 
#    z 0.179680 -0.559110 5.709880 
# 
# 
# High freq. dielectric constant tensor:
#      x y z
#    x 1.896750 0.003870 -0.013540 
#    y 0.003870 1.922240 0.013860 
#    z -0.013540 0.013860 1.924090 
# 
# From -- ./inp_files/532357.got.cif
#   From: 2010.06.25/outbox.cif.g09.slc.cpg/sg2_267_cif.got.tgz:532357.got - 2010.06.27 13:26:56.
