data_PCOD8024889
_publ_section_title
;
Structure prediction by ZEFSAII (Michael W. Deem and Ramdas Pophale) SiO2 
 PCOD8024889
Probable space group: P -1
;
_chemical_formula_sum "Si O2"
_cell_formula_units_Z 14
_cell_length_a 17.344315
_cell_length_b 7.292974
_cell_length_c 8.487378
_cell_angle_alpha 74.425259
_cell_angle_beta 140.522794
_cell_angle_gamma 108.107824
_cell_volume 648.021603
_symmetry_space_group_name_H-M "P -1"
_symmetry_group_IT_number 2
_symmetry_cell_setting 'triclinic'
loop_
_space_group_symop_operation_xyz
x,y,z
-x,-y,-z
loop_
_atom_site_type_symbol
_atom_site_label
_atom_site_fract_x
_atom_site_fract_y
_atom_site_fract_z
Si Si1 0.565473 0.680510 0.461039
Si Si2 0.748740 0.743901 0.246725
Si Si3 0.528875 0.956332 0.877421
Si Si4 0.996781 0.093594 0.304451
Si Si5 0.889250 0.437956 0.959391
Si Si6 0.823193 0.751954 0.005004
Si Si7 0.647901 0.434793 0.387585
O O1 0.500000 0.500000 0.500000
O O2 0.582239 0.594152 0.335151
O O3 0.484321 0.851542 0.287659
O O4 0.695949 0.778743 0.716531
O O5 0.861182 0.815003 0.531427
O O6 0.797584 0.706929 0.159111
O O7 0.680066 0.534675 0.245588
O O8 0.665857 0.912196 0.078481
O O9 0.437924 0.769566 0.716330
O O10 0.500000 0.000000 0.000000
O O11 0.000000 0.000000 0.500000
O O12 0.931115 0.937314 0.111288
O O13 0.910471 0.253916 0.134555
O O14 0.764579 0.390847 0.676238
O O15 0.881864 0.588566 0.050576
O O16 0.000000 0.500000 0.000000
#
# Coordination Sequence:
#
# PCOD8024889 Si02
#       7
#     2   2   2   2   2   2   2
#     4  11  25  45  69 100 134 176 221 278 335 393
#     4  11  23  44  67  99 139 176 220 282 324 394
#     4  12  26  42  70 100 131 180 223 269 343 391
#     4  10  23  44  65 101 136 169 225 272 326 396
#     4  11  23  44  69  96 129 178 217 270 338 385
#     4  10  25  43  69  97 136 172 224 273 330 388
#     4  11  24  45  67  99 138 170 230 274 328 400
#
# _framework density 21.604217999999999
#
# number of rings (size 3 to 8) (size 9 to 14) (size 15 to 20)
#    0.000    1.143    2.857    2.143    2.000   10.857 
#    0.000    0.000    0.000    0.000    0.000    0.000 
#    0.000    0.000    0.000    0.000    0.000    0.000 
#
# Total GULP energy -173571.180836 kJ/mol
# GULP energy per Si atom -12397.941488 kJ/mol
# Density = 2.155505 g / cm^3
# Si number density = 21.604218 Si / 1000 Ang^3
#
#
#
# Elastic Constant Matrix: (Units=GPa)
#
#
# Indices 1 2 3 4 5 6 
#
# 1 99.1090 36.4011 36.2651 -3.0753 2.1211 -15.4647
# 2 36.4011 144.5544 91.9085 -12.8771 11.1176 -6.7953
# 3 36.2651 91.9085 120.1895 -7.9666 17.3242 -18.0766
# 4 -3.0753 -12.8771 -7.9666 55.2434 0.4700 -1.3702
# 5 2.1211 11.1176 17.3242 0.4700 32.4030 -1.9400
# 6 -15.4647 -6.7953 -18.0766 -1.3702 -1.9400 35.5477
#
#
#
# Elastic Compliance Matrix: (Units=1/GPa)
#
#
# Indices 1 2 3 4 5 6 
#
# 1 0.012007 -0.001744 -0.001827 0.000089 0.001029 0.004021
# 2 -0.001744 0.014160 -0.010837 0.001548 0.000821 -0.003459
# 3 -0.001827 -0.010837 0.019013 0.000326 -0.005944 0.006490
# 4 0.000089 0.001548 0.000326 0.018551 -0.000910 0.001166
# 5 0.001029 0.000821 -0.005944 -0.000910 0.033667 -0.000616
# 6 0.004021 -0.003459 0.006490 0.001166 -0.000616 0.032531
#
#
# Mechanical properties :
#
#
# Convention : Reuss Voigt Hill
#
# Bulk Modulus (GPa) = 61.11291 77.00024 69.05657
# Shear Modulus (GPa) = 30.45067 37.92404 34.18736
#
# Velocity S-wave (km/s) = 3.75837 4.19429 3.98230
# Velocity P-wave (km/s) = 6.86897 7.69252 7.29238
#
# Compressibility (1/GPa) = 0.01636316
#
# Stress axis : x y z
#
# Youngs Moduli (GPa) = 83.28396 70.62265 52.59514
#
# Poissons Ratio (x) = 0.12319 0.09607
# Poissons Ratio (y) = 0.14527 0.57000
# Poissons Ratio (z) = 0.15213 0.76537
#
# Static dielectric constant tensor:
#      x y z
#    x 4.047900 0.213760 0.294110 
#    y 0.213760 4.166070 0.298660 
#    z 0.294110 0.298660 4.351290 
# 
# 
# High freq. dielectric constant tensor:
#      x y z
#    x 1.842790 0.004690 0.005050 
#    y 0.004690 1.857630 0.001470 
#    z 0.005050 0.001470 1.869730 
# 
# From -- ./inp_files/45355.got.cif
#   From: 2010.06.25/outbox.cif.g09.slc.cpg/sg2_23_cif.got.tgz:45355.got - 2010.06.27 13:26:56.
