data_PCOD8024438
_publ_section_title
;
Structure prediction by ZEFSAII (Michael W. Deem and Ramdas Pophale) SiO2 
 PCOD8024438
Probable space group: P -1
;
_chemical_formula_sum "Si O2"
_cell_formula_units_Z 12
_cell_length_a 13.170066
_cell_length_b 6.870567
_cell_length_c 8.219019
_cell_angle_alpha 81.269487
_cell_angle_beta 124.573699
_cell_angle_gamma 118.352983
_cell_volume 531.747064
_symmetry_space_group_name_H-M "P -1"
_symmetry_group_IT_number 2
_symmetry_cell_setting 'triclinic'
loop_
_space_group_symop_operation_xyz
x,y,z
-x,-y,-z
loop_
_atom_site_type_symbol
_atom_site_label
_atom_site_fract_x
_atom_site_fract_y
_atom_site_fract_z
Si Si1 0.152731 0.307460 0.510006
Si Si2 0.391805 0.766726 0.677058
Si Si3 0.277079 0.520572 0.911674
Si Si4 0.792356 0.023983 0.590519
Si Si5 0.978483 0.487911 0.172250
Si Si6 0.398454 0.317957 0.301139
O O1 0.280253 0.532347 0.519701
O O2 0.166015 0.323511 0.716565
O O3 0.161046 0.086942 0.495999
O O4 0.012153 0.306195 0.315074
O O5 0.389951 0.725616 0.876353
O O6 0.536672 0.826441 0.710417
O O7 0.347565 0.959442 0.585499
O O8 0.185016 0.596197 0.929514
O O9 0.366834 0.446013 0.113583
O O10 0.748416 0.862461 0.728857
O O11 0.924104 0.264024 0.703560
O O12 0.000000 0.500000 0.000000
O O13 0.500000 0.500000 0.500000
#
# Coordination Sequence:
#
# PCOD8024438 Si02
#       6
#     2   2   2   2   2   2
#     4   9  21  42  64  94 128 168 213 267 317 378
#     4   9  22  42  63  94 129 172 216 259 319 380
#     4  10  23  43  67  93 132 175 210 274 321 376
#     4  11  23  42  70  96 129 174 216 265 328 383
#     4  11  24  43  68  97 133 166 218 270 328 385
#     4  12  22  42  69  94 137 171 214 269 320 385
#
# _framework density 22.567121
#
# number of rings (size 3 to 8) (size 9 to 14) (size 15 to 20)
#    1.000    0.667    1.667    2.500    2.333    3.333 
#    3.000    1.667    0.000    0.000    0.000    0.000 
#    0.000    0.000    0.000    0.000    0.000    0.000 
#
# Total GULP energy -148732.045479 kJ/mol
# GULP energy per Si atom -12394.337123 kJ/mol
# Density = 2.251576 g / cm^3
# Si number density = 22.567121 Si / 1000 Ang^3
#
#
#
# Elastic Constant Matrix: (Units=GPa)
#
#
# Indices 1 2 3 4 5 6 
#
# 1 101.7906 18.1702 17.3900 6.7475 -13.0568 -25.2636
# 2 18.1702 80.3859 25.4075 -11.0622 -1.1152 -23.6871
# 3 17.3900 25.4075 120.2220 -18.0237 -14.3477 -22.2249
# 4 6.7475 -11.0622 -18.0237 17.2223 -0.4244 -0.4282
# 5 -13.0568 -1.1152 -14.3477 -0.4244 35.5786 -6.1142
# 6 -25.2636 -23.6871 -22.2249 -0.4282 -6.1142 43.0169
#
#
#
# Elastic Compliance Matrix: (Units=1/GPa)
#
#
# Indices 1 2 3 4 5 6 
#
# 1 0.013169 -0.001397 -0.000462 -0.006211 0.005816 0.007491
# 2 -0.001397 0.017028 0.000322 0.012094 0.001860 0.009107
# 3 -0.000462 0.000322 0.012513 0.013824 0.006325 0.007408
# 4 -0.006211 0.012094 0.013824 0.083195 0.006718 0.011937
# 5 0.005816 0.001860 0.006325 0.006718 0.035124 0.012767
# 6 0.007491 0.009107 0.007408 0.011937 0.012767 0.038422
#
#
# Mechanical properties :
#
#
# Convention : Reuss Voigt Hill
#
# Bulk Modulus (GPa) = 25.22935 47.14821 36.18878
# Shear Modulus (GPa) = 23.17626 35.25895 29.21761
#
# Velocity S-wave (km/s) = 3.20815 3.95701 3.60209
# Velocity P-wave (km/s) = 4.99269 6.46646 5.77676
#
# Compressibility (1/GPa) = 0.03963637
#
# Stress axis : x y z
#
# Youngs Moduli (GPa) = 75.93344 58.72810 79.91446
#
# Poissons Ratio (x) = 0.08207 0.03690
# Poissons Ratio (y) = 0.10611 -0.02575
# Poissons Ratio (z) = 0.03507 -0.01892
#
# Static dielectric constant tensor:
#      x y z
#    x 4.018550 -0.137080 -0.096050 
#    y -0.137080 3.750740 -0.086520 
#    z -0.096050 -0.086520 3.676270 
# 
# 
# High freq. dielectric constant tensor:
#      x y z
#    x 1.903250 -0.012220 -0.006820 
#    y -0.012220 1.872300 -0.018010 
#    z -0.006820 -0.018010 1.876850 
# 
# From -- ./inp_files/45953.got.cif
#   From: 2010.06.25/outbox.cif.g09.slc.cpg/sg2_23_cif.got.tgz:45953.got - 2010.06.27 13:26:56.
