data_PCOD8024140
_publ_section_title
;
Structure prediction by ZEFSAII (Michael W. Deem and Ramdas Pophale) SiO2 
 PCOD8024140
Probable space group: P -1
;
_chemical_formula_sum "Si O2"
_cell_formula_units_Z 16
_cell_length_a 8.181480
_cell_length_b 19.834368
_cell_length_c 10.861901
_cell_angle_alpha 23.780153
_cell_angle_beta 107.475536
_cell_angle_gamma 107.492121
_cell_volume 676.406710
_symmetry_space_group_name_H-M "P -1"
_symmetry_group_IT_number 2
_symmetry_cell_setting 'triclinic'
loop_
_space_group_symop_operation_xyz
x,y,z
-x,-y,-z
loop_
_atom_site_type_symbol
_atom_site_label
_atom_site_fract_x
_atom_site_fract_y
_atom_site_fract_z
Si Si1 0.735361 0.591129 0.858253
Si Si2 0.168756 0.910024 0.659927
Si Si3 0.184078 0.590388 0.370032
Si Si4 0.246003 0.304415 0.694346
Si Si5 0.524653 0.447476 0.338984
Si Si6 0.032043 0.693835 0.560737
Si Si7 0.589421 0.794922 0.694001
Si Si8 0.759468 0.071240 0.627338
O O1 0.542270 0.562720 0.801496
O O2 0.876834 0.639343 0.707705
O O3 0.720332 0.730808 0.727232
O O4 0.808350 0.425174 0.211979
O O5 0.173671 0.847872 0.623227
O O6 0.329557 0.041998 0.492112
O O7 0.175180 0.757254 0.010567
O O8 0.000000 0.000000 0.500000
O O9 0.288261 0.456628 0.542519
O O10 0.290976 0.625886 0.462377
O O11 0.000000 0.500000 0.500000
O O12 0.385485 0.334004 0.571115
O O13 0.051165 0.299772 0.604480
O O14 0.265239 0.128174 0.059483
O O15 0.545833 0.648852 0.030163
O O16 0.105652 0.875672 0.322762
O O17 0.415112 0.850523 0.501546
#
# Coordination Sequence:
#
# PCOD8024140 Si02
#       8
#     2   2   2   2   2   2   2   2
#     4  10  23  42  71 105 133 185 223 287 339 414
#     4  12  27  46  68 100 137 179 231 283 342 411
#     4  12  27  44  69 100 136 181 226 284 341 409
#     4  11  25  44  68  99 141 182 226 283 341 406
#     4  11  23  44  66  99 136 180 228 273 342 405
#     4  10  23  42  72 101 140 175 235 277 348 402
#     4  12  24  42  71 100 138 181 232 278 342 408
#     4  12  24  44  68 103 138 182 227 284 343 403
#
# _framework density 23.654406000000002
#
# number of rings (size 3 to 8) (size 9 to 14) (size 15 to 20)
#    0.000    0.750    1.250    6.000    7.000    0.000 
#    0.000    6.875    0.000    0.000    0.000    0.000 
#    0.000    0.000    0.000    0.000    0.000    0.000 
#
# Total GULP energy -198311.628662 kJ/mol
# GULP energy per Si atom -12394.476791 kJ/mol
# Density = 2.360057 g / cm^3
# Si number density = 23.654406 Si / 1000 Ang^3
#
#
#
# Elastic Constant Matrix: (Units=GPa)
#
#
# Indices 1 2 3 4 5 6 
#
# 1 94.2821 39.1420 32.8167 14.1503 19.4868 19.8034
# 2 39.1420 77.9854 23.5086 9.1187 6.3222 14.0967
# 3 32.8167 23.5086 157.4338 10.9413 2.0885 11.1723
# 4 14.1503 9.1187 10.9413 40.4196 2.7748 4.3202
# 5 19.4868 6.3222 2.0885 2.7748 40.8059 -6.8297
# 6 19.8034 14.0967 11.1723 4.3202 -6.8297 39.8740
#
#
#
# Elastic Compliance Matrix: (Units=1/GPa)
#
#
# Indices 1 2 3 4 5 6 
#
# 1 0.017334 -0.005824 -0.001927 -0.002905 -0.008270 -0.007112
# 2 -0.005824 0.016666 -0.001007 -0.001162 -0.000107 -0.002610
# 3 -0.001927 -0.001007 0.006993 -0.000996 0.000717 -0.000415
# 4 -0.002905 -0.001162 -0.000996 0.026394 -0.000307 -0.000780
# 5 -0.008270 -0.000107 0.000717 -0.000307 0.029981 0.009113
# 6 -0.007112 -0.002610 -0.000415 -0.000780 0.009113 0.031295
#
#
# Mechanical properties :
#
#
# Convention : Reuss Voigt Hill
#
# Bulk Modulus (GPa) = 42.59553 57.84841 50.22197
# Shear Modulus (GPa) = 32.46633 39.83549 36.15091
#
# Velocity S-wave (km/s) = 3.70878 4.10818 3.91358
# Velocity P-wave (km/s) = 6.03213 6.85650 6.45749
#
# Compressibility (1/GPa) = 0.02347664
#
# Stress axis : x y z
#
# Youngs Moduli (GPa) = 57.68990 60.00297 142.99556
#
# Poissons Ratio (x) = 0.34943 0.27560
# Poissons Ratio (y) = 0.33596 0.14404
# Poissons Ratio (z) = 0.11119 0.06044
#
# Static dielectric constant tensor:
#      x y z
#    x 4.280070 0.377170 0.032630 
#    y 0.377170 4.714380 -0.052290 
#    z 0.032630 -0.052290 4.322840 
# 
# 
# High freq. dielectric constant tensor:
#      x y z
#    x 1.947930 0.017620 -0.001220 
#    y 0.017620 1.941480 0.005870 
#    z -0.001220 0.005870 1.933590 
# 
# From -- ./inp_files/405216.got.cif
#   From: 2010.06.25/outbox.cif.g09.slc.cpg/sg2_203_cif.got.tgz:405216.got - 2010.06.27 13:26:56.
