data_PCOD8024314
_publ_section_title
;
Structure prediction by ZEFSAII (Michael W. Deem and Ramdas Pophale) SiO2 
 PCOD8024314
Probable space group: P -1
;
_chemical_formula_sum "Si O2"
_cell_formula_units_Z 16
_cell_length_a 11.812595
_cell_length_b 19.584088
_cell_length_c 20.083592
_cell_angle_alpha 19.919641
_cell_angle_beta 153.447510
_cell_angle_gamma 144.824327
_cell_volume 699.042292
_symmetry_space_group_name_H-M "P -1"
_symmetry_group_IT_number 2
_symmetry_cell_setting 'triclinic'
loop_
_space_group_symop_operation_xyz
x,y,z
-x,-y,-z
loop_
_atom_site_type_symbol
_atom_site_label
_atom_site_fract_x
_atom_site_fract_y
_atom_site_fract_z
Si Si1 0.544407 0.806991 0.323092
Si Si2 0.114926 0.138445 0.772124
Si Si3 0.367173 0.611982 0.958600
Si Si4 0.712804 0.989398 0.374779
Si Si5 0.496239 0.549557 0.284669
Si Si6 0.955723 0.136409 0.546029
Si Si7 0.933556 0.726212 0.843666
Si Si8 0.216504 0.616055 0.535130
O O1 0.561602 0.935318 0.281249
O O2 0.526349 0.576423 0.543826
O O3 0.779525 0.814633 0.390627
O O4 0.273299 0.912941 0.052748
O O5 0.309571 0.298499 0.735739
O O6 0.946271 0.185207 0.574076
O O7 0.923667 0.163209 0.713731
O O8 0.289054 0.718946 0.748545
O O9 0.407133 0.786329 0.872300
O O10 0.142783 0.480521 0.977938
O O11 0.644823 0.475018 0.239316
O O12 0.719289 0.818432 0.592421
O O13 0.000000 0.000000 0.500000
O O14 0.582528 0.393313 0.411741
O O15 0.214882 0.672461 0.007210
O O16 0.938220 0.899216 0.743547
O O17 0.000000 0.500000 0.500000
#
# Coordination Sequence:
#
# PCOD8024314 Si02
#       8
#     2   2   2   2   2   2   2   2
#     4  12  22  37  62  96 124 158 205 261 313 360
#     4  11  25  44  59  85 134 172 207 244 300 376
#     4  11  22  39  64  94 124 160 207 254 310 368
#     4  11  18  32  55  91 125 147 188 255 320 355
#     4  11  22  38  67  95 121 160 206 261 313 362
#     4  11  24  40  62  94 125 167 204 257 309 356
#     4  11  21  37  63 100 125 151 203 269 317 355
#     4  10  23  43  65  90 123 167 203 249 309 375
#
# _framework density 22.888456000000001
#
# number of rings (size 3 to 8) (size 9 to 14) (size 15 to 20)
#    0.000    1.000    5.000    3.375    0.000    4.000 
#    0.000    5.625    0.000    0.000    0.000    0.000 
#    0.000    0.000    0.000    0.000    0.000    0.000 
#
# Total GULP energy -198249.373684 kJ/mol
# GULP energy per Si atom -12390.585855 kJ/mol
# Density = 2.283636 g / cm^3
# Si number density = 22.888456 Si / 1000 Ang^3
#
#
#
# Elastic Constant Matrix: (Units=GPa)
#
#
# Indices 1 2 3 4 5 6 
#
# 1 65.3456 22.5872 9.8915 -1.0901 -0.3743 -19.2215
# 2 22.5872 59.1509 8.9972 10.2482 -2.2072 -1.3864
# 3 9.8915 8.9972 71.7847 10.9291 -3.4342 1.2947
# 4 -1.0901 10.2482 10.9291 40.1711 3.3197 -8.4969
# 5 -0.3743 -2.2072 -3.4342 3.3197 28.6948 0.9272
# 6 -19.2215 -1.3864 1.2947 -8.4969 0.9272 19.7275
#
#
#
# Elastic Compliance Matrix: (Units=1/GPa)
#
#
# Indices 1 2 3 4 5 6 
#
# 1 0.031417 -0.012802 -0.005642 0.013628 -0.003995 0.036140
# 2 -0.012802 0.023169 0.000823 -0.010011 0.003368 -0.015369
# 3 -0.005642 0.000823 0.015990 -0.007004 0.003025 -0.009648
# 4 0.013628 -0.010011 -0.007004 0.036406 -0.006580 0.029024
# 5 -0.003995 0.003368 0.003025 -0.006580 0.036451 -0.008401
# 6 0.036140 -0.015369 -0.009648 0.029024 -0.008401 0.098352
#
#
# Mechanical properties :
#
#
# Convention : Reuss Voigt Hill
#
# Bulk Modulus (GPa) = 28.30169 31.02590 29.66380
# Shear Modulus (GPa) = 17.31261 28.03903 22.67582
#
# Velocity S-wave (km/s) = 2.75324 3.50384 3.15097
# Velocity P-wave (km/s) = 4.74331 5.47301 5.12118
#
# Compressibility (1/GPa) = 0.03533358
#
# Stress axis : x y z
#
# Youngs Moduli (GPa) = 31.82959 43.16078 62.53898
#
# Poissons Ratio (x) = 0.55253 0.35286
# Poissons Ratio (y) = 0.40748 -0.05145
# Poissons Ratio (z) = 0.17959 -0.03550
#
# Static dielectric constant tensor:
#      x y z
#    x 4.068350 -0.025760 -0.205110 
#    y -0.025760 3.977220 0.083410 
#    z -0.205110 0.083410 4.887250 
# 
# 
# High freq. dielectric constant tensor:
#      x y z
#    x 1.870890 -0.006870 -0.003080 
#    y -0.006870 1.902280 0.005530 
#    z -0.003080 0.005530 1.918630 
# 
# From -- ./inp_files/596229.got.cif
#   From: 2010.06.25/outbox.cif.g09.slc.cpg/sg2_299_cif.got.tgz:596229.got - 2010.06.27 13:26:56.
