data_PCOD8024831
_publ_section_title
;
Structure prediction by ZEFSAII (Michael W. Deem and Ramdas Pophale) SiO2 
 PCOD8024831
Probable space group: P -1
;
_chemical_formula_sum "Si O2"
_cell_formula_units_Z 16
_cell_length_a 9.676036
_cell_length_b 10.628681
_cell_length_c 14.813129
_cell_angle_alpha 83.306742
_cell_angle_beta 150.513809
_cell_angle_gamma 104.656086
_cell_volume 708.049322
_symmetry_space_group_name_H-M "P -1"
_symmetry_group_IT_number 2
_symmetry_cell_setting 'triclinic'
loop_
_space_group_symop_operation_xyz
x,y,z
-x,-y,-z
loop_
_atom_site_type_symbol
_atom_site_label
_atom_site_fract_x
_atom_site_fract_y
_atom_site_fract_z
Si Si1 0.184868 0.443084 0.677567
Si Si2 0.368019 0.274976 0.449222
Si Si3 0.183659 0.830402 0.189068
Si Si4 0.037404 0.139125 0.608914
Si Si5 0.147069 0.460678 0.999117
Si Si6 0.484664 0.025326 0.793900
Si Si7 0.886671 0.508392 0.666027
Si Si8 0.966368 0.000686 0.192046
O O1 0.504262 0.475229 0.812845
O O2 0.154456 0.509036 0.751305
O O3 0.000000 0.500000 0.500000
O O4 0.055312 0.286523 0.634745
O O5 0.525685 0.207427 0.616874
O O6 0.603179 0.374466 0.506016
O O7 0.208025 0.359151 0.412880
O O8 0.135235 0.159481 0.269198
O O9 0.241011 0.911094 0.121753
O O10 0.126538 0.920852 0.228100
O O11 0.910981 0.697431 0.030314
O O12 0.336013 0.136754 0.729110
O O13 0.012390 0.046433 0.690004
O O14 0.759890 0.091958 0.387164
O O15 0.004322 0.519186 0.832854
O O16 0.000000 0.500000 0.000000
O O17 0.628564 0.972812 0.966581
#
# Coordination Sequence:
#
# PCOD8024831 Si02
#       8
#     2   2   2   2   2   2   2   2
#     4  12  29  45  76 105 144 194 240 309 365 430
#     4  10  23  43  75 102 143 196 234 300 374 420
#     4  11  24  45  71 104 143 179 251 297 357 434
#     4  11  26  49  69 104 149 180 243 298 367 425
#     4  11  26  48  73 104 145 195 244 300 363 440
#     4  11  26  44  72 108 139 189 231 304 355 443
#     4  10  25  45  72 105 147 189 249 294 361 442
#     4  12  25  45  76 102 143 194 238 296 366 435
#
# _framework density 22.597296
#
# number of rings (size 3 to 8) (size 9 to 14) (size 15 to 20)
#    0.000    1.000    1.250    3.750   14.000    0.000 
#    0.000    0.000    0.000    0.000    0.000    0.000 
#    0.000    0.000    0.000    0.000    0.000    0.000 
#
# Total GULP energy -198416.768899 kJ/mol
# GULP energy per Si atom -12401.048056 kJ/mol
# Density = 2.254586 g / cm^3
# Si number density = 22.597296 Si / 1000 Ang^3
#
#
#
# Elastic Constant Matrix: (Units=GPa)
#
#
# Indices 1 2 3 4 5 6 
#
# 1 145.0014 41.8119 45.3197 3.3640 5.8184 -18.4840
# 2 41.8119 112.6104 55.1656 7.1137 4.2933 -24.4224
# 3 45.3197 55.1656 142.3669 -3.6834 -2.0560 -4.6372
# 4 3.3640 7.1137 -3.6834 28.3883 -1.4250 0.0842
# 5 5.8184 4.2933 -2.0560 -1.4250 35.8012 -2.5789
# 6 -18.4840 -24.4224 -4.6372 0.0842 -2.5789 34.4462
#
#
#
# Elastic Compliance Matrix: (Units=1/GPa)
#
#
# Indices 1 2 3 4 5 6 
#
# 1 0.008409 -0.001272 -0.002121 -0.001020 -0.001143 0.003242
# 2 -0.001272 0.013828 -0.004803 -0.004027 -0.001283 0.008389
# 3 -0.002121 -0.004803 0.009549 0.002771 0.001351 -0.003164
# 4 -0.001020 -0.004027 0.002771 0.036827 0.002060 -0.002965
# 5 -0.001143 -0.001283 0.001351 0.002060 0.028488 0.000786
# 6 0.003242 0.008389 -0.003164 -0.002965 0.000786 0.036358
#
#
# Mechanical properties :
#
#
# Convention : Reuss Voigt Hill
#
# Bulk Modulus (GPa) = 64.96275 76.06368 70.51321
# Shear Modulus (GPa) = 32.26185 36.90591 34.58388
#
# Velocity S-wave (km/s) = 3.78257 4.04567 3.91633
# Velocity P-wave (km/s) = 6.92008 7.45365 7.19182
#
# Compressibility (1/GPa) = 0.01539344
#
# Stress axis : x y z
#
# Youngs Moduli (GPa) = 118.91951 72.31828 104.72834
#
# Poissons Ratio (x) = 0.09199 0.22216
# Poissons Ratio (y) = 0.15127 0.50298
# Poissons Ratio (z) = 0.25226 0.34732
#
# Static dielectric constant tensor:
#      x y z
#    x 4.045740 0.062690 -0.270440 
#    y 0.062690 4.218450 -0.002780 
#    z -0.270440 -0.002780 3.899940 
# 
# 
# High freq. dielectric constant tensor:
#      x y z
#    x 1.897550 -0.008460 0.000100 
#    y -0.008460 1.895830 -0.007230 
#    z 0.000100 -0.007230 1.894730 
# 
# From -- ./inp_files/500379.got.cif
#   From: 2010.06.25/outbox.cif.g09.slc.cpg/sg2_251_cif.got.tgz:500379.got - 2010.06.27 13:26:56.
