data_PCOD8024112
_publ_section_title
;
Structure prediction by ZEFSAII (Michael W. Deem and Ramdas Pophale) SiO2 
 PCOD8024112
Probable space group: P -1
;
_chemical_formula_sum "Si O2"
_cell_formula_units_Z 16
_cell_length_a 9.045212
_cell_length_b 12.534490
_cell_length_c 17.368858
_cell_angle_alpha 51.727638
_cell_angle_beta 103.054313
_cell_angle_gamma 144.155752
_cell_volume 723.682402
_symmetry_space_group_name_H-M "P -1"
_symmetry_group_IT_number 2
_symmetry_cell_setting 'triclinic'
loop_
_space_group_symop_operation_xyz
x,y,z
-x,-y,-z
loop_
_atom_site_type_symbol
_atom_site_label
_atom_site_fract_x
_atom_site_fract_y
_atom_site_fract_z
Si Si1 0.736872 0.061017 0.101894
Si Si2 0.658564 0.193077 0.697323
Si Si3 0.823292 0.544545 0.445181
Si Si4 0.357192 0.297414 0.386984
Si Si5 0.407982 0.610585 0.161518
Si Si6 0.116655 0.597754 0.834955
Si Si7 0.368923 0.147245 0.307082
Si Si8 0.696900 0.630686 0.888582
O O1 0.965218 0.164456 0.141998
O O2 0.397411 0.805703 0.220879
O O3 0.685488 0.931902 0.076160
O O4 0.874486 0.314597 0.981076
O O5 0.615731 0.281897 0.591487
O O6 0.001524 0.397287 0.630347
O O7 0.386527 0.866515 0.802113
O O8 0.582398 0.460383 0.415178
O O9 0.084794 0.817371 0.409704
O O10 0.415147 0.491353 0.273893
O O11 0.424595 0.229925 0.364860
O O12 0.000000 0.000000 0.500000
O O13 0.471978 0.608445 0.082863
O O14 0.073800 0.425551 0.212616
O O15 0.291974 0.645704 0.769926
O O16 0.260243 0.192109 0.225924
O O17 0.500000 0.500000 0.000000
#
# Coordination Sequence:
#
# PCOD8024112 Si02
#       8
#     2   2   2   2   2   2   2   2
#     4  12  24  41  70  97 132 181 217 275 334 387
#     4  10  23  42  70  98 133 172 225 277 329 389
#     4  10  23  45  66 100 132 173 224 273 328 395
#     4  11  25  44  67  97 136 176 214 276 332 391
#     4  11  26  41  64 103 130 171 229 266 325 403
#     4  11  22  46  65  98 135 172 225 273 329 394
#     4  10  24  43  68  98 133 175 220 272 331 395
#     4  11  23  45  65  96 138 173 216 273 330 393
#
# _framework density 22.109145000000002
#
# number of rings (size 3 to 8) (size 9 to 14) (size 15 to 20)
#    0.000    1.250    2.500    2.250    5.250    1.000 
#    2.250    2.500    0.000    0.000    0.000    0.000 
#    0.000    0.000    0.000    0.000    0.000    0.000 
#
# Total GULP energy -198390.735975 kJ/mol
# GULP energy per Si atom -12399.420998 kJ/mol
# Density = 2.205882 g / cm^3
# Si number density = 22.109145 Si / 1000 Ang^3
#
#
#
# Elastic Constant Matrix: (Units=GPa)
#
#
# Indices 1 2 3 4 5 6 
#
# 1 109.2212 30.2048 42.7562 6.8016 4.2165 -3.5080
# 2 30.2048 91.8143 38.8619 -2.7445 4.9300 -10.9435
# 3 42.7562 38.8619 111.6569 -6.1087 -11.2431 -12.2565
# 4 6.8016 -2.7445 -6.1087 19.6015 -4.2118 1.4505
# 5 4.2165 4.9300 -11.2431 -4.2118 29.7203 4.4069
# 6 -3.5080 -10.9435 -12.2565 1.4505 4.4069 41.5759
#
#
#
# Elastic Compliance Matrix: (Units=1/GPa)
#
#
# Indices 1 2 3 4 5 6 
#
# 1 0.012156 -0.001985 -0.004781 -0.006859 -0.004142 -0.000228
# 2 -0.001985 0.013835 -0.004143 0.000293 -0.003934 0.002660
# 3 -0.004781 -0.004143 0.013484 0.006718 0.007199 0.001484
# 4 -0.006859 0.000293 0.006718 0.058243 0.011990 -0.001824
# 5 -0.004142 -0.003934 0.007199 0.011990 0.039889 -0.003909
# 6 -0.000228 0.002660 0.001484 -0.001824 -0.003909 0.025649
#
#
# Mechanical properties :
#
#
# Convention : Reuss Voigt Hill
#
# Bulk Modulus (GPa) = 56.63765 59.59313 58.11539
# Shear Modulus (GPa) = 26.18326 31.57083 28.87705
#
# Velocity S-wave (km/s) = 3.44506 3.78293 3.61794
# Velocity P-wave (km/s) = 6.44186 6.78920 6.61781
#
# Compressibility (1/GPa) = 0.01765610
#
# Stress axis : x y z
#
# Youngs Moduli (GPa) = 82.26234 72.27891 74.16036
#
# Poissons Ratio (x) = 0.14348 0.35459
# Poissons Ratio (y) = 0.16330 0.30727
# Poissons Ratio (z) = 0.39333 0.29948
#
# Static dielectric constant tensor:
#      x y z
#    x 4.309480 0.032320 0.088230 
#    y 0.032320 4.045270 0.240880 
#    z 0.088230 0.240880 4.029410 
# 
# 
# High freq. dielectric constant tensor:
#      x y z
#    x 1.886270 -0.007320 0.003530 
#    y -0.007320 1.866900 0.000260 
#    z 0.003530 0.000260 1.864360 
# 
# From -- ./inp_files/333906.got.cif
#   From: 2010.06.25/outbox.cif.g09.slc.cpg/sg2_167_cif.got.tgz:333906.got - 2010.06.27 13:26:56.
