data_PCOD8024088
_publ_section_title
;
Structure prediction by ZEFSAII (Michael W. Deem and Ramdas Pophale) SiO2 
 PCOD8024088
Probable space group: P -1
;
_chemical_formula_sum "Si O2"
_cell_formula_units_Z 16
_cell_length_a 21.183499
_cell_length_b 11.656676
_cell_length_c 5.153011
_cell_angle_alpha 66.117575
_cell_angle_beta 59.175449
_cell_angle_gamma 39.213472
_cell_volume 690.736506
_symmetry_space_group_name_H-M "P -1"
_symmetry_group_IT_number 2
_symmetry_cell_setting 'triclinic'
loop_
_space_group_symop_operation_xyz
x,y,z
-x,-y,-z
loop_
_atom_site_type_symbol
_atom_site_label
_atom_site_fract_x
_atom_site_fract_y
_atom_site_fract_z
Si Si1 0.125153 0.858000 0.360802
Si Si2 0.365757 0.158772 0.250106
Si Si3 0.226040 0.839726 0.640307
Si Si4 0.461039 0.194929 0.594388
Si Si5 0.456856 0.484052 0.357541
Si Si6 0.118591 0.356210 0.986349
Si Si7 0.229516 0.462926 0.587989
Si Si8 0.776467 0.870916 0.540727
O O1 0.149624 0.928797 0.468897
O O2 0.175496 0.663104 0.512150
O O3 0.169784 0.843397 0.001182
O O4 0.000000 0.000000 0.500000
O O5 0.252624 0.369733 0.347121
O O6 0.328320 0.085299 0.219090
O O7 0.432743 0.021960 0.489413
O O8 0.439400 0.173555 0.952040
O O9 0.329675 0.636274 0.514312
O O10 0.256749 0.942931 0.552346
O O11 0.499701 0.290241 0.429221
O O12 0.352521 0.314712 0.556187
O O13 0.500000 0.500000 0.500000
O O14 0.500000 0.500000 0.000000
O O15 0.131520 0.264559 0.313307
O O16 0.153012 0.457061 0.896352
O O17 0.189066 0.202843 0.758102
O O18 0.000000 0.500000 0.000000
#
# Coordination Sequence:
#
# PCOD8024088 Si02
#       8
#     2   2   2   2   2   2   2   2
#     4  12  28  48  74 107 140 198 247 303 361 430
#     4  10  23  42  70 104 137 184 233 294 363 431
#     4  12  26  49  73 102 151 188 243 302 362 431
#     4  11  22  44  69 101 141 184 236 293 362 432
#     4  12  27  45  71 107 144 194 238 292 362 439
#     4  11  25  44  70 104 137 185 236 303 361 421
#     4  11  24  43  72  99 144 178 243 294 361 425
#     4  11  24  45  69 102 141 183 237 292 363 432
#
# _framework density 23.163679999999999
#
# number of rings (size 3 to 8) (size 9 to 14) (size 15 to 20)
#    0.000    0.750    2.500    4.125    5.250    2.000 
#    0.000    0.000    0.000    0.000    0.000    0.000 
#    0.000    0.000    0.000    0.000    0.000    0.000 
#
# Total GULP energy -198219.347734 kJ/mol
# GULP energy per Si atom -12388.709233 kJ/mol
# Density = 2.311096 g / cm^3
# Si number density = 23.163680 Si / 1000 Ang^3
#
#
#
# Elastic Constant Matrix: (Units=GPa)
#
#
# Indices 1 2 3 4 5 6 
#
# 1 107.9239 29.6682 27.3914 0.5961 -1.5663 -7.5004
# 2 29.6682 121.5340 37.2525 -7.5497 -13.7324 -0.4989
# 3 27.3914 37.2525 129.1951 -1.6677 -0.6584 5.6746
# 4 0.5961 -7.5497 -1.6677 33.6001 0.8434 -5.6339
# 5 -1.5663 -13.7324 -0.6584 0.8434 40.2867 -6.3809
# 6 -7.5004 -0.4989 5.6746 -5.6339 -6.3809 43.9129
#
#
#
# Elastic Compliance Matrix: (Units=1/GPa)
#
#
# Indices 1 2 3 4 5 6 
#
# 1 0.010393 -0.002031 -0.001707 -0.000403 -0.000004 0.001920
# 2 -0.002031 0.009996 -0.002443 0.002220 0.003378 0.000858
# 3 -0.001707 -0.002443 0.008870 -0.000331 -0.001009 -0.001655
# 4 -0.000403 0.002220 -0.000331 0.030916 0.000733 0.004072
# 5 -0.000004 0.003378 -0.001009 0.000733 0.026595 0.004127
# 6 0.001920 0.000858 -0.001655 0.004072 0.004127 0.024446
#
#
# Mechanical properties :
#
#
# Convention : Reuss Voigt Hill
#
# Bulk Modulus (GPa) = 59.18925 60.80858 59.99891
# Shear Modulus (GPa) = 38.69606 41.18268 39.93937
#
# Velocity S-wave (km/s) = 4.09167 4.22109 4.15688
# Velocity P-wave (km/s) = 6.92318 7.07570 6.99985
#
# Compressibility (1/GPa) = 0.01689496
#
# Stress axis : x y z
#
# Youngs Moduli (GPa) = 96.21687 100.03910 112.73911
#
# Poissons Ratio (x) = 0.20322 0.19249
# Poissons Ratio (y) = 0.19545 0.27547
# Poissons Ratio (z) = 0.16428 0.24444
#
# Static dielectric constant tensor:
#      x y z
#    x 4.322480 0.085260 -0.024630 
#    y 0.085260 4.207280 -0.009350 
#    z -0.024630 -0.009350 4.166430 
# 
# 
# High freq. dielectric constant tensor:
#      x y z
#    x 1.934840 0.000700 -0.008480 
#    y 0.000700 1.922780 -0.004900 
#    z -0.008480 -0.004900 1.909950 
# 
# From -- ./inp_files/118493.got.cif
#   From: 2010.06.25/outbox.cif.g09.slc.cpg/sg2_60_cif.got.tgz:118493.got - 2010.06.27 13:26:56.
