data_PCOD8024949
_publ_section_title
;
Structure prediction by ZEFSAII (Michael W. Deem and Ramdas Pophale) SiO2 
 PCOD8024949
Probable space group: P -1
;
_chemical_formula_sum "Si O2"
_cell_formula_units_Z 16
_cell_length_a 16.356766
_cell_length_b 8.573766
_cell_length_c 15.963480
_cell_angle_alpha 129.824761
_cell_angle_beta 24.647083
_cell_angle_gamma 131.805730
_cell_volume 691.599571
_symmetry_space_group_name_H-M "P -1"
_symmetry_group_IT_number 2
_symmetry_cell_setting 'triclinic'
loop_
_space_group_symop_operation_xyz
x,y,z
-x,-y,-z
loop_
_atom_site_type_symbol
_atom_site_label
_atom_site_fract_x
_atom_site_fract_y
_atom_site_fract_z
Si Si1 0.633325 0.719202 0.414152
Si Si2 0.333792 0.827039 0.189531
Si Si3 0.207601 0.997898 0.208066
Si Si4 0.024070 0.738565 0.573933
Si Si5 0.197783 0.353810 0.088587
Si Si6 0.304648 0.956886 0.824326
Si Si7 0.023335 0.718114 0.141376
Si Si8 0.937094 0.707908 0.991250
O O1 0.500000 0.500000 0.500000
O O2 0.506224 0.893305 0.586315
O O3 0.719799 0.707445 0.235103
O O4 0.828552 0.794060 0.318512
O O5 0.311285 0.586165 0.095894
O O6 0.253485 0.847681 0.365963
O O7 0.201238 0.940802 0.292446
O O8 0.562613 0.960664 0.023645
O O9 0.132785 0.201636 0.324738
O O10 0.067244 0.797218 0.222309
O O11 0.973703 0.775110 0.729967
O O12 0.000000 0.500000 0.500000
O O13 0.086507 0.360995 0.106727
O O14 0.356630 0.209152 0.880428
O O15 0.220278 0.826010 0.940551
O O16 0.124541 0.916188 0.905388
O O17 0.982604 0.466820 0.091343
#
# Coordination Sequence:
#
# PCOD8024949 Si02
#       8
#     2   2   2   2   2   2   2   2
#     4  11  21  39  67  97 127 171 223 268 320 377
#     4  10  24  44  72  94 129 169 224 275 318 392
#     4  11  22  45  69  98 126 171 222 272 327 376
#     4  10  23  44  66  96 132 168 217 271 328 388
#     4  11  23  43  66  96 138 177 208 268 336 383
#     4  11  22  42  64  96 133 173 213 270 327 389
#     4  11  21  40  70  93 130 173 218 272 320 384
#     4  11  22  41  66  96 138 168 217 271 318 389
#
# _framework density 23.134772999999999
#
# number of rings (size 3 to 8) (size 9 to 14) (size 15 to 20)
#    0.000    1.250    5.000    1.500    0.000    3.500 
#    2.250    5.000    0.000    0.000    0.000    0.000 
#    0.000    0.000    0.000    0.000    0.000    0.000 
#
# Total GULP energy -198306.080946 kJ/mol
# GULP energy per Si atom -12394.130059 kJ/mol
# Density = 2.308212 g / cm^3
# Si number density = 23.134773 Si / 1000 Ang^3
#
#
#
# Elastic Constant Matrix: (Units=GPa)
#
#
# Indices 1 2 3 4 5 6 
#
# 1 89.5065 16.5859 48.7761 -4.4815 15.1954 -6.8610
# 2 16.5859 72.5231 27.9132 17.4549 0.2479 -8.6766
# 3 48.7761 27.9132 121.5683 15.2172 3.3215 -13.3503
# 4 -4.4815 17.4549 15.2172 44.3419 -7.0889 -2.3095
# 5 15.1954 0.2479 3.3215 -7.0889 32.0464 -2.2891
# 6 -6.8610 -8.6766 -13.3503 -2.3095 -2.2891 30.5856
#
#
#
# Elastic Compliance Matrix: (Units=1/GPa)
#
#
# Indices 1 2 3 4 5 6 
#
# 1 0.016252 -0.002137 -0.006308 0.003659 -0.006220 0.000097
# 2 -0.002137 0.016827 -0.001921 -0.006030 -0.000038 0.002997
# 3 -0.006308 -0.001921 0.011958 -0.003636 0.001182 0.003073
# 4 0.003659 -0.006030 -0.003636 0.027295 0.004722 -0.000063
# 5 -0.006220 -0.000038 0.001182 0.004722 0.035227 0.002103
# 6 0.000097 0.002997 0.003073 -0.000063 0.002103 0.035061
#
#
# Mechanical properties :
#
#
# Convention : Reuss Voigt Hill
#
# Bulk Modulus (GPa) = 41.14226 52.23871 46.69048
# Shear Modulus (GPa) = 29.16240 34.08293 31.62267
#
# Velocity S-wave (km/s) = 3.55427 3.84244 3.70116
# Velocity P-wave (km/s) = 5.88779 6.50499 6.20407
#
# Compressibility (1/GPa) = 0.02430591
#
# Stress axis : x y z
#
# Youngs Moduli (GPa) = 61.53031 59.42818 83.62571
#
# Poissons Ratio (x) = 0.12700 0.52747
# Poissons Ratio (y) = 0.13149 0.16066
# Poissons Ratio (z) = 0.38810 0.11417
#
# Static dielectric constant tensor:
#      x y z
#    x 4.913590 -0.352840 0.569340 
#    y -0.352840 4.235400 0.069370 
#    z 0.569340 0.069370 4.644110 
# 
# 
# High freq. dielectric constant tensor:
#      x y z
#    x 1.911830 -0.015940 0.007150 
#    y -0.015940 1.921750 0.014250 
#    z 0.007150 0.014250 1.910110 
# 
# From -- ./inp_files/575570.got.cif
#   From: 2010.06.25/outbox.cif.g09.slc.cpg/sg2_288_cif.got.tgz:575570.got - 2010.06.27 13:26:56.
