data_PCOD8024432
_publ_section_title
;
Structure prediction by ZEFSAII (Michael W. Deem and Ramdas Pophale) SiO2 
 PCOD8024432
Probable space group: P -1
;
_chemical_formula_sum "Si O2"
_cell_formula_units_Z 16
_cell_length_a 17.473507
_cell_length_b 14.975677
_cell_length_c 8.838314
_cell_angle_alpha 147.471181
_cell_angle_beta 139.897009
_cell_angle_gamma 42.426312
_cell_volume 771.530794
_symmetry_space_group_name_H-M "P -1"
_symmetry_group_IT_number 2
_symmetry_cell_setting 'triclinic'
loop_
_space_group_symop_operation_xyz
x,y,z
-x,-y,-z
loop_
_atom_site_type_symbol
_atom_site_label
_atom_site_fract_x
_atom_site_fract_y
_atom_site_fract_z
Si Si1 0.719629 0.831543 0.732985
Si Si2 0.850562 0.408274 0.718696
Si Si3 0.071006 0.480478 0.310677
Si Si4 0.901287 0.022507 0.255281
Si Si5 0.582441 0.600292 0.679449
Si Si6 0.953404 0.846500 0.777971
Si Si7 0.324857 0.115505 0.600872
Si Si8 0.493242 0.144915 0.320470
O O1 0.829698 0.655075 0.632646
O O2 0.654316 0.874259 0.532498
O O3 0.628159 0.817434 0.707022
O O4 0.777035 0.989408 0.090146
O O5 0.869489 0.522203 0.768948
O O6 0.875948 0.212359 0.418791
O O7 0.711920 0.465417 0.648926
O O8 0.944134 0.424082 0.018184
O O9 0.046914 0.663555 0.619242
O O10 0.000000 0.000000 0.500000
O O11 0.948438 0.875116 0.990505
O O12 0.500000 0.500000 0.500000
O O13 0.512304 0.678988 0.529135
O O14 0.607736 0.752804 0.035868
O O15 0.817899 0.846220 0.511297
O O16 0.000000 0.000000 0.000000
O O17 0.389883 0.921836 0.485652
O O18 0.500000 0.000000 0.000000
#
# Coordination Sequence:
#
# PCOD8024432 Si02
#       8
#     2   2   2   2   2   2   2   2
#     4  11  23  43  68  96 134 178 225 278 344 399
#     4  11  22  40  67  98 140 174 224 288 338 404
#     4  11  22  41  71  98 137 181 219 282 347 408
#     4  11  24  38  62 100 131 172 222 275 337 410
#     4  11  24  45  67  99 130 181 230 280 332 407
#     4  11  23  43  66  97 138 174 224 276 344 401
#     4  10  24  44  65  97 135 179 225 280 334 401
#     4  10  23  43  67  90 126 178 225 274 331 393
#
# _framework density 20.737991999999998
#
# number of rings (size 3 to 8) (size 9 to 14) (size 15 to 20)
#    0.000    1.250    5.000    0.375    3.500    5.000 
#    2.250    0.625    0.000    0.000    0.000    0.000 
#    0.000    0.000    0.000    0.000    0.000    0.000 
#
# Total GULP energy -198361.668672 kJ/mol
# GULP energy per Si atom -12397.604292 kJ/mol
# Density = 2.069079 g / cm^3
# Si number density = 20.737992 Si / 1000 Ang^3
#
#
#
# Elastic Constant Matrix: (Units=GPa)
#
#
# Indices 1 2 3 4 5 6 
#
# 1 122.0596 58.2541 36.4307 -2.8259 12.0796 5.5473
# 2 58.2541 150.1788 47.2838 -8.2073 -3.8281 9.6667
# 3 36.4307 47.2838 98.7904 1.0438 5.2107 3.2727
# 4 -2.8259 -8.2073 1.0438 33.2266 2.3312 -2.6749
# 5 12.0796 -3.8281 5.2107 2.3312 35.5437 4.7151
# 6 5.5473 9.6667 3.2727 -2.6749 4.7151 36.1386
#
#
#
# Elastic Compliance Matrix: (Units=1/GPa)
#
#
# Indices 1 2 3 4 5 6 
#
# 1 0.010955 -0.003673 -0.002084 0.000361 -0.003839 0.000017
# 2 -0.003673 0.009399 -0.003251 0.001757 0.002874 -0.001901
# 3 -0.002084 -0.003251 0.012530 -0.001263 -0.001415 0.000146
# 4 0.000361 0.001757 -0.001263 0.030918 -0.002061 0.002146
# 5 -0.003839 0.002874 -0.001415 -0.002061 0.030649 -0.004203
# 6 0.000017 -0.001901 0.000146 0.002146 -0.004203 0.028871
#
#
# Mechanical properties :
#
#
# Convention : Reuss Voigt Hill
#
# Bulk Modulus (GPa) = 67.25736 72.77399 70.01568
# Shear Modulus (GPa) = 34.17794 36.25246 35.21520
#
# Velocity S-wave (km/s) = 4.06406 4.18559 4.12527
# Velocity P-wave (km/s) = 7.38407 7.65030 7.51837
#
# Compressibility (1/GPa) = 0.01486826
#
# Stress axis : x y z
#
# Youngs Moduli (GPa) = 91.28289 106.39916 79.80687
#
# Poissons Ratio (x) = 0.39075 0.16631
# Poissons Ratio (y) = 0.33524 0.25947
# Poissons Ratio (z) = 0.19023 0.34593
#
# Static dielectric constant tensor:
#      x y z
#    x 3.833140 0.135210 0.131450 
#    y 0.135210 4.162150 0.119050 
#    z 0.131450 0.119050 3.816320 
# 
# 
# High freq. dielectric constant tensor:
#      x y z
#    x 1.817270 0.006060 0.001210 
#    y 0.006060 1.824710 0.003980 
#    z 0.001210 0.003980 1.798390 
# 
# From -- ./inp_files/217921.got.cif
#   From: 2010.06.25/outbox.cif.g09.slc.cpg/sg2_109_cif.got.tgz:217921.got - 2010.06.27 13:26:56.
