data_PCOD8024603
_publ_section_title
;
Structure prediction by ZEFSAII (Michael W. Deem and Ramdas Pophale) SiO2 
 PCOD8024603
Probable space group: P -1
;
_chemical_formula_sum "Si O2"
_cell_formula_units_Z 16
_cell_length_a 9.610111
_cell_length_b 18.024882
_cell_length_c 7.445221
_cell_angle_alpha 35.161586
_cell_angle_beta 91.341460
_cell_angle_gamma 91.780235
_cell_volume 742.337560
_symmetry_space_group_name_H-M "P -1"
_symmetry_group_IT_number 2
_symmetry_cell_setting 'triclinic'
loop_
_space_group_symop_operation_xyz
x,y,z
-x,-y,-z
loop_
_atom_site_type_symbol
_atom_site_label
_atom_site_fract_x
_atom_site_fract_y
_atom_site_fract_z
Si Si1 0.624622 0.098426 0.806116
Si Si2 0.168621 0.307566 0.632203
Si Si3 0.132102 0.086618 0.789366
Si Si4 0.542176 0.249950 0.179411
Si Si5 0.915735 0.455782 0.411528
Si Si6 0.787822 0.720208 0.888023
Si Si7 0.354816 0.704584 0.269571
Si Si8 0.565042 0.521739 0.765207
O O1 0.623856 0.151563 0.499926
O O2 0.612153 0.219510 0.697704
O O3 0.500000 0.000000 0.000000
O O4 0.756814 0.022099 0.019384
O O5 0.163367 0.174765 0.787742
O O6 0.302700 0.383217 0.412667
O O7 0.033125 0.393371 0.410695
O O8 0.177581 0.272836 0.913066
O O9 0.125760 0.171387 0.437718
O O10 0.000000 0.000000 0.000000
O O11 0.376091 0.256048 0.196417
O O12 0.586831 0.206972 0.066532
O O13 0.613135 0.389315 0.941743
O O14 0.805430 0.339146 0.675852
O O15 0.000000 0.500000 0.500000
O O16 0.835214 0.580789 0.085601
O O17 0.446427 0.577029 0.523955
O O18 0.500000 0.500000 0.000000
#
# Coordination Sequence:
#
# PCOD8024603 Si02
#       8
#     2   2   2   2   2   2   2   2
#     4  12  27  44  65 100 133 177 241 278 317 401
#     4  11  25  45  70 100 137 177 219 278 346 402
#     4  12  28  47  67  94 134 185 235 274 327 396
#     4  12  23  41  73 102 137 175 219 280 349 400
#     4  10  23  43  69 106 137 167 223 277 344 422
#     4  11  23  44  71  98 138 175 216 284 342 401
#     4  12  24  42  70 101 137 178 222 279 344 403
#     4  12  22  41  72 106 136 171 216 281 350 410
#
# _framework density 21.553535
#
# number of rings (size 3 to 8) (size 9 to 14) (size 15 to 20)
#    0.000    0.500    5.000    4.125    0.000    5.500 
#    0.000    0.000    0.000    0.000    0.000    0.000 
#    0.000    0.000    0.000    0.000    0.000    0.000 
#
# Total GULP energy -198344.779873 kJ/mol
# GULP energy per Si atom -12396.548742 kJ/mol
# Density = 2.150448 g / cm^3
# Si number density = 21.553535 Si / 1000 Ang^3
#
#
#
# Elastic Constant Matrix: (Units=GPa)
#
#
# Indices 1 2 3 4 5 6 
#
# 1 126.7277 23.4370 47.9855 -0.7045 -24.3852 2.5399
# 2 23.4370 67.0036 39.9517 13.9248 -15.4194 2.3840
# 3 47.9855 39.9517 144.1686 18.8666 -13.5433 -3.2710
# 4 -0.7045 13.9248 18.8666 40.6403 -0.4660 -7.8837
# 5 -24.3852 -15.4194 -13.5433 -0.4660 44.9722 -8.7992
# 6 2.5399 2.3840 -3.2710 -7.8837 -8.7992 33.6060
#
#
#
# Elastic Compliance Matrix: (Units=1/GPa)
#
#
# Indices 1 2 3 4 5 6 
#
# 1 0.010029 -0.001291 -0.002838 0.002114 0.004295 0.000678
# 2 -0.001291 0.019986 -0.004030 -0.005290 0.004539 -0.001765
# 3 -0.002838 -0.004030 0.009395 -0.002885 0.000024 0.000744
# 4 0.002114 -0.005290 -0.002885 0.029112 0.000094 0.006789
# 5 0.004295 0.004539 0.000024 0.000094 0.027412 0.006555
# 6 0.000678 -0.001765 0.000744 0.006789 0.006555 0.033212
#
#
# Mechanical properties :
#
#
# Convention : Reuss Voigt Hill
#
# Bulk Modulus (GPa) = 43.30729 62.29424 52.80076
# Shear Modulus (GPa) = 32.64538 38.94541 35.79540
#
# Velocity S-wave (km/s) = 3.89603 4.25539 4.07967
# Velocity P-wave (km/s) = 6.35415 7.28762 6.83683
#
# Compressibility (1/GPa) = 0.02309080
#
# Stress axis : x y z
#
# Youngs Moduli (GPa) = 99.71060 50.03571 106.44482
#
# Poissons Ratio (x) = 0.06459 0.30211
# Poissons Ratio (y) = 0.12871 0.42900
# Poissons Ratio (z) = 0.28300 0.20166
#
# Static dielectric constant tensor:
#      x y z
#    x 4.112360 -0.137690 0.101620 
#    y -0.137690 4.034890 0.055000 
#    z 0.101620 0.055000 4.281180 
# 
# 
# High freq. dielectric constant tensor:
#      x y z
#    x 1.855430 -0.002920 -0.000160 
#    y -0.002920 1.847470 0.000030 
#    z -0.000160 0.000030 1.852070 
# 
# From -- ./inp_files/222851.got.cif
#   From: 2010.06.25/outbox.cif.g09.slc.cpg/sg2_112_cif.got.tgz:222851.got - 2010.06.27 13:26:56.
