data_PCOD8024272
_publ_section_title
;
Structure prediction by ZEFSAII (Michael W. Deem and Ramdas Pophale) SiO2 
 PCOD8024272
Probable space group: P -1
;
_chemical_formula_sum "Si O2"
_cell_formula_units_Z 14
_cell_length_a 16.349472
_cell_length_b 8.809672
_cell_length_c 15.630021
_cell_angle_alpha 53.960488
_cell_angle_beta 27.870210
_cell_angle_gamma 74.194464
_cell_volume 642.755880
_symmetry_space_group_name_H-M "P -1"
_symmetry_group_IT_number 2
_symmetry_cell_setting 'triclinic'
loop_
_space_group_symop_operation_xyz
x,y,z
-x,-y,-z
loop_
_atom_site_type_symbol
_atom_site_label
_atom_site_fract_x
_atom_site_fract_y
_atom_site_fract_z
Si Si1 0.135071 0.207739 0.553428
Si Si2 0.740936 0.124631 0.866649
Si Si3 0.069786 0.479539 0.811837
Si Si4 0.692253 0.432053 0.076550
Si Si5 0.252835 0.904826 0.624243
Si Si6 0.792794 0.538658 0.756814
Si Si7 0.597434 0.430968 0.661633
O O1 0.262665 0.329669 0.302136
O O2 0.257765 0.429679 0.433722
O O3 0.867150 0.081838 0.835681
O O4 0.146659 0.000980 0.636921
O O5 0.653149 0.252699 0.951758
O O6 0.928976 0.309552 0.557502
O O7 0.526805 0.857555 0.115231
O O8 0.239049 0.709743 0.643642
O O9 0.228249 0.454419 0.617482
O O10 0.929299 0.529133 0.866834
O O11 0.893571 0.224821 0.111051
O O12 0.583904 0.525938 0.201140
O O13 0.516346 0.132598 0.332210
O O14 0.731117 0.547758 0.907642
#
# Coordination Sequence:
#
# PCOD8024272 Si02
#       7
#     2   2   2   2   2   2   2
#     4   9  20  39  59  91 125 158 203 251 294 372
#     4   9  19  39  57  91 127 162 199 251 298 365
#     4  11  24  43  64  92 121 161 209 259 292 375
#     4  11  23  42  63  94 124 163 199 257 304 363
#     4  10  23  43  64  86 124 163 205 250 319 348
#     4   9  20  39  61  87 134 159 198 251 308 357
#     4  11  23  37  65  93 121 162 211 239 314 359
#
# _framework density 21.781207999999999
#
# number of rings (size 3 to 8) (size 9 to 14) (size 15 to 20)
#    0.857    1.143    0.000    3.000    0.000    5.714 
#    2.571    7.857    0.000    0.000    0.000    0.000 
#    0.000    0.000    0.000    0.000    0.000    0.000 
#
# Total GULP energy -173554.870755 kJ/mol
# GULP energy per Si atom -12396.776482 kJ/mol
# Density = 2.173163 g / cm^3
# Si number density = 21.781208 Si / 1000 Ang^3
#
#
#
# Elastic Constant Matrix: (Units=GPa)
#
#
# Indices 1 2 3 4 5 6 
#
# 1 55.7740 37.7809 32.4061 5.5537 19.7209 0.4587
# 2 37.7809 75.1604 38.3381 14.0254 6.3501 0.4909
# 3 32.4061 38.3381 91.7788 8.7848 18.6022 17.8765
# 4 5.5537 14.0254 8.7848 42.8889 3.9128 -1.8344
# 5 19.7209 6.3501 18.6022 3.9128 28.6276 -4.9910
# 6 0.4587 0.4909 17.8765 -1.8344 -4.9910 26.6496
#
#
#
# Elastic Compliance Matrix: (Units=1/GPa)
#
#
# Indices 1 2 3 4 5 6 
#
# 1 0.037889 -0.016972 -0.001333 0.002818 -0.022458 -0.003457
# 2 -0.016972 0.026068 -0.008658 -0.005465 0.013641 0.007798
# 3 -0.001333 -0.008658 0.021033 -0.000770 -0.013605 -0.016528
# 4 0.002818 -0.005465 -0.000770 0.025277 -0.003392 0.001674
# 5 -0.022458 0.013641 -0.013605 -0.003392 0.060220 0.020306
# 6 -0.003457 0.007798 -0.016528 0.001674 0.020306 0.052445
#
#
# Mechanical properties :
#
#
# Convention : Reuss Voigt Hill
#
# Bulk Modulus (GPa) = 32.18916 48.86258 40.52587
# Shear Modulus (GPa) = 17.40864 27.24576 22.32720
#
# Velocity S-wave (km/s) = 2.83017 3.54062 3.20514
# Velocity P-wave (km/s) = 5.04879 6.26073 5.68714
#
# Compressibility (1/GPa) = 0.03106636
#
# Stress axis : x y z
#
# Youngs Moduli (GPa) = 26.39272 38.36067 47.54326
#
# Poissons Ratio (x) = 0.65104 0.06339
# Poissons Ratio (y) = 0.44792 0.41161
# Poissons Ratio (z) = 0.03519 0.33211
#
# Static dielectric constant tensor:
#      x y z
#    x 3.717970 0.085090 0.009790 
#    y 0.085090 3.786540 -0.047890 
#    z 0.009790 -0.047890 3.875570 
# 
# 
# High freq. dielectric constant tensor:
#      x y z
#    x 1.843920 0.005820 -0.001690 
#    y 0.005820 1.852710 -0.006000 
#    z -0.001690 -0.006000 1.853530 
# 
# From -- ./inp_files/536943.got.cif
#   From: 2010.06.25/outbox.cif.g09.slc.cpg/sg2_269_cif.got.tgz:536943.got - 2010.06.27 13:26:56.
