data_PCOD8024758
_publ_section_title
;
Structure prediction by ZEFSAII (Michael W. Deem and Ramdas Pophale) SiO2 
 PCOD8024758
Probable space group: P -1
;
_chemical_formula_sum "Si O2"
_cell_formula_units_Z 14
_cell_length_a 14.667930
_cell_length_b 9.804082
_cell_length_c 7.640962
_cell_angle_alpha 83.496878
_cell_angle_beta 63.854645
_cell_angle_gamma 36.198103
_cell_volume 518.112849
_symmetry_space_group_name_H-M "P -1"
_symmetry_group_IT_number 2
_symmetry_cell_setting 'triclinic'
loop_
_space_group_symop_operation_xyz
x,y,z
-x,-y,-z
loop_
_atom_site_type_symbol
_atom_site_label
_atom_site_fract_x
_atom_site_fract_y
_atom_site_fract_z
Si Si1 0.260772 0.271875 0.466161
Si Si2 0.425888 0.510487 0.832211
Si Si3 0.975219 0.722166 0.413055
Si Si4 0.920311 0.442584 0.085252
Si Si5 0.201146 0.819734 0.630760
Si Si6 0.119865 0.020420 0.198690
Si Si7 0.588020 0.784318 0.081473
O O1 0.105874 0.326760 0.584770
O O2 0.231213 0.394423 0.648668
O O3 0.202894 0.437987 0.320117
O O4 0.472466 0.964353 0.329371
O O5 0.268857 0.684345 0.780837
O O6 0.617071 0.365445 0.623838
O O7 0.468077 0.308516 0.897096
O O8 0.326251 0.708492 0.047310
O O9 0.866609 0.895181 0.658176
O O10 0.926396 0.894475 0.284236
O O11 0.815244 0.533063 0.974365
O O12 0.091143 0.140986 0.026686
O O13 0.000000 0.500000 0.000000
O O14 0.060755 0.874841 0.643536
O O15 0.500000 0.000000 0.000000
#
# Coordination Sequence:
#
# PCOD8024758 Si02
#       7
#     2   2   2   2   2   2   2
#     4  10  24  47  71  96 149 185 244 295 358 428
#     4  11  26  45  73 105 144 189 240 300 362 433
#     4  10  23  43  72 101 136 193 232 298 359 421
#     4  11  27  46  74 105 142 195 242 293 371 431
#     4  11  23  45  72 103 144 189 236 293 371 430
#     4  11  25  45  69 108 146 182 244 294 363 435
#     4  12  27  47  71 110 145 190 246 297 359 434
#
# _framework density 27.021142000000001
#
# number of rings (size 3 to 8) (size 9 to 14) (size 15 to 20)
#    0.000    1.143    2.857    1.286   10.000    0.571 
#    5.143    0.000    0.000    0.000    0.000    0.000 
#    0.000    0.000    0.000    0.000    0.000    0.000 
#
# Total GULP energy -173533.867674 kJ/mol
# GULP energy per Si atom -12395.276262 kJ/mol
# Density = 2.695964 g / cm^3
# Si number density = 27.021142 Si / 1000 Ang^3
#
#
#
# Elastic Constant Matrix: (Units=GPa)
#
#
# Indices 1 2 3 4 5 6 
#
# 1 57.8194 20.2288 20.3028 -6.6076 -8.9856 3.3294
# 2 20.2288 190.9326 47.1916 -0.7862 -3.4361 11.6784
# 3 20.3028 47.1916 62.3096 9.8051 7.8208 1.6986
# 4 -6.6076 -0.7862 9.8051 61.6363 -0.8183 -2.0881
# 5 -8.9856 -3.4361 7.8208 -0.8183 53.1785 -0.2722
# 6 3.3294 11.6784 1.6986 -2.0881 -0.2722 43.3252
#
#
#
# Elastic Compliance Matrix: (Units=1/GPa)
#
#
# Indices 1 2 3 4 5 6 
#
# 1 0.021377 -0.000113 -0.008022 0.003593 0.004834 -0.001094
# 2 -0.000113 0.006668 -0.005258 0.000873 0.001191 -0.001533
# 3 -0.008022 -0.005258 0.024042 -0.004794 -0.005301 0.000827
# 4 0.003593 0.000873 -0.004794 0.017423 0.001639 0.000526
# 5 0.004834 0.001191 -0.005301 0.001639 0.020502 -0.000277
# 6 -0.001094 -0.001533 0.000827 0.000526 -0.000277 0.023570
#
#
# Mechanical properties :
#
#
# Convention : Reuss Voigt Hill
#
# Bulk Modulus (GPa) = 39.52573 54.05645 46.79109
# Shear Modulus (GPa) = 33.60185 46.51721 40.05953
#
# Velocity S-wave (km/s) = 3.53021 4.15361 3.85453
# Velocity P-wave (km/s) = 5.59249 6.56140 6.09623
#
# Compressibility (1/GPa) = 0.02529998
#
# Stress axis : x y z
#
# Youngs Moduli (GPa) = 46.78004 149.97260 41.59332
#
# Poissons Ratio (x) = 0.01700 0.33366
# Poissons Ratio (y) = 0.00530 0.21871
# Poissons Ratio (z) = 0.37526 0.78859
#
# Static dielectric constant tensor:
#      x y z
#    x 4.497530 -0.148150 0.175840 
#    y -0.148150 5.817440 0.321090 
#    z 0.175840 0.321090 5.270430 
# 
# 
# High freq. dielectric constant tensor:
#      x y z
#    x 2.065660 -0.004710 0.019270 
#    y -0.004710 2.123620 0.007660 
#    z 0.019270 0.007660 2.107820 
# 
# From -- ./inp_files/159410.got.cif
#   From: 2010.06.25/outbox.cif.g09.slc.cpg/sg2_80_cif.got.tgz:159410.got - 2010.06.27 13:26:56.
