data_PCOD8024871
_publ_section_title
;
Structure prediction by ZEFSAII (Michael W. Deem and Ramdas Pophale) SiO2 
 PCOD8024871
Probable space group: P -1
;
_chemical_formula_sum "Si O2"
_cell_formula_units_Z 16
_cell_length_a 11.403620
_cell_length_b 14.578090
_cell_length_c 12.188539
_cell_angle_alpha 55.713097
_cell_angle_beta 92.515515
_cell_angle_gamma 139.123221
_cell_volume 775.290054
_symmetry_space_group_name_H-M "P -1"
_symmetry_group_IT_number 2
_symmetry_cell_setting 'triclinic'
loop_
_space_group_symop_operation_xyz
x,y,z
-x,-y,-z
loop_
_atom_site_type_symbol
_atom_site_label
_atom_site_fract_x
_atom_site_fract_y
_atom_site_fract_z
Si Si1 0.130657 0.869833 0.321650
Si Si2 0.716365 0.264234 0.793117
Si Si3 0.650326 0.780456 0.737366
Si Si4 0.496331 0.716378 0.114415
Si Si5 0.781063 0.643199 0.837683
Si Si6 0.459722 0.596016 0.420806
Si Si7 0.652125 0.892665 0.434572
Si Si8 0.735273 0.271802 0.542965
O O1 0.243595 0.843516 0.373320
O O2 0.835718 0.618687 0.451596
O O3 0.177850 0.985514 0.351474
O O4 0.269778 0.035527 0.109007
O O5 0.707975 0.360610 0.810346
O O6 0.666802 0.261837 0.667711
O O7 0.001637 0.453412 0.676814
O O8 0.500000 0.000000 0.000000
O O9 0.807351 0.797968 0.733678
O O10 0.587847 0.765266 0.622967
O O11 0.379799 0.537079 0.946428
O O12 0.347405 0.500227 0.184436
O O13 0.597423 0.746563 0.211013
O O14 0.058278 0.824491 0.741534
O O15 0.500000 0.500000 0.500000
O O16 0.594975 0.771037 0.408186
O O17 0.487788 0.868886 0.448384
#
# Coordination Sequence:
#
# PCOD8024871 Si02
#       8
#     2   2   2   2   2   2   2   2
#     4  11  23  43  66  91 124 170 214 249 313 376
#     4  11  21  40  65  89 124 170 205 254 312 374
#     4  10  23  44  65  87 126 171 209 252 304 380
#     4  11  22  41  68  90 121 171 211 255 310 374
#     4  10  23  44  64  89 124 170 212 247 312 374
#     4  12  24  39  64  97 126 159 211 267 314 363
#     4  12  24  38  62  95 127 159 202 266 316 362
#     4  11  23  39  62  96 124 160 208 256 317 374
#
# _framework density 20.637436999999998
#
# number of rings (size 3 to 8) (size 9 to 14) (size 15 to 20)
#    0.000    1.000    3.750    3.375    0.000    3.000 
#    0.000    1.250    0.000    0.000    0.000    0.000 
#    0.000    0.000    0.000    0.000    0.000    0.000 
#
# Total GULP energy -198401.693437 kJ/mol
# GULP energy per Si atom -12400.105840 kJ/mol
# Density = 2.059047 g / cm^3
# Si number density = 20.637437 Si / 1000 Ang^3
#
#
#
# Elastic Constant Matrix: (Units=GPa)
#
#
# Indices 1 2 3 4 5 6 
#
# 1 86.6309 29.9004 39.2958 -3.8411 4.1654 3.7159
# 2 29.9004 102.5640 51.1487 12.9925 7.2432 -4.0673
# 3 39.2958 51.1487 138.8263 3.9501 3.5505 9.4372
# 4 -3.8411 12.9925 3.9501 24.7870 -3.5679 -1.2683
# 5 4.1654 7.2432 3.5505 -3.5679 23.3662 -0.2200
# 6 3.7159 -4.0673 9.4372 -1.2683 -0.2200 42.1547
#
#
#
# Elastic Compliance Matrix: (Units=1/GPa)
#
#
# Indices 1 2 3 4 5 6 
#
# 1 0.014216 -0.003246 -0.002884 0.004259 -0.000447 -0.000795
# 2 -0.003246 0.014128 -0.004112 -0.007759 -0.004339 0.002314
# 3 -0.002884 -0.004112 0.009681 0.000092 0.000310 -0.002305
# 4 0.004259 -0.007759 0.000092 0.046325 0.008708 0.000294
# 5 -0.000447 -0.004339 0.000310 0.008708 0.045505 0.000051
# 6 -0.000795 0.002314 -0.002305 0.000294 0.000051 0.024541
#
#
# Mechanical properties :
#
#
# Convention : Reuss Voigt Hill
#
# Bulk Modulus (GPa) = 57.00741 63.19012 60.09876
# Shear Modulus (GPa) = 27.66631 31.90666 29.78649
#
# Velocity S-wave (km/s) = 3.66538 3.93626 3.80323
# Velocity P-wave (km/s) = 6.75252 7.16551 6.96208
#
# Compressibility (1/GPa) = 0.01754158
#
# Stress axis : x y z
#
# Youngs Moduli (GPa) = 70.34336 70.78130 103.29786
#
# Poissons Ratio (x) = 0.22973 0.29789
# Poissons Ratio (y) = 0.22831 0.42477
# Poissons Ratio (z) = 0.20286 0.29106
#
# Static dielectric constant tensor:
#      x y z
#    x 3.946990 -0.096140 -0.017420 
#    y -0.096140 3.712600 0.141620 
#    z -0.017420 0.141620 3.986620 
# 
# 
# High freq. dielectric constant tensor:
#      x y z
#    x 1.812490 -0.015760 -0.001800 
#    y -0.015760 1.800820 0.004920 
#    z -0.001800 0.004920 1.825480 
# 
# From -- ./inp_files/433830.got.cif
#   From: 2010.06.25/outbox.cif.g09.slc.cpg/sg2_217_cif.got.tgz:433830.got - 2010.06.27 13:26:56.
