data_PCOD8024184
_publ_section_title
;
Structure prediction by ZEFSAII (Michael W. Deem and Ramdas Pophale) SiO2 
 PCOD8024184
Probable space group: P -1
;
_chemical_formula_sum "Si O2"
_cell_formula_units_Z 16
_cell_length_a 15.273304
_cell_length_b 9.212279
_cell_length_c 11.962236
_cell_angle_alpha 100.070599
_cell_angle_beta 108.115360
_cell_angle_gamma 27.428931
_cell_volume 716.968052
_symmetry_space_group_name_H-M "P -1"
_symmetry_group_IT_number 2
_symmetry_cell_setting 'triclinic'
loop_
_space_group_symop_operation_xyz
x,y,z
-x,-y,-z
loop_
_atom_site_type_symbol
_atom_site_label
_atom_site_fract_x
_atom_site_fract_y
_atom_site_fract_z
Si Si1 0.576559 0.541798 0.081827
Si Si2 0.699138 0.422311 0.439765
Si Si3 0.314129 0.434687 0.318914
Si Si4 0.006613 0.493056 0.677486
Si Si5 0.748882 0.685532 0.422141
Si Si6 0.690447 0.081142 0.783744
Si Si7 0.107214 0.050111 0.710955
Si Si8 0.773018 0.297906 0.911982
O O1 0.406420 0.862271 0.136292
O O2 0.769860 0.224282 0.191112
O O3 0.500000 0.500000 0.000000
O O4 0.640761 0.544794 0.999449
O O5 0.693390 0.422492 0.572864
O O6 0.757253 0.502205 0.429937
O O7 0.480274 0.676887 0.346850
O O8 0.871064 0.063470 0.415699
O O9 0.297679 0.510420 0.196428
O O10 0.123073 0.604347 0.293370
O O11 0.513499 0.055603 0.364009
O O12 0.127995 0.453612 0.661614
O O13 0.169842 0.133380 0.731166
O O14 0.841365 0.655251 0.551860
O O15 0.894746 0.714326 0.772921
O O16 0.738996 0.176639 0.853617
O O17 0.000000 0.000000 0.000000
#
# Coordination Sequence:
#
# PCOD8024184 Si02
#       8
#     2   2   2   2   2   2   2   2
#     4   9  21  43  66  93 127 179 222 279 325 388
#     4  11  23  43  67 107 133 181 216 271 354 399
#     4  12  23  39  70  97 140 178 218 273 339 409
#     4  11  24  42  63 106 136 180 216 277 345 394
#     4  11  25  40  65  98 154 168 216 278 334 421
#     4  10  23  42  72  93 139 175 220 281 341 405
#     4  11  23  40  71  98 137 178 224 274 335 412
#     4  11  24  43  69 102 133 177 232 283 326 392
#
# _framework density 22.316196999999999
#
# number of rings (size 3 to 8) (size 9 to 14) (size 15 to 20)
#    0.000    1.250    3.750    1.500    7.000    1.500 
#    0.000    2.500    2.750    4.500    0.000    0.000 
#    0.000    0.000    0.000    0.000    0.000    0.000 
#
# Total GULP energy -198259.578025 kJ/mol
# GULP energy per Si atom -12391.223627 kJ/mol
# Density = 2.226540 g / cm^3
# Si number density = 22.316197 Si / 1000 Ang^3
#
#
#
# Elastic Constant Matrix: (Units=GPa)
#
#
# Indices 1 2 3 4 5 6 
#
# 1 65.7967 26.5398 24.5335 -0.5152 -6.0694 -10.9247
# 2 26.5398 117.0721 19.3692 20.1610 -21.6380 -13.7575
# 3 24.5335 19.3692 100.9441 11.7011 -22.4418 -9.6257
# 4 -0.5152 20.1610 11.7011 32.1108 -11.4508 -7.0130
# 5 -6.0694 -21.6380 -22.4418 -11.4508 45.1843 1.8608
# 6 -10.9247 -13.7575 -9.6257 -7.0130 1.8608 33.0908
#
#
#
# Elastic Compliance Matrix: (Units=1/GPa)
#
#
# Indices 1 2 3 4 5 6 
#
# 1 0.019150 -0.004084 -0.004108 0.005265 -0.000277 0.004561
# 2 -0.004084 0.011255 0.000473 -0.005573 0.003578 0.002087
# 3 -0.004108 0.000473 0.012411 -0.002726 0.005083 0.001587
# 4 0.005265 -0.005573 -0.002726 0.039453 0.006409 0.006629
# 5 -0.000277 0.003578 0.005083 0.006409 0.027847 0.002667
# 6 0.004561 0.002087 0.001587 0.006629 0.002667 0.034310
#
#
# Mechanical properties :
#
#
# Convention : Reuss Voigt Hill
#
# Bulk Modulus (GPa) = 36.52152 47.18867 41.85509
# Shear Modulus (GPa) = 29.58762 36.30186 32.94474
#
# Velocity S-wave (km/s) = 3.64515 4.03762 3.84639
# Velocity P-wave (km/s) = 5.84099 6.55194 6.20665
#
# Compressibility (1/GPa) = 0.02738111
#
# Stress axis : x y z
#
# Youngs Moduli (GPa) = 52.21902 88.84557 80.57091
#
# Poissons Ratio (x) = 0.36281 0.33096
# Poissons Ratio (y) = 0.21324 -0.03813
# Poissons Ratio (z) = 0.21450 -0.04205
#
# Static dielectric constant tensor:
#      x y z
#    x 4.228270 -0.478670 -0.213930 
#    y -0.478670 4.095650 0.351960 
#    z -0.213930 0.351960 4.592000 
# 
# 
# High freq. dielectric constant tensor:
#      x y z
#    x 1.871570 -0.027030 -0.000260 
#    y -0.027030 1.874970 0.008660 
#    z -0.000260 0.008660 1.885830 
# 
# From -- ./inp_files/447668.got.cif
#   From: 2010.06.25/outbox.cif.g09.slc.cpg/sg2_224_cif.got.tgz:447668.got - 2010.06.27 13:26:56.
