data_PCOD8024331
_publ_section_title
;
Structure prediction by ZEFSAII (Michael W. Deem and Ramdas Pophale) SiO2 
 PCOD8024331
Probable space group: P -1
;
_chemical_formula_sum "Si O2"
_cell_formula_units_Z 16
_cell_length_a 9.154915
_cell_length_b 16.147894
_cell_length_c 12.731868
_cell_angle_alpha 52.328201
_cell_angle_beta 76.779336
_cell_angle_gamma 121.075330
_cell_volume 761.048877
_symmetry_space_group_name_H-M "P -1"
_symmetry_group_IT_number 2
_symmetry_cell_setting 'triclinic'
loop_
_space_group_symop_operation_xyz
x,y,z
-x,-y,-z
loop_
_atom_site_type_symbol
_atom_site_label
_atom_site_fract_x
_atom_site_fract_y
_atom_site_fract_z
Si Si1 0.835590 0.206867 0.811171
Si Si2 0.948687 0.356247 0.247618
Si Si3 0.735002 0.324309 0.890914
Si Si4 0.644936 0.458800 0.671550
Si Si5 0.832322 0.800733 0.216681
Si Si6 0.716201 0.712935 0.546022
Si Si7 0.243117 0.985878 0.386982
Si Si8 0.430814 0.700068 0.750957
O O1 0.888579 0.325757 0.798186
O O2 0.019845 0.346033 0.569512
O O3 0.957758 0.171219 0.864212
O O4 0.500000 0.000000 0.000000
O O5 0.021254 0.460740 0.261800
O O6 0.837513 0.175360 0.431626
O O7 0.708462 0.276349 0.286528
O O8 0.228937 0.514710 0.006077
O O9 0.556560 0.295769 0.864035
O O10 0.534044 0.149809 0.144732
O O11 0.461141 0.380765 0.660145
O O12 0.604468 0.526368 0.712979
O O13 0.760846 0.770369 0.373894
O O14 0.000000 0.000000 0.000000
O O15 0.493570 0.660184 0.675236
O O16 0.006353 0.895123 0.421978
O O17 0.289397 0.094357 0.391393
#
# Coordination Sequence:
#
# PCOD8024331 Si02
#       8
#     2   2   2   2   2   2   2   2
#     4  11  23  39  65  96 130 176 223 265 322 387
#     4  10  23  43  65  94 129 162 214 274 321 390
#     4  11  23  40  69  92 131 175 214 264 329 381
#     4  11  23  44  64  95 137 176 218 271 320 390
#     4  11  25  43  63  98 140 172 222 270 318 392
#     4  11  22  41  66  91 130 170 214 262 328 386
#     4  11  22  44  64  97 126 165 216 271 323 391
#     4  10  24  42  66  94 126 165 214 267 331 388
#
# _framework density 21.023617000000002
#
# number of rings (size 3 to 8) (size 9 to 14) (size 15 to 20)
#    0.000    1.250    1.250    5.625    3.500    1.500 
#    4.500    0.000    0.000    0.000    0.000    0.000 
#    0.000    0.000    0.000    0.000    0.000    0.000 
#
# Total GULP energy -198424.166991 kJ/mol
# GULP energy per Si atom -12401.510437 kJ/mol
# Density = 2.097577 g / cm^3
# Si number density = 21.023617 Si / 1000 Ang^3
#
#
#
# Elastic Constant Matrix: (Units=GPa)
#
#
# Indices 1 2 3 4 5 6 
#
# 1 109.7358 66.1477 59.7176 5.7084 12.9245 -10.7246
# 2 66.1477 144.2638 54.5811 9.7145 -6.9751 -9.9780
# 3 59.7176 54.5811 98.9190 -6.3899 12.8831 -15.1259
# 4 5.7084 9.7145 -6.3899 29.0375 1.8113 -7.0208
# 5 12.9245 -6.9751 12.8831 1.8113 36.6134 -2.6834
# 6 -10.7246 -9.9780 -15.1259 -7.0208 -2.6834 48.9747
#
#
#
# Elastic Compliance Matrix: (Units=1/GPa)
#
#
# Indices 1 2 3 4 5 6 
#
# 1 0.016480 -0.004985 -0.006858 -0.002858 -0.004225 -0.000166
# 2 -0.004985 0.011392 -0.004348 -0.004239 0.005639 -0.000412
# 3 -0.006858 -0.004348 0.018475 0.008201 -0.005005 0.004220
# 4 -0.002858 -0.004239 0.008201 0.040070 -0.004186 0.006558
# 5 -0.004225 0.005639 -0.005005 -0.004186 0.031833 -0.000178
# 6 -0.000166 -0.000412 0.004220 0.006558 -0.000178 0.022532
#
#
# Mechanical properties :
#
#
# Convention : Reuss Voigt Hill
#
# Bulk Modulus (GPa) = 71.60466 79.31237 75.45852
# Shear Modulus (GPa) = 28.11852 34.42328 31.27090
#
# Velocity S-wave (km/s) = 3.66112 4.05082 3.86089
# Velocity P-wave (km/s) = 7.21143 7.72568 7.47298
#
# Compressibility (1/GPa) = 0.01396557
#
# Stress axis : x y z
#
# Youngs Moduli (GPa) = 60.68034 87.78119 54.12609
#
# Poissons Ratio (x) = 0.43758 0.37121
# Poissons Ratio (y) = 0.30248 0.23533
# Poissons Ratio (z) = 0.41616 0.38165
#
# Static dielectric constant tensor:
#      x y z
#    x 3.908520 0.088980 0.056230 
#    y 0.088980 4.083650 -0.051190 
#    z 0.056230 -0.051190 3.709150 
# 
# 
# High freq. dielectric constant tensor:
#      x y z
#    x 1.828260 0.001880 0.009740 
#    y 0.001880 1.841420 -0.004080 
#    z 0.009740 -0.004080 1.815410 
# 
# From -- ./inp_files/398778.got.cif
#   From: 2010.06.25/outbox.cif.g09.slc.cpg/sg2_200_cif.got.tgz:398778.got - 2010.06.27 13:26:56.
