data_PCOD8024150
_publ_section_title
;
Structure prediction by ZEFSAII (Michael W. Deem and Ramdas Pophale) SiO2 
 PCOD8024150
Probable space group: P -1
;
_chemical_formula_sum "Si O2"
_cell_formula_units_Z 14
_cell_length_a 18.551875
_cell_length_b 5.256432
_cell_length_c 8.694363
_cell_angle_alpha 56.440966
_cell_angle_beta 124.536618
_cell_angle_gamma 108.549696
_cell_volume 581.994969
_symmetry_space_group_name_H-M "P -1"
_symmetry_group_IT_number 2
_symmetry_cell_setting 'triclinic'
loop_
_space_group_symop_operation_xyz
x,y,z
-x,-y,-z
loop_
_atom_site_type_symbol
_atom_site_label
_atom_site_fract_x
_atom_site_fract_y
_atom_site_fract_z
Si Si1 0.901559 0.412035 0.376389
Si Si2 0.464047 0.291519 0.772810
Si Si3 0.791573 0.917812 0.524872
Si Si4 0.366276 0.862227 0.566308
Si Si5 0.753301 0.792618 0.190121
Si Si6 0.633799 0.680785 0.824880
Si Si7 0.801093 0.429874 0.948820
O O1 0.834148 0.565184 0.360372
O O2 0.000000 0.500000 0.500000
O O3 0.882132 0.058467 0.517957
O O4 0.879465 0.490804 0.145888
O O5 0.405573 0.520693 0.732558
O O6 0.545826 0.494592 0.750684
O O7 0.413571 0.144940 0.616951
O O8 0.500000 0.000000 0.000000
O O9 0.730757 0.861068 0.318531
O O10 0.818607 0.609096 0.750572
O O11 0.733751 0.146823 0.486415
O O12 0.373178 0.968998 0.360602
O O13 0.663117 0.672755 0.042412
O O14 0.790624 0.068854 0.035468
O O15 0.708851 0.526386 0.870060
#
# Coordination Sequence:
#
# PCOD8024150 Si02
#       7
#     2   2   2   2   2   2   2
#     4  10  23  43  67  98 138 178 224 284 350 423
#     4  12  28  43  67 104 140 183 241 293 343 406
#     4  10  24  42  69 101 135 177 233 284 351 414
#     4  11  27  45  70  98 139 189 236 287 352 408
#     4  10  23  42  71  94 138 177 229 282 352 412
#     4  10  24  44  66  96 136 183 233 285 346 412
#     4   9  22  42  66  99 133 180 229 282 349 410
#
# _framework density 24.055191000000001
#
# number of rings (size 3 to 8) (size 9 to 14) (size 15 to 20)
#    0.000    1.714    0.000    1.286   14.000    5.143 
#    0.000    1.429    0.000    0.000    0.000    0.000 
#    0.000    0.000    0.000    0.000    0.000    0.000 
#
# Total GULP energy -173462.223057 kJ/mol
# GULP energy per Si atom -12390.158790 kJ/mol
# Density = 2.400044 g / cm^3
# Si number density = 24.055191 Si / 1000 Ang^3
#
#
#
# Elastic Constant Matrix: (Units=GPa)
#
#
# Indices 1 2 3 4 5 6 
#
# 1 68.1242 44.9693 50.7229 7.4433 -8.7392 26.3489
# 2 44.9693 111.1094 35.7163 7.7457 -1.0460 9.5429
# 3 50.7229 35.7163 128.0754 -6.3129 -22.7583 13.5975
# 4 7.4433 7.7457 -6.3129 33.6221 7.8630 4.3447
# 5 -8.7392 -1.0460 -22.7583 7.8630 39.8517 1.8299
# 6 26.3489 9.5429 13.5975 4.3447 1.8299 41.2414
#
#
#
# Elastic Compliance Matrix: (Units=1/GPa)
#
#
# Indices 1 2 3 4 5 6 
#
# 1 0.035657 -0.009537 -0.009185 -0.006228 0.004337 -0.017082
# 2 -0.009537 0.012787 -0.000574 -0.000913 -0.002064 0.003511
# 3 -0.009185 -0.000574 0.012392 0.003301 0.004333 0.001375
# 4 -0.006228 -0.000913 0.003301 0.033394 -0.006087 -0.000146
# 5 0.004337 -0.002064 0.004333 -0.006087 0.029868 -0.004406
# 6 -0.017082 0.003511 0.001375 -0.000146 -0.004406 0.034106
#
#
# Mechanical properties :
#
#
# Convention : Reuss Voigt Hill
#
# Bulk Modulus (GPa) = 44.95221 63.34732 54.14977
# Shear Modulus (GPa) = 24.48465 34.66973 29.57719
#
# Velocity S-wave (km/s) = 3.19384 3.80051 3.51031
# Velocity P-wave (km/s) = 5.68582 6.75646 6.24413
#
# Compressibility (1/GPa) = 0.02224585
#
# Stress axis : x y z
#
# Youngs Moduli (GPa) = 28.04493 78.20433 80.69671
#
# Poissons Ratio (x) = 0.74582 0.74118
# Poissons Ratio (y) = 0.26746 0.04628
# Poissons Ratio (z) = 0.25759 0.04485
#
# Static dielectric constant tensor:
#      x y z
#    x 4.077890 0.001480 -0.459680 
#    y 0.001480 4.894730 -0.064530 
#    z -0.459680 -0.064530 5.450050 
# 
# 
# High freq. dielectric constant tensor:
#      x y z
#    x 1.928810 0.006830 -0.016350 
#    y 0.006830 1.963800 -0.011380 
#    z -0.016350 -0.011380 1.965400 
# 
# From -- ./inp_files/323232.got.cif
#   From: 2010.06.25/outbox.cif.g09.slc.cpg/sg2_162_cif.got.tgz:323232.got - 2010.06.27 13:26:56.
