data_PCOD8024934
_publ_section_title
;
Structure prediction by ZEFSAII (Michael W. Deem and Ramdas Pophale) SiO2 
 PCOD8024934
Probable space group: P -1
;
_chemical_formula_sum "Si O2"
_cell_formula_units_Z 16
_cell_length_a 8.870842
_cell_length_b 10.466750
_cell_length_c 9.887969
_cell_angle_alpha 96.865917
_cell_angle_beta 60.924022
_cell_angle_gamma 117.523379
_cell_volume 705.010666
_symmetry_space_group_name_H-M "P -1"
_symmetry_group_IT_number 2
_symmetry_cell_setting 'triclinic'
loop_
_space_group_symop_operation_xyz
x,y,z
-x,-y,-z
loop_
_atom_site_type_symbol
_atom_site_label
_atom_site_fract_x
_atom_site_fract_y
_atom_site_fract_z
Si Si1 0.840087 0.535392 0.726357
Si Si2 0.674312 0.741915 0.786950
Si Si3 0.140338 0.879256 0.958394
Si Si4 0.723579 0.311129 0.517336
Si Si5 0.270656 0.714081 0.059585
Si Si6 0.397099 0.183540 0.436586
Si Si7 0.049543 0.988651 0.760993
Si Si8 0.435058 0.935798 0.239996
O O1 0.715497 0.618982 0.823703
O O2 0.731658 0.431896 0.633359
O O3 0.850936 0.442951 0.838052
O O4 0.058707 0.654127 0.611922
O O5 0.660539 0.718873 0.625996
O O6 0.854779 0.901391 0.749810
O O7 0.479579 0.729877 0.935272
O O8 0.089059 0.873305 0.819983
O O9 0.348921 0.022825 0.902813
O O10 0.154680 0.734697 0.984256
O O11 0.974493 0.896251 0.116490
O O12 0.593373 0.296996 0.440955
O O13 0.615914 0.152801 0.610382
O O14 0.288831 0.840515 0.172955
O O15 0.433870 0.085842 0.294846
O O16 0.229446 0.082225 0.598124
#
# Coordination Sequence:
#
# PCOD8024934 Si02
#       8
#     2   2   2   2   2   2   2   2
#     4  10  25  43  65  92 129 177 226 265 307 380
#     4  12  24  41  64  96 134 173 221 267 317 383
#     4  11  22  41  67  98 133 170 205 267 340 387
#     4  10  23  44  66  92 127 173 220 268 325 384
#     4  11  23  44  66  92 134 179 214 260 327 391
#     4  12  24  39  69  99 131 168 211 274 335 384
#     4  11  25  40  64 108 134 159 214 276 331 388
#     4  11  20  39  70  94 128 167 207 267 334 386
#
# _framework density 22.694693000000001
#
# number of rings (size 3 to 8) (size 9 to 14) (size 15 to 20)
#    0.000    1.000    3.750    3.000    1.750    3.500 
#    0.000    3.750    0.000    0.000    0.000    0.000 
#    0.000    0.000    0.000    0.000    0.000    0.000 
#
# Total GULP energy -198365.300575 kJ/mol
# GULP energy per Si atom -12397.831286 kJ/mol
# Density = 2.264304 g / cm^3
# Si number density = 22.694693 Si / 1000 Ang^3
#
#
#
# Elastic Constant Matrix: (Units=GPa)
#
#
# Indices 1 2 3 4 5 6 
#
# 1 91.9753 22.0218 34.0180 -8.8210 10.6586 -19.1367
# 2 22.0218 61.4389 27.1853 -6.1209 0.9628 -13.9038
# 3 34.0180 27.1853 103.2720 -12.5039 0.9245 -10.3018
# 4 -8.8210 -6.1209 -12.5039 18.5978 -7.7221 8.9975
# 5 10.6586 0.9628 0.9245 -7.7221 41.2761 -1.9798
# 6 -19.1367 -13.9038 -10.3018 8.9975 -1.9798 32.5900
#
#
#
# Elastic Compliance Matrix: (Units=1/GPa)
#
#
# Indices 1 2 3 4 5 6 
#
# 1 0.014366 -0.002135 -0.003601 -0.000834 -0.003428 0.006409
# 2 -0.002135 0.020193 -0.003984 0.000227 0.000503 0.006070
# 3 -0.003601 -0.003984 0.012591 0.007077 0.001985 -0.001667
# 4 -0.000834 0.000227 0.007077 0.071786 0.012656 -0.017206
# 5 -0.003428 0.000503 0.001985 0.012656 0.027280 -0.003008
# 6 0.006409 0.006070 -0.001667 -0.017206 -0.003008 0.041077
#
#
# Mechanical properties :
#
#
# Convention : Reuss Voigt Hill
#
# Bulk Modulus (GPa) = 36.08830 47.01514 41.55172
# Shear Modulus (GPa) = 23.15145 30.05688 26.60416
#
# Velocity S-wave (km/s) = 3.19741 3.64318 3.42755
# Velocity P-wave (km/s) = 5.43759 6.20148 5.83205
#
# Compressibility (1/GPa) = 0.02770981
#
# Stress axis : x y z
#
# Youngs Moduli (GPa) = 69.60735 49.52305 79.42272
#
# Poissons Ratio (x) = 0.10573 0.28602
# Poissons Ratio (y) = 0.14861 0.31640
# Poissons Ratio (z) = 0.25067 0.19729
#
# Static dielectric constant tensor:
#      x y z
#    x 4.208200 -0.063780 0.200400 
#    y -0.063780 3.845300 -0.122250 
#    z 0.200400 -0.122250 4.149420 
# 
# 
# High freq. dielectric constant tensor:
#      x y z
#    x 1.900290 -0.003150 0.007370 
#    y -0.003150 1.870020 -0.008940 
#    z 0.007370 -0.008940 1.907770 
# 
# From -- ./inp_files/188323.got.cif
#   From: 2010.06.25/outbox.cif.g09.slc.cpg/sg2_95_cif.got.tgz:188323.got - 2010.06.27 13:26:56.
