data_PCOD8024556
_publ_section_title
;
Structure prediction by ZEFSAII (Michael W. Deem and Ramdas Pophale) SiO2 
 PCOD8024556
Probable space group: P -1
;
_chemical_formula_sum "Si O2"
_cell_formula_units_Z 14
_cell_length_a 7.716405
_cell_length_b 12.042344
_cell_length_c 6.643797
_cell_angle_alpha 102.232900
_cell_angle_beta 93.570202
_cell_angle_gamma 76.294017
_cell_volume 586.119847
_symmetry_space_group_name_H-M "P -1"
_symmetry_group_IT_number 2
_symmetry_cell_setting 'triclinic'
loop_
_space_group_symop_operation_xyz
x,y,z
-x,-y,-z
loop_
_atom_site_type_symbol
_atom_site_label
_atom_site_fract_x
_atom_site_fract_y
_atom_site_fract_z
Si Si1 0.017136 0.153379 0.119884
Si Si2 0.374394 0.737372 0.748752
Si Si3 0.518133 0.132988 0.549889
Si Si4 0.626605 0.672318 0.113070
Si Si5 0.884116 0.615886 0.770669
Si Si6 0.103077 0.937154 0.292947
Si Si7 0.725560 0.496298 0.374676
O O1 0.817374 0.176681 0.202298
O O2 0.115256 0.251803 0.236966
O O3 0.006755 0.142762 0.870261
O O4 0.135740 0.035033 0.175759
O O5 0.491770 0.805708 0.647132
O O6 0.350482 0.614357 0.603911
O O7 0.465680 0.705173 0.957689
O O8 0.367640 0.210496 0.713569
O O9 0.709397 0.141845 0.655661
O O10 0.500000 0.000000 0.500000
O O11 0.594244 0.575042 0.233218
O O12 0.815012 0.620475 0.996778
O O13 0.741869 0.571672 0.603456
O O14 0.081930 0.537797 0.733413
O O15 0.000000 0.000000 0.500000
#
# Coordination Sequence:
#
# PCOD8024556 Si02
#       7
#     2   2   2   2   2   2   2
#     4  10  23  43  68  99 132 178 230 271 334 401
#     4  11  24  47  67  99 137 176 226 279 333 412
#     4  12  29  44  68 103 138 179 225 282 344 395
#     4  12  25  43  69 102 137 180 220 281 345 394
#     4  10  24  44  71 103 136 172 227 283 328 413
#     4  11  23  43  69  96 133 183 229 275 334 403
#     4  10  24  47  71 100 135 180 227 274 341 397
#
# _framework density 23.885899999999999
#
# number of rings (size 3 to 8) (size 9 to 14) (size 15 to 20)
#    0.000    1.143    2.857    1.714    6.000    4.000 
#    2.571    0.000    0.000    0.000    0.000    0.000 
#    0.000    0.000    0.000    0.000    0.000    0.000 
#
# Total GULP energy -173567.972326 kJ/mol
# GULP energy per Si atom -12397.712309 kJ/mol
# Density = 2.383153 g / cm^3
# Si number density = 23.885900 Si / 1000 Ang^3
#
#
#
# Elastic Constant Matrix: (Units=GPa)
#
#
# Indices 1 2 3 4 5 6 
#
# 1 51.8904 23.1502 33.9641 -1.9448 -7.7179 14.3094
# 2 23.1502 137.7608 63.4725 4.9167 0.3920 14.3532
# 3 33.9641 63.4725 141.4583 13.4530 -13.3682 8.7648
# 4 -1.9448 4.9167 13.4530 49.0100 -10.7666 5.0827
# 5 -7.7179 0.3920 -13.3682 -10.7666 37.3122 -0.8118
# 6 14.3094 14.3532 8.7648 5.0827 -0.8118 30.2210
#
#
#
# Elastic Compliance Matrix: (Units=1/GPa)
#
#
# Indices 1 2 3 4 5 6 
#
# 1 0.027395 -0.001116 -0.005364 0.004957 0.004935 -0.011587
# 2 -0.001116 0.009617 -0.004041 -0.000003 -0.001844 -0.002917
# 3 -0.005364 -0.004041 0.010476 -0.002434 0.002025 0.001884
# 4 0.004957 -0.000003 -0.002434 0.023313 0.006763 -0.005379
# 5 0.004935 -0.001844 0.002025 0.006763 0.030467 -0.002367
# 6 -0.011587 -0.002917 0.001884 -0.005379 -0.002367 0.040256
#
#
# Mechanical properties :
#
#
# Convention : Reuss Voigt Hill
#
# Bulk Modulus (GPa) = 37.81066 63.58698 50.69882
# Shear Modulus (GPa) = 29.17475 37.34348 33.25911
#
# Velocity S-wave (km/s) = 3.49868 3.95829 3.73556
# Velocity P-wave (km/s) = 5.67319 6.89708 6.31485
#
# Compressibility (1/GPa) = 0.02644757
#
# Stress axis : x y z
#
# Youngs Moduli (GPa) = 36.50278 103.97791 95.45399
#
# Poissons Ratio (x) = 0.11603 0.51201
# Poissons Ratio (y) = 0.04074 0.38570
# Poissons Ratio (z) = 0.19580 0.42014
#
# Static dielectric constant tensor:
#      x y z
#    x 4.121890 -0.256890 -0.018740 
#    y -0.256890 4.337890 0.185380 
#    z -0.018740 0.185380 4.463280 
# 
# 
# High freq. dielectric constant tensor:
#      x y z
#    x 1.932860 -0.020600 -0.004380 
#    y -0.020600 1.955480 0.009050 
#    z -0.004380 0.009050 1.956640 
# 
# From -- ./inp_files/28428.got.cif
#   From: 2010.06.25/outbox.cif.g09.slc.cpg/sg2_15_cif.got.tgz:28428.got - 2010.06.27 13:26:56.
