data_PCOD8024254
_publ_section_title
;
Structure prediction by ZEFSAII (Michael W. Deem and Ramdas Pophale) SiO2 
 PCOD8024254
Probable space group: P -1
;
_chemical_formula_sum "Si O2"
_cell_formula_units_Z 16
_cell_length_a 20.002410
_cell_length_b 8.653170
_cell_length_c 13.130300
_cell_angle_alpha 103.221042
_cell_angle_beta 145.943578
_cell_angle_gamma 51.424524
_cell_volume 749.612510
_symmetry_space_group_name_H-M "P -1"
_symmetry_group_IT_number 2
_symmetry_cell_setting 'triclinic'
loop_
_space_group_symop_operation_xyz
x,y,z
-x,-y,-z
loop_
_atom_site_type_symbol
_atom_site_label
_atom_site_fract_x
_atom_site_fract_y
_atom_site_fract_z
Si Si1 0.750958 0.721737 0.490267
Si Si2 0.521627 0.138297 0.108371
Si Si3 0.634209 0.227486 0.682170
Si Si4 0.709423 0.549621 0.593219
Si Si5 0.005490 0.967603 0.823399
Si Si6 0.169088 0.615961 0.627590
Si Si7 0.040115 0.259930 0.115564
Si Si8 0.838631 0.047416 0.420136
O O1 0.649627 0.715857 0.444322
O O2 0.834378 0.533694 0.472282
O O3 0.934290 0.619875 0.757470
O O4 0.592487 0.021205 0.294725
O O5 0.668668 0.101743 0.232198
O O6 0.308695 0.446777 0.877863
O O7 0.500000 0.000000 0.000000
O O8 0.500000 0.500000 0.500000
O O9 0.494913 0.262544 0.578496
O O10 0.749186 0.997685 0.710651
O O11 0.796930 0.135861 0.947395
O O12 0.810569 0.278645 0.645197
O O13 0.865956 0.483611 0.849418
O O14 0.031824 0.819077 0.927107
O O15 0.980701 0.903061 0.676089
O O16 0.242141 0.690237 0.665389
O O17 0.951129 0.869592 0.434333
#
# Coordination Sequence:
#
# PCOD8024254 Si02
#       8
#     2   2   2   2   2   2   2   2
#     4  11  23  42  64  92 137 174 203 261 326 379
#     4  10  23  43  63  93 129 166 205 264 326 372
#     4  11  21  38  65  93 125 163 219 261 305 376
#     4  11  22  42  63  92 132 168 212 263 308 377
#     4  11  21  39  67  94 121 170 213 262 317 371
#     4  10  24  44  67  97 124 165 220 268 312 380
#     4  11  22  40  64  94 129 170 211 258 321 374
#     4  11  22  44  71  94 123 167 220 264 318 376
#
# _framework density 21.344363000000001
#
# number of rings (size 3 to 8) (size 9 to 14) (size 15 to 20)
#    0.000    1.250    5.000    1.500    0.000    4.500 
#    9.000    3.750    0.000    0.000    0.000    0.000 
#    0.000    0.000    0.000    0.000    0.000    0.000 
#
# Total GULP energy -198392.129502 kJ/mol
# GULP energy per Si atom -12399.508094 kJ/mol
# Density = 2.129578 g / cm^3
# Si number density = 21.344363 Si / 1000 Ang^3
#
#
#
# Elastic Constant Matrix: (Units=GPa)
#
#
# Indices 1 2 3 4 5 6 
#
# 1 102.1350 29.6386 30.7909 -6.6658 -1.5538 0.2410
# 2 29.6386 81.1944 41.1003 14.8294 8.5839 -4.0083
# 3 30.7909 41.1003 84.4877 4.6544 7.7599 -9.5615
# 4 -6.6658 14.8294 4.6544 34.9866 4.5045 -4.3920
# 5 -1.5538 8.5839 7.7599 4.5045 38.4997 1.0482
# 6 0.2410 -4.0083 -9.5615 -4.3920 1.0482 26.8423
#
#
#
# Elastic Compliance Matrix: (Units=1/GPa)
#
#
# Indices 1 2 3 4 5 6 
#
# 1 0.012105 -0.003826 -0.003042 0.003990 0.001520 -0.001170
# 2 -0.003826 0.018995 -0.007346 -0.007663 -0.001987 -0.000922
# 3 -0.003042 -0.007346 0.017266 0.001200 -0.002252 0.005365
# 4 0.003990 -0.007663 0.001200 0.033343 -0.002404 0.004797
# 5 0.001520 -0.001987 -0.002252 -0.002404 0.027284 -0.002571
# 6 -0.001170 -0.000922 0.005365 0.004797 -0.002571 0.039924
#
#
# Mechanical properties :
#
#
# Convention : Reuss Voigt Hill
#
# Bulk Modulus (GPa) = 50.15485 52.31962 51.23724
# Shear Modulus (GPa) = 27.17542 31.15153 29.16348
#
# Velocity S-wave (km/s) = 3.57205 3.82445 3.70040
# Velocity P-wave (km/s) = 6.36880 6.63832 6.50496
#
# Compressibility (1/GPa) = 0.01993825
#
# Stress axis : x y z
#
# Youngs Moduli (GPa) = 82.61340 52.64472 57.91711
#
# Poissons Ratio (x) = 0.20141 0.17619
# Poissons Ratio (y) = 0.31606 0.42545
# Poissons Ratio (z) = 0.25132 0.38672
#
# Static dielectric constant tensor:
#      x y z
#    x 4.029840 0.205580 -0.300760 
#    y 0.205580 3.772820 -0.006780 
#    z -0.300760 -0.006780 4.033470 
# 
# 
# High freq. dielectric constant tensor:
#      x y z
#    x 1.844090 0.014850 -0.012830 
#    y 0.014850 1.830080 0.010350 
#    z -0.012830 0.010350 1.836080 
# 
# From -- ./inp_files/336721.got.cif
#   From: 2010.06.25/outbox.cif.g09.slc.cpg/sg2_169_cif.got.tgz:336721.got - 2010.06.27 13:26:56.
