data_PCOD8024815
_publ_section_title
;
Structure prediction by ZEFSAII (Michael W. Deem and Ramdas Pophale) SiO2 
 PCOD8024815
Probable space group: P -1
;
_chemical_formula_sum "Si O2"
_cell_formula_units_Z 16
_cell_length_a 17.958390
_cell_length_b 11.392022
_cell_length_c 9.064926
_cell_angle_alpha 103.116165
_cell_angle_beta 141.347307
_cell_angle_gamma 48.133642
_cell_volume 668.036637
_symmetry_space_group_name_H-M "P -1"
_symmetry_group_IT_number 2
_symmetry_cell_setting 'triclinic'
loop_
_space_group_symop_operation_xyz
x,y,z
-x,-y,-z
loop_
_atom_site_type_symbol
_atom_site_label
_atom_site_fract_x
_atom_site_fract_y
_atom_site_fract_z
Si Si1 0.530618 0.719895 0.641423
Si Si2 0.075788 0.629396 0.998399
Si Si3 0.142470 0.634480 0.431724
Si Si4 0.707088 0.045064 0.946702
Si Si5 0.832996 0.053013 0.685280
Si Si6 0.800728 0.162328 0.337273
Si Si7 0.380563 0.099253 0.037589
Si Si8 0.202178 0.331801 0.548577
O O1 0.753170 0.483186 0.892997
O O2 0.385846 0.747339 0.518193
O O3 0.539277 0.837785 0.772189
O O4 0.456496 0.808525 0.389027
O O5 0.176963 0.558529 0.296811
O O6 0.973974 0.581061 0.802055
O O7 0.890544 0.869242 0.755614
O O8 0.284615 0.631372 0.705589
O O9 0.164918 0.506228 0.544218
O O10 0.927416 0.877862 0.168777
O O11 0.652361 0.193787 0.025423
O O12 0.711481 0.905456 0.976328
O O13 0.829998 0.074396 0.513762
O O14 0.000000 0.000000 0.000000
O O15 0.000000 0.000000 0.500000
O O16 0.569506 0.869035 0.208288
O O17 0.200569 0.270412 0.689901
#
# Coordination Sequence:
#
# PCOD8024815 Si02
#       8
#     2   2   2   2   2   2   2   2
#     4  12  26  44  74 109 141 189 239 291 358 426
#     4  12  24  45  73 107 138 192 238 288 362 422
#     4  11  22  44  68 103 143 187 241 291 353 429
#     4  11  22  43  72 102 146 187 235 298 356 418
#     4  12  23  48  74 102 149 182 235 298 349 420
#     4  10  23  43  74 101 140 194 228 291 362 411
#     4  11  24  44  69 105 143 183 237 300 362 416
#     4  11  24  42  71 102 144 185 234 301 358 420
#
# _framework density 23.950780999999999
#
# number of rings (size 3 to 8) (size 9 to 14) (size 15 to 20)
#    0.000    0.750    3.750    3.750    1.750    4.500 
#    0.000    3.750    0.000    0.000    0.000    0.000 
#    0.000    0.000    0.000    0.000    0.000    0.000 
#
# Total GULP energy -198331.444609 kJ/mol
# GULP energy per Si atom -12395.715288 kJ/mol
# Density = 2.389627 g / cm^3
# Si number density = 23.950781 Si / 1000 Ang^3
#
#
#
# Elastic Constant Matrix: (Units=GPa)
#
#
# Indices 1 2 3 4 5 6 
#
# 1 121.7822 21.0585 19.4611 4.9338 -5.4145 -10.4082
# 2 21.0585 92.3650 34.9423 16.9268 2.3830 4.1004
# 3 19.4611 34.9423 65.3894 14.9869 0.1854 -17.3572
# 4 4.9338 16.9268 14.9869 44.5981 -2.3716 1.2570
# 5 -5.4145 2.3830 0.1854 -2.3716 40.6096 6.5573
# 6 -10.4082 4.1004 -17.3572 1.2570 6.5573 24.5176
#
#
#
# Elastic Compliance Matrix: (Units=1/GPa)
#
#
# Indices 1 2 3 4 5 6 
#
# 1 0.008991 -0.001939 -0.000712 -0.000076 0.000756 0.003439
# 2 -0.001939 0.016066 -0.010444 -0.002039 0.000492 -0.010931
# 3 -0.000712 -0.010444 0.028704 -0.006452 -0.003718 0.023091
# 4 -0.000076 -0.002039 -0.006452 0.025691 0.002654 -0.006286
# 5 0.000756 0.000492 -0.003718 0.002654 0.026418 -0.009596
# 6 0.003439 -0.010931 0.023091 -0.006286 -0.009596 0.063311
#
#
# Mechanical properties :
#
#
# Convention : Reuss Voigt Hill
#
# Bulk Modulus (GPa) = 36.26725 47.82893 42.04809
# Shear Modulus (GPa) = 24.44264 35.55004 29.99634
#
# Velocity S-wave (km/s) = 3.19805 3.85684 3.54279
# Velocity P-wave (km/s) = 5.36768 6.31242 5.85912
#
# Compressibility (1/GPa) = 0.02757308
#
# Stress axis : x y z
#
# Youngs Moduli (GPa) = 111.22244 62.24401 34.83811
#
# Poissons Ratio (x) = 0.12068 0.02479
# Poissons Ratio (y) = 0.21565 0.36383
# Poissons Ratio (z) = 0.07914 0.65005
#
# Static dielectric constant tensor:
#      x y z
#    x 4.102420 -0.221420 0.164550 
#    y -0.221420 4.682140 0.420410 
#    z 0.164550 0.420410 4.191280 
# 
# 
# High freq. dielectric constant tensor:
#      x y z
#    x 1.951620 -0.005700 0.007440 
#    y -0.005700 1.955410 0.013800 
#    z 0.007440 0.013800 1.948170 
# 
# From -- ./inp_files/333452.got.cif
#   From: 2010.06.25/outbox.cif.g09.slc.cpg/sg2_167_cif.got.tgz:333452.got - 2010.06.27 13:26:56.
