data_PCOD8024634
_publ_section_title
;
Structure prediction by ZEFSAII (Michael W. Deem and Ramdas Pophale) SiO2 
 PCOD8024634
Probable space group: P -1
;
_chemical_formula_sum "Si O2"
_cell_formula_units_Z 14
_cell_length_a 7.469161
_cell_length_b 20.147422
_cell_length_c 5.205530
_cell_angle_alpha 83.029454
_cell_angle_beta 106.989616
_cell_angle_gamma 131.104751
_cell_volume 561.774680
_symmetry_space_group_name_H-M "P -1"
_symmetry_group_IT_number 2
_symmetry_cell_setting 'triclinic'
loop_
_space_group_symop_operation_xyz
x,y,z
-x,-y,-z
loop_
_atom_site_type_symbol
_atom_site_label
_atom_site_fract_x
_atom_site_fract_y
_atom_site_fract_z
Si Si1 0.961512 0.840160 0.807297
Si Si2 0.375702 0.786606 0.202532
Si Si3 0.782089 0.064230 0.660176
Si Si4 0.428586 0.315472 0.578661
Si Si5 0.649300 0.890914 0.772537
Si Si6 0.379722 0.519971 0.640662
Si Si7 0.179848 0.353582 0.849788
O O1 0.746780 0.734516 0.728583
O O2 0.835407 0.873888 0.870413
O O3 0.059428 0.878810 0.546832
O O4 0.164969 0.873119 0.101537
O O5 0.472331 0.732199 0.254951
O O6 0.462543 0.841993 0.475154
O O7 0.078126 0.721478 0.079899
O O8 0.480233 0.852268 0.974648
O O9 0.500000 0.000000 0.500000
O O10 0.825254 0.997038 0.784346
O O11 0.663692 0.418009 0.547896
O O12 0.242527 0.308425 0.700800
O O13 0.500000 0.500000 0.500000
O O14 0.142247 0.420969 0.681294
O O15 0.577049 0.581980 0.911466
#
# Coordination Sequence:
#
# PCOD8024634 Si02
#       7
#     2   2   2   2   2   2   2
#     4  11  24  44  70  94 138 180 219 284 335 397
#     4  11  26  43  71 102 136 180 231 279 333 403
#     4  12  26  43  68 103 134 176 230 276 340 403
#     4  10  24  42  70 100 132 181 230 272 346 407
#     4  11  25  47  65  99 136 178 228 275 341 402
#     4   9  21  42  67 100 136 179 223 274 346 402
#     4  10  23  43  69  98 140 179 220 287 337 399
#
# _framework density 24.921022000000001
#
# number of rings (size 3 to 8) (size 9 to 14) (size 15 to 20)
#    0.000    1.429    0.000    3.857   12.000    0.571 
#    0.000    6.429    0.000    0.000    0.000    0.000 
#    0.000    0.000    0.000    0.000    0.000    0.000 
#
# Total GULP energy -173432.877628 kJ/mol
# GULP energy per Si atom -12388.062688 kJ/mol
# Density = 2.486430 g / cm^3
# Si number density = 24.921022 Si / 1000 Ang^3
#
#
#
# Elastic Constant Matrix: (Units=GPa)
#
#
# Indices 1 2 3 4 5 6 
#
# 1 44.7724 -6.3428 13.9271 12.2346 -13.2740 5.0689
# 2 -6.3428 100.1123 14.3359 -10.2225 -29.9189 -7.3036
# 3 13.9271 14.3359 129.3352 6.3971 -27.3070 -3.5630
# 4 12.2346 -10.2225 6.3971 46.2182 4.9143 -9.0013
# 5 -13.2740 -29.9189 -27.3070 4.9143 34.4071 -1.9465
# 6 5.0689 -7.3036 -3.5630 -9.0013 -1.9465 33.6208
#
#
#
# Elastic Compliance Matrix: (Units=1/GPa)
#
#
# Indices 1 2 3 4 5 6 
#
# 1 0.032270 0.006390 0.000279 -0.010216 0.019400 -0.005059
# 2 0.006390 0.015693 0.001300 0.000485 0.017284 0.003714
# 3 0.000279 0.001300 0.009631 -0.001846 0.009219 0.001301
# 4 -0.010216 0.000485 -0.001846 0.027203 -0.008403 0.008246
# 5 0.019400 0.017284 0.009219 -0.008403 0.060267 0.003046
# 6 -0.005059 0.003714 0.001301 0.008246 0.003046 0.033835
#
#
# Mechanical properties :
#
#
# Convention : Reuss Voigt Hill
#
# Bulk Modulus (GPa) = 13.59950 35.34004 24.46977
# Shear Modulus (GPa) = 26.67055 39.66918 33.16987
#
# Velocity S-wave (km/s) = 3.27494 3.99406 3.65224
# Velocity P-wave (km/s) = 4.44626 5.95664 5.25599
#
# Compressibility (1/GPa) = 0.07353213
#
# Stress axis : x y z
#
# Youngs Moduli (GPa) = 30.98880 63.72106 103.82766
#
# Poissons Ratio (x) = -0.40719 -0.02894
# Poissons Ratio (y) = -0.19802 -0.13497
# Poissons Ratio (z) = -0.00864 -0.08283
#
# Static dielectric constant tensor:
#      x y z
#    x 4.330470 -0.181950 -0.044720 
#    y -0.181950 3.996550 0.305750 
#    z -0.044720 0.305750 4.376930 
# 
# 
# High freq. dielectric constant tensor:
#      x y z
#    x 1.973780 -0.022840 -0.007420 
#    y -0.022840 2.028500 0.000260 
#    z -0.007420 0.000260 2.004240 
# 
# From -- ./inp_files/51573.got.cif
#   From: 2010.06.25/outbox.cif.g09.slc.cpg/sg2_26_cif.got.tgz:51573.got - 2010.06.27 13:26:56.
