data_PCOD8024261
_publ_section_title
;
Structure prediction by ZEFSAII (Michael W. Deem and Ramdas Pophale) SiO2 
 PCOD8024261
Probable space group: P -1
;
_chemical_formula_sum "Si O2"
_cell_formula_units_Z 14
_cell_length_a 17.160946
_cell_length_b 5.494767
_cell_length_c 7.176643
_cell_angle_alpha 117.440849
_cell_angle_beta 101.812814
_cell_angle_gamma 62.582883
_cell_volume 533.101223
_symmetry_space_group_name_H-M "P -1"
_symmetry_group_IT_number 2
_symmetry_cell_setting 'triclinic'
loop_
_space_group_symop_operation_xyz
x,y,z
-x,-y,-z
loop_
_atom_site_type_symbol
_atom_site_label
_atom_site_fract_x
_atom_site_fract_y
_atom_site_fract_z
Si Si1 0.698068 0.283848 0.787872
Si Si2 0.947310 0.297086 0.230233
Si Si3 0.707470 0.267849 0.203686
Si Si4 0.868235 0.767934 0.638603
Si Si5 0.602843 0.894177 0.476621
Si Si6 0.599691 0.919832 0.048412
Si Si7 0.116160 0.211177 0.937776
O O1 0.786556 0.080085 0.647075
O O2 0.631091 0.125171 0.681246
O O3 0.729518 0.330564 0.026936
O O4 0.648674 0.635067 0.829912
O O5 0.870951 0.498655 0.409531
O O6 0.942768 0.496907 0.111682
O O7 0.041569 0.197944 0.339325
O O8 0.935271 0.989560 0.082390
O O9 0.669156 0.541848 0.433842
O O10 0.626373 0.181488 0.091385
O O11 0.798203 0.990782 0.217940
O O12 0.855959 0.682379 0.816941
O O13 0.622419 0.875408 0.261033
O O14 0.500000 0.000000 0.500000
O O15 0.500000 0.000000 0.000000
#
# Coordination Sequence:
#
# PCOD8024261 Si02
#       7
#     2   2   2   2   2   2   2
#     4  10  23  43  63  95 132 174 224 281 342 413
#     4  11  25  46  69 107 140 190 235 294 346 428
#     4  10  24  41  64  95 132 175 225 285 337 418
#     4  10  24  44  70 101 141 185 237 289 352 416
#     4  11  23  41  66  93 131 172 221 277 348 411
#     4  11  24  42  65  96 130 170 222 279 344 416
#     4  11  25  44  73 100 146 185 237 288 357 409
#
# _framework density 26.261430000000001
#
# number of rings (size 3 to 8) (size 9 to 14) (size 15 to 20)
#    0.000    1.429    0.000    3.429    8.000    9.143 
#    5.143    0.000    0.000    0.000    0.000    0.000 
#    0.000    0.000    0.000    0.000    0.000    0.000 
#
# Total GULP energy -173453.174424 kJ/mol
# GULP energy per Si atom -12389.512459 kJ/mol
# Density = 2.620166 g / cm^3
# Si number density = 26.261430 Si / 1000 Ang^3
#
#
#
# Elastic Constant Matrix: (Units=GPa)
#
#
# Indices 1 2 3 4 5 6 
#
# 1 68.1858 24.6146 -19.1234 6.9900 -3.2692 -7.2894
# 2 24.6146 86.1132 26.7524 32.4611 -2.9022 -7.2788
# 3 -19.1234 26.7524 114.2575 23.6421 -13.8080 11.7408
# 4 6.9900 32.4611 23.6421 35.6981 -6.6615 -5.2632
# 5 -3.2692 -2.9022 -13.8080 -6.6615 40.8251 5.7222
# 6 -7.2894 -7.2788 11.7408 -5.2632 5.7222 41.3471
#
#
#
# Elastic Compliance Matrix: (Units=1/GPa)
#
#
# Indices 1 2 3 4 5 6 
#
# 1 0.018680 -0.006631 0.005062 -0.000451 0.002625 0.000268
# 2 -0.006631 0.020351 -0.003237 -0.015348 -0.002934 0.001785
# 3 0.005062 -0.003237 0.012637 -0.006342 0.004064 -0.004636
# 4 -0.000451 -0.015348 -0.006342 0.047649 0.003865 0.004550
# 5 0.002625 -0.002934 0.004064 0.003865 0.027128 -0.004470
# 6 0.000268 0.001785 -0.004636 0.004550 -0.004470 0.027061
#
#
# Mechanical properties :
#
#
# Convention : Reuss Voigt Hill
#
# Bulk Modulus (GPa) = 23.77739 37.00487 30.39113
# Shear Modulus (GPa) = 28.22664 39.32826 33.77745
#
# Velocity S-wave (km/s) = 3.28202 3.87404 3.59025
# Velocity P-wave (km/s) = 4.84107 5.84230 5.36509
#
# Compressibility (1/GPa) = 0.04205675
#
# Stress axis : x y z
#
# Youngs Moduli (GPa) = 53.53301 49.13726 79.13156
#
# Poissons Ratio (x) = 0.32583 -0.40058
# Poissons Ratio (y) = 0.35498 0.25616
# Poissons Ratio (z) = -0.27100 0.15906
#
# Static dielectric constant tensor:
#      x y z
#    x 4.655190 -0.363740 -0.134390 
#    y -0.363740 4.872150 0.200770 
#    z -0.134390 0.200770 5.537610 
# 
# 
# High freq. dielectric constant tensor:
#      x y z
#    x 2.052700 -0.028950 -0.017170 
#    y -0.028950 2.036860 0.014680 
#    z -0.017170 0.014680 2.073670 
# 
# From -- ./inp_files/324266.got.cif
#   From: 2010.06.25/outbox.cif.g09.slc.cpg/sg2_163_cif.got.tgz:324266.got - 2010.06.27 13:26:56.
