data_PCOD8024433
_publ_section_title
;
Structure prediction by ZEFSAII (Michael W. Deem and Ramdas Pophale) SiO2 
 PCOD8024433
Probable space group: P -1
;
_chemical_formula_sum "Si O2"
_cell_formula_units_Z 12
_cell_length_a 10.247542
_cell_length_b 12.232229
_cell_length_c 11.484014
_cell_angle_alpha 118.525425
_cell_angle_beta 84.747024
_cell_angle_gamma 144.605302
_cell_volume 594.099763
_symmetry_space_group_name_H-M "P -1"
_symmetry_group_IT_number 2
_symmetry_cell_setting 'triclinic'
loop_
_space_group_symop_operation_xyz
x,y,z
-x,-y,-z
loop_
_atom_site_type_symbol
_atom_site_label
_atom_site_fract_x
_atom_site_fract_y
_atom_site_fract_z
Si Si1 0.187686 0.763860 0.928765
Si Si2 0.151791 0.496408 0.515499
Si Si3 0.960365 0.784945 0.816200
Si Si4 0.215303 0.933147 0.223730
Si Si5 0.206295 0.240660 0.952304
Si Si6 0.187832 0.779876 0.386540
O O1 0.170899 0.877930 0.917881
O O2 0.979752 0.485732 0.760317
O O3 0.124113 0.736058 0.055886
O O4 0.500000 0.000000 0.000000
O O5 0.191920 0.433649 0.374040
O O6 0.000000 0.500000 0.500000
O O7 0.955904 0.272794 0.518101
O O8 0.459937 0.773429 0.680530
O O9 0.759511 0.677022 0.876590
O O10 0.127293 0.029780 0.857582
O O11 0.170083 0.864472 0.327632
O O12 0.029553 0.893594 0.177488
O O13 0.500000 0.500000 0.000000
O O14 0.500000 0.000000 0.500000
#
# Coordination Sequence:
#
# PCOD8024433 Si02
#       6
#     2   2   2   2   2   2
#     4  11  21  39  66  96 130 171 215 271 331 392
#     4  12  22  43  64  99 139 167 211 272 343 398
#     4  10  23  43  67  91 130 175 217 269 333 380
#     4  11  24  40  64  98 128 175 224 262 331 394
#     4  10  25  45  67  92 126 176 233 273 308 386
#     4  12  24  38  63  98 137 171 209 268 333 393
#
# _framework density 20.198630000000001
#
# number of rings (size 3 to 8) (size 9 to 14) (size 15 to 20)
#    0.000    1.000    5.000    0.500    2.333    6.000 
#    0.000    1.667    0.000    0.000    0.000    0.000 
#    0.000    0.000    0.000    0.000    0.000    0.000 
#
# Total GULP energy -148716.821754 kJ/mol
# GULP energy per Si atom -12393.068480 kJ/mol
# Density = 2.015266 g / cm^3
# Si number density = 20.198630 Si / 1000 Ang^3
#
#
#
# Elastic Constant Matrix: (Units=GPa)
#
#
# Indices 1 2 3 4 5 6 
#
# 1 84.5479 42.4949 43.2472 10.3097 0.9257 -2.2817
# 2 42.4949 140.7427 47.1979 2.6712 12.1013 -0.7573
# 3 43.2472 47.1979 115.6564 4.1589 -1.0386 8.2124
# 4 10.3097 2.6712 4.1589 44.0400 5.8707 6.3874
# 5 0.9257 12.1013 -1.0386 5.8707 39.3570 -0.9343
# 6 -2.2817 -0.7573 8.2124 6.3874 -0.9343 31.3957
#
#
#
# Elastic Compliance Matrix: (Units=1/GPa)
#
#
# Indices 1 2 3 4 5 6 
#
# 1 0.016570 -0.003369 -0.004901 -0.003834 0.001165 0.003220
# 2 -0.003369 0.009231 -0.002591 0.000807 -0.002938 0.000404
# 3 -0.004901 -0.002591 0.011780 0.000572 0.001052 -0.003585
# 4 -0.003834 0.000807 0.000572 0.024841 -0.003981 -0.005581
# 5 0.001165 -0.002938 0.001052 -0.003981 0.026938 0.001350
# 6 0.003220 0.000404 -0.003585 -0.005581 0.001350 0.034209
#
#
# Mechanical properties :
#
#
# Convention : Reuss Voigt Hill
#
# Bulk Modulus (GPa) = 63.06363 67.42523 65.24443
# Shear Modulus (GPa) = 33.20537 36.82568 35.01552
#
# Velocity S-wave (km/s) = 4.05895 4.27450 4.16812
# Velocity P-wave (km/s) = 7.29769 7.60364 7.45224
#
# Compressibility (1/GPa) = 0.01585700
#
# Stress axis : x y z
#
# Youngs Moduli (GPa) = 60.35066 108.33108 84.89062
#
# Poissons Ratio (x) = 0.36502 0.41606
# Poissons Ratio (y) = 0.20335 0.21997
# Poissons Ratio (z) = 0.29579 0.28070
#
# Static dielectric constant tensor:
#      x y z
#    x 3.640830 0.125360 0.005880 
#    y 0.125360 3.843410 -0.379050 
#    z 0.005880 -0.379050 3.832870 
# 
# 
# High freq. dielectric constant tensor:
#      x y z
#    x 1.783390 0.000610 0.002690 
#    y 0.000610 1.798970 -0.013870 
#    z 0.002690 -0.013870 1.797200 
# 
# From -- ./inp_files/60392.got.cif
#   From: 2010.06.25/outbox.cif.g09.slc.cpg/sg2_31_cif.got.tgz:60392.got - 2010.06.27 13:26:56.
