data_PCOD8024329
_publ_section_title
;
Structure prediction by ZEFSAII (Michael W. Deem and Ramdas Pophale) SiO2 
 PCOD8024329
Probable space group: P -1
;
_chemical_formula_sum "Si O2"
_cell_formula_units_Z 12
_cell_length_a 12.461047
_cell_length_b 11.123308
_cell_length_c 9.092849
_cell_angle_alpha 44.240672
_cell_angle_beta 57.892616
_cell_angle_gamma 90.535910
_cell_volume 559.452447
_symmetry_space_group_name_H-M "P -1"
_symmetry_group_IT_number 2
_symmetry_cell_setting 'triclinic'
loop_
_space_group_symop_operation_xyz
x,y,z
-x,-y,-z
loop_
_atom_site_type_symbol
_atom_site_label
_atom_site_fract_x
_atom_site_fract_y
_atom_site_fract_z
Si Si1 0.738369 0.476983 0.176925
Si Si2 0.099146 0.214854 0.638190
Si Si3 0.248135 0.551696 0.489268
Si Si4 0.933249 0.285617 0.464391
Si Si5 0.610209 0.990737 0.774343
Si Si6 0.638590 0.673189 0.862400
O O1 0.758295 0.566075 0.251983
O O2 0.644495 0.206928 0.484433
O O3 0.630563 0.526030 0.129360
O O4 0.919019 0.610287 0.852382
O O5 0.236729 0.433559 0.450830
O O6 0.183281 0.180808 0.477483
O O7 0.969144 0.227053 0.644699
O O8 0.000000 0.000000 0.000000
O O9 0.086649 0.531992 0.637851
O O10 0.422643 0.819625 0.133044
O O11 0.756055 0.064975 0.717428
O O12 0.610848 0.843575 0.780006
O O13 0.500000 0.500000 0.000000
#
# Coordination Sequence:
#
# PCOD8024329 Si02
#       6
#     2   2   2   2   2   2
#     4  10  24  41  70  92 126 171 210 261 316 370
#     4  11  26  40  64  96 129 166 208 266 317 367
#     4  11  22  43  65  96 125 165 217 254 316 381
#     4  10  23  43  65  94 125 168 213 258 316 377
#     4  11  23  42  70  92 129 167 212 261 314 376
#     4  11  25  45  61  98 130 164 215 258 319 380
#
# _framework density 21.449543999999999
#
# number of rings (size 3 to 8) (size 9 to 14) (size 15 to 20)
#    0.000    1.333    1.667    4.500    7.000    5.333 
#    0.000    0.000    0.000    0.000    0.000    0.000 
#    0.000    0.000    0.000    0.000    0.000    0.000 
#
# Total GULP energy -148746.532069 kJ/mol
# GULP energy per Si atom -12395.544339 kJ/mol
# Density = 2.140072 g / cm^3
# Si number density = 21.449544 Si / 1000 Ang^3
#
#
#
# Elastic Constant Matrix: (Units=GPa)
#
#
# Indices 1 2 3 4 5 6 
#
# 1 97.5996 10.8172 38.5105 4.9528 20.7764 17.9891
# 2 10.8172 74.2680 10.6841 2.3658 10.3056 11.1263
# 3 38.5105 10.6841 106.2068 6.1937 11.9345 12.5129
# 4 4.9528 2.3658 6.1937 35.8674 3.9889 -4.1146
# 5 20.7764 10.3056 11.9345 3.9889 38.7590 4.1320
# 6 17.9891 11.1263 12.5129 -4.1146 4.1320 32.8811
#
#
#
# Elastic Compliance Matrix: (Units=1/GPa)
#
#
# Indices 1 2 3 4 5 6 
#
# 1 0.014030 0.000186 -0.003709 -0.001342 -0.005674 -0.005782
# 2 0.000186 0.014689 -0.000581 -0.001060 -0.003229 -0.004578
# 3 -0.003709 -0.000581 0.011266 -0.001535 -0.000941 -0.002135
# 4 -0.001342 -0.001060 -0.001535 0.029282 -0.002138 0.005610
# 5 -0.005674 -0.003229 -0.000941 -0.002138 0.030157 0.000498
# 6 -0.005782 -0.004578 -0.002135 0.005610 0.000498 0.036577
#
#
# Mechanical properties :
#
#
# Convention : Reuss Voigt Hill
#
# Bulk Modulus (GPa) = 31.46889 44.23312 37.85101
# Shear Modulus (GPa) = 32.29934 36.03901 34.16918
#
# Velocity S-wave (km/s) = 3.88471 4.10344 3.99557
# Velocity P-wave (km/s) = 5.90121 6.56641 6.24267
#
# Compressibility (1/GPa) = 0.03177741
#
# Stress axis : x y z
#
# Youngs Moduli (GPa) = 71.27333 68.07838 88.76454
#
# Poissons Ratio (x) = -0.01269 0.32924
# Poissons Ratio (y) = -0.01328 0.05158
# Poissons Ratio (z) = 0.26436 0.03956
#
# Static dielectric constant tensor:
#      x y z
#    x 4.150800 0.079900 -0.083030 
#    y 0.079900 4.798120 0.158000 
#    z -0.083030 0.158000 3.872180 
# 
# 
# High freq. dielectric constant tensor:
#      x y z
#    x 1.848980 0.001280 -0.004500 
#    y 0.001280 1.854130 0.015370 
#    z -0.004500 0.015370 1.839290 
# 
# From -- ./inp_files/144579.got.cif
#   From: 2010.06.25/outbox.cif.g09.slc.cpg/sg2_73_cif.got.tgz:144579.got - 2010.06.27 13:26:56.
