data_PCOD8024057
_publ_section_title
;
Structure prediction by ZEFSAII (Michael W. Deem and Ramdas Pophale) SiO2 
 PCOD8024057
Probable space group: P -1
;
_chemical_formula_sum "Si O2"
_cell_formula_units_Z 12
_cell_length_a 7.385071
_cell_length_b 19.420639
_cell_length_c 5.169296
_cell_angle_alpha 68.726557
_cell_angle_beta 65.637351
_cell_angle_gamma 51.440435
_cell_volume 522.271762
_symmetry_space_group_name_H-M "P -1"
_symmetry_group_IT_number 2
_symmetry_cell_setting 'triclinic'
loop_
_space_group_symop_operation_xyz
x,y,z
-x,-y,-z
loop_
_atom_site_type_symbol
_atom_site_label
_atom_site_fract_x
_atom_site_fract_y
_atom_site_fract_z
Si Si1 0.750684 0.333054 0.339130
Si Si2 0.066324 0.400270 0.099355
Si Si3 0.487586 0.086301 0.793367
Si Si4 0.765850 0.599437 0.498994
Si Si5 0.070208 0.786672 0.103356
Si Si6 0.246554 0.913701 0.875770
O O1 0.830245 0.400475 0.245008
O O2 0.468498 0.401498 0.370897
O O3 0.869929 0.273375 0.100280
O O4 0.811542 0.271751 0.633115
O O5 0.233056 0.348498 0.319740
O O6 0.000000 0.500000 0.000000
O O7 0.223946 0.348510 0.824964
O O8 0.569199 0.120364 0.942789
O O9 0.651216 0.065954 0.468578
O O10 0.215229 0.156860 0.773026
O O11 0.500000 0.000000 0.000000
O O12 0.000000 0.500000 0.500000
O O13 0.185790 0.843171 0.923259
O O14 0.000000 0.000000 0.000000
#
# Coordination Sequence:
#
# PCOD8024057 Si02
#       6
#     2   2   2   2   2   2
#     4  12  26  44  67 102 144 178 234 294 354 409
#     4  10  23  42  69  98 132 177 231 281 351 419
#     4  12  26  45  74 102 141 185 245 289 345 424
#     4  10  23  42  69  98 132 177 231 281 351 419
#     4  12  28  44  69 104 142 188 230 296 356 399
#     4  12  26  45  74 102 141 185 245 289 345 424
#
# _framework density 22.976542999999999
#
# number of rings (size 3 to 8) (size 9 to 14) (size 15 to 20)
#    0.000    0.667    1.667    5.000    2.333   13.333 
#    0.000    0.000    0.000    0.000    0.000    0.000 
#    0.000    0.000    0.000    0.000    0.000    0.000 
#
# Total GULP energy -148746.584693 kJ/mol
# GULP energy per Si atom -12395.548724 kJ/mol
# Density = 2.292425 g / cm^3
# Si number density = 22.976543 Si / 1000 Ang^3
#
#
#
# Elastic Constant Matrix: (Units=GPa)
#
#
# Indices 1 2 3 4 5 6 
#
# 1 205.6030 47.3291 91.1861 0.4980 -9.4047 -4.7672
# 2 47.3291 82.1288 44.4796 -3.1339 -14.2567 -7.6955
# 3 91.1861 44.4796 214.4597 14.9442 11.1096 4.9272
# 4 0.4980 -3.1339 14.9442 13.4932 6.6541 -18.6956
# 5 -9.4047 -14.2567 11.1096 6.6541 63.0280 3.4564
# 6 -4.7672 -7.6955 4.9272 -18.6956 3.4564 37.4266
#
#
#
# Elastic Compliance Matrix: (Units=1/GPa)
#
#
# Indices 1 2 3 4 5 6 
#
# 1 0.008162 0.004493 -0.008827 0.055992 -0.003846 0.031450
# 2 0.004493 0.042802 -0.028527 0.224172 -0.015224 0.126515
# 3 -0.008827 -0.028527 0.031260 -0.215233 0.016029 -0.120101
# 4 0.055992 0.224172 -0.215233 1.857727 -0.155277 1.023888
# 5 -0.003846 -0.015224 0.016029 -0.155277 0.030137 -0.086079
# 6 0.031450 0.126515 -0.120101 1.023888 -0.086079 0.591961
#
#
# Mechanical properties :
#
#
# Convention : Reuss Voigt Hill
#
# Bulk Modulus (GPa) = 60.59902 96.46458 78.53180
# Shear Modulus (GPa) = 1.89878 44.06933 22.98405
#
# Velocity S-wave (km/s) = 0.91005 4.38426 3.16623
# Velocity P-wave (km/s) = 5.24746 8.22825 6.90072
#
# Compressibility (1/GPa) = 0.01650192
#
# Stress axis : x y z
#
# Youngs Moduli (GPa) = 122.51698 23.36327 31.99003
#
# Poissons Ratio (x) = -0.10497 0.28239
# Poissons Ratio (y) = -0.55046 0.91257
# Poissons Ratio (z) = 1.08149 0.66648
#
# Static dielectric constant tensor:
#      x y z
#    x 6.719700 4.187170 2.548040 
#    y 4.187170 12.994610 5.337320 
#    z 2.548040 5.337320 7.753580 
# 
# 
# High freq. dielectric constant tensor:
#      x y z
#    x 1.940320 0.000590 0.008430 
#    y 0.000590 1.884160 0.006710 
#    z 0.008430 0.006710 1.936640 
# 
# From -- ./inp_files/5928.got.cif
#   From: 2010.06.25/outbox.cif.g09.slc.cpg/sg2_3_cif.got.tgz:5928.got - 2010.06.27 13:26:56.
