data_PCOD8024351
_publ_section_title
;
Structure prediction by ZEFSAII (Michael W. Deem and Ramdas Pophale) SiO2 
 PCOD8024351
Probable space group: P -1
;
_chemical_formula_sum "Si O2"
_cell_formula_units_Z 14
_cell_length_a 9.585421
_cell_length_b 9.862983
_cell_length_c 7.820544
_cell_angle_alpha 75.540016
_cell_angle_beta 89.621940
_cell_angle_gamma 61.644936
_cell_volume 624.577028
_symmetry_space_group_name_H-M "P -1"
_symmetry_group_IT_number 2
_symmetry_cell_setting 'triclinic'
loop_
_space_group_symop_operation_xyz
x,y,z
-x,-y,-z
loop_
_atom_site_type_symbol
_atom_site_label
_atom_site_fract_x
_atom_site_fract_y
_atom_site_fract_z
Si Si1 0.810547 0.666281 0.636464
Si Si2 0.151437 0.423763 0.711452
Si Si3 0.249595 0.990355 0.543987
Si Si4 0.085244 0.132921 0.843906
Si Si5 0.204510 0.893045 0.220744
Si Si6 0.484888 0.374406 0.827931
Si Si7 0.518579 0.670480 0.773056
O O1 0.817440 0.573316 0.490893
O O2 0.703805 0.628765 0.780546
O O3 0.995237 0.588442 0.722954
O O4 0.730910 0.856413 0.550988
O O5 0.120870 0.277940 0.801051
O O6 0.305027 0.407169 0.810571
O O7 0.162634 0.956317 0.396087
O O8 0.421956 0.835977 0.619252
O O9 0.154538 0.019575 0.712540
O O10 0.895303 0.194355 0.813211
O O11 0.160807 0.041025 0.047752
O O12 0.394208 0.769404 0.249702
O O13 0.493463 0.532997 0.725382
O O14 0.544132 0.316734 0.038053
#
# Coordination Sequence:
#
# PCOD8024351 Si02
#       7
#     2   2   2   2   2   2   2
#     4  10  23  43  65  98 128 169 220 267 321 388
#     4  10  23  43  66  93 131 172 215 269 324 383
#     4  11  23  42  69 100 129 171 212 276 317 384
#     4  10  23  43  65  99 135 164 221 267 314 398
#     4  11  23  42  69  96 130 178 210 264 334 375
#     4  11  25  42  65  96 129 178 214 267 325 382
#     4  11  24  43  64  95 136 165 223 270 314 392
#
# _framework density 22.415171000000001
#
# number of rings (size 3 to 8) (size 9 to 14) (size 15 to 20)
#    0.000    1.429    1.429    2.571    2.000    9.143 
#    2.571    0.000    0.000    0.000    0.000    0.000 
#    0.000    0.000    0.000    0.000    0.000    0.000 
#
# Total GULP energy -173607.063250 kJ/mol
# GULP energy per Si atom -12400.504518 kJ/mol
# Density = 2.236415 g / cm^3
# Si number density = 22.415171 Si / 1000 Ang^3
#
#
#
# Elastic Constant Matrix: (Units=GPa)
#
#
# Indices 1 2 3 4 5 6 
#
# 1 124.6033 46.6187 37.3628 -25.7614 -0.0881 -0.5145
# 2 46.6187 98.5800 35.2217 -20.4796 9.2524 -7.3058
# 3 37.3628 35.2217 73.6753 -5.5197 12.6646 -11.7957
# 4 -25.7614 -20.4796 -5.5197 27.9677 0.8467 -0.7140
# 5 -0.0881 9.2524 12.6646 0.8467 29.9798 -0.0503
# 6 -0.5145 -7.3058 -11.7957 -0.7140 -0.0503 27.3564
#
#
#
# Elastic Compliance Matrix: (Units=1/GPa)
#
#
# Indices 1 2 3 4 5 6 
#
# 1 0.012277 -0.002703 -0.005215 0.008150 0.002839 -0.002522
# 2 -0.002703 0.015059 -0.004353 0.007828 -0.003034 0.002292
# 3 -0.005215 -0.004353 0.020466 -0.003544 -0.007205 0.007458
# 4 0.008150 0.007828 -0.003544 0.048414 -0.002259 0.001975
# 5 0.002839 -0.003034 -0.007205 -0.002259 0.037401 -0.003853
# 6 -0.002522 0.002292 0.007458 0.001975 -0.003853 0.040380
#
#
# Mechanical properties :
#
#
# Convention : Reuss Voigt Hill
#
# Bulk Modulus (GPa) = 42.99371 59.47391 51.23381
# Shear Modulus (GPa) = 24.23749 28.90447 26.57098
#
# Velocity S-wave (km/s) = 3.29188 3.59486 3.44670
# Velocity P-wave (km/s) = 5.80266 6.61976 6.22463
#
# Compressibility (1/GPa) = 0.02325921
#
# Stress axis : x y z
#
# Youngs Moduli (GPa) = 81.45340 66.40762 48.86149
#
# Poissons Ratio (x) = 0.17948 0.25481
# Poissons Ratio (y) = 0.22015 0.21271
# Poissons Ratio (z) = 0.42478 0.28910
#
# Static dielectric constant tensor:
#      x y z
#    x 3.899420 -0.146060 -0.064070 
#    y -0.146060 3.913310 -0.015480 
#    z -0.064070 -0.015480 3.998050 
# 
# 
# High freq. dielectric constant tensor:
#      x y z
#    x 1.883630 -0.007610 -0.006570 
#    y -0.007610 1.878450 -0.005240 
#    z -0.006570 -0.005240 1.887950 
# 
# From -- ./inp_files/156985.got.cif
#   From: 2010.06.25/outbox.cif.g09.slc.cpg/sg2_79_cif.got.tgz:156985.got - 2010.06.27 13:26:56.
