data_PCOD8024842
_publ_section_title
;
Structure prediction by ZEFSAII (Michael W. Deem and Ramdas Pophale) SiO2 
 PCOD8024842
Probable space group: P -1
;
_chemical_formula_sum "Si O2"
_cell_formula_units_Z 12
_cell_length_a 8.398580
_cell_length_b 9.350821
_cell_length_c 11.257144
_cell_angle_alpha 36.090208
_cell_angle_beta 89.768156
_cell_angle_gamma 71.042214
_cell_volume 436.298377
_symmetry_space_group_name_H-M "P -1"
_symmetry_group_IT_number 2
_symmetry_cell_setting 'triclinic'
loop_
_space_group_symop_operation_xyz
x,y,z
-x,-y,-z
loop_
_atom_site_type_symbol
_atom_site_label
_atom_site_fract_x
_atom_site_fract_y
_atom_site_fract_z
Si Si1 0.122010 0.582815 0.111245
Si Si2 0.992401 0.215528 0.452207
Si Si3 0.256606 0.947397 0.833769
Si Si4 0.572444 0.882251 0.712117
Si Si5 0.698817 0.111868 0.752948
Si Si6 0.329351 0.351807 0.697184
O O1 0.138986 0.317433 0.363444
O O2 0.223094 0.429059 0.087995
O O3 0.249846 0.705195 0.077807
O O4 0.900198 0.819349 0.955795
O O5 0.063972 0.050614 0.688309
O O6 0.772444 0.489748 0.284634
O O7 0.000000 0.000000 0.500000
O O8 0.222756 0.207501 0.741094
O O9 0.435845 0.819363 0.831619
O O10 0.500000 0.000000 0.500000
O O11 0.601214 0.108611 0.631389
O O12 0.561705 0.122422 0.855912
O O13 0.701308 0.400829 0.562504
#
# Coordination Sequence:
#
# PCOD8024842 Si02
#       6
#     2   2   2   2   2   2
#     4  12  25  43  73 107 136 186 240 279 351 417
#     4  12  26  43  74 106 138 182 237 293 345 415
#     4  11  25  45  71 101 146 185 226 294 349 408
#     4  11  23  44  70 109 141 185 232 291 345 412
#     4  10  23  43  76  96 143 192 227 287 349 414
#     4  10  23  48  67 101 145 186 227 287 357 404
#
# _framework density 27.504111999999999
#
# number of rings (size 3 to 8) (size 9 to 14) (size 15 to 20)
#    0.000    1.000    3.333    2.500    2.333    1.333 
#    0.000    0.000    0.000    0.000    0.000    0.000 
#    0.000    0.000    0.000    0.000    0.000    0.000 
#
# Total GULP energy -148659.528366 kJ/mol
# GULP energy per Si atom -12388.294030 kJ/mol
# Density = 2.744151 g / cm^3
# Si number density = 27.504112 Si / 1000 Ang^3
#
#
#
# Elastic Constant Matrix: (Units=GPa)
#
#
# Indices 1 2 3 4 5 6 
#
# 1 141.9081 78.7565 60.1590 -30.4176 -33.2426 -26.5699
# 2 78.7565 168.5038 44.9410 -50.8172 -4.0278 -21.2696
# 3 60.1590 44.9410 59.7251 -25.7968 -14.8928 3.6832
# 4 -30.4176 -50.8172 -25.7968 45.1964 -4.9784 3.0719
# 5 -33.2426 -4.0278 -14.8928 -4.9784 66.3820 -17.6891
# 6 -26.5699 -21.2696 3.6832 3.0719 -17.6891 66.5980
#
#
#
# Elastic Compliance Matrix: (Units=1/GPa)
#
#
# Indices 1 2 3 4 5 6 
#
# 1 0.019329 -0.003269 -0.014930 0.001118 0.008823 0.009785
# 2 -0.003269 0.010688 -0.000901 0.009181 -0.000043 0.001724
# 3 -0.014930 -0.000901 0.037557 0.010912 -0.000687 -0.009007
# 4 0.001118 0.009181 0.010912 0.040042 0.007335 0.002876
# 5 0.008823 -0.000043 -0.000687 0.007335 0.022309 0.009132
# 6 0.009785 0.001724 -0.009007 0.002876 0.009132 0.022261
#
#
# Mechanical properties :
#
#
# Convention : Reuss Voigt Hill
#
# Bulk Modulus (GPa) = 34.04364 81.98331 58.01348
# Shear Modulus (GPa) = 24.97782 48.05399 36.51590
#
# Velocity S-wave (km/s) = 3.01682 4.18443 3.64765
# Velocity P-wave (km/s) = 4.95373 7.29509 6.23530
#
# Compressibility (1/GPa) = 0.02937406
#
# Stress axis : x y z
#
# Youngs Moduli (GPa) = 51.73641 93.56015 26.62615
#
# Poissons Ratio (x) = 0.30583 0.39752
# Poissons Ratio (y) = 0.16912 0.02400
# Poissons Ratio (z) = 0.77242 0.08433
#
# Static dielectric constant tensor:
#      x y z
#    x 5.372710 -0.486680 -0.276750 
#    y -0.486680 5.081050 -0.437110 
#    z -0.276750 -0.437110 4.980920 
# 
# 
# High freq. dielectric constant tensor:
#      x y z
#    x 2.134530 -0.031540 -0.025560 
#    y -0.031540 2.104140 -0.033400 
#    z -0.025560 -0.033400 2.105470 
# 
# From -- ./inp_files/149705.got.cif
#   From: 2010.06.25/outbox.cif.g09.slc.cpg/sg2_75_cif.got.tgz:149705.got - 2010.06.27 13:26:56.
