data_PCOD8024142
_publ_section_title
;
Structure prediction by ZEFSAII (Michael W. Deem and Ramdas Pophale) SiO2 
 PCOD8024142
Probable space group: P -1
;
_chemical_formula_sum "Si O2"
_cell_formula_units_Z 16
_cell_length_a 11.953704
_cell_length_b 9.277573
_cell_length_c 17.857512
_cell_angle_alpha 50.036504
_cell_angle_beta 27.740059
_cell_angle_gamma 47.342938
_cell_volume 672.656934
_symmetry_space_group_name_H-M "P -1"
_symmetry_group_IT_number 2
_symmetry_cell_setting 'triclinic'
loop_
_space_group_symop_operation_xyz
x,y,z
-x,-y,-z
loop_
_atom_site_type_symbol
_atom_site_label
_atom_site_fract_x
_atom_site_fract_y
_atom_site_fract_z
Si Si1 0.947718 0.704331 0.271948
Si Si2 0.034632 0.705672 0.769450
Si Si3 0.696482 0.684590 0.843883
Si Si4 0.204367 0.993750 0.072951
Si Si5 0.239965 0.231732 0.388025
Si Si6 0.489759 0.793109 0.412704
Si Si7 0.312597 0.352601 0.808092
Si Si8 0.290370 0.504101 0.391194
O O1 0.777898 0.731467 0.289674
O O2 0.809571 0.626166 0.446628
O O3 0.230426 0.552379 0.136506
O O4 0.976690 0.916910 0.204069
O O5 0.329725 0.686185 0.592751
O O6 0.055297 0.521650 0.875800
O O7 0.932495 0.695504 0.750350
O O8 0.864816 0.912650 0.835417
O O9 0.677072 0.791252 0.740056
O O10 0.446959 0.797486 0.000722
O O11 0.237138 0.164465 0.943276
O O12 0.345191 0.389064 0.317736
O O13 0.935987 0.292604 0.554464
O O14 0.356484 0.023564 0.427449
O O15 0.489004 0.727519 0.349517
O O16 0.457269 0.444421 0.753419
#
# Coordination Sequence:
#
# PCOD8024142 Si02
#       8
#     2   2   2   2   2   2   2   2
#     4  11  24  47  75 105 144 186 241 294 351 425
#     4  12  26  46  74 106 146 188 235 297 354 424
#     4  11  24  50  69 101 146 192 236 287 354 433
#     4  12  28  47  69 108 146 191 234 288 366 420
#     4  10  23  42  71 107 136 189 237 295 345 417
#     4  12  23  44  78 107 138 189 243 292 353 418
#     4  12  25  48  71 110 141 186 237 297 359 413
#     4  10  23  45  72 105 146 180 239 298 349 416
#
# _framework density 23.786273000000001
#
# number of rings (size 3 to 8) (size 9 to 14) (size 15 to 20)
#    0.000    0.750    3.750    3.750    3.500    2.500 
#    9.000    0.000    0.000    0.000    0.000    0.000 
#    0.000    0.000    0.000    0.000    0.000    0.000 
#
# Total GULP energy -198380.615401 kJ/mol
# GULP energy per Si atom -12398.788463 kJ/mol
# Density = 2.373213 g / cm^3
# Si number density = 23.786273 Si / 1000 Ang^3
#
#
#
# Elastic Constant Matrix: (Units=GPa)
#
#
# Indices 1 2 3 4 5 6 
#
# 1 119.5781 40.7446 22.2180 -5.4164 -3.0873 5.2986
# 2 40.7446 114.9818 38.5546 -3.2562 -2.8369 8.2150
# 3 22.2180 38.5546 62.6372 -11.0455 -6.2114 3.4749
# 4 -5.4164 -3.2562 -11.0455 40.6676 5.3810 4.0356
# 5 -3.0873 -2.8369 -6.2114 5.3810 24.3930 3.8654
# 6 5.2986 8.2150 3.4749 4.0356 3.8654 37.2116
#
#
#
# Elastic Compliance Matrix: (Units=1/GPa)
#
#
# Indices 1 2 3 4 5 6 
#
# 1 0.009684 -0.002855 -0.001470 0.000670 0.000488 -0.000735
# 2 -0.002855 0.011947 -0.006450 -0.001006 -0.000154 -0.001503
# 3 -0.001470 -0.006450 0.021752 0.004830 0.003745 -0.001311
# 4 0.000670 -0.001006 0.004830 0.026750 -0.004262 -0.002783
# 5 0.000488 -0.000154 0.003745 -0.004262 0.043639 -0.004456
# 6 -0.000735 -0.001503 -0.001311 -0.002783 -0.004456 0.028197
#
#
# Mechanical properties :
#
#
# Convention : Reuss Voigt Hill
#
# Bulk Modulus (GPa) = 45.80344 55.58128 50.69236
# Shear Modulus (GPa) = 29.27431 33.49976 31.38704
#
# Velocity S-wave (km/s) = 3.51197 3.75689 3.63649
# Velocity P-wave (km/s) = 5.97857 6.49897 6.24420
#
# Compressibility (1/GPa) = 0.02183242
#
# Stress axis : x y z
#
# Youngs Moduli (GPa) = 103.25990 83.70565 45.97181
#
# Poissons Ratio (x) = 0.23899 0.06760
# Poissons Ratio (y) = 0.29482 0.29652
# Poissons Ratio (z) = 0.15183 0.53990
#
# Static dielectric constant tensor:
#      x y z
#    x 4.263510 0.118860 0.044700 
#    y 0.118860 4.554110 0.139000 
#    z 0.044700 0.139000 3.933360 
# 
# 
# High freq. dielectric constant tensor:
#      x y z
#    x 1.947610 0.007750 0.003780 
#    y 0.007750 1.965570 0.009330 
#    z 0.003780 0.009330 1.920030 
# 
# From -- ./inp_files/226681.got.cif
#   From: 2010.06.25/outbox.cif.g09.slc.cpg/sg2_114_cif.got.tgz:226681.got - 2010.06.27 13:26:56.
