data_PCOD8024945
_publ_section_title
;
Structure prediction by ZEFSAII (Michael W. Deem and Ramdas Pophale) SiO2 
 PCOD8024945
Probable space group: P -1
;
_chemical_formula_sum "Si O2"
_cell_formula_units_Z 16
_cell_length_a 5.498869
_cell_length_b 8.895678
_cell_length_c 14.974555
_cell_angle_alpha 70.198371
_cell_angle_beta 83.261530
_cell_angle_gamma 87.231299
_cell_volume 684.396564
_symmetry_space_group_name_H-M "P -1"
_symmetry_group_IT_number 2
_symmetry_cell_setting 'triclinic'
loop_
_space_group_symop_operation_xyz
x,y,z
-x,-y,-z
loop_
_atom_site_type_symbol
_atom_site_label
_atom_site_fract_x
_atom_site_fract_y
_atom_site_fract_z
Si Si1 0.150727 0.887026 0.451583
Si Si2 0.475358 0.046058 0.711996
Si Si3 0.187261 0.406970 0.112503
Si Si4 0.391358 0.624413 0.594440
Si Si5 0.992352 0.261049 0.980334
Si Si6 0.339444 0.703164 0.776530
Si Si7 0.225081 0.340189 0.566678
Si Si8 0.331804 0.028513 0.916111
O O1 0.268324 0.987586 0.344452
O O2 0.337191 0.805708 0.529161
O O3 0.020924 0.738764 0.439584
O O4 0.000000 0.000000 0.500000
O O5 0.376374 0.208271 0.641579
O O6 0.499296 0.065119 0.814763
O O7 0.307284 0.894095 0.729162
O O8 0.439968 0.338613 0.155900
O O9 0.189596 0.600434 0.076947
O O10 0.930449 0.357441 0.177799
O O11 0.183878 0.340317 0.024923
O O12 0.427863 0.619619 0.699055
O O13 0.186028 0.492066 0.603470
O O14 0.645086 0.584104 0.541701
O O15 0.147098 0.177714 0.910944
O O16 0.827066 0.129751 0.064274
O O17 0.500000 0.000000 0.000000
#
# Coordination Sequence:
#
# PCOD8024945 Si02
#       8
#     2   2   2   2   2   2   2   2
#     4  11  23  42  72 101 141 188 235 295 362 430
#     4  11  25  42  67 102 138 185 244 292 360 430
#     4  11  27  46  74 105 143 189 240 304 352 436
#     4  10  24  43  65 100 135 186 232 296 355 431
#     4  10  25  46  70 101 140 190 236 296 367 419
#     4  12  26  45  72 106 142 185 244 296 359 427
#     4  10  23  44  66  94 142 179 237 290 361 425
#     4  11  24  45  71 100 145 186 240 296 363 431
#
# _framework density 23.378260999999998
#
# number of rings (size 3 to 8) (size 9 to 14) (size 15 to 20)
#    0.000    1.250    1.250    2.625    8.750    5.000 
#    0.000    0.000    0.000    0.000    0.000    0.000 
#    0.000    0.000    0.000    0.000    0.000    0.000 
#
# Total GULP energy -198290.522228 kJ/mol
# GULP energy per Si atom -12393.157639 kJ/mol
# Density = 2.332505 g / cm^3
# Si number density = 23.378261 Si / 1000 Ang^3
#
#
#
# Elastic Constant Matrix: (Units=GPa)
#
#
# Indices 1 2 3 4 5 6 
#
# 1 65.9761 6.7813 27.4540 -1.6459 -9.1828 -2.8599
# 2 6.7813 121.6046 38.7184 -6.4988 -7.9381 -10.0049
# 3 27.4540 38.7184 126.5443 11.1944 -22.9908 -7.0723
# 4 -1.6459 -6.4988 11.1944 32.8724 1.1767 1.8114
# 5 -9.1828 -7.9381 -22.9908 1.1767 30.2492 1.7245
# 6 -2.8599 -10.0049 -7.0723 1.8114 1.7245 29.1480
#
#
#
# Elastic Compliance Matrix: (Units=1/GPa)
#
#
# Indices 1 2 3 4 5 6 
#
# 1 0.017002 0.000505 -0.003530 0.002025 0.002492 0.000712
# 2 0.000505 0.009547 -0.003146 0.002852 0.000021 0.002385
# 3 -0.003530 -0.003146 0.011393 -0.004993 0.006885 0.001241
# 4 0.002025 0.002852 -0.004993 0.033019 -0.003610 -0.001872
# 5 0.002492 0.000021 0.006885 -0.003610 0.039204 -0.000173
# 6 0.000712 0.002385 0.001241 -0.001872 -0.000173 0.035624
#
#
# Mechanical properties :
#
#
# Convention : Reuss Voigt Hill
#
# Bulk Modulus (GPa) = 39.06152 51.11472 45.08812
# Shear Modulus (GPa) = 30.00074 34.53200 32.26637
#
# Velocity S-wave (km/s) = 3.58617 3.84747 3.71912
# Velocity P-wave (km/s) = 5.82170 6.45361 6.14578
#
# Compressibility (1/GPa) = 0.02560065
#
# Stress axis : x y z
#
# Youngs Moduli (GPa) = 58.81627 104.74728 87.77534
#
# Poissons Ratio (x) = -0.05292 0.30983
# Poissons Ratio (y) = -0.02971 0.27613
# Poissons Ratio (z) = 0.20761 0.32952
#
# Static dielectric constant tensor:
#      x y z
#    x 4.046520 -0.059830 -0.139660 
#    y -0.059830 4.520570 -0.046140 
#    z -0.139660 -0.046140 4.330920 
# 
# 
# High freq. dielectric constant tensor:
#      x y z
#    x 1.907230 -0.004170 -0.006450 
#    y -0.004170 1.946890 -0.000800 
#    z -0.006450 -0.000800 1.927470 
# 
# From -- ./inp_files/143185.got.cif
#   From: 2010.06.25/outbox.cif.g09.slc.cpg/sg2_72_cif.got.tgz:143185.got - 2010.06.27 13:26:56.
