data_PCOD8024840
_publ_section_title
;
Structure prediction by ZEFSAII (Michael W. Deem and Ramdas Pophale) SiO2 
 PCOD8024840
Probable space group: P -1
;
_chemical_formula_sum "Si O2"
_cell_formula_units_Z 14
_cell_length_a 10.500973
_cell_length_b 22.991510
_cell_length_c 7.398500
_cell_angle_alpha 37.554990
_cell_angle_beta 49.764638
_cell_angle_gamma 31.852188
_cell_volume 572.471522
_symmetry_space_group_name_H-M "P -1"
_symmetry_group_IT_number 2
_symmetry_cell_setting 'triclinic'
loop_
_space_group_symop_operation_xyz
x,y,z
-x,-y,-z
loop_
_atom_site_type_symbol
_atom_site_label
_atom_site_fract_x
_atom_site_fract_y
_atom_site_fract_z
Si Si1 0.522410 0.115788 0.327424
Si Si2 0.842907 0.284385 0.833657
Si Si3 0.526391 0.201741 0.718295
Si Si4 0.306688 0.112955 0.042755
Si Si5 0.012997 0.604012 0.794519
Si Si6 0.416476 0.446727 0.085928
Si Si7 0.042894 0.950414 0.876550
O O1 0.255047 0.241462 0.339133
O O2 0.608926 0.969218 0.638732
O O3 0.544832 0.149155 0.028004
O O4 0.724902 0.091001 0.318998
O O5 0.907186 0.183656 0.861882
O O6 0.838234 0.393649 0.490551
O O7 0.582909 0.368144 0.949786
O O8 0.035108 0.196113 0.038297
O O9 0.436765 0.347005 0.443337
O O10 0.324815 0.220453 0.759355
O O11 0.793720 0.082018 0.676218
O O12 0.500000 0.000000 0.000000
O O13 0.000000 0.500000 0.000000
O O14 0.141272 0.564060 0.972338
O O15 0.500000 0.500000 0.000000
O O16 0.000000 0.000000 0.000000
#
# Coordination Sequence:
#
# PCOD8024840 Si02
#       7
#     2   2   2   2   2   2   2
#     4  11  25  43  75 102 149 183 240 299 372 427
#     4  12  26  47  77 104 152 186 246 308 366 436
#     4  11  25  47  70 105 149 188 241 296 368 439
#     4  12  23  43  73 112 142 178 237 305 381 430
#     4  12  27  47  73 104 147 201 251 297 360 432
#     4  12  31  48  74 106 148 204 254 293 356 439
#     4  10  23  43  76 108 142 183 238 300 381 425
#
# _framework density 24.455363999999999
#
# number of rings (size 3 to 8) (size 9 to 14) (size 15 to 20)
#    0.000    0.571    2.857    3.429   10.000    2.857 
#    0.000    0.000    0.000    0.000    0.000    0.000 
#    0.000    0.000    0.000    0.000    0.000    0.000 
#
# Total GULP energy -173526.139693 kJ/mol
# GULP energy per Si atom -12394.724264 kJ/mol
# Density = 2.439970 g / cm^3
# Si number density = 24.455364 Si / 1000 Ang^3
#
#
#
# Elastic Constant Matrix: (Units=GPa)
#
#
# Indices 1 2 3 4 5 6 
#
# 1 129.7487 28.2400 50.7402 -13.6059 -18.2851 -3.6500
# 2 28.2400 68.1345 21.9515 -6.0616 -5.8284 -10.2346
# 3 50.7402 21.9515 167.8621 -20.9279 -15.1223 1.0877
# 4 -13.6059 -6.0616 -20.9279 36.1309 3.4803 -6.8049
# 5 -18.2851 -5.8284 -15.1223 3.4803 46.6176 -5.6449
# 6 -3.6500 -10.2346 1.0877 -6.8049 -5.6449 41.4044
#
#
#
# Elastic Compliance Matrix: (Units=1/GPa)
#
#
# Indices 1 2 3 4 5 6 
#
# 1 0.009757 -0.002827 -0.002101 0.001887 0.002760 0.000903
# 2 -0.002827 0.017132 -0.001077 0.001925 0.001082 0.004478
# 3 -0.002101 -0.001077 0.007225 0.003106 0.001156 0.000027
# 4 0.001887 0.001925 0.003106 0.031569 0.000333 0.005794
# 5 0.002760 0.001082 0.001156 0.000333 0.023471 0.003735
# 6 0.000903 0.004478 0.000027 0.005794 0.003735 0.026799
#
#
# Mechanical properties :
#
#
# Convention : Reuss Voigt Hill
#
# Bulk Modulus (GPa) = 45.24623 63.06765 54.15694
# Shear Modulus (GPa) = 36.94613 42.48482 39.71548
#
# Velocity S-wave (km/s) = 3.89106 4.17254 4.03426
# Velocity P-wave (km/s) = 6.22325 7.00417 6.62523
#
# Compressibility (1/GPa) = 0.02210129
#
# Stress axis : x y z
#
# Youngs Moduli (GPa) = 102.49504 58.36975 138.41607
#
# Poissons Ratio (x) = 0.16503 0.29087
# Poissons Ratio (y) = 0.28978 0.14913
# Poissons Ratio (z) = 0.21538 0.06289
#
# Static dielectric constant tensor:
#      x y z
#    x 6.479090 -1.323850 -0.651160 
#    y -1.323850 4.918840 0.299540 
#    z -0.651160 0.299540 4.930720 
# 
# 
# High freq. dielectric constant tensor:
#      x y z
#    x 1.985970 -0.025500 -0.010630 
#    y -0.025500 1.960270 0.002030 
#    z -0.010630 0.002030 1.982610 
# 
# From -- ./inp_files/285746.got.cif
#   From: 2010.06.25/outbox.cif.g09.slc.cpg/sg2_143_cif.got.tgz:285746.got - 2010.06.27 13:26:56.
