data_PCOD8024078
_publ_section_title
;
Structure prediction by ZEFSAII (Michael W. Deem and Ramdas Pophale) SiO2 
 PCOD8024078
Probable space group: P -1
;
_chemical_formula_sum "Si O2"
_cell_formula_units_Z 12
_cell_length_a 25.608590
_cell_length_b 28.488102
_cell_length_c 9.552322
_cell_angle_alpha 152.428049
_cell_angle_beta 27.453355
_cell_angle_gamma 171.156051
_cell_volume 489.402390
_symmetry_space_group_name_H-M "P -1"
_symmetry_group_IT_number 2
_symmetry_cell_setting 'triclinic'
loop_
_space_group_symop_operation_xyz
x,y,z
-x,-y,-z
loop_
_atom_site_type_symbol
_atom_site_label
_atom_site_fract_x
_atom_site_fract_y
_atom_site_fract_z
Si Si1 0.695949 0.196056 0.188911
Si Si2 0.710265 0.532861 0.151126
Si Si3 0.585117 0.701090 0.261090
Si Si4 0.237730 0.823198 0.545655
Si Si5 0.954956 0.713938 0.333635
Si Si6 0.798188 0.831201 0.806500
O O1 0.973901 0.511594 0.311559
O O2 0.440227 0.030034 0.471833
O O3 0.859912 0.236849 0.978873
O O4 0.500000 0.000000 0.000000
O O5 0.664306 0.462161 0.236482
O O6 0.805084 0.731419 0.444422
O O7 0.361077 0.221447 0.064573
O O8 0.037022 0.750820 0.887686
O O9 0.214165 0.407303 0.433928
O O10 0.549999 0.620398 0.978092
O O11 0.773810 0.969045 0.508076
O O12 0.814549 0.819698 0.130571
O O13 0.500000 0.000000 0.500000
#
# Coordination Sequence:
#
# PCOD8024078 Si02
#       6
#     2   2   2   2   2   2
#     4  12  28  46  71 107 139 185 237 288 349 416
#     4  10  23  42  70 100 138 179 227 286 344 412
#     4  10  23  43  69  98 134 180 226 281 345 409
#     4  12  26  48  74 104 140 185 233 289 353 414
#     4  11  24  43  70  97 139 179 226 287 342 409
#     4   9  22  43  67 101 136 178 229 281 342 410
#
# _framework density 24.5197
#
# number of rings (size 3 to 8) (size 9 to 14) (size 15 to 20)
#    0.000    1.333    1.667    2.000    7.000    6.667 
#    0.000    6.667    0.000    0.000    0.000    0.000 
#    0.000    0.000    0.000    0.000    0.000    0.000 
#
# Total GULP energy -148766.739550 kJ/mol
# GULP energy per Si atom -12397.228296 kJ/mol
# Density = 2.446389 g / cm^3
# Si number density = 24.519700 Si / 1000 Ang^3
#
#
#
# Elastic Constant Matrix: (Units=GPa)
#
#
# Indices 1 2 3 4 5 6 
#
# 1 112.7077 23.2107 30.0011 -5.3585 6.5366 31.7480
# 2 23.2107 68.8493 19.2901 -8.3328 3.3453 8.1474
# 3 30.0011 19.2901 122.4392 -28.7751 5.3618 15.7771
# 4 -5.3585 -8.3328 -28.7751 38.2273 3.4148 8.6689
# 5 6.5366 3.3453 5.3618 3.4148 39.2486 -1.1105
# 6 31.7480 8.1474 15.7771 8.6689 -1.1105 45.6986
#
#
#
# Elastic Compliance Matrix: (Units=1/GPa)
#
#
# Indices 1 2 3 4 5 6 
#
# 1 0.012187 -0.002475 -0.000814 0.002632 -0.002171 -0.008296
# 2 -0.002475 0.016210 -0.001069 0.002789 -0.001105 -0.001358
# 3 -0.000814 -0.001069 0.011597 0.009762 -0.002353 -0.005157
# 4 0.002632 0.002789 0.009762 0.037947 -0.005680 -0.013032
# 5 -0.002171 -0.001105 -0.002353 -0.005680 0.026870 0.004248
# 6 -0.008296 -0.001358 -0.005157 -0.013032 0.004248 0.032244
#
#
# Mechanical properties :
#
#
# Convention : Reuss Voigt Hill
#
# Bulk Modulus (GPa) = 31.96999 49.88889 40.92944
# Shear Modulus (GPa) = 32.01116 40.06785 36.03950
#
# Velocity S-wave (km/s) = 3.61713 4.04680 3.83798
# Velocity P-wave (km/s) = 5.52373 6.49816 6.03066
#
# Compressibility (1/GPa) = 0.03127934
#
# Stress axis : x y z
#
# Youngs Moduli (GPa) = 82.05673 61.69018 86.23046
#
# Poissons Ratio (x) = 0.15266 0.07016
# Poissons Ratio (y) = 0.20306 0.09217
# Poissons Ratio (z) = 0.06676 0.06594
#
# Static dielectric constant tensor:
#      x y z
#    x 4.647620 0.486060 0.053440 
#    y 0.486060 3.830180 0.109440 
#    z 0.053440 0.109440 4.459650 
# 
# 
# High freq. dielectric constant tensor:
#      x y z
#    x 1.978580 0.013050 0.008730 
#    y 0.013050 1.955940 -0.010050 
#    z 0.008730 -0.010050 1.996220 
# 
# From -- ./inp_files/131768.got.cif
#   From: 2010.06.25/outbox.cif.g09.slc.cpg/sg2_66_cif.got.tgz:131768.got - 2010.06.27 13:26:56.
