data_PCOD8024716
_publ_section_title
;
Structure prediction by ZEFSAII (Michael W. Deem and Ramdas Pophale) SiO2 
 PCOD8024716
Probable space group: P -1
;
_chemical_formula_sum "Si O2"
_cell_formula_units_Z 16
_cell_length_a 14.545398
_cell_length_b 19.228344
_cell_length_c 9.155964
_cell_angle_alpha 144.349392
_cell_angle_beta 37.697524
_cell_angle_gamma 152.388401
_cell_volume 667.281264
_symmetry_space_group_name_H-M "P -1"
_symmetry_group_IT_number 2
_symmetry_cell_setting 'triclinic'
loop_
_space_group_symop_operation_xyz
x,y,z
-x,-y,-z
loop_
_atom_site_type_symbol
_atom_site_label
_atom_site_fract_x
_atom_site_fract_y
_atom_site_fract_z
Si Si1 0.557907 0.834173 0.255687
Si Si2 0.691900 0.675097 0.988956
Si Si3 0.991029 0.872070 0.205585
Si Si4 0.283753 0.777072 0.016756
Si Si5 0.192521 0.304052 0.596916
Si Si6 0.959679 0.197485 0.440458
Si Si7 0.678313 0.131288 0.186346
Si Si8 0.441743 0.665820 0.816040
O O1 0.363408 0.792204 0.506525
O O2 0.770140 0.024653 0.310498
O O3 0.599509 0.728630 0.095952
O O4 0.477513 0.775216 0.091654
O O5 0.848463 0.678625 0.700944
O O6 0.500000 0.500000 0.000000
O O7 0.834192 0.807516 0.161391
O O8 0.916034 0.730421 0.171950
O O9 0.207290 0.923888 0.980917
O O10 0.000000 0.000000 0.500000
O O11 0.105999 0.711679 0.248070
O O12 0.451345 0.971029 0.151672
O O13 0.212128 0.746268 0.884305
O O14 0.369225 0.693783 0.808610
O O15 0.279414 0.476480 0.732348
O O16 0.348178 0.283065 0.402561
O O17 0.044911 0.169350 0.425959
#
# Coordination Sequence:
#
# PCOD8024716 Si02
#       8
#     2   2   2   2   2   2   2   2
#     4  11  25  45  72 102 141 182 231 295 341 413
#     4  12  28  46  68 106 144 184 226 293 359 409
#     4  12  26  44  76 102 134 188 237 287 344 416
#     4  10  23  43  71 100 141 184 225 291 350 408
#     4  11  24  45  66 101 139 181 243 281 340 427
#     4  11  24  46  71  98 138 179 240 283 341 418
#     4  10  24  44  68 108 141 171 241 294 339 410
#     4  11  25  42  71  98 141 187 227 290 352 406
#
# _framework density 23.977895
#
# number of rings (size 3 to 8) (size 9 to 14) (size 15 to 20)
#    0.000    1.000    2.500    2.625   12.250    1.500 
#    2.250    1.250    0.000    0.000    0.000    0.000 
#    0.000    0.000    0.000    0.000    0.000    0.000 
#
# Total GULP energy -198252.995455 kJ/mol
# GULP energy per Si atom -12390.812216 kJ/mol
# Density = 2.392332 g / cm^3
# Si number density = 23.977895 Si / 1000 Ang^3
#
#
#
# Elastic Constant Matrix: (Units=GPa)
#
#
# Indices 1 2 3 4 5 6 
#
# 1 118.3755 -11.0381 58.9531 -6.5167 -20.7599 1.5037
# 2 -11.0381 107.1182 -17.1285 -5.7206 -6.4515 -3.5192
# 3 58.9531 -17.1285 175.8301 -25.4011 -12.4234 8.4822
# 4 -6.5167 -5.7206 -25.4011 27.9742 -5.0561 0.2163
# 5 -20.7599 -6.4515 -12.4234 -5.0561 43.0425 -0.0168
# 6 1.5037 -3.5192 8.4822 0.2163 -0.0168 33.8721
#
#
#
# Elastic Compliance Matrix: (Units=1/GPa)
#
#
# Indices 1 2 3 4 5 6 
#
# 1 0.010956 0.000947 -0.003177 0.000688 0.004590 0.000406
# 2 0.000947 0.010072 0.001426 0.004087 0.002859 0.000623
# 3 -0.003177 0.001426 0.008171 0.007329 0.001900 -0.001803
# 4 0.000688 0.004087 0.007329 0.044918 0.008335 -0.001724
# 5 0.004590 0.002859 0.001900 0.008335 0.027403 -0.000422
# 6 0.000406 0.000623 -0.001803 -0.001724 -0.000422 0.030032
#
#
# Mechanical properties :
#
#
# Convention : Reuss Voigt Hill
#
# Bulk Modulus (GPa) = 36.24241 51.43297 43.83769
# Shear Modulus (GPa) = 35.12326 45.68023 40.40175
#
# Velocity S-wave (km/s) = 3.83145 4.36948 4.10928
# Velocity P-wave (km/s) = 5.89246 6.85224 6.39039
#
# Compressibility (1/GPa) = 0.02759198
#
# Stress axis : x y z
#
# Youngs Moduli (GPa) = 91.27483 99.28520 122.37905
#
# Poissons Ratio (x) = -0.09407 0.38879
# Poissons Ratio (y) = -0.08648 -0.17449
# Poissons Ratio (z) = 0.28997 -0.14156
#
# Static dielectric constant tensor:
#      x y z
#    x 4.418740 0.105360 0.023130 
#    y 0.105360 4.425290 -0.475670 
#    z 0.023130 -0.475670 4.427350 
# 
# 
# High freq. dielectric constant tensor:
#      x y z
#    x 1.963140 -0.000360 -0.004240 
#    y -0.000360 1.941150 -0.024670 
#    z -0.004240 -0.024670 1.951560 
# 
# From -- ./inp_files/318137.got.cif
#   From: 2010.06.25/outbox.cif.g09.slc.cpg/sg2_160_cif.got.tgz:318137.got - 2010.06.27 13:26:56.
