data_PCOD8024283
_publ_section_title
;
Structure prediction by ZEFSAII (Michael W. Deem and Ramdas Pophale) SiO2 
 PCOD8024283
Probable space group: P -1
;
_chemical_formula_sum "Si O2"
_cell_formula_units_Z 14
_cell_length_a 12.954253
_cell_length_b 6.451977
_cell_length_c 13.796707
_cell_angle_alpha 102.165447
_cell_angle_beta 32.634080
_cell_angle_gamma 110.043727
_cell_volume 577.242227
_symmetry_space_group_name_H-M "P -1"
_symmetry_group_IT_number 2
_symmetry_cell_setting 'triclinic'
loop_
_space_group_symop_operation_xyz
x,y,z
-x,-y,-z
loop_
_atom_site_type_symbol
_atom_site_label
_atom_site_fract_x
_atom_site_fract_y
_atom_site_fract_z
Si Si1 0.569315 0.556865 0.060828
Si Si2 0.701243 0.674208 0.582219
Si Si3 0.436094 0.722821 0.639276
Si Si4 0.224523 0.046024 0.934516
Si Si5 0.087158 0.546972 0.292645
Si Si6 0.212553 0.248370 0.763450
Si Si7 0.109821 0.864753 0.466321
O O1 0.751437 0.448513 0.918757
O O2 0.500000 0.500000 0.000000
O O3 0.376145 0.433868 0.264429
O O4 0.657148 0.815540 0.052256
O O5 0.541527 0.586243 0.615237
O O6 0.905600 0.614878 0.394500
O O7 0.723654 0.939297 0.590582
O O8 0.249897 0.509430 0.730692
O O9 0.605646 0.833094 0.434261
O O10 0.355878 0.902280 0.772110
O O11 0.201323 0.213414 0.884899
O O12 0.001774 0.893025 0.128504
O O13 0.023697 0.297045 0.362681
O O14 0.196533 0.716728 0.310011
O O15 0.000000 0.000000 0.500000
#
# Coordination Sequence:
#
# PCOD8024283 Si02
#       7
#     2   2   2   2   2   2   2
#     4  12  26  44  67 103 142 187 227 274 346 410
#     4  11  25  42  65 101 136 180 233 279 344 408
#     4  11  24  45  75 103 133 175 234 292 347 412
#     4  11  25  46  72 103 140 177 231 289 342 415
#     4  10  23  43  64  91 142 180 227 286 331 408
#     4  10  24  49  71 104 132 179 231 290 361 395
#     4   9  19  40  64  89 126 183 232 275 328 396
#
# _framework density 24.253247999999999
#
# number of rings (size 3 to 8) (size 9 to 14) (size 15 to 20)
#    0.000    1.429    1.429    3.429    6.000    1.714 
#   12.857    0.000    0.000    0.000    0.000    0.000 
#    0.000    0.000    0.000    0.000    0.000    0.000 
#
# Total GULP energy -173471.578229 kJ/mol
# GULP energy per Si atom -12390.827016 kJ/mol
# Density = 2.419805 g / cm^3
# Si number density = 24.253248 Si / 1000 Ang^3
#
#
#
# Elastic Constant Matrix: (Units=GPa)
#
#
# Indices 1 2 3 4 5 6 
#
# 1 74.6017 24.5902 18.2754 -10.7017 -0.0698 18.7210
# 2 24.5902 137.2770 48.8609 3.3592 -16.6601 29.9564
# 3 18.2754 48.8609 120.5040 12.0756 -16.7346 22.0805
# 4 -10.7017 3.3592 12.0756 43.5960 2.5008 -3.3468
# 5 -0.0698 -16.6601 -16.7346 2.5008 29.1983 -0.4854
# 6 18.7210 29.9564 22.0805 -3.3468 -0.4854 34.6332
#
#
#
# Elastic Compliance Matrix: (Units=1/GPa)
#
#
# Indices 1 2 3 4 5 6 
#
# 1 0.016413 -0.001379 -0.001465 0.004170 -0.002050 -0.006371
# 2 -0.001379 0.010373 -0.001879 -0.001440 0.004844 -0.007100
# 3 -0.001465 -0.001879 0.011446 -0.004114 0.005750 -0.005197
# 4 0.004170 -0.001440 -0.004114 0.025827 -0.005315 0.004036
# 5 -0.002050 0.004844 0.005750 -0.005315 0.040647 -0.006691
# 6 -0.006371 -0.007100 -0.005197 0.004036 -0.006691 0.042069
#
#
# Mechanical properties :
#
#
# Convention : Reuss Voigt Hill
#
# Bulk Modulus (GPa) = 34.74015 57.31508 46.02761
# Shear Modulus (GPa) = 30.15407 37.52924 33.84166
#
# Velocity S-wave (km/s) = 3.52987 3.93796 3.73948
# Velocity P-wave (km/s) = 5.56492 6.66032 6.13711
#
# Compressibility (1/GPa) = 0.02878514
#
# Stress axis : x y z
#
# Youngs Moduli (GPa) = 60.92724 96.40670 87.37010
#
# Poissons Ratio (x) = 0.13296 0.12801
# Poissons Ratio (y) = 0.08403 0.16414
# Poissons Ratio (z) = 0.08927 0.18112
#
# Static dielectric constant tensor:
#      x y z
#    x 4.364980 0.544860 -0.178700 
#    y 0.544860 4.839210 -0.084110 
#    z -0.178700 -0.084110 4.524570 
# 
# 
# High freq. dielectric constant tensor:
#      x y z
#    x 1.953810 0.017860 -0.007370 
#    y 0.017860 1.967640 0.001320 
#    z -0.007370 0.001320 1.966590 
# 
# From -- ./inp_files/525835.got.cif
#   From: 2010.06.25/outbox.cif.g09.slc.cpg/sg2_263_cif.got.tgz:525835.got - 2010.06.27 13:26:56.
