data_PCOD8024468
_publ_section_title
;
Structure prediction by ZEFSAII (Michael W. Deem and Ramdas Pophale) SiO2 
 PCOD8024468
Probable space group: P -1
;
_chemical_formula_sum "Si O2"
_cell_formula_units_Z 16
_cell_length_a 12.975457
_cell_length_b 13.045546
_cell_length_c 14.982708
_cell_angle_alpha 47.113275
_cell_angle_beta 79.611736
_cell_angle_gamma 120.600876
_cell_volume 879.505371
_symmetry_space_group_name_H-M "P -1"
_symmetry_group_IT_number 2
_symmetry_cell_setting 'triclinic'
loop_
_space_group_symop_operation_xyz
x,y,z
-x,-y,-z
loop_
_atom_site_type_symbol
_atom_site_label
_atom_site_fract_x
_atom_site_fract_y
_atom_site_fract_z
Si Si1 0.308719 0.947278 0.499797
Si Si2 0.649033 0.309737 0.372190
Si Si3 0.757228 0.681928 0.263506
Si Si4 0.078957 0.264902 0.085304
Si Si5 0.284568 0.366311 0.315465
Si Si6 0.660252 0.625331 0.506576
Si Si7 0.055428 0.281937 0.270162
Si Si8 0.431157 0.483291 0.927827
O O1 0.405422 0.038669 0.530736
O O2 0.457136 0.233795 0.257689
O O3 0.310781 0.801603 0.533733
O O4 0.063534 0.718581 0.675808
O O5 0.674861 0.445250 0.369482
O O6 0.824821 0.543990 0.128064
O O7 0.742439 0.637289 0.398965
O O8 0.590244 0.615498 0.313190
O O9 0.000000 0.000000 0.000000
O O10 0.142356 0.420230 0.075331
O O11 0.176475 0.219774 0.109125
O O12 0.819136 0.946501 0.301647
O O13 0.312586 0.441282 0.370514
O O14 0.506022 0.549738 0.140714
O O15 0.239588 0.452370 0.212120
O O16 0.100465 0.034219 0.528212
O O17 0.500000 0.500000 0.000000
#
# Coordination Sequence:
#
# PCOD8024468 Si02
#       8
#     2   2   2   2   2   2   2   2
#     4   9  20  32  50  77 112 144 171 220 278 329
#     4  10  19  35  51  74 112 144 179 219 271 331
#     4  11  21  37  56  77 107 144 188 232 265 317
#     4  10  17  29  51  79 108 138 176 219 272 326
#     4   9  17  29  47  74 110 134 168 226 268 319
#     4  10  21  33  54  82 104 141 185 228 276 309
#     4   9  16  28  45  74 105 133 170 213 271 321
#     4  10  17  29  51  81 113 142 175 216 272 330
#
# _framework density 18.192041
#
# number of rings (size 3 to 8) (size 9 to 14) (size 15 to 20)
#    0.000    2.250    2.500    3.000    1.750    0.500 
#    0.000    1.250    0.000    0.750    0.000    1.750 
#    0.000    0.000    0.000    0.000    0.000    0.000 
#
# Total GULP energy -198209.582612 kJ/mol
# GULP energy per Si atom -12388.098913 kJ/mol
# Density = 1.815064 g / cm^3
# Si number density = 18.192041 Si / 1000 Ang^3
#
#
#
# Elastic Constant Matrix: (Units=GPa)
#
#
# Indices 1 2 3 4 5 6 
#
# 1 96.0233 34.6832 29.9624 4.0135 -3.6912 -6.0794
# 2 34.6832 105.7424 25.4271 23.4553 6.9027 -3.3577
# 3 29.9624 25.4271 53.9176 15.6907 -15.2660 0.3159
# 4 4.0135 23.4553 15.6907 28.3651 5.2107 0.5457
# 5 -3.6912 6.9027 -15.2660 5.2107 30.0686 2.4189
# 6 -6.0794 -3.3577 0.3159 0.5457 2.4189 25.8490
#
#
#
# Elastic Compliance Matrix: (Units=1/GPa)
#
#
# Indices 1 2 3 4 5 6 
#
# 1 0.014404 -0.003655 -0.009230 0.006669 -0.003493 0.003212
# 2 -0.003655 0.013514 -0.002976 -0.008354 -0.003732 0.001458
# 3 -0.009230 -0.002976 0.037711 -0.021181 0.022745 -0.004700
# 4 0.006669 -0.008354 -0.021181 0.056192 -0.017854 0.001227
# 5 -0.003493 -0.003732 0.022745 -0.017854 0.048791 -0.005773
# 6 0.003212 0.001458 -0.004700 0.001227 -0.005773 0.040203
#
#
# Mechanical properties :
#
#
# Convention : Reuss Voigt Hill
#
# Bulk Modulus (GPa) = 29.49132 48.42541 38.95837
# Shear Modulus (GPa) = 19.69740 27.89725 23.79732
#
# Velocity S-wave (km/s) = 3.29408 3.92022 3.62071
# Velocity P-wave (km/s) = 5.54205 6.86787 6.24027
#
# Compressibility (1/GPa) = 0.03390828
#
# Stress axis : x y z
#
# Youngs Moduli (GPa) = 69.42277 73.99576 26.51734
#
# Poissons Ratio (x) = 0.27042 0.24475
# Poissons Ratio (y) = 0.25371 0.07893
# Poissons Ratio (z) = 0.64077 0.22024
#
# Static dielectric constant tensor:
#      x y z
#    x 3.768910 0.150910 -0.404870 
#    y 0.150910 3.296830 0.306980 
#    z -0.404870 0.306980 3.495330 
# 
# 
# High freq. dielectric constant tensor:
#      x y z
#    x 1.698950 0.016680 -0.025280 
#    y 0.016680 1.674890 0.031820 
#    z -0.025280 0.031820 1.693620 
# 
# From -- ./inp_files/425408.got.cif
#   From: 2010.06.25/outbox.cif.g09.slc.cpg/sg2_213_cif.got.tgz:425408.got - 2010.06.27 13:26:56.
