data_PCOD8024947
_publ_section_title
;
Structure prediction by ZEFSAII (Michael W. Deem and Ramdas Pophale) SiO2 
 PCOD8024947
Probable space group: P -1
;
_chemical_formula_sum "Si O2"
_cell_formula_units_Z 16
_cell_length_a 19.181778
_cell_length_b 5.330305
_cell_length_c 9.157101
_cell_angle_alpha 85.442901
_cell_angle_beta 47.725844
_cell_angle_gamma 87.535061
_cell_volume 690.515819
_symmetry_space_group_name_H-M "P -1"
_symmetry_group_IT_number 2
_symmetry_cell_setting 'triclinic'
loop_
_space_group_symop_operation_xyz
x,y,z
-x,-y,-z
loop_
_atom_site_type_symbol
_atom_site_label
_atom_site_fract_x
_atom_site_fract_y
_atom_site_fract_z
Si Si1 0.067899 0.757868 0.283336
Si Si2 0.788848 0.956612 0.129927
Si Si3 0.366737 0.398025 0.288580
Si Si4 0.261530 0.884846 0.508003
Si Si5 0.909472 0.097107 0.452245
Si Si6 0.410431 0.026388 0.729146
Si Si7 0.946907 0.620235 0.935693
Si Si8 0.427158 0.507959 0.887970
O O1 0.100045 0.703773 0.408295
O O2 0.066070 0.524913 0.190506
O O3 0.959021 0.845845 0.453520
O O4 0.146765 0.950074 0.098977
O O5 0.787977 0.142387 0.262231
O O6 0.682509 0.896696 0.232764
O O7 0.842759 0.708952 0.125408
O O8 0.334594 0.119021 0.395620
O O9 0.471348 0.419241 0.199068
O O10 0.306889 0.615267 0.436167
O O11 0.360306 0.435411 0.121471
O O12 0.192254 0.950010 0.470470
O O13 0.979767 0.160157 0.217597
O O14 0.388453 0.757498 0.850332
O O15 0.500000 0.000000 0.500000
O O16 0.432495 0.259842 0.793026
O O17 0.000000 0.500000 0.000000
#
# Coordination Sequence:
#
# PCOD8024947 Si02
#       8
#     2   2   2   2   2   2   2   2
#     4  10  23  44  66  95 141 179 237 285 357 414
#     4  11  27  41  67 103 138 184 239 288 352 428
#     4  11  26  45  73 102 142 181 240 294 350 425
#     4  12  26  44  71 105 140 183 236 292 351 420
#     4  10  24  42  66 100 134 185 232 293 348 425
#     4  12  26  45  73 104 147 187 236 290 356 417
#     4  11  23  43  70  99 140 187 231 294 355 420
#     4  11  25  48  71 102 140 190 234 294 358 413
#
# _framework density 23.171084
#
# number of rings (size 3 to 8) (size 9 to 14) (size 15 to 20)
#    0.000    1.000    0.000    5.250   10.500    4.000 
#    0.000    0.000    0.000    0.000    0.000    0.000 
#    0.000    0.000    0.000    0.000    0.000    0.000 
#
# Total GULP energy -198263.609636 kJ/mol
# GULP energy per Si atom -12391.475602 kJ/mol
# Density = 2.311835 g / cm^3
# Si number density = 23.171084 Si / 1000 Ang^3
#
#
#
# Elastic Constant Matrix: (Units=GPa)
#
#
# Indices 1 2 3 4 5 6 
#
# 1 117.2545 21.3196 41.9519 10.7108 -0.4671 -6.8044
# 2 21.3196 94.8039 24.9933 18.0241 3.1378 7.0587
# 3 41.9519 24.9933 105.4618 21.3097 11.0259 -9.5870
# 4 10.7108 18.0241 21.3097 39.6963 2.0359 4.7316
# 5 -0.4671 3.1378 11.0259 2.0359 42.1648 6.8853
# 6 -6.8044 7.0587 -9.5870 4.7316 6.8853 29.9627
#
#
#
# Elastic Compliance Matrix: (Units=1/GPa)
#
#
# Indices 1 2 3 4 5 6 
#
# 1 0.010196 -0.001394 -0.003631 -0.000376 0.000969 0.001319
# 2 -0.001394 0.012331 -0.001929 -0.003808 0.000295 -0.003305
# 3 -0.003631 -0.001929 0.013534 -0.005895 -0.004104 0.005834
# 4 -0.000376 -0.003808 -0.005895 0.030863 0.001352 -0.006259
# 5 0.000969 0.000295 -0.004104 0.001352 0.025910 -0.007330
# 6 0.001319 -0.003305 0.005834 -0.006259 -0.007330 0.038993
#
#
# Mechanical properties :
#
#
# Convention : Reuss Voigt Hill
#
# Bulk Modulus (GPa) = 45.14445 54.89441 50.01943
# Shear Modulus (GPa) = 32.65433 37.64845 35.15139
#
# Velocity S-wave (km/s) = 3.75810 4.03526 3.89914
# Velocity P-wave (km/s) = 6.19326 6.74191 6.47340
#
# Compressibility (1/GPa) = 0.02215112
#
# Stress axis : x y z
#
# Youngs Moduli (GPa) = 98.07987 81.09886 73.88699
#
# Poissons Ratio (x) = 0.11309 0.26827
# Poissons Ratio (y) = 0.13677 0.14256
# Poissons Ratio (z) = 0.35611 0.15647
#
# Static dielectric constant tensor:
#      x y z
#    x 4.530960 -0.276910 0.187900 
#    y -0.276910 4.306710 -0.007520 
#    z 0.187900 -0.007520 4.594970 
# 
# 
# High freq. dielectric constant tensor:
#      x y z
#    x 1.928010 0.000470 0.007210 
#    y 0.000470 1.910350 0.007330 
#    z 0.007210 0.007330 1.933370 
# 
# From -- ./inp_files/39326.got.cif
#   From: 2010.06.25/outbox.cif.g09.slc.cpg/sg2_20_cif.got.tgz:39326.got - 2010.06.27 13:26:56.
