data_PCOD8024568
_publ_section_title
;
Structure prediction by ZEFSAII (Michael W. Deem and Ramdas Pophale) SiO2 
 PCOD8024568
Probable space group: P -1
;
_chemical_formula_sum "Si O2"
_cell_formula_units_Z 16
_cell_length_a 16.597775
_cell_length_b 5.291595
_cell_length_c 8.770623
_cell_angle_alpha 88.531211
_cell_angle_beta 109.905770
_cell_angle_gamma 103.421245
_cell_volume 703.307149
_symmetry_space_group_name_H-M "P -1"
_symmetry_group_IT_number 2
_symmetry_cell_setting 'triclinic'
loop_
_space_group_symop_operation_xyz
x,y,z
-x,-y,-z
loop_
_atom_site_type_symbol
_atom_site_label
_atom_site_fract_x
_atom_site_fract_y
_atom_site_fract_z
Si Si1 0.539356 0.109392 0.269947
Si Si2 0.975573 0.230526 0.075286
Si Si3 0.382556 0.329452 0.539768
Si Si4 0.376407 0.294831 0.182302
Si Si5 0.218597 0.952388 0.938353
Si Si6 0.230788 0.261224 0.652418
Si Si7 0.354763 0.668940 0.934143
Si Si8 0.958582 0.718306 0.546011
O O1 0.573841 0.388444 0.369283
O O2 0.433284 0.079135 0.186895
O O3 0.581871 0.103670 0.128536
O O4 0.557445 0.873774 0.384722
O O5 0.027956 0.269164 0.265742
O O6 0.871405 0.164667 0.032635
O O7 0.000000 0.500000 0.000000
O O8 0.000000 0.000000 0.000000
O O9 0.379477 0.373877 0.357676
O O10 0.282697 0.198645 0.536536
O O11 0.274221 0.196951 0.066036
O O12 0.413807 0.546150 0.093039
O O13 0.278337 0.747591 0.980029
O O14 0.198433 0.016895 0.748935
O O15 0.306297 0.467421 0.780983
O O16 0.146183 0.366547 0.549658
O O17 0.000000 0.500000 0.500000
O O18 0.000000 0.000000 0.500000
#
# Coordination Sequence:
#
# PCOD8024568 Si02
#       8
#     2   2   2   2   2   2   2   2
#     4  11  24  46  67 101 140 187 234 279 341 412
#     4  12  29  49  71 108 146 181 229 301 361 419
#     4  11  25  43  68 100 140 183 232 288 338 407
#     4  11  26  40  70 102 140 184 228 290 346 410
#     4  11  24  45  71  96 145 179 230 284 354 414
#     4  10  23  44  69  99 135 182 236 279 339 417
#     4  10  23  43  69 100 138 187 229 285 337 418
#     4  12  25  45  78 103 135 187 237 285 352 430
#
# _framework density 22.749659000000001
#
# number of rings (size 3 to 8) (size 9 to 14) (size 15 to 20)
#    0.000    1.000    2.500    2.625    8.750    0.500 
#    2.250    0.000    0.000    0.000    0.000    0.000 
#    0.000    0.000    0.000    0.000    0.000    0.000 
#
# Total GULP energy -198389.491254 kJ/mol
# GULP energy per Si atom -12399.343203 kJ/mol
# Density = 2.269788 g / cm^3
# Si number density = 22.749659 Si / 1000 Ang^3
#
#
#
# Elastic Constant Matrix: (Units=GPa)
#
#
# Indices 1 2 3 4 5 6 
#
# 1 145.0234 22.7171 57.5528 1.0348 3.2719 -7.9446
# 2 22.7171 97.3254 46.4600 -16.4005 -7.0982 -17.6879
# 3 57.5528 46.4600 166.6212 -20.3500 -2.3485 -3.7779
# 4 1.0348 -16.4005 -20.3500 24.1762 -4.2737 -5.7091
# 5 3.2719 -7.0982 -2.3485 -4.2737 38.8044 -6.2217
# 6 -7.9446 -17.6879 -3.7779 -5.7091 -6.2217 41.9664
#
#
#
# Elastic Compliance Matrix: (Units=1/GPa)
#
#
# Indices 1 2 3 4 5 6 
#
# 1 0.008375 -0.001313 -0.003052 -0.004108 -0.001589 -0.000037
# 2 -0.001313 0.015550 -0.002176 0.011755 0.005484 0.008522
# 3 -0.003052 -0.002176 0.008413 0.005979 0.001064 0.000234
# 4 -0.004108 0.011755 0.005979 0.060094 0.011825 0.014643
# 5 -0.001589 0.005484 0.001064 0.011825 0.029573 0.008099
# 6 -0.000037 0.008522 0.000234 0.014643 0.008099 0.030627
#
#
# Mechanical properties :
#
#
# Convention : Reuss Voigt Hill
#
# Bulk Modulus (GPa) = 51.93082 73.60329 62.76705
# Shear Modulus (GPa) = 29.04738 39.80541 34.42640
#
# Velocity S-wave (km/s) = 3.57715 4.18750 3.89430
# Velocity P-wave (km/s) = 6.31965 7.47021 6.91888
#
# Compressibility (1/GPa) = 0.01925639
#
# Stress axis : x y z
#
# Youngs Moduli (GPa) = 119.39812 64.31041 118.86213
#
# Poissons Ratio (x) = 0.08444 0.36274
# Poissons Ratio (y) = 0.15676 0.25866
# Poissons Ratio (z) = 0.36437 0.13995
#
# Static dielectric constant tensor:
#      x y z
#    x 4.586400 -0.002650 0.269070 
#    y -0.002650 4.099900 -0.051330 
#    z 0.269070 -0.051330 4.691610 
# 
# 
# High freq. dielectric constant tensor:
#      x y z
#    x 1.908240 -0.000700 0.000590 
#    y -0.000700 1.899280 -0.002530 
#    z 0.000590 -0.002530 1.909750 
# 
# From -- ./inp_files/37624.got.cif
#   From: 2010.06.25/outbox.cif.g09.slc.cpg/sg2_19_cif.got.tgz:37624.got - 2010.06.27 13:26:56.
