data_PCOD8024518
_publ_section_title
;
Structure prediction by ZEFSAII (Michael W. Deem and Ramdas Pophale) SiO2 
 PCOD8024518
Probable space group: P -1
;
_chemical_formula_sum "Si O2"
_cell_formula_units_Z 16
_cell_length_a 12.213755
_cell_length_b 9.544411
_cell_length_c 14.922470
_cell_angle_alpha 135.500850
_cell_angle_beta 66.616640
_cell_angle_gamma 138.686228
_cell_volume 767.834312
_symmetry_space_group_name_H-M "P -1"
_symmetry_group_IT_number 2
_symmetry_cell_setting 'triclinic'
loop_
_space_group_symop_operation_xyz
x,y,z
-x,-y,-z
loop_
_atom_site_type_symbol
_atom_site_label
_atom_site_fract_x
_atom_site_fract_y
_atom_site_fract_z
Si Si1 0.839250 0.798749 0.594028
Si Si2 0.092911 0.623076 0.931442
Si Si3 0.466483 0.143177 0.642547
Si Si4 0.398194 0.751870 0.847532
Si Si5 0.903086 0.225330 0.468088
Si Si6 0.845661 0.192381 0.672753
Si Si7 0.657901 0.747058 0.798485
Si Si8 0.461725 0.859410 0.674200
O O1 0.770376 0.852075 0.721111
O O2 0.693506 0.470505 0.457489
O O3 0.004818 0.877165 0.610598
O O4 0.893127 0.018434 0.598276
O O5 0.194227 0.536216 0.838358
O O6 0.948250 0.471095 0.831702
O O7 0.000000 0.500000 0.000000
O O8 0.230191 0.973925 0.044500
O O9 0.622347 0.493124 0.742906
O O10 0.500000 0.000000 0.500000
O O11 0.290048 0.040332 0.627128
O O12 0.459117 0.059981 0.709155
O O13 0.471164 0.615038 0.769455
O O14 0.436508 0.886567 0.797933
O O15 0.500000 0.000000 0.000000
O O16 0.901602 0.312062 0.608563
O O17 0.000000 0.500000 0.500000
O O18 0.640508 0.962656 0.647270
#
# Coordination Sequence:
#
# PCOD8024518 Si02
#       8
#     2   2   2   2   2   2   2   2
#     4  12  23  40  68 105 132 166 227 288 333 393
#     4  11  23  44  66  99 134 172 222 281 330 394
#     4  12  24  43  67  97 140 182 214 272 341 405
#     4  10  23  43  68  94 131 176 222 276 326 394
#     4  12  25  42  65 100 141 177 217 278 344 392
#     4  12  24  40  69  97 136 175 225 279 335 390
#     4  11  23  43  68  97 135 177 226 271 334 400
#     4  12  23  43  69  98 138 174 224 273 340 400
#
# _framework density 20.837827999999998
#
# number of rings (size 3 to 8) (size 9 to 14) (size 15 to 20)
#    0.000    0.500    6.250    2.250    3.500    0.000 
#    0.000    3.125    0.000    0.000    0.000    0.000 
#    0.000    0.000    0.000    0.000    0.000    0.000 
#
# Total GULP energy -198421.037322 kJ/mol
# GULP energy per Si atom -12401.314833 kJ/mol
# Density = 2.079040 g / cm^3
# Si number density = 20.837828 Si / 1000 Ang^3
#
#
#
# Elastic Constant Matrix: (Units=GPa)
#
#
# Indices 1 2 3 4 5 6 
#
# 1 133.7841 47.5797 35.9265 -4.4922 -1.0079 2.0872
# 2 47.5797 109.3625 27.9881 -11.5992 -5.1966 -14.5271
# 3 35.9265 27.9881 59.9073 -0.4389 -3.0894 -12.3168
# 4 -4.4922 -11.5992 -0.4389 48.0391 1.8567 -1.9405
# 5 -1.0079 -5.1966 -3.0894 1.8567 26.6166 -8.2915
# 6 2.0872 -14.5271 -12.3168 -1.9405 -8.2915 45.8194
#
#
#
# Elastic Compliance Matrix: (Units=1/GPa)
#
#
# Indices 1 2 3 4 5 6 
#
# 1 0.010212 -0.003656 -0.005215 -0.000036 -0.001985 -0.003387
# 2 -0.003656 0.012359 -0.002570 0.002665 0.003055 0.004060
# 3 -0.005215 -0.002570 0.022475 -0.000805 0.003876 0.006132
# 4 -0.000036 0.002665 -0.000805 0.021531 -0.000632 0.001428
# 5 -0.001985 0.003055 0.003876 -0.000632 0.041576 0.009598
# 6 -0.003387 0.004060 0.006132 0.001428 0.009598 0.026712
#
#
# Mechanical properties :
#
#
# Convention : Reuss Voigt Hill
#
# Bulk Modulus (GPa) = 45.11704 58.44916 51.78310
# Shear Modulus (GPa) = 30.27810 36.86568 33.57189
#
# Velocity S-wave (km/s) = 3.81601 4.21071 4.01821
# Velocity P-wave (km/s) = 6.41205 7.19379 6.81414
#
# Compressibility (1/GPa) = 0.02216458
#
# Stress axis : x y z
#
# Youngs Moduli (GPa) = 97.92151 80.91016 44.49367
#
# Poissons Ratio (x) = 0.29584 0.23204
# Poissons Ratio (y) = 0.35804 0.11433
# Poissons Ratio (z) = 0.51067 0.20791
#
# Static dielectric constant tensor:
#      x y z
#    x 4.775290 0.926240 -0.024670 
#    y 0.926240 4.880380 -0.266220 
#    z -0.024670 -0.266220 3.776950 
# 
# 
# High freq. dielectric constant tensor:
#      x y z
#    x 1.823520 0.013930 0.007380 
#    y 0.013930 1.825560 -0.004790 
#    z 0.007380 -0.004790 1.806910 
# 
# From -- ./inp_files/187649.got.cif
#   From: 2010.06.25/outbox.cif.g09.slc.cpg/sg2_94_cif.got.tgz:187649.got - 2010.06.27 13:26:56.
