data_PCOD8024379
_publ_section_title
;
Structure prediction by ZEFSAII (Michael W. Deem and Ramdas Pophale) SiO2 
 PCOD8024379
Probable space group: P -1
;
_chemical_formula_sum "Si O2"
_cell_formula_units_Z 16
_cell_length_a 14.372508
_cell_length_b 11.048857
_cell_length_c 5.943228
_cell_angle_alpha 58.816676
_cell_angle_beta 118.703971
_cell_angle_gamma 117.324773
_cell_volume 679.803515
_symmetry_space_group_name_H-M "P -1"
_symmetry_group_IT_number 2
_symmetry_cell_setting 'triclinic'
loop_
_space_group_symop_operation_xyz
x,y,z
-x,-y,-z
loop_
_atom_site_type_symbol
_atom_site_label
_atom_site_fract_x
_atom_site_fract_y
_atom_site_fract_z
Si Si1 0.384424 0.491986 0.486788
Si Si2 0.306477 0.213719 0.955958
Si Si3 0.609838 0.187398 0.651949
Si Si4 0.087200 0.492750 0.426111
Si Si5 0.200665 0.366425 0.022938
Si Si6 0.223051 0.958337 0.790967
Si Si7 0.382523 0.005250 0.537441
Si Si8 0.015059 0.719191 0.861331
O O1 0.500000 0.500000 0.500000
O O2 0.372283 0.370963 0.782921
O O3 0.382776 0.643028 0.459844
O O4 0.284911 0.449869 0.231733
O O5 0.233889 0.115831 0.768120
O O6 0.236966 0.235642 0.071966
O O7 0.387429 0.121895 0.227333
O O8 0.495474 0.082869 0.729736
O O9 0.613750 0.149086 0.425620
O O10 0.712188 0.147244 0.921534
O O11 0.000000 0.500000 0.500000
O O12 0.045328 0.344032 0.378101
O O13 0.195047 0.484772 0.702254
O O14 0.100291 0.629075 0.138482
O O15 0.079525 0.285905 0.059740
O O16 0.270335 0.983267 0.568931
O O17 0.092016 0.880219 0.730811
#
# Coordination Sequence:
#
# PCOD8024379 Si02
#       8
#     2   2   2   2   2   2   2   2
#     4  12  27  47  71 106 138 181 233 287 343 414
#     4  11  25  45  67  99 143 182 230 283 345 416
#     4  10  24  42  72 101 133 180 235 285 352 401
#     4   9  21  40  65  96 139 177 223 290 339 400
#     4  11  24  43  69  97 146 182 224 292 348 404
#     4  11  24  43  71 100 137 182 234 284 344 413
#     4  10  23  47  68 100 141 181 229 290 342 414
#     4  10  23  43  66 104 138 180 235 287 339 409
#
# _framework density 23.536210000000001
#
# number of rings (size 3 to 8) (size 9 to 14) (size 15 to 20)
#    0.000    1.500    0.000    3.375    7.000    9.500 
#    0.000    4.375    0.000    0.000    0.000    0.000 
#    0.000    0.000    0.000    0.000    0.000    0.000 
#
# Total GULP energy -198269.778086 kJ/mol
# GULP energy per Si atom -12391.861130 kJ/mol
# Density = 2.348264 g / cm^3
# Si number density = 23.536210 Si / 1000 Ang^3
#
#
#
# Elastic Constant Matrix: (Units=GPa)
#
#
# Indices 1 2 3 4 5 6 
#
# 1 135.6080 77.9949 38.0309 0.1073 -14.4640 -2.5126
# 2 77.9949 165.4702 63.5616 -10.0760 -15.8869 -21.8442
# 3 38.0309 63.5616 -12.0196 33.1964 -9.1715 28.2295
# 4 0.1073 -10.0760 33.1964 17.6773 -2.4576 -7.2724
# 5 -14.4640 -15.8869 -9.1715 -2.4576 33.2205 4.5602
# 6 -2.5126 -21.8442 28.2295 -7.2724 4.5602 44.6920
#
#
#
# Elastic Compliance Matrix: (Units=1/GPa)
#
#
# Indices 1 2 3 4 5 6 
#
# 1 0.010541 -0.004710 -0.000897 -0.001415 0.002204 -0.001598
# 2 -0.004710 0.006465 0.004260 -0.004296 0.001995 -0.000698
# 3 -0.000897 0.004260 -0.004950 0.014882 0.000345 0.007545
# 4 -0.001415 -0.004296 0.014882 0.023403 0.004296 -0.008209
# 5 0.002204 0.001995 0.000345 0.004296 0.032670 -0.001753
# 6 -0.001598 -0.000698 0.007545 -0.008209 -0.001753 0.016022
#
#
# Mechanical properties :
#
#
# Convention : Reuss Voigt Hill
#
# Bulk Modulus (GPa) = 106.81426 72.02593 89.42010
# Shear Modulus (GPa) = 55.57808 26.41604 40.99706
#
# Velocity S-wave (km/s) = 4.86468 3.35379 4.17810
# Velocity P-wave (km/s) = 8.77696 6.75765 7.83265
#
# Compressibility (1/GPa) = 0.00936205
#
# Stress axis : x y z
#
# Youngs Moduli (GPa) = 94.86730 154.68321 -202.00192
#
# Poissons Ratio (x) = 0.72849 -0.18115
# Poissons Ratio (y) = 0.44679 0.86046
# Poissons Ratio (z) = 0.08507 -0.65890
#
# Static dielectric constant tensor:
#      x y z
#    x 4.383500 -0.209910 0.209830 
#    y -0.209910 4.188550 0.014460 
#    z 0.209830 0.014460 4.464260 
# 
# 
# High freq. dielectric constant tensor:
#      x y z
#    x 1.943480 -0.013430 -0.000290 
#    y -0.013430 1.923750 0.003580 
#    z -0.000290 0.003580 1.932040 
# 
# From -- ./inp_files/94505.got.cif
#   From: 2010.06.25/outbox.cif.g09.slc.cpg/sg2_48_cif.got.tgz:94505.got - 2010.06.27 13:26:56.
