data_PCOD8024174
_publ_section_title
;
Structure prediction by ZEFSAII (Michael W. Deem and Ramdas Pophale) SiO2 
 PCOD8024174
Probable space group: P -1
;
_chemical_formula_sum "Si O2"
_cell_formula_units_Z 16
_cell_length_a 16.435079
_cell_length_b 8.713763
_cell_length_c 14.677479
_cell_angle_alpha 36.866890
_cell_angle_beta 41.721511
_cell_angle_gamma 35.549768
_cell_volume 705.217790
_symmetry_space_group_name_H-M "P -1"
_symmetry_group_IT_number 2
_symmetry_cell_setting 'triclinic'
loop_
_space_group_symop_operation_xyz
x,y,z
-x,-y,-z
loop_
_atom_site_type_symbol
_atom_site_label
_atom_site_fract_x
_atom_site_fract_y
_atom_site_fract_z
Si Si1 0.236179 0.299632 0.394382
Si Si2 0.474980 0.319633 0.844303
Si Si3 0.276288 0.866163 0.412646
Si Si4 0.509029 0.331140 0.165785
Si Si5 0.183324 0.510439 0.918442
Si Si6 0.969131 0.810575 0.274937
Si Si7 0.955665 0.607618 0.751154
Si Si8 0.239151 0.360039 0.744286
O O1 0.359925 0.349931 0.303886
O O2 0.179428 0.169579 0.581475
O O3 0.096282 0.625037 0.329877
O O4 0.303837 0.071120 0.360508
O O5 0.605462 0.281195 0.694670
O O6 0.456932 0.506555 0.861026
O O7 0.330484 0.499931 0.818847
O O8 0.500000 0.000000 0.000000
O O9 0.294293 0.589025 0.587762
O O10 0.116269 0.085117 0.395932
O O11 0.638813 0.979960 0.223363
O O12 0.500000 0.500000 0.000000
O O13 0.186473 0.359394 0.891060
O O14 0.052251 0.861391 0.863107
O O15 0.157761 0.328780 0.103980
O O16 0.020910 0.668501 0.199478
O O17 0.110089 0.509255 0.708570
#
# Coordination Sequence:
#
# PCOD8024174 Si02
#       8
#     2   2   2   2   2   2   2   2
#     4  10  23  46  69 106 142 184 230 287 353 405
#     4  12  26  48  72 103 138 185 230 287 363 413
#     4  11  24  46  74 100 146 188 228 292 344 427
#     4  12  29  45  73 104 144 181 237 294 347 426
#     4  12  24  44  72 100 146 187 235 290 350 417
#     4  10  23  42  72 102 141 186 231 290 347 415
#     4  11  25  43  71 103 145 184 242 289 346 412
#     4  12  27  45  70 109 141 187 236 288 352 413
#
# _framework density 22.688026000000001
#
# number of rings (size 3 to 8) (size 9 to 14) (size 15 to 20)
#    0.000    0.750    2.500    4.125    7.000    2.500 
#    0.000    0.000    0.000    0.000    0.000    0.000 
#    0.000    0.000    0.000    0.000    0.000    0.000 
#
# Total GULP energy -198466.651791 kJ/mol
# GULP energy per Si atom -12404.165737 kJ/mol
# Density = 2.263639 g / cm^3
# Si number density = 22.688026 Si / 1000 Ang^3
#
#
#
# Elastic Constant Matrix: (Units=GPa)
#
#
# Indices 1 2 3 4 5 6 
#
# 1 70.8737 30.8412 2.1779 -12.9177 2.5601 -3.0338
# 2 30.8412 126.2878 29.0957 -12.1677 2.5034 7.1190
# 3 2.1779 29.0957 77.7758 -3.3894 7.4211 2.3098
# 4 -12.9177 -12.1677 -3.3894 38.0593 2.6064 -2.4251
# 5 2.5601 2.5034 7.4211 2.6064 33.1571 7.6187
# 6 -3.0338 7.1190 2.3098 -2.4251 7.6187 33.8343
#
#
#
# Elastic Compliance Matrix: (Units=1/GPa)
#
#
# Indices 1 2 3 4 5 6 
#
# 1 0.016991 -0.004133 0.001424 0.004943 -0.002442 0.003200
# 2 -0.004133 0.009988 -0.003573 0.001270 0.000797 -0.002317
# 3 0.001424 -0.003573 0.014489 0.000903 -0.003315 0.000702
# 4 0.004943 0.001270 0.000903 0.028880 -0.003640 0.003004
# 5 -0.002442 0.000797 -0.003315 -0.003640 0.033127 -0.007881
# 6 0.003200 -0.002317 0.000702 0.003004 -0.007881 0.032272
#
#
# Mechanical properties :
#
#
# Convention : Reuss Voigt Hill
#
# Bulk Modulus (GPa) = 34.59755 44.35189 39.47472
# Shear Modulus (GPa) = 31.65663 35.19830 33.42746
#
# Velocity S-wave (km/s) = 3.73943 3.94306 3.84259
# Velocity P-wave (km/s) = 5.82467 6.34991 6.09295
#
# Compressibility (1/GPa) = 0.02890378
#
# Stress axis : x y z
#
# Youngs Moduli (GPa) = 58.85610 100.11964 69.01794
#
# Poissons Ratio (x) = 0.41380 -0.09827
# Poissons Ratio (y) = 0.24326 0.24658
# Poissons Ratio (z) = -0.08380 0.35770
#
# Static dielectric constant tensor:
#      x y z
#    x 4.479770 -0.154830 0.628770 
#    y -0.154830 4.232130 -0.040900 
#    z 0.628770 -0.040900 4.678370 
# 
# 
# High freq. dielectric constant tensor:
#      x y z
#    x 1.894840 -0.002460 0.010520 
#    y -0.002460 1.909920 -0.000370 
#    z 0.010520 -0.000370 1.895340 
# 
# From -- ./inp_files/206318.got.cif
#   From: 2010.06.25/outbox.cif.g09.slc.cpg/sg2_104_cif.got.tgz:206318.got - 2010.06.27 13:26:56.
