data_PCOD8024671
_publ_section_title
;
Structure prediction by ZEFSAII (Michael W. Deem and Ramdas Pophale) SiO2 
 PCOD8024671
Probable space group: P -1
;
_chemical_formula_sum "Si O2"
_cell_formula_units_Z 16
_cell_length_a 11.218915
_cell_length_b 11.653777
_cell_length_c 8.113788
_cell_angle_alpha 125.376056
_cell_angle_beta 113.983477
_cell_angle_gamma 102.208559
_cell_volume 632.375591
_symmetry_space_group_name_H-M "P -1"
_symmetry_group_IT_number 2
_symmetry_cell_setting 'triclinic'
loop_
_space_group_symop_operation_xyz
x,y,z
-x,-y,-z
loop_
_atom_site_type_symbol
_atom_site_label
_atom_site_fract_x
_atom_site_fract_y
_atom_site_fract_z
Si Si1 0.527241 0.862882 0.963467
Si Si2 0.350811 0.628441 0.237110
Si Si3 0.894242 0.706862 0.347082
Si Si4 0.698356 0.760076 0.517640
Si Si5 0.286206 0.480210 0.421041
Si Si6 0.646537 0.058417 0.512489
Si Si7 0.150480 0.002273 0.920695
Si Si8 0.011396 0.825082 0.145172
O O1 0.357776 0.666760 0.700072
O O2 0.663921 0.878997 0.940153
O O3 0.500000 0.000000 0.000000
O O4 0.587676 0.908623 0.221165
O O5 0.534712 0.738891 0.359924
O O6 0.348719 0.516371 0.295545
O O7 0.304673 0.755878 0.380076
O O8 0.220924 0.504616 0.917023
O O9 0.769096 0.746167 0.375048
O O10 0.984497 0.787486 0.293164
O O11 0.041043 0.791654 0.639224
O O12 0.661365 0.617953 0.518871
O O13 0.834410 0.954574 0.839309
O O14 0.089759 0.347813 0.174584
O O15 0.797962 0.081082 0.707663
O O16 0.500000 0.000000 0.500000
O O17 0.047796 0.054818 0.813666
#
# Coordination Sequence:
#
# PCOD8024671 Si02
#       8
#     2   2   2   2   2   2   2   2
#     4  12  24  45  71  99 134 182 222 269 345 397
#     4  11  24  43  67  98 135 182 219 277 339 391
#     4  11  24  39  68 100 136 170 225 278 329 396
#     4  11  23  41  69 104 132 174 227 278 331 394
#     4  10  23  43  70  93 137 177 221 274 326 404
#     4  12  28  46  69  98 137 176 227 283 334 402
#     4  11  23  43  71  98 135 178 224 274 331 403
#     4  10  25  45  68  99 132 183 223 272 342 395
#
# _framework density 25.301418000000002
#
# number of rings (size 3 to 8) (size 9 to 14) (size 15 to 20)
#    0.000    1.000    3.750    1.500    7.000    3.000 
#    4.500    0.625    0.000    0.000    0.000    0.000 
#    0.000    0.000    0.000    0.000    0.000    0.000 
#
# Total GULP energy -198215.092370 kJ/mol
# GULP energy per Si atom -12388.443273 kJ/mol
# Density = 2.524383 g / cm^3
# Si number density = 25.301418 Si / 1000 Ang^3
#
#
#
# Elastic Constant Matrix: (Units=GPa)
#
#
# Indices 1 2 3 4 5 6 
#
# 1 112.1808 17.1235 31.4415 -4.2038 12.2770 -15.4038
# 2 17.1235 60.7390 29.9969 -6.1773 6.3981 -19.1051
# 3 31.4415 29.9969 232.1248 31.8723 8.4003 -5.9464
# 4 -4.2038 -6.1773 31.8723 25.3789 2.2502 1.4890
# 5 12.2770 6.3981 8.4003 2.2502 44.9528 -1.5068
# 6 -15.4038 -19.1051 -5.9464 1.4890 -1.5068 21.7901
#
#
#
# Elastic Compliance Matrix: (Units=1/GPa)
#
#
# Indices 1 2 3 4 5 6 
#
# 1 0.010765 0.000931 -0.001860 0.004146 -0.002683 0.007450
# 2 0.000931 0.026768 -0.004458 0.011253 -0.003059 0.021931
# 3 -0.001860 -0.004458 0.006312 -0.009182 0.000327 -0.002851
# 4 0.004146 0.011253 -0.009182 0.054300 -0.003524 0.006337
# 5 -0.002683 -0.003059 0.000327 -0.003524 0.023441 -0.002628
# 6 0.007450 0.021931 -0.002851 0.006337 -0.002628 0.068995
#
#
# Mechanical properties :
#
#
# Convention : Reuss Voigt Hill
#
# Bulk Modulus (GPa) = 30.23690 62.46317 46.35003
# Shear Modulus (GPa) = 23.54300 40.18988 31.86644
#
# Velocity S-wave (km/s) = 3.05372 3.98985 3.55276
# Velocity P-wave (km/s) = 4.94067 6.77986 5.93198
#
# Compressibility (1/GPa) = 0.03307217
#
# Stress axis : x y z
#
# Youngs Moduli (GPa) = 92.89079 37.35846 158.43163
#
# Poissons Ratio (x) = -0.03479 0.29467
# Poissons Ratio (y) = -0.08651 0.70626
# Poissons Ratio (z) = 0.17277 0.16654
#
# Static dielectric constant tensor:
#      x y z
#    x 4.609780 0.109900 0.033750 
#    y 0.109900 4.600940 0.260960 
#    z 0.033750 0.260960 5.361790 
# 
# 
# High freq. dielectric constant tensor:
#      x y z
#    x 1.997440 0.018900 0.010220 
#    y 0.018900 1.995330 0.003970 
#    z 0.010220 0.003970 2.040710 
# 
# From -- ./inp_files/263612.got.cif
#   From: 2010.06.25/outbox.cif.g09.slc.cpg/sg2_132_cif.got.tgz:263612.got - 2010.06.27 13:26:56.
