data_PCOD8024439
_publ_section_title
;
Structure prediction by ZEFSAII (Michael W. Deem and Ramdas Pophale) SiO2 
 PCOD8024439
Probable space group: P -1
;
_chemical_formula_sum "Si O2"
_cell_formula_units_Z 16
_cell_length_a 13.890148
_cell_length_b 9.306799
_cell_length_c 14.313114
_cell_angle_alpha 114.109197
_cell_angle_beta 32.996162
_cell_angle_gamma 91.817993
_cell_volume 717.685733
_symmetry_space_group_name_H-M "P -1"
_symmetry_group_IT_number 2
_symmetry_cell_setting 'triclinic'
loop_
_space_group_symop_operation_xyz
x,y,z
-x,-y,-z
loop_
_atom_site_type_symbol
_atom_site_label
_atom_site_fract_x
_atom_site_fract_y
_atom_site_fract_z
Si Si1 0.401228 0.727497 0.133580
Si Si2 0.248487 0.357061 0.805389
Si Si3 0.958618 0.428649 0.220341
Si Si4 0.287925 0.163047 0.030909
Si Si5 0.631440 0.863728 0.530240
Si Si6 0.822972 0.085743 0.449628
Si Si7 0.589355 0.442687 0.595687
Si Si8 0.697305 0.150906 0.964301
O O1 0.204475 0.854351 0.403432
O O2 0.301250 0.813733 0.136602
O O3 0.500000 0.500000 0.000000
O O4 0.591919 0.747136 0.009379
O O5 0.412098 0.181032 0.550202
O O6 0.372751 0.456132 0.747262
O O7 0.000000 0.500000 0.000000
O O8 0.189031 0.292333 0.931612
O O9 0.842872 0.662625 0.358271
O O10 0.758763 0.405852 0.362768
O O11 0.048717 0.355260 0.233452
O O12 0.275730 0.053630 0.100696
O O13 0.411171 0.981411 0.805824
O O14 0.678786 0.019521 0.515409
O O15 0.747214 0.270234 0.495875
O O16 0.084661 0.896390 0.174388
O O17 0.512962 0.649070 0.760454
#
# Coordination Sequence:
#
# PCOD8024439 Si02
#       8
#     2   2   2   2   2   2   2   2
#     4  11  24  42  69  98 130 175 222 280 335 397
#     4  10  23  43  69 100 136 178 224 277 337 390
#     4  11  23  44  68  99 134 180 223 275 332 399
#     4  11  24  43  66  94 135 174 222 271 339 397
#     4  10  23  43  67  93 133 177 219 278 338 389
#     4  11  24  43  68  98 130 181 221 275 339 399
#     4  12  24  44  70  99 141 173 230 275 328 403
#     4  12  23  44  64  97 136 174 221 276 333 397
#
# _framework density 22.293880000000001
#
# number of rings (size 3 to 8) (size 9 to 14) (size 15 to 20)
#    0.000    1.000    3.750    3.750    1.750    4.000 
#    2.250    2.500    0.000    0.000    0.000    0.000 
#    0.000    0.000    0.000    0.000    0.000    0.000 
#
# Total GULP energy -198214.261997 kJ/mol
# GULP energy per Si atom -12388.391375 kJ/mol
# Density = 2.224314 g / cm^3
# Si number density = 22.293880 Si / 1000 Ang^3
#
#
#
# Elastic Constant Matrix: (Units=GPa)
#
#
# Indices 1 2 3 4 5 6 
#
# 1 70.5138 31.5815 10.6755 4.6022 -4.6297 3.3035
# 2 31.5815 136.9297 22.8570 -2.8336 1.7974 -7.6532
# 3 10.6755 22.8570 54.4284 -9.6775 -6.3141 11.0983
# 4 4.6022 -2.8336 -9.6775 39.9761 5.0331 -11.1481
# 5 -4.6297 1.7974 -6.3141 5.0331 32.4313 7.1888
# 6 3.3035 -7.6532 11.0983 -11.1481 7.1888 33.7019
#
#
#
# Elastic Compliance Matrix: (Units=1/GPa)
#
#
# Indices 1 2 3 4 5 6 
#
# 1 0.016950 -0.004156 -0.000919 -0.004275 0.004155 -0.004603
# 2 -0.004156 0.009354 -0.004237 0.002035 -0.003435 0.005333
# 3 -0.000919 -0.004237 0.023321 0.002078 0.006366 -0.009222
# 4 -0.004275 0.002035 0.002078 0.030441 -0.007682 0.011905
# 5 0.004155 -0.003435 0.006366 -0.007682 0.037094 -0.013737
# 6 -0.004603 0.005333 -0.009222 0.011905 -0.013737 0.041239
#
#
# Mechanical properties :
#
#
# Convention : Reuss Voigt Hill
#
# Bulk Modulus (GPa) = 32.25720 43.56668 37.91194
# Shear Modulus (GPa) = 26.68707 34.33906 30.51306
#
# Velocity S-wave (km/s) = 3.46361 3.92891 3.70357
# Velocity P-wave (km/s) = 5.52231 6.33768 5.94399
#
# Compressibility (1/GPa) = 0.03100083
#
# Stress axis : x y z
#
# Youngs Moduli (GPa) = 58.99832 106.90485 42.88054
#
# Poissons Ratio (x) = 0.44432 0.03939
# Poissons Ratio (y) = 0.24521 0.18168
# Poissons Ratio (z) = 0.05420 0.45295
#
# Static dielectric constant tensor:
#      x y z
#    x 3.840800 -0.216010 -0.021300 
#    y -0.216010 4.230900 -0.182700 
#    z -0.021300 -0.182700 3.768870 
# 
# 
# High freq. dielectric constant tensor:
#      x y z
#    x 1.861020 -0.015540 -0.010430 
#    y -0.015540 1.897270 -0.005450 
#    z -0.010430 -0.005450 1.882330 
# 
# From -- ./inp_files/343323.got.cif
#   From: 2010.06.25/outbox.cif.g09.slc.cpg/sg2_172_cif.got.tgz:343323.got - 2010.06.27 13:26:56.
