data_PCOD8024359
_publ_section_title
;
Structure prediction by ZEFSAII (Michael W. Deem and Ramdas Pophale) SiO2 
 PCOD8024359
Probable space group: P -1
;
_chemical_formula_sum "Si O2"
_cell_formula_units_Z 14
_cell_length_a 22.635332
_cell_length_b 5.712585
_cell_length_c 16.914981
_cell_angle_alpha 70.456811
_cell_angle_beta 158.166688
_cell_angle_gamma 120.638313
_cell_volume 630.884436
_symmetry_space_group_name_H-M "P -1"
_symmetry_group_IT_number 2
_symmetry_cell_setting 'triclinic'
loop_
_space_group_symop_operation_xyz
x,y,z
-x,-y,-z
loop_
_atom_site_type_symbol
_atom_site_label
_atom_site_fract_x
_atom_site_fract_y
_atom_site_fract_z
Si Si1 0.573472 0.774665 0.121925
Si Si2 0.838397 0.680175 0.801340
Si Si3 0.415952 0.436660 0.276490
Si Si4 0.895013 0.227665 0.010286
Si Si5 0.369442 0.327329 0.053479
Si Si6 0.993300 0.310080 0.585955
Si Si7 0.826136 0.309483 0.085935
O O1 0.802045 0.978575 0.378155
O O2 0.500000 0.500000 0.000000
O O3 0.525003 0.609965 0.163815
O O4 0.500000 0.000000 0.000000
O O5 0.630997 0.630257 0.557787
O O6 0.824216 0.424290 0.865737
O O7 0.903665 0.673833 0.792802
O O8 0.000000 0.000000 0.000000
O O9 0.276557 0.117946 0.183466
O O10 0.449998 0.392079 0.233822
O O11 0.311997 0.607910 0.133434
O O12 0.929126 0.266779 0.143646
O O13 0.168278 0.283057 0.797780
O O14 0.316770 0.994572 0.005121
O O15 0.000000 0.500000 0.500000
O O16 0.007477 0.449995 0.674649
#
# Coordination Sequence:
#
# PCOD8024359 Si02
#       7
#     2   2   2   2   2   2   2
#     4  12  27  44  69 104 137 182 236 293 358 425
#     4  11  24  41  68  99 135 176 229 283 346 418
#     4  10  23  44  64  95 136 177 227 280 350 414
#     4  10  23  43  65  99 132 177 228 279 353 410
#     4  10  24  43  66  97 132 180 227 289 351 414
#     4  11  23  44  71  96 135 177 230 287 351 415
#     4  10  23  43  70  96 136 183 229 288 350 414
#
# _framework density 22.19107
#
# number of rings (size 3 to 8) (size 9 to 14) (size 15 to 20)
#    0.000    1.429    1.429    2.143    4.000   12.571 
#    0.000    1.429    0.000    0.000    0.000    0.000 
#    0.000    0.000    0.000    0.000    0.000    0.000 
#
# Total GULP energy -173492.077724 kJ/mol
# GULP energy per Si atom -12392.291266 kJ/mol
# Density = 2.214056 g / cm^3
# Si number density = 22.191070 Si / 1000 Ang^3
#
#
#
# Elastic Constant Matrix: (Units=GPa)
#
#
# Indices 1 2 3 4 5 6 
#
# 1 79.8255 34.2545 23.1724 7.9238 1.0096 8.8128
# 2 34.2545 164.2595 35.1396 18.8117 -8.1047 15.4512
# 3 23.1724 35.1396 105.8675 20.6916 -7.6396 4.5250
# 4 7.9238 18.8117 20.6916 34.5753 7.7196 5.0617
# 5 1.0096 -8.1047 -7.6396 7.7196 17.1510 6.4559
# 6 8.8128 15.4512 4.5250 5.0617 6.4559 44.0231
#
#
#
# Elastic Compliance Matrix: (Units=1/GPa)
#
#
# Indices 1 2 3 4 5 6 
#
# 1 0.014507 -0.002538 -0.002566 0.000436 -0.002874 -0.001378
# 2 -0.002538 0.007818 -0.000597 -0.004391 0.006544 -0.002629
# 3 -0.002566 -0.000597 0.012658 -0.008703 0.009807 -0.001015
# 4 0.000436 -0.004391 -0.008703 0.041886 -0.025298 0.001242
# 5 -0.002874 0.006544 0.009807 -0.025298 0.081769 -0.011812
# 6 -0.001378 -0.002629 -0.001015 0.001242 -0.011812 0.025608
#
#
# Mechanical properties :
#
#
# Convention : Reuss Voigt Hill
#
# Bulk Modulus (GPa) = 42.40889 59.45395 50.93142
# Shear Modulus (GPa) = 24.56913 36.30895 30.43904
#
# Velocity S-wave (km/s) = 3.33102 4.04938 3.70764
# Velocity P-wave (km/s) = 5.82636 6.97949 6.42883
#
# Compressibility (1/GPa) = 0.02357996
#
# Stress axis : x y z
#
# Youngs Moduli (GPa) = 68.93332 127.91013 79.00410
#
# Poissons Ratio (x) = 0.32467 0.20276
# Poissons Ratio (y) = 0.17497 0.04713
# Poissons Ratio (z) = 0.17691 0.07630
#
# Static dielectric constant tensor:
#      x y z
#    x 4.300730 -0.038800 -0.042140 
#    y -0.038800 4.392680 0.249840 
#    z -0.042140 0.249840 4.173940 
# 
# 
# High freq. dielectric constant tensor:
#      x y z
#    x 1.881210 0.008710 -0.001890 
#    y 0.008710 1.897400 0.003300 
#    z -0.001890 0.003300 1.860260 
# 
# From -- ./inp_files/10420.got.cif
#   From: 2010.06.25/outbox.cif.g09.slc.cpg/sg2_6_cif.got.tgz:10420.got - 2010.06.27 13:26:56.
