data_PCOD8024218
_publ_section_title
;
Structure prediction by ZEFSAII (Michael W. Deem and Ramdas Pophale) SiO2 
 PCOD8024218
Probable space group: P -1
;
_chemical_formula_sum "Si O2"
_cell_formula_units_Z 16
_cell_length_a 9.524188
_cell_length_b 12.089404
_cell_length_c 11.845210
_cell_angle_alpha 115.360113
_cell_angle_beta 135.628420
_cell_angle_gamma 50.600237
_cell_volume 736.199062
_symmetry_space_group_name_H-M "P -1"
_symmetry_group_IT_number 2
_symmetry_cell_setting 'triclinic'
loop_
_space_group_symop_operation_xyz
x,y,z
-x,-y,-z
loop_
_atom_site_type_symbol
_atom_site_label
_atom_site_fract_x
_atom_site_fract_y
_atom_site_fract_z
Si Si1 0.875074 0.339602 0.634681
Si Si2 0.388826 0.854544 0.902066
Si Si3 0.619459 0.401146 0.919671
Si Si4 0.316181 0.048081 0.740520
Si Si5 0.529133 0.613880 0.414054
Si Si6 0.586974 0.886497 0.602462
Si Si7 0.060390 0.871065 0.899725
Si Si8 0.170139 0.438228 0.968608
O O1 0.715741 0.457913 0.502736
O O2 0.722034 0.336163 0.649964
O O3 0.046642 0.177091 0.616899
O O4 0.064409 0.380295 0.793473
O O5 0.146925 0.882544 0.830211
O O6 0.307735 0.938997 0.775474
O O7 0.515672 0.904419 0.085060
O O8 0.565759 0.687093 0.900042
O O9 0.462498 0.419343 0.728426
O O10 0.500000 0.500000 0.000000
O O11 0.717122 0.245142 0.953697
O O12 0.829383 0.425020 0.017518
O O13 0.425607 0.966613 0.651768
O O14 0.583365 0.741251 0.514349
O O15 0.856225 0.835771 0.758342
O O16 0.500000 0.000000 0.500000
O O17 0.000000 0.000000 0.000000
O O18 0.000000 0.500000 0.000000
#
# Coordination Sequence:
#
# PCOD8024218 Si02
#       8
#     2   2   2   2   2   2   2   2
#     4  10  24  45  73 104 142 184 235 298 351 420
#     4  10  23  42  74 107 134 178 251 295 336 415
#     4  12  26  45  73 103 136 185 240 294 349 428
#     4  10  24  44  71 104 137 186 237 292 346 418
#     4  11  26  46  70 106 145 184 235 295 363 421
#     4  12  28  46  69 105 151 188 228 290 368 429
#     4  12  25  45  73 101 143 188 238 292 353 419
#     4  11  22  42  74 104 138 182 243 291 349 415
#
# _framework density 21.733252
#
# number of rings (size 3 to 8) (size 9 to 14) (size 15 to 20)
#    0.000    1.000    3.750    1.500    7.000    1.500 
#    0.000    1.875    0.000    0.000    0.000    0.000 
#    0.000    0.000    0.000    0.000    0.000    0.000 
#
# Total GULP energy -198276.412259 kJ/mol
# GULP energy per Si atom -12392.275766 kJ/mol
# Density = 2.168379 g / cm^3
# Si number density = 21.733252 Si / 1000 Ang^3
#
#
#
# Elastic Constant Matrix: (Units=GPa)
#
#
# Indices 1 2 3 4 5 6 
#
# 1 159.5132 61.9961 55.5186 1.7975 -20.8197 -12.4787
# 2 61.9961 118.5365 53.5593 -8.9565 -21.3556 -12.2279
# 3 55.5186 53.5593 102.8113 -1.9520 -17.5405 -4.8119
# 4 1.7975 -8.9565 -1.9520 37.6871 3.0402 -0.0401
# 5 -20.8197 -21.3556 -17.5405 3.0402 41.4102 1.7999
# 6 -12.4787 -12.2279 -4.8119 -0.0401 1.7999 46.3382
#
#
#
# Elastic Compliance Matrix: (Units=1/GPa)
#
#
# Indices 1 2 3 4 5 6 
#
# 1 0.008748 -0.002954 -0.002863 -0.001404 0.001712 0.001211
# 2 -0.002954 0.012977 -0.004504 0.002751 0.003009 0.002047
# 3 -0.002863 -0.004504 0.013960 -0.000389 0.002206 -0.000596
# 4 -0.001404 0.002751 -0.000389 0.027355 -0.001477 0.000388
# 5 0.001712 0.003009 0.002206 -0.001477 0.027586 0.000411
# 6 0.001211 0.002047 -0.000596 0.000388 0.000411 0.022369
#
#
# Mechanical properties :
#
#
# Convention : Reuss Voigt Hill
#
# Bulk Modulus (GPa) = 66.47540 80.33433 73.40487
# Shear Modulus (GPa) = 36.06187 39.07290 37.56739
#
# Velocity S-wave (km/s) = 4.07786 4.24469 4.16211
# Velocity P-wave (km/s) = 7.26810 7.81456 7.54628
#
# Compressibility (1/GPa) = 0.01504316
#
# Stress axis : x y z
#
# Youngs Moduli (GPa) = 114.31547 77.05648 71.63516
#
# Poissons Ratio (x) = 0.22766 0.20506
# Poissons Ratio (y) = 0.33774 0.32263
# Poissons Ratio (z) = 0.32723 0.34705
#
# Static dielectric constant tensor:
#      x y z
#    x 3.944560 0.141900 -0.058870 
#    y 0.141900 4.087390 -0.003260 
#    z -0.058870 -0.003260 3.740500 
# 
# 
# High freq. dielectric constant tensor:
#      x y z
#    x 1.869900 0.005350 -0.000330 
#    y 0.005350 1.873650 -0.000760 
#    z -0.000330 -0.000760 1.846130 
# 
# From -- ./inp_files/392329.got.cif
#   From: 2010.06.25/outbox.cif.g09.slc.cpg/sg2_197_cif.got.tgz:392329.got - 2010.06.27 13:26:56.
