data_PCOD8024423
_publ_section_title
;
Structure prediction by ZEFSAII (Michael W. Deem and Ramdas Pophale) SiO2 
 PCOD8024423
Probable space group: P -1
;
_chemical_formula_sum "Si O2"
_cell_formula_units_Z 14
_cell_length_a 18.400662
_cell_length_b 9.917272
_cell_length_c 6.735862
_cell_angle_alpha 50.866610
_cell_angle_beta 42.509576
_cell_angle_gamma 53.100854
_cell_volume 622.472559
_symmetry_space_group_name_H-M "P -1"
_symmetry_group_IT_number 2
_symmetry_cell_setting 'triclinic'
loop_
_space_group_symop_operation_xyz
x,y,z
-x,-y,-z
loop_
_atom_site_type_symbol
_atom_site_label
_atom_site_fract_x
_atom_site_fract_y
_atom_site_fract_z
Si Si1 0.096791 0.581703 0.144902
Si Si2 0.241935 0.020660 0.929088
Si Si3 0.596776 0.881758 0.783621
Si Si4 0.715402 0.737366 0.056988
Si Si5 0.589837 0.609249 0.748069
Si Si6 0.997027 0.810693 0.783473
Si Si7 0.188164 0.649078 0.304522
O O1 0.170686 0.642526 0.110520
O O2 0.000000 0.500000 0.500000
O O3 0.175535 0.428602 0.991737
O O4 0.049277 0.763452 0.942228
O O5 0.342804 0.006378 0.586050
O O6 0.269966 0.079912 0.038218
O O7 0.133282 0.180374 0.937160
O O8 0.219278 0.826835 0.157290
O O9 0.539643 0.760038 0.873043
O O10 0.690346 0.767798 0.847359
O O11 0.500000 0.000000 0.000000
O O12 0.609878 0.689834 0.420458
O O13 0.711471 0.512424 0.677361
O O14 0.500000 0.500000 0.000000
O O15 0.068350 0.651928 0.644006
O O16 0.000000 0.000000 0.500000
#
# Coordination Sequence:
#
# PCOD8024423 Si02
#       7
#     2   2   2   2   2   2   2
#     4  12  24  40  74 102 140 181 227 285 342 409
#     4  10  25  42  68  96 138 175 222 272 344 404
#     4  11  26  45  66  99 134 175 230 281 342 406
#     4  11  24  44  66  98 134 176 226 277 344 404
#     4  11  26  44  70  98 132 177 230 280 337 403
#     4  10  23  43  67 101 140 178 223 279 342 408
#     4  11  24  44  68 103 136 176 229 277 342 409
#
# _framework density 22.490953000000001
#
# number of rings (size 3 to 8) (size 9 to 14) (size 15 to 20)
#    0.000    1.143    2.857    1.714    6.000    8.571 
#    0.000    0.000    0.000    0.000    0.000    0.000 
#    0.000    0.000    0.000    0.000    0.000    0.000 
#
# Total GULP energy -173505.752069 kJ/mol
# GULP energy per Si atom -12393.268005 kJ/mol
# Density = 2.243976 g / cm^3
# Si number density = 22.490953 Si / 1000 Ang^3
#
#
#
# Elastic Constant Matrix: (Units=GPa)
#
#
# Indices 1 2 3 4 5 6 
#
# 1 66.0036 7.2105 30.7299 -1.4441 2.8660 10.3243
# 2 7.2105 80.3740 38.6714 20.4254 -12.1180 9.9592
# 3 30.7299 38.6714 90.5018 18.0044 -1.5050 13.1891
# 4 -1.4441 20.4254 18.0044 42.7238 -8.0422 -3.0635
# 5 2.8660 -12.1180 -1.5050 -8.0422 41.7977 -0.0103
# 6 10.3243 9.9592 13.1891 -3.0635 -0.0103 44.3984
#
#
#
# Elastic Compliance Matrix: (Units=1/GPa)
#
#
# Indices 1 2 3 4 5 6 
#
# 1 0.018788 0.001233 -0.007125 0.002757 -0.000658 -0.002339
# 2 0.001233 0.017668 -0.006492 -0.005144 0.003814 -0.002675
# 3 -0.007125 -0.006492 0.017576 -0.005046 -0.001732 -0.002457
# 4 0.002757 -0.005144 -0.005046 0.029076 0.003733 0.004019
# 5 -0.000658 0.003814 -0.001732 0.003733 0.025732 0.000076
# 6 -0.002339 -0.002675 -0.002457 0.004019 0.000076 0.024674
#
#
# Mechanical properties :
#
#
# Convention : Reuss Voigt Hill
#
# Bulk Modulus (GPa) = 34.17111 43.34476 38.75794
# Shear Modulus (GPa) = 29.75561 36.46849 33.11205
#
# Velocity S-wave (km/s) = 3.64126 4.03112 3.84114
# Velocity P-wave (km/s) = 5.73625 6.40160 6.07804
#
# Compressibility (1/GPa) = 0.02926448
#
# Stress axis : x y z
#
# Youngs Moduli (GPa) = 53.22606 56.59859 56.89707
#
# Poissons Ratio (x) = -0.06976 0.40537
# Poissons Ratio (y) = -0.06560 0.36935
# Poissons Ratio (z) = 0.37921 0.36741
#
# Static dielectric constant tensor:
#      x y z
#    x 4.218270 -0.164770 0.035450 
#    y -0.164770 4.134430 0.297280 
#    z 0.035450 0.297280 4.086200 
# 
# 
# High freq. dielectric constant tensor:
#      x y z
#    x 1.890210 -0.007340 0.002220 
#    y -0.007340 1.892440 0.018670 
#    z 0.002220 0.018670 1.889320 
# 
# From -- ./inp_files/46175.got.cif
#   From: 2010.06.25/outbox.cif.g09.slc.cpg/sg2_24_cif.got.tgz:46175.got - 2010.06.27 13:26:56.
