data_PCOD8024770
_publ_section_title
;
Structure prediction by ZEFSAII (Michael W. Deem and Ramdas Pophale) SiO2 
 PCOD8024770
Probable space group: P -1
;
_chemical_formula_sum "Si O2"
_cell_formula_units_Z 14
_cell_length_a 24.907482
_cell_length_b 5.100093
_cell_length_c 16.267634
_cell_angle_alpha 126.626688
_cell_angle_beta 23.081485
_cell_angle_gamma 127.221114
_cell_volume 639.771926
_symmetry_space_group_name_H-M "P -1"
_symmetry_group_IT_number 2
_symmetry_cell_setting 'triclinic'
loop_
_space_group_symop_operation_xyz
x,y,z
-x,-y,-z
loop_
_atom_site_type_symbol
_atom_site_label
_atom_site_fract_x
_atom_site_fract_y
_atom_site_fract_z
Si Si1 0.845363 0.057533 0.637586
Si Si2 0.008660 0.517968 0.628794
Si Si3 0.881202 0.638364 0.003941
Si Si4 0.472601 0.108684 0.969868
Si Si5 0.586842 0.350630 0.417038
Si Si6 0.684618 0.761700 0.510532
Si Si7 0.855122 0.261350 0.252424
O O1 0.900178 0.308231 0.680252
O O2 0.910195 0.167724 0.477299
O O3 0.682352 0.044123 0.866988
O O4 0.878008 0.694171 0.540236
O O5 0.928297 0.627026 0.841002
O O6 0.990926 0.553699 0.902825
O O7 0.742234 0.360328 0.162597
O O8 0.854564 0.015209 0.128813
O O9 0.500000 0.500000 0.000000
O O10 0.500000 0.000000 0.000000
O O11 0.576774 0.952986 0.739084
O O12 0.500000 0.500000 0.500000
O O13 0.598608 0.570735 0.522389
O O14 0.500000 0.000000 0.500000
O O15 0.751080 0.517158 0.430856
O O16 0.809952 0.038338 0.354356
#
# Coordination Sequence:
#
# PCOD8024770 Si02
#       7
#     2   2   2   2   2   2   2
#     4  10  24  45  63 104 130 175 235 277 329 404
#     4  10  23  43  72  94 137 174 225 288 328 389
#     4  10  24  43  73 102 134 183 220 278 344 398
#     4  12  27  44  71  98 134 185 226 274 347 396
#     4  11  25  44  68 102 139 174 222 268 343 419
#     4  11  25  46  67 100 139 175 220 290 325 398
#     4  10  24  43  70 103 135 170 232 273 334 406
#
# _framework density 21.882797
#
# number of rings (size 3 to 8) (size 9 to 14) (size 15 to 20)
#    0.000    1.429    0.000    3.429    8.000    9.714 
#    5.143    0.000    0.000    0.000    0.000    0.000 
#    0.000    0.000    0.000    0.000    0.000    0.000 
#
# Total GULP energy -173585.977941 kJ/mol
# GULP energy per Si atom -12398.998424 kJ/mol
# Density = 2.183299 g / cm^3
# Si number density = 21.882797 Si / 1000 Ang^3
#
#
#
# Elastic Constant Matrix: (Units=GPa)
#
#
# Indices 1 2 3 4 5 6 
#
# 1 117.9944 62.5526 66.2130 2.3851 -2.0401 -13.6741
# 2 62.5526 100.6300 65.6742 -5.3404 -9.2619 -17.4414
# 3 66.2130 65.6742 158.0038 8.8491 3.9325 13.6489
# 4 2.3851 -5.3404 8.8491 35.3358 4.9994 -5.0685
# 5 -2.0401 -9.2619 3.9325 4.9994 53.9248 3.9904
# 6 -13.6741 -17.4414 13.6489 -5.0685 3.9904 31.7475
#
#
#
# Elastic Compliance Matrix: (Units=1/GPa)
#
#
# Indices 1 2 3 4 5 6 
#
# 1 0.014191 -0.005212 -0.004219 0.000110 -0.000441 0.005136
# 2 -0.005212 0.021982 -0.008688 0.007580 0.002438 0.014470
# 3 -0.004219 -0.008688 0.013206 -0.006061 -0.001084 -0.013099
# 4 0.000110 0.007580 -0.006061 0.033047 -0.002231 0.012374
# 5 -0.000441 0.002438 -0.001084 -0.002231 0.019319 -0.001169
# 6 0.005136 0.014470 -0.013099 0.012374 -0.001169 0.049414
#
#
# Mechanical properties :
#
#
# Convention : Reuss Voigt Hill
#
# Bulk Modulus (GPa) = 76.10002 85.05643 80.57823
# Shear Modulus (GPa) = 26.07180 36.34752 31.20966
#
# Velocity S-wave (km/s) = 3.45545 4.07997 3.78063
# Velocity P-wave (km/s) = 7.12544 7.81974 7.48065
#
# Compressibility (1/GPa) = 0.01314060
#
# Stress axis : x y z
#
# Youngs Moduli (GPa) = 70.46619 45.49166 75.72247
#
# Poissons Ratio (x) = 0.23712 0.31949
# Poissons Ratio (y) = 0.36730 0.65786
# Poissons Ratio (z) = 0.29732 0.39522
#
# Static dielectric constant tensor:
#      x y z
#    x 3.561200 -0.280110 0.041610 
#    y -0.280110 4.012380 -0.158740 
#    z 0.041610 -0.158740 4.049490 
# 
# 
# High freq. dielectric constant tensor:
#      x y z
#    x 1.878170 -0.000490 -0.002750 
#    y -0.000490 1.863830 -0.007180 
#    z -0.002750 -0.007180 1.870250 
# 
# From -- ./inp_files/579549.got.cif
#   From: 2010.06.25/outbox.cif.g09.slc.cpg/sg2_290_cif.got.tgz:579549.got - 2010.06.27 13:26:56.
