data_PCOD8024378
_publ_section_title
;
Structure prediction by ZEFSAII (Michael W. Deem and Ramdas Pophale) SiO2 
 PCOD8024378
Probable space group: P -1
;
_chemical_formula_sum "Si O2"
_cell_formula_units_Z 16
_cell_length_a 14.685584
_cell_length_b 5.246248
_cell_length_c 14.346208
_cell_angle_alpha 126.193854
_cell_angle_beta 125.659120
_cell_angle_gamma 84.228283
_cell_volume 672.839552
_symmetry_space_group_name_H-M "P -1"
_symmetry_group_IT_number 2
_symmetry_cell_setting 'triclinic'
loop_
_space_group_symop_operation_xyz
x,y,z
-x,-y,-z
loop_
_atom_site_type_symbol
_atom_site_label
_atom_site_fract_x
_atom_site_fract_y
_atom_site_fract_z
Si Si1 0.559724 0.505160 0.167140
Si Si2 0.928376 0.624254 0.194308
Si Si3 0.657636 0.374160 0.018244
Si Si4 0.704726 0.349471 0.711641
Si Si5 0.148616 0.926552 0.122344
Si Si6 0.527760 0.660345 0.723996
Si Si7 0.063302 0.249366 0.296249
Si Si8 0.677521 0.233984 0.462071
O O1 0.621139 0.314821 0.093414
O O2 0.549984 0.361080 0.233611
O O3 0.644925 0.902808 0.306783
O O4 0.424455 0.442558 0.037902
O O5 0.797156 0.612340 0.142674
O O6 0.987675 0.489876 0.284980
O O7 0.924552 0.398862 0.052493
O O8 0.010368 0.015425 0.304590
O O9 0.638864 0.025423 0.876333
O O10 0.752003 0.150267 0.771894
O O11 0.577464 0.356755 0.675933
O O12 0.692733 0.158007 0.563840
O O13 0.789394 0.743683 0.833843
O O14 0.052657 0.002656 0.148057
O O15 0.434370 0.635705 0.579688
O O16 0.202574 0.482314 0.446927
#
# Coordination Sequence:
#
# PCOD8024378 Si02
#       8
#     2   2   2   2   2   2   2   2
#     4  10  23  43  71  90 134 168 217 279 329 392
#     4  12  23  42  69  95 133 172 223 275 316 386
#     4  10  23  43  66 104 120 167 227 276 336 369
#     4  11  23  38  68 101 137 165 214 271 328 400
#     4  11  22  41  64  99 134 173 215 269 328 387
#     4  11  22  40  69  95 132 170 215 276 328 394
#     4  11  25  41  65  94 137 180 216 260 324 396
#     4  10  25  42  60  98 132 180 214 257 330 399
#
# _framework density 23.779816
#
# number of rings (size 3 to 8) (size 9 to 14) (size 15 to 20)
#    0.000    1.250    1.250    4.500    8.750    0.500 
#    0.000    1.250    0.000    0.000    0.000    0.000 
#    0.000    0.000    0.000    0.000    0.000    0.000 
#
# Total GULP energy -198420.659730 kJ/mol
# GULP energy per Si atom -12401.291233 kJ/mol
# Density = 2.372569 g / cm^3
# Si number density = 23.779816 Si / 1000 Ang^3
#
#
#
# Elastic Constant Matrix: (Units=GPa)
#
#
# Indices 1 2 3 4 5 6 
#
# 1 89.8692 17.9882 19.1917 8.2523 17.1133 -7.8264
# 2 17.9882 91.9857 19.7334 -6.4990 10.6220 -3.7634
# 3 19.1917 19.7334 74.1146 1.2151 15.2840 -8.7924
# 4 8.2523 -6.4990 1.2151 18.6145 4.1024 0.2139
# 5 17.1133 10.6220 15.2840 4.1024 29.8029 0.5174
# 6 -7.8264 -3.7634 -8.7924 0.2139 0.5174 31.4500
#
#
#
# Elastic Compliance Matrix: (Units=1/GPa)
#
#
# Indices 1 2 3 4 5 6 
#
# 1 0.013663 -0.001975 -0.001397 -0.005426 -0.005728 0.002904
# 2 -0.001975 0.012534 -0.002257 0.006059 -0.003016 0.000386
# 3 -0.001397 -0.002257 0.016353 0.000234 -0.006882 0.004066
# 4 -0.005426 0.006059 0.000234 0.059866 -0.007390 -0.000845
# 5 -0.005728 -0.003016 -0.006882 -0.007390 0.042541 -0.004360
# 6 0.002904 0.000386 0.004066 -0.000845 -0.004360 0.033779
#
#
# Mechanical properties :
#
#
# Convention : Reuss Voigt Hill
#
# Bulk Modulus (GPa) = 31.95839 41.08843 36.52341
# Shear Modulus (GPa) = 24.94684 29.24390 27.09537
#
# Velocity S-wave (km/s) = 3.24246 3.51062 3.37920
# Velocity P-wave (km/s) = 5.24276 5.80938 5.53332
#
# Compressibility (1/GPa) = 0.03129069
#
# Stress axis : x y z
#
# Youngs Moduli (GPa) = 73.18992 79.78327 61.14996
#
# Poissons Ratio (x) = 0.15759 0.08544
# Poissons Ratio (y) = 0.14456 0.13804
# Poissons Ratio (z) = 0.10226 0.18010
#
# Static dielectric constant tensor:
#      x y z
#    x 4.154750 -0.002450 0.034160 
#    y -0.002450 4.183680 -0.004670 
#    z 0.034160 -0.004670 4.172100 
# 
# 
# High freq. dielectric constant tensor:
#      x y z
#    x 1.932830 0.002940 0.013200 
#    y 0.002940 1.944080 0.000000 
#    z 0.013200 0.000000 1.929360 
# 
# From -- ./inp_files/100811.got.cif
#   From: 2010.06.25/outbox.cif.g09.slc.cpg/sg2_51_cif.got.tgz:100811.got - 2010.06.27 13:26:56.
