data_PCOD8024629
_publ_section_title
;
Structure prediction by ZEFSAII (Michael W. Deem and Ramdas Pophale) SiO2 
 PCOD8024629
Probable space group: P -1
;
_chemical_formula_sum "Si O2"
_cell_formula_units_Z 16
_cell_length_a 12.979625
_cell_length_b 9.109805
_cell_length_c 14.415341
_cell_angle_alpha 102.667243
_cell_angle_beta 46.654884
_cell_angle_gamma 65.078309
_cell_volume 715.826242
_symmetry_space_group_name_H-M "P -1"
_symmetry_group_IT_number 2
_symmetry_cell_setting 'triclinic'
loop_
_space_group_symop_operation_xyz
x,y,z
-x,-y,-z
loop_
_atom_site_type_symbol
_atom_site_label
_atom_site_fract_x
_atom_site_fract_y
_atom_site_fract_z
Si Si1 0.783005 0.287940 0.984248
Si Si2 0.025904 0.971051 0.614532
Si Si3 0.420579 0.396403 0.519111
Si Si4 0.345571 0.837929 0.259257
Si Si5 0.516753 0.996274 0.099645
Si Si6 0.403794 0.397135 0.314754
Si Si7 0.971536 0.616109 0.888957
Si Si8 0.158528 0.172794 0.805877
O O1 0.925991 0.264342 0.966949
O O2 0.608340 0.546784 0.071524
O O3 0.647646 0.272916 0.119572
O O4 0.978836 0.048600 0.760939
O O5 0.183419 0.969716 0.470965
O O6 0.171792 0.691941 0.473887
O O7 0.774351 0.164711 0.745170
O O8 0.500000 0.500000 0.500000
O O9 0.414616 0.356268 0.410396
O O10 0.159503 0.589885 0.750572
O O11 0.611149 0.119569 0.409445
O O12 0.363833 0.993065 0.237684
O O13 0.386165 0.259866 0.248514
O O14 0.791734 0.755813 0.932149
O O15 0.500000 0.000000 0.000000
O O16 0.118503 0.336016 0.775802
O O17 0.813544 0.784485 0.101785
#
# Coordination Sequence:
#
# PCOD8024629 Si02
#       8
#     2   2   2   2   2   2   2   2
#     4  11  22  43  72 100 134 182 229 280 354 404
#     4  10  23  43  69  97 140 179 228 289 333 420
#     4  12  26  43  71 107 139 179 227 286 349 406
#     4  10  23  44  66 101 133 182 235 278 343 411
#     4  12  26  47  72 100 143 185 224 288 349 404
#     4  11  26  42  66 106 140 174 233 284 341 417
#     4  11  26  48  69 100 140 184 230 282 345 407
#     4  11  24  46  72  97 136 184 228 288 334 416
#
# _framework density 22.351793000000001
#
# number of rings (size 3 to 8) (size 9 to 14) (size 15 to 20)
#    0.000    1.000    2.500    3.000    5.250    5.500 
#    0.000    0.000    0.000    0.000    0.000    0.000 
#    0.000    0.000    0.000    0.000    0.000    0.000 
#
# Total GULP energy -198472.283756 kJ/mol
# GULP energy per Si atom -12404.517735 kJ/mol
# Density = 2.230092 g / cm^3
# Si number density = 22.351793 Si / 1000 Ang^3
#
#
#
# Elastic Constant Matrix: (Units=GPa)
#
#
# Indices 1 2 3 4 5 6 
#
# 1 106.2741 32.1214 33.5054 3.4021 -0.9593 -8.8247
# 2 32.1214 104.2016 35.2836 -3.1218 -4.6681 4.9539
# 3 33.5054 35.2836 87.0804 -2.8630 -8.2556 0.2544
# 4 3.4021 -3.1218 -2.8630 35.6356 1.4631 -6.5803
# 5 -0.9593 -4.6681 -8.2556 1.4631 37.1586 -0.6821
# 6 -8.8247 4.9539 0.2544 -6.5803 -0.6821 41.6406
#
#
#
# Elastic Compliance Matrix: (Units=1/GPa)
#
#
# Indices 1 2 3 4 5 6 
#
# 1 0.011533 -0.002553 -0.003514 -0.001101 -0.000713 0.002584
# 2 -0.002553 0.011769 -0.003710 0.000620 0.000531 -0.001812
# 3 -0.003514 -0.003710 0.014625 0.001043 0.002648 -0.000185
# 4 -0.001101 0.000620 0.001043 0.029127 -0.000787 0.004276
# 5 -0.000713 0.000531 0.002648 -0.000787 0.027581 0.000097
# 6 0.002584 -0.001812 -0.000185 0.004276 0.000097 0.025457
#
#
# Mechanical properties :
#
#
# Convention : Reuss Voigt Hill
#
# Bulk Modulus (GPa) = 54.43233 55.48633 54.95933
# Shear Modulus (GPa) = 34.30085 35.99666 35.14876
#
# Velocity S-wave (km/s) = 3.92164 4.01741 3.96981
# Velocity P-wave (km/s) = 6.70157 6.81156 6.75679
#
# Compressibility (1/GPa) = 0.01837144
#
# Stress axis : x y z
#
# Youngs Moduli (GPa) = 86.71145 84.97257 68.37624
#
# Poissons Ratio (x) = 0.21692 0.24029
# Poissons Ratio (y) = 0.22136 0.25369
# Poissons Ratio (z) = 0.30473 0.31526
#
# Static dielectric constant tensor:
#      x y z
#    x 3.978210 -0.022810 -0.124080 
#    y -0.022810 4.154280 0.046550 
#    z -0.124080 0.046550 3.938570 
# 
# 
# High freq. dielectric constant tensor:
#      x y z
#    x 1.882100 -0.001860 -0.008820 
#    y -0.001860 1.893110 0.003040 
#    z -0.008820 0.003040 1.878550 
# 
# From -- ./inp_files/515873.got.cif
#   From: 2010.06.25/outbox.cif.g09.slc.cpg/sg2_258_cif.got.tgz:515873.got - 2010.06.27 13:26:56.
