data_PCOD8024068
_publ_section_title
;
Structure prediction by ZEFSAII (Michael W. Deem and Ramdas Pophale) SiO2 
 PCOD8024068
Probable space group: P -1
;
_chemical_formula_sum "Si O2"
_cell_formula_units_Z 16
_cell_length_a 14.790082
_cell_length_b 8.673788
_cell_length_c 14.663721
_cell_angle_alpha 110.022415
_cell_angle_beta 151.237232
_cell_angle_gamma 89.462182
_cell_volume 651.256765
_symmetry_space_group_name_H-M "P -1"
_symmetry_group_IT_number 2
_symmetry_cell_setting 'triclinic'
loop_
_space_group_symop_operation_xyz
x,y,z
-x,-y,-z
loop_
_atom_site_type_symbol
_atom_site_label
_atom_site_fract_x
_atom_site_fract_y
_atom_site_fract_z
Si Si1 0.615220 0.029239 0.347598
Si Si2 0.869238 0.098265 0.072845
Si Si3 0.074209 0.512405 0.232594
Si Si4 0.973876 0.964804 0.624897
Si Si5 0.522085 0.262871 0.679939
Si Si6 0.164479 0.436421 0.660288
Si Si7 0.527201 0.706290 0.557987
Si Si8 0.607711 0.564469 0.965216
O O1 0.811480 0.285169 0.557395
O O2 0.338951 0.925922 0.052631
O O3 0.575224 0.960881 0.406344
O O4 0.725206 0.929532 0.374038
O O5 0.738389 0.898999 0.847908
O O6 0.039289 0.092261 0.291235
O O7 0.048623 0.325533 0.225528
O O8 0.258663 0.617594 0.331752
O O9 0.811558 0.420966 0.946744
O O10 0.989523 0.818113 0.542204
O O11 0.212325 0.206115 0.874017
O O12 0.391728 0.206093 0.455785
O O13 0.476195 0.388065 0.733733
O O14 0.251034 0.484163 0.851981
O O15 0.000000 0.500000 0.500000
O O16 0.402600 0.559269 0.831865
O O17 0.500000 0.500000 0.500000
#
# Coordination Sequence:
#
# PCOD8024068 Si02
#       8
#     2   2   2   2   2   2   2   2
#     4  10  23  42  69  99 135 180 236 279 341 403
#     4  10  26  43  66 105 139 185 236 283 335 405
#     4  10  23  43  67  95 139 185 233 284 339 392
#     4  12  24  44  76 101 136 186 225 282 350 410
#     4  11  22  43  70  94 138 184 231 280 339 408
#     4  11  28  46  75 106 139 174 228 288 350 418
#     4  11  25  41  63 105 142 182 237 284 333 406
#     4  11  25  48  72 104 138 181 229 283 349 415
#
# _framework density 24.567882999999998
#
# number of rings (size 3 to 8) (size 9 to 14) (size 15 to 20)
#    0.000    1.250    2.500    1.500    5.250    9.500 
#    0.000    0.000    0.000    0.000    0.000    0.000 
#    0.000    0.000    0.000    0.000    0.000    0.000 
#
# Total GULP energy -198316.970312 kJ/mol
# GULP energy per Si atom -12394.810644 kJ/mol
# Density = 2.451197 g / cm^3
# Si number density = 24.567883 Si / 1000 Ang^3
#
#
#
# Elastic Constant Matrix: (Units=GPa)
#
#
# Indices 1 2 3 4 5 6 
#
# 1 87.8971 31.1363 24.4068 -2.3400 -9.6125 -3.5233
# 2 31.1363 114.5214 39.7845 19.5618 4.4571 -7.3475
# 3 24.4068 39.7845 92.9813 14.9818 -1.8623 -0.6932
# 4 -2.3400 19.5618 14.9818 42.5818 12.7092 4.7971
# 5 -9.6125 4.4571 -1.8623 12.7092 8.9902 7.9777
# 6 -3.5233 -7.3475 -0.6932 4.7971 7.9777 40.9557
#
#
#
# Elastic Compliance Matrix: (Units=1/GPa)
#
#
# Indices 1 2 3 4 5 6 
#
# 1 0.016502 -0.004854 -0.000710 -0.005772 0.032626 -0.005142
# 2 -0.004854 0.012559 -0.004380 -0.000093 -0.016641 0.005014
# 3 -0.000710 -0.004380 0.014578 -0.008649 0.019699 -0.003424
# 4 -0.005772 -0.000093 -0.008649 0.052424 -0.091874 0.011096
# 5 0.032626 -0.016641 0.019699 -0.091874 0.336867 -0.054702
# 6 -0.005142 0.005014 -0.003424 0.011096 -0.054702 0.034171
#
#
# Mechanical properties :
#
#
# Convention : Reuss Voigt Hill
#
# Bulk Modulus (GPa) = 42.10369 54.00611 48.05490
# Shear Modulus (GPa) = 10.10295 31.84369 20.97332
#
# Velocity S-wave (km/s) = 2.03007 3.60412 2.92496
# Velocity P-wave (km/s) = 4.76128 6.27293 5.56864
#
# Compressibility (1/GPa) = 0.02375088
#
# Stress axis : x y z
#
# Youngs Moduli (GPa) = 60.60025 79.62686 68.59653
#
# Poissons Ratio (x) = 0.38649 0.04867
# Poissons Ratio (y) = 0.29414 0.30048
# Poissons Ratio (z) = 0.04300 0.34880
#
# Static dielectric constant tensor:
#      x y z
#    x 4.572420 -0.104650 0.129500 
#    y -0.104650 4.654030 0.074940 
#    z 0.129500 0.074940 4.457890 
# 
# 
# High freq. dielectric constant tensor:
#      x y z
#    x 1.969120 -0.005310 0.021840 
#    y -0.005310 1.984440 0.014530 
#    z 0.021840 0.014530 1.982030 
# 
# From -- ./inp_files/530033.got.cif
#   From: 2010.06.25/outbox.cif.g09.slc.cpg/sg2_266_cif.got.tgz:530033.got - 2010.06.27 13:26:56.
