data_PCOD8024846
_publ_section_title
;
Structure prediction by ZEFSAII (Michael W. Deem and Ramdas Pophale) SiO2 
 PCOD8024846
Probable space group: P -1
;
_chemical_formula_sum "Si O2"
_cell_formula_units_Z 16
_cell_length_a 13.928821
_cell_length_b 8.008238
_cell_length_c 7.014505
_cell_angle_alpha 105.384336
_cell_angle_beta 80.001143
_cell_angle_gamma 80.079363
_cell_volume 723.030908
_symmetry_space_group_name_H-M "P -1"
_symmetry_group_IT_number 2
_symmetry_cell_setting 'triclinic'
loop_
_space_group_symop_operation_xyz
x,y,z
-x,-y,-z
loop_
_atom_site_type_symbol
_atom_site_label
_atom_site_fract_x
_atom_site_fract_y
_atom_site_fract_z
Si Si1 0.567610 0.858050 0.295624
Si Si2 0.280966 0.084873 0.019040
Si Si3 0.937257 0.793665 0.937256
Si Si4 0.186763 0.466425 0.146872
Si Si5 0.751774 0.286096 0.518224
Si Si6 0.946564 0.030255 0.327447
Si Si7 0.609728 0.226844 0.872764
Si Si8 0.320694 0.526207 0.794272
O O1 0.646034 0.960665 0.204321
O O2 0.501813 0.795229 0.133440
O O3 0.625041 0.678857 0.331248
O O4 0.500000 0.000000 0.500000
O O5 0.168906 0.060116 0.009703
O O6 0.273207 0.293973 0.129917
O O7 0.323535 0.963656 0.145569
O O8 0.918071 0.593808 0.873447
O O9 0.014592 0.817026 0.754558
O O10 0.975780 0.842146 0.145935
O O11 0.177072 0.604271 0.364128
O O12 0.220462 0.541933 0.960308
O O13 0.826013 0.092902 0.407311
O O14 0.655860 0.280109 0.676993
O O15 0.711062 0.372430 0.359376
O O16 0.000000 0.000000 0.500000
O O17 0.605928 0.374289 0.083728
#
# Coordination Sequence:
#
# PCOD8024846 Si02
#       8
#     2   2   2   2   2   2   2   2
#     4  11  25  39  66  97 119 170 220 256 310 368
#     4   9  20  44  64  87 132 165 205 262 314 365
#     4   9  21  41  64  89 128 164 200 254 318 364
#     4   8  21  41  64  89 122 171 203 252 314 362
#     4  11  24  40  67  95 126 168 210 254 314 373
#     4  11  23  39  64 100 124 160 211 255 310 382
#     4  11  23  40  64  92 129 171 206 258 316 365
#     4  10  23  44  61  89 136 165 206 260 315 371
#
# _framework density 22.129066999999999
#
# number of rings (size 3 to 8) (size 9 to 14) (size 15 to 20)
#    0.750    1.250    0.000    2.250    5.250    5.000 
#    2.250    1.250    0.000    0.000    0.000    0.000 
#    0.000    0.000    0.000    0.000    0.000    0.000 
#
# Total GULP energy -198327.676489 kJ/mol
# GULP energy per Si atom -12395.479781 kJ/mol
# Density = 2.207870 g / cm^3
# Si number density = 22.129067 Si / 1000 Ang^3
#
#
#
# Elastic Constant Matrix: (Units=GPa)
#
#
# Indices 1 2 3 4 5 6 
#
# 1 61.8911 -8.9609 13.9918 -2.1554 -0.5997 3.2967
# 2 -8.9609 64.1306 30.0142 -12.4802 2.9392 -1.6371
# 3 13.9918 30.0142 121.6581 -8.5324 7.2793 -2.5169
# 4 -2.1554 -12.4802 -8.5324 32.9601 -7.6123 5.2257
# 5 -0.5997 2.9392 7.2793 -7.6123 28.9968 0.9603
# 6 3.2967 -1.6371 -2.5169 5.2257 0.9603 32.8965
#
#
#
# Elastic Compliance Matrix: (Units=1/GPa)
#
#
# Indices 1 2 3 4 5 6 
#
# 1 0.017695 0.004295 -0.003041 0.002696 0.001477 -0.002264
# 2 0.004295 0.019791 -0.004982 0.006909 0.001179 -0.000959
# 3 -0.003041 -0.004982 0.009934 -0.000146 -0.002120 0.000902
# 4 0.002696 0.006909 -0.000146 0.036132 0.009074 -0.005942
# 5 0.001477 0.001179 -0.002120 0.009074 0.037404 -0.002785
# 6 -0.002264 -0.000959 0.000902 -0.005942 -0.002785 0.031672
#
#
# Mechanical properties :
#
#
# Convention : Reuss Voigt Hill
#
# Bulk Modulus (GPa) = 25.02250 35.30776 30.16513
# Shear Modulus (GPa) = 28.83394 33.14635 30.99015
#
# Velocity S-wave (km/s) = 3.61361 3.87442 3.74629
# Velocity P-wave (km/s) = 5.36125 6.00041 5.68981
#
# Compressibility (1/GPa) = 0.03996404
#
# Stress axis : x y z
#
# Youngs Moduli (GPa) = 56.51157 50.52739 100.66510
#
# Poissons Ratio (x) = -0.21701 0.30611
# Poissons Ratio (y) = -0.24272 0.50156
# Poissons Ratio (z) = 0.17184 0.25175
#
# Static dielectric constant tensor:
#      x y z
#    x 4.005490 0.189640 -0.019620 
#    y 0.189640 3.862560 0.062290 
#    z -0.019620 0.062290 3.779540 
# 
# 
# High freq. dielectric constant tensor:
#      x y z
#    x 1.869880 0.009600 -0.001410 
#    y 0.009600 1.863100 0.002270 
#    z -0.001410 0.002270 1.866880 
# 
# From -- ./inp_files/90732.got.cif
#   From: 2010.06.25/outbox.cif.g09.slc.cpg/sg2_46_cif.got.tgz:90732.got - 2010.06.27 13:26:56.
