data_PCOD8024773
_publ_section_title
;
Structure prediction by ZEFSAII (Michael W. Deem and Ramdas Pophale) SiO2 
 PCOD8024773
Probable space group: P -1
;
_chemical_formula_sum "Si O2"
_cell_formula_units_Z 14
_cell_length_a 14.081223
_cell_length_b 24.093872
_cell_length_c 24.319927
_cell_angle_alpha 11.832127
_cell_angle_beta 23.722852
_cell_angle_gamma 21.791542
_cell_volume 625.630585
_symmetry_space_group_name_H-M "P -1"
_symmetry_group_IT_number 2
_symmetry_cell_setting 'triclinic'
loop_
_space_group_symop_operation_xyz
x,y,z
-x,-y,-z
loop_
_atom_site_type_symbol
_atom_site_label
_atom_site_fract_x
_atom_site_fract_y
_atom_site_fract_z
Si Si1 0.939162 0.310848 0.870864
Si Si2 0.128849 0.206230 0.751144
Si Si3 0.795167 0.797063 0.052548
Si Si4 0.291166 0.157757 0.214887
Si Si5 0.582704 0.970093 0.422101
Si Si6 0.017048 0.142336 0.532341
Si Si7 0.987623 0.203303 0.231827
O O1 0.743160 0.636447 0.647359
O O2 0.109473 0.221009 0.813004
O O3 0.140735 0.286151 0.836771
O O4 0.756848 0.140622 0.145884
O O5 0.000000 0.500000 0.500000
O O6 0.418361 0.053692 0.726461
O O7 0.000000 0.000000 0.000000
O O8 0.861994 0.494677 0.275905
O O9 0.500000 0.000000 0.000000
O O10 0.972256 0.979063 0.768578
O O11 0.222218 0.230179 0.116291
O O12 0.135983 0.975378 0.494681
O O13 0.217732 0.460772 0.995033
O O14 0.500000 0.000000 0.500000
O O15 0.315263 0.079657 0.423695
O O16 0.908503 0.985506 0.695494
#
# Coordination Sequence:
#
# PCOD8024773 Si02
#       7
#     2   2   2   2   2   2   2
#     4  12  26  46  69  99 138 187 221 287 342 400
#     4  12  28  46  68 100 137 184 233 279 345 412
#     4  12  26  46  68 104 142 180 227 272 345 428
#     4  10  23  46  66  96 134 174 233 277 341 397
#     4  12  23  44  71  99 138 173 229 277 337 406
#     4  12  25  42  72 104 134 177 229 281 343 402
#     4  10  23  43  72  97 129 176 223 292 332 392
#
# _framework density 22.377424000000001
#
# number of rings (size 3 to 8) (size 9 to 14) (size 15 to 20)
#    0.000    0.571    2.857    4.286    8.000    0.000 
#    2.571    0.000    0.000    0.000    0.000    0.000 
#    0.000    0.000    0.000    0.000    0.000    0.000 
#
# Total GULP energy -173536.541993 kJ/mol
# GULP energy per Si atom -12395.467285 kJ/mol
# Density = 2.232649 g / cm^3
# Si number density = 22.377424 Si / 1000 Ang^3
#
#
#
# Elastic Constant Matrix: (Units=GPa)
#
#
# Indices 1 2 3 4 5 6 
#
# 1 98.5244 41.5070 23.9840 -15.5003 -7.7168 -0.6548
# 2 41.5070 134.0199 53.7015 -30.1935 -5.3831 -20.8851
# 3 23.9840 53.7015 154.7037 -26.7844 -4.9285 -2.1109
# 4 -15.5003 -30.1935 -26.7844 47.7960 4.8355 -0.9578
# 5 -7.7168 -5.3831 -4.9285 4.8355 36.5698 0.0341
# 6 -0.6548 -20.8851 -2.1109 -0.9578 0.0341 40.3746
#
#
#
# Elastic Compliance Matrix: (Units=1/GPa)
#
#
# Indices 1 2 3 4 5 6 
#
# 1 0.012035 -0.003448 -0.000411 0.001280 0.001809 -0.001581
# 2 -0.003448 0.011575 -0.002558 0.004881 -0.000019 0.005914
# 3 -0.000411 -0.002558 0.007865 0.002615 0.000252 -0.000857
# 4 0.001280 0.004881 0.002615 0.026167 -0.002122 0.003305
# 5 0.001809 -0.000019 0.000252 -0.002122 0.028038 -0.000042
# 6 -0.001581 0.005914 -0.000857 0.003305 -0.000042 0.027835
#
#
# Mechanical properties :
#
#
# Convention : Reuss Voigt Hill
#
# Bulk Modulus (GPa) = 53.64922 69.51475 61.58199
# Shear Modulus (GPa) = 37.71779 42.81846 40.26813
#
# Velocity S-wave (km/s) = 4.10997 4.37906 4.24665
# Velocity P-wave (km/s) = 6.82270 7.52997 7.18504
#
# Compressibility (1/GPa) = 0.01863960
#
# Stress axis : x y z
#
# Youngs Moduli (GPa) = 83.09134 86.39388 127.14713
#
# Poissons Ratio (x) = 0.29788 0.05230
# Poissons Ratio (y) = 0.28649 0.32528
# Poissons Ratio (z) = 0.03418 0.22102
#
# Static dielectric constant tensor:
#      x y z
#    x 4.380830 0.071190 -0.058830 
#    y 0.071190 3.778000 -0.014610 
#    z -0.058830 -0.014610 4.122570 
# 
# 
# High freq. dielectric constant tensor:
#      x y z
#    x 1.891710 -0.000390 -0.000270 
#    y -0.000390 1.877590 -0.009540 
#    z -0.000270 -0.009540 1.901920 
# 
# From -- ./inp_files/619960.got.cif
#   From: 2010.06.25/outbox.cif.g09.slc.cpg/sg2_310_cif.got.tgz:619960.got - 2010.06.27 13:26:56.
