data_PCOD8024117
_publ_section_title
;
Structure prediction by ZEFSAII (Michael W. Deem and Ramdas Pophale) SiO2 
 PCOD8024117
Probable space group: P -1
;
_chemical_formula_sum "Si O2"
_cell_formula_units_Z 14
_cell_length_a 14.876031
_cell_length_b 4.870442
_cell_length_c 14.325896
_cell_angle_alpha 103.773931
_cell_angle_beta 148.283737
_cell_angle_gamma 75.575433
_cell_volume 527.764173
_symmetry_space_group_name_H-M "P -1"
_symmetry_group_IT_number 2
_symmetry_cell_setting 'triclinic'
loop_
_space_group_symop_operation_xyz
x,y,z
-x,-y,-z
loop_
_atom_site_type_symbol
_atom_site_label
_atom_site_fract_x
_atom_site_fract_y
_atom_site_fract_z
Si Si1 0.507741 0.740398 0.704817
Si Si2 0.496329 0.921210 0.097581
Si Si3 0.140541 0.246640 0.582904
Si Si4 0.868261 0.967197 0.240015
Si Si5 0.014100 0.483011 0.831394
Si Si6 0.201546 0.970361 0.325549
Si Si7 0.701885 0.166850 0.806049
O O1 0.338343 0.856999 0.512488
O O2 0.540106 0.404227 0.689690
O O3 0.482858 0.801447 0.798076
O O4 0.669377 0.904692 0.824111
O O5 0.658181 0.689881 0.251445
O O6 0.500000 0.000000 0.000000
O O7 0.299214 0.834376 0.933008
O O8 0.159704 0.047393 0.674701
O O9 0.000000 0.500000 0.500000
O O10 0.054884 0.095247 0.405396
O O11 0.883789 0.659970 0.179031
O O12 0.955736 0.230434 0.824559
O O13 0.855511 0.700033 0.674805
O O14 0.129169 0.685603 0.006472
O O15 0.284579 0.954735 0.295565
#
# Coordination Sequence:
#
# PCOD8024117 Si02
#       7
#     2   2   2   2   2   2   2
#     4  12  25  46  73 105 146 194 246 304 371 441
#     4  10  23  47  67 102 142 191 241 300 371 435
#     4  10  23  42  70  99 137 181 243 304 363 433
#     4  10  23  43  65  99 142 185 241 297 365 437
#     4  12  25  44  73 104 149 191 245 298 373 436
#     4  12  26  45  74 108 146 195 245 308 364 441
#     4  12  25  47  72 108 148 192 246 303 370 439
#
# _framework density 26.527000000000001
#
# number of rings (size 3 to 8) (size 9 to 14) (size 15 to 20)
#    0.000    0.857    1.429    5.143    4.000    0.571 
#    5.143    0.000    0.000    0.000    0.000    0.000 
#    0.000    0.000    0.000    0.000    0.000    0.000 
#
# Total GULP energy -173443.161367 kJ/mol
# GULP energy per Si atom -12388.797241 kJ/mol
# Density = 2.646662 g / cm^3
# Si number density = 26.527000 Si / 1000 Ang^3
#
#
#
# Elastic Constant Matrix: (Units=GPa)
#
#
# Indices 1 2 3 4 5 6 
#
# 1 88.1888 16.1195 25.6299 10.8048 -6.4399 -20.9492
# 2 16.1195 89.2515 5.8369 -2.3941 6.0495 -20.1322
# 3 25.6299 5.8369 156.6871 -11.9010 11.9116 -34.2974
# 4 10.8048 -2.3941 -11.9010 31.8814 -10.7345 10.1033
# 5 -6.4399 6.0495 11.9116 -10.7345 37.7418 1.3226
# 6 -20.9492 -20.1322 -34.2974 10.1033 1.3226 40.1027
#
#
#
# Elastic Compliance Matrix: (Units=1/GPa)
#
#
# Indices 1 2 3 4 5 6 
#
# 1 0.014845 -0.001005 -0.001248 -0.007985 0.000530 0.008178
# 2 -0.001005 0.013301 0.001572 -0.001850 -0.003609 0.008082
# 3 -0.001248 0.001572 0.008413 0.000225 -0.003315 0.007385
# 4 -0.007985 -0.001850 0.000225 0.043065 0.011677 -0.016143
# 5 0.000530 -0.003609 -0.003315 0.011677 0.031825 -0.008361
# 6 0.008178 0.008082 0.007385 -0.016143 -0.008361 0.043924
#
#
# Mechanical properties :
#
#
# Convention : Reuss Voigt Hill
#
# Bulk Modulus (GPa) = 28.41100 47.69998 38.05549
# Shear Modulus (GPa) = 29.67914 41.04791 35.36352
#
# Velocity S-wave (km/s) = 3.34852 3.93797 3.65514
# Velocity P-wave (km/s) = 5.06789 6.22073 5.67367
#
# Compressibility (1/GPa) = 0.03519764
#
# Stress axis : x y z
#
# Youngs Moduli (GPa) = 67.36127 75.18253 118.85849
#
# Poissons Ratio (x) = 0.07556 0.14830
# Poissons Ratio (y) = 0.06770 -0.18682
# Poissons Ratio (z) = 0.08404 -0.11817
#
# Static dielectric constant tensor:
#      x y z
#    x 5.105230 -0.259890 0.018410 
#    y -0.259890 4.854560 -0.089150 
#    z 0.018410 -0.089150 6.215180 
# 
# 
# High freq. dielectric constant tensor:
#      x y z
#    x 2.057210 -0.027230 0.003480 
#    y -0.027230 2.044930 -0.010230 
#    z 0.003480 -0.010230 2.096500 
# 
# From -- ./inp_files/97674.got.cif
#   From: 2010.06.25/outbox.cif.g09.slc.cpg/sg2_49_cif.got.tgz:97674.got - 2010.06.27 13:26:56.
