data_PCOD8024878
_publ_section_title
;
Structure prediction by ZEFSAII (Michael W. Deem and Ramdas Pophale) SiO2 
 PCOD8024878
Probable space group: P -1
;
_chemical_formula_sum "Si O2"
_cell_formula_units_Z 16
_cell_length_a 8.496863
_cell_length_b 21.275561
_cell_length_c 12.649780
_cell_angle_alpha 37.671343
_cell_angle_beta 147.281668
_cell_angle_gamma 128.917661
_cell_volume 750.424737
_symmetry_space_group_name_H-M "P -1"
_symmetry_group_IT_number 2
_symmetry_cell_setting 'triclinic'
loop_
_space_group_symop_operation_xyz
x,y,z
-x,-y,-z
loop_
_atom_site_type_symbol
_atom_site_label
_atom_site_fract_x
_atom_site_fract_y
_atom_site_fract_z
Si Si1 0.742759 0.006443 0.536972
Si Si2 0.709894 0.899270 0.224282
Si Si3 0.396426 0.464364 0.663831
Si Si4 0.462001 0.433309 0.170809
Si Si5 0.767509 0.918509 0.989554
Si Si6 0.174369 0.795954 0.062785
Si Si7 0.014148 0.708446 0.298384
Si Si8 0.829246 0.378022 0.855957
O O1 0.500000 0.000000 0.500000
O O2 0.957915 0.098310 0.547645
O O3 0.959658 0.901873 0.793223
O O4 0.555711 0.028722 0.295562
O O5 0.748362 0.883398 0.143614
O O6 0.514092 0.809284 0.270725
O O7 0.500000 0.000000 0.000000
O O8 0.487828 0.506566 0.772063
O O9 0.653934 0.392733 0.846527
O O10 0.295888 0.555148 0.404014
O O11 0.148026 0.391696 0.642169
O O12 0.671976 0.324640 0.425712
O O13 0.500000 0.500000 0.000000
O O14 0.140791 0.404151 0.031155
O O15 0.861505 0.816515 0.110925
O O16 0.000000 0.000000 0.000000
O O17 0.048057 0.721350 0.175322
O O18 0.168874 0.741574 0.017963
#
# Coordination Sequence:
#
# PCOD8024878 Si02
#       8
#     2   2   2   2   2   2   2   2
#     4  11  22  44  70  96 132 179 222 274 329 395
#     4  10  23  44  64  95 134 174 222 277 328 389
#     4  11  24  47  68  96 138 171 222 289 332 400
#     4  12  24  44  71  99 130 179 224 275 336 405
#     4  12  24  43  70  99 134 175 222 277 333 396
#     4  11  23  44  67  98 138 176 222 279 333 401
#     4  12  24  44  69  98 133 177 225 274 335 395
#     4  11  24  44  69 100 135 172 222 279 346 399
#
# _framework density 21.321259000000001
#
# number of rings (size 3 to 8) (size 9 to 14) (size 15 to 20)
#    0.000    0.750    5.000    3.000    1.750    2.000 
#    6.750    0.000    0.000    0.000    0.000    0.000 
#    0.000    0.000    0.000    0.000    0.000    0.000 
#
# Total GULP energy -198280.282664 kJ/mol
# GULP energy per Si atom -12392.517666 kJ/mol
# Density = 2.127273 g / cm^3
# Si number density = 21.321259 Si / 1000 Ang^3
#
#
#
# Elastic Constant Matrix: (Units=GPa)
#
#
# Indices 1 2 3 4 5 6 
#
# 1 118.9037 10.3417 11.9058 2.6111 -0.3437 -29.8299
# 2 10.3417 220.4908 86.8427 42.6550 47.7289 103.9516
# 3 11.9058 86.8427 139.6628 32.0306 28.0444 54.3793
# 4 2.6111 42.6550 32.0306 44.0381 11.2521 26.9637
# 5 -0.3437 47.7289 28.0444 11.2521 47.0635 37.0461
# 6 -29.8299 103.9516 54.3793 26.9637 37.0461 129.4572
#
#
#
# Elastic Compliance Matrix: (Units=1/GPa)
#
#
# Indices 1 2 3 4 5 6 
#
# 1 0.009869 -0.001913 -0.001179 -0.000510 -0.000821 0.004646
# 2 -0.001913 0.009362 -0.002153 -0.003230 -0.003137 -0.005484
# 3 -0.001179 -0.002153 0.010521 -0.004049 -0.001883 -0.001581
# 4 -0.000510 -0.003230 -0.004049 0.030075 0.000177 -0.002138
# 5 -0.000821 -0.003137 -0.001883 0.000177 0.029785 -0.005439
# 6 0.004646 -0.005484 -0.001581 -0.002138 -0.005439 0.015864
#
#
# Mechanical properties :
#
#
# Convention : Reuss Voigt Hill
#
# Bulk Modulus (GPa) = 51.91193 77.47085 64.69139
# Shear Modulus (GPa) = 40.85428 68.77622 54.81525
#
# Velocity S-wave (km/s) = 4.38211 5.68570 5.07592
# Velocity P-wave (km/s) = 7.07136 8.91722 8.04739
#
# Compressibility (1/GPa) = 0.01926339
#
# Stress axis : x y z
#
# Youngs Moduli (GPa) = 101.32644 106.81461 95.04656
#
# Poissons Ratio (x) = 0.20429 0.11209
# Poissons Ratio (y) = 0.19379 0.20459
# Poissons Ratio (z) = 0.11950 0.22992
#
# Static dielectric constant tensor:
#      x y z
#    x 3.935910 0.175550 0.051200 
#    y 0.175550 4.156170 0.238600 
#    z 0.051200 0.238600 3.785430 
# 
# 
# High freq. dielectric constant tensor:
#      x y z
#    x 1.859270 0.003220 0.010350 
#    y 0.003220 1.846350 0.007360 
#    z 0.010350 0.007360 1.828530 
# 
# From -- ./inp_files/89942.got.cif
#   From: 2010.06.25/outbox.cif.g09.slc.cpg/sg2_45_cif.got.tgz:89942.got - 2010.06.27 13:26:56.
