data_PCOD8024090
_publ_section_title
;
Structure prediction by ZEFSAII (Michael W. Deem and Ramdas Pophale) SiO2 
 PCOD8024090
Probable space group: P -1
;
_chemical_formula_sum "Si O2"
_cell_formula_units_Z 16
_cell_length_a 17.613616
_cell_length_b 12.065927
_cell_length_c 20.341609
_cell_angle_alpha 149.003115
_cell_angle_beta 159.741439
_cell_angle_gamma 29.754690
_cell_volume 719.547770
_symmetry_space_group_name_H-M "P -1"
_symmetry_group_IT_number 2
_symmetry_cell_setting 'triclinic'
loop_
_space_group_symop_operation_xyz
x,y,z
-x,-y,-z
loop_
_atom_site_type_symbol
_atom_site_label
_atom_site_fract_x
_atom_site_fract_y
_atom_site_fract_z
Si Si1 0.812134 0.138038 0.770403
Si Si2 0.374803 0.980007 0.712053
Si Si3 0.905012 0.332199 0.481733
Si Si4 0.726143 0.135156 0.841398
Si Si5 0.406549 0.519983 0.569293
Si Si6 0.302978 0.167792 0.226252
Si Si7 0.063254 0.635147 0.678504
Si Si8 0.548907 0.361952 0.090633
O O1 0.656359 0.142843 0.711817
O O2 0.663999 0.337352 0.702234
O O3 0.874630 0.892812 0.661108
O O4 0.046705 0.184936 0.003804
O O5 0.442812 0.749991 0.692805
O O6 0.510160 0.935325 0.730987
O O7 0.095542 0.078419 0.521156
O O8 0.441364 0.162632 0.903119
O O9 0.762680 0.435327 0.483506
O O10 0.733076 0.315053 0.275969
O O11 0.052552 0.496828 0.665884
O O12 0.658754 0.392826 0.945235
O O13 0.604275 0.996848 0.717620
O O14 0.000000 0.000000 0.000000
O O15 0.293956 0.421573 0.368342
O O16 0.320113 0.642842 0.875569
O O17 0.000000 0.500000 0.500000
#
# Coordination Sequence:
#
# PCOD8024090 Si02
#       8
#     2   2   2   2   2   2   2   2
#     4  11  24  46  70 104 140 184 228 291 358 404
#     4  12  28  46  69 101 143 193 236 276 340 424
#     4  11  26  44  70 103 139 181 233 294 342 411
#     4  10  23  42  70 105 135 174 230 289 355 408
#     4  12  28  46  69 101 143 193 236 276 340 424
#     4  11  26  44  70 103 139 181 233 294 342 411
#     4  10  23  42  70 105 135 174 230 289 355 408
#     4  11  24  46  70 104 140 184 228 291 358 404
#
# _framework density 22.236187999999999
#
# number of rings (size 3 to 8) (size 9 to 14) (size 15 to 20)
#    0.000    1.000    2.500    2.250   14.000    4.000 
#    0.000    0.000    0.000    0.000    0.000    0.000 
#    0.000    0.000    0.000    0.000    0.000    0.000 
#
# Total GULP energy -198430.999772 kJ/mol
# GULP energy per Si atom -12401.937486 kJ/mol
# Density = 2.218558 g / cm^3
# Si number density = 22.236188 Si / 1000 Ang^3
#
#
#
# Elastic Constant Matrix: (Units=GPa)
#
#
# Indices 1 2 3 4 5 6 
#
# 1 102.0072 67.5474 33.0630 4.0998 1.8130 -25.1955
# 2 67.5474 186.0530 52.1519 15.1686 2.1288 -2.2786
# 3 33.0630 52.1519 87.9303 16.8991 -2.9474 -1.1272
# 4 4.0998 15.1686 16.8991 41.8877 1.1598 -2.6626
# 5 1.8130 2.1288 -2.9474 1.1598 16.3853 -0.3916
# 6 -25.1955 -2.2786 -1.1272 -2.6626 -0.3916 36.5054
#
#
#
# Elastic Compliance Matrix: (Units=1/GPa)
#
#
# Indices 1 2 3 4 5 6 
#
# 1 0.017344 -0.005277 -0.003790 0.002536 -0.001815 0.011689
# 2 -0.005277 0.008117 -0.002604 -0.001560 -0.000908 -0.003339
# 3 -0.003790 -0.002604 0.015434 -0.005187 0.003838 -0.002639
# 4 0.002536 -0.001560 -0.005187 0.026576 -0.002811 0.003401
# 5 -0.001815 -0.000908 0.003838 -0.002811 0.062221 -0.000729
# 6 0.011689 -0.003339 -0.002639 0.003401 -0.000729 0.035411
#
#
# Mechanical properties :
#
#
# Convention : Reuss Voigt Hill
#
# Bulk Modulus (GPa) = 56.96989 75.72389 66.34689
# Shear Modulus (GPa) = 25.73400 33.83756 29.78578
#
# Velocity S-wave (km/s) = 3.40561 3.90517 3.66391
# Velocity P-wave (km/s) = 6.41406 7.37984 6.91384
#
# Compressibility (1/GPa) = 0.01755313
#
# Stress axis : x y z
#
# Youngs Moduli (GPa) = 57.65788 123.19577 64.79406
#
# Poissons Ratio (x) = 0.65013 0.24556
# Poissons Ratio (y) = 0.30427 0.16869
# Poissons Ratio (z) = 0.21852 0.32075
#
# Static dielectric constant tensor:
#      x y z
#    x 4.622390 -0.008370 0.155140 
#    y -0.008370 4.077860 0.035180 
#    z 0.155140 0.035180 4.000580 
# 
# 
# High freq. dielectric constant tensor:
#      x y z
#    x 1.886010 -0.016190 -0.001760 
#    y -0.016190 1.881290 -0.001330 
#    z -0.001760 -0.001330 1.872160 
# 
# From -- ./inp_files/307070.got.cif
#   From: 2010.06.25/outbox.cif.g09.slc.cpg/sg2_154_cif.got.tgz:307070.got - 2010.06.27 13:26:56.
