data_PCOD8024669
_publ_section_title
;
Structure prediction by ZEFSAII (Michael W. Deem and Ramdas Pophale) SiO2 
 PCOD8024669
Probable space group: P -1
;
_chemical_formula_sum "Si O2"
_cell_formula_units_Z 16
_cell_length_a 8.642843
_cell_length_b 11.841089
_cell_length_c 12.275575
_cell_angle_alpha 55.788415
_cell_angle_beta 131.540352
_cell_angle_gamma 97.145650
_cell_volume 712.214706
_symmetry_space_group_name_H-M "P -1"
_symmetry_group_IT_number 2
_symmetry_cell_setting 'triclinic'
loop_
_space_group_symop_operation_xyz
x,y,z
-x,-y,-z
loop_
_atom_site_type_symbol
_atom_site_label
_atom_site_fract_x
_atom_site_fract_y
_atom_site_fract_z
Si Si1 0.833821 0.539617 0.249635
Si Si2 0.198713 0.624299 0.462449
Si Si3 0.076737 0.620023 0.842742
Si Si4 0.069847 0.926030 0.736071
Si Si5 0.078866 0.038819 0.901677
Si Si6 0.536009 0.873736 0.904389
Si Si7 0.347138 0.400627 0.268010
Si Si8 0.563917 0.108338 0.393657
O O1 0.829912 0.426001 0.401756
O O2 0.801249 0.473050 0.155557
O O3 0.073354 0.557253 0.355191
O O4 0.631125 0.701962 0.083702
O O5 0.466887 0.564509 0.593695
O O6 0.095709 0.802495 0.309699
O O7 0.092286 0.777418 0.765682
O O8 0.813939 0.644790 0.704193
O O9 0.194785 0.543397 0.050498
O O10 0.276054 0.964112 0.768645
O O11 0.085016 0.916154 0.880916
O O12 0.829291 0.052096 0.522033
O O13 0.326675 0.038212 0.026581
O O14 0.000000 0.000000 0.000000
O O15 0.569996 0.875730 0.789765
O O16 0.485068 0.269244 0.321826
O O17 0.500000 0.000000 0.500000
#
# Coordination Sequence:
#
# PCOD8024669 Si02
#       8
#     2   2   2   2   2   2   2   2
#     4  10  23  46  66  97 135 181 219 279 338 392
#     4  10  23  43  70  93 133 178 224 272 337 402
#     4  11  25  40  70 100 137 175 228 276 332 400
#     4  12  25  43  68 106 132 175 228 279 337 402
#     4  11  25  45  70  97 137 180 220 277 345 403
#     4  11  25  43  70  99 136 181 225 278 333 404
#     4  11  23  42  65 100 133 179 225 276 328 402
#     4  12  23  43  67  99 141 176 223 279 339 395
#
# _framework density 22.465136999999999
#
# number of rings (size 3 to 8) (size 9 to 14) (size 15 to 20)
#    0.000    1.000    3.750    2.250    1.750    3.500 
#    0.000    6.250    0.000    0.000    0.000    0.000 
#    0.000    0.000    0.000    0.000    0.000    0.000 
#
# Total GULP energy -198424.666303 kJ/mol
# GULP energy per Si atom -12401.541644 kJ/mol
# Density = 2.241400 g / cm^3
# Si number density = 22.465137 Si / 1000 Ang^3
#
#
#
# Elastic Constant Matrix: (Units=GPa)
#
#
# Indices 1 2 3 4 5 6 
#
# 1 89.4226 13.1304 34.8750 1.0738 14.4742 16.2482
# 2 13.1304 79.5074 10.0691 4.3520 -0.1171 -3.0736
# 3 34.8750 10.0691 93.1811 4.7127 7.1966 10.7588
# 4 1.0738 4.3520 4.7127 31.8816 0.0012 -0.3972
# 5 14.4742 -0.1171 7.1966 0.0012 50.5336 6.7217
# 6 16.2482 -3.0736 10.7588 -0.3972 6.7217 29.4197
#
#
#
# Elastic Compliance Matrix: (Units=1/GPa)
#
#
# Indices 1 2 3 4 5 6 
#
# 1 0.014773 -0.002145 -0.004392 0.000368 -0.002795 -0.006133
# 2 -0.002145 0.013240 -0.000901 -0.001567 0.000403 0.002784
# 3 -0.004392 -0.000901 0.012846 -0.001657 -0.000264 -0.002328
# 4 0.000368 -0.001567 -0.001657 0.031821 0.000038 0.000660
# 5 -0.002795 0.000403 -0.000264 0.000038 0.021044 -0.003125
# 6 -0.006133 0.002784 -0.002328 0.000660 -0.003125 0.039243
#
#
# Mechanical properties :
#
#
# Convention : Reuss Voigt Hill
#
# Bulk Modulus (GPa) = 38.48715 42.02891 40.25803
# Shear Modulus (GPa) = 31.94812 35.96944 33.95878
#
# Velocity S-wave (km/s) = 3.77519 4.00574 3.89218
# Velocity P-wave (km/s) = 6.01431 6.33591 6.17720
#
# Compressibility (1/GPa) = 0.02598269
#
# Stress axis : x y z
#
# Youngs Moduli (GPa) = 67.69051 75.52982 77.84544
#
# Poissons Ratio (x) = 0.16200 0.34189
# Poissons Ratio (y) = 0.14519 0.07016
# Poissons Ratio (z) = 0.29729 0.06807
#
# Static dielectric constant tensor:
#      x y z
#    x 3.978790 0.196810 0.232480 
#    y 0.196810 4.040260 0.228930 
#    z 0.232480 0.228930 4.259180 
# 
# 
# High freq. dielectric constant tensor:
#      x y z
#    x 1.882600 0.013050 0.010590 
#    y 0.013050 1.882770 0.013020 
#    z 0.010590 0.013020 1.894590 
# 
# From -- ./inp_files/187705.got.cif
#   From: 2010.06.25/outbox.cif.g09.slc.cpg/sg2_94_cif.got.tgz:187705.got - 2010.06.27 13:26:56.
