data_PCOD8024757
_publ_section_title
;
Structure prediction by ZEFSAII (Michael W. Deem and Ramdas Pophale) SiO2 
 PCOD8024757
Probable space group: P -1
;
_chemical_formula_sum "Si O2"
_cell_formula_units_Z 14
_cell_length_a 11.293750
_cell_length_b 9.555712
_cell_length_c 7.675124
_cell_angle_alpha 124.576689
_cell_angle_beta 64.303922
_cell_angle_gamma 117.062942
_cell_volume 589.687112
_symmetry_space_group_name_H-M "P -1"
_symmetry_group_IT_number 2
_symmetry_cell_setting 'triclinic'
loop_
_space_group_symop_operation_xyz
x,y,z
-x,-y,-z
loop_
_atom_site_type_symbol
_atom_site_label
_atom_site_fract_x
_atom_site_fract_y
_atom_site_fract_z
Si Si1 0.421431 0.992644 0.730595
Si Si2 0.389245 0.335938 0.876093
Si Si3 0.874703 0.207263 0.669239
Si Si4 0.869306 0.576894 0.803759
Si Si5 0.141661 0.836936 0.953197
Si Si6 0.650157 0.867903 0.579144
Si Si7 0.851828 0.797400 0.660027
O O1 0.388101 0.180413 0.905979
O O2 0.500000 0.000000 0.500000
O O3 0.529201 0.954684 0.776224
O O4 0.275672 0.847443 0.756199
O O5 0.419832 0.282288 0.623745
O O6 0.500000 0.500000 0.000000
O O7 0.243523 0.373858 0.970688
O O8 0.856777 0.370192 0.682140
O O9 0.837758 0.227601 0.909362
O O10 0.028777 0.191516 0.549081
O O11 0.772720 0.026712 0.528713
O O12 0.836271 0.620559 0.657669
O O13 0.019981 0.692156 0.838065
O O14 0.108858 0.026720 0.120000
O O15 0.708205 0.782907 0.644481
#
# Coordination Sequence:
#
# PCOD8024757 Si02
#       7
#     2   2   2   2   2   2   2
#     4  10  23  43  72 101 135 185 237 284 351 410
#     4  11  23  45  72 101 137 182 233 292 351 410
#     4  11  24  42  69 106 146 181 227 291 350 414
#     4  12  24  42  71 106 144 180 236 287 344 413
#     4  11  23  44  73 102 141 188 235 285 346 409
#     4  10  23  45  71  93 145 178 232 284 353 415
#     4  11  23  42  69 105 138 185 228 284 351 411
#
# _framework density 23.741403999999999
#
# number of rings (size 3 to 8) (size 9 to 14) (size 15 to 20)
#    0.000    1.143    1.429    5.571    4.000    2.286 
#    7.714    0.714    0.000    0.000    0.000    0.000 
#    0.000    0.000    0.000    0.000    0.000    0.000 
#
# Total GULP energy -173504.548393 kJ/mol
# GULP energy per Si atom -12393.182028 kJ/mol
# Density = 2.368737 g / cm^3
# Si number density = 23.741404 Si / 1000 Ang^3
#
#
#
# Elastic Constant Matrix: (Units=GPa)
#
#
# Indices 1 2 3 4 5 6 
#
# 1 149.5040 67.2946 37.1888 4.6361 -8.0492 -3.1537
# 2 67.2946 133.6197 34.9128 -2.5845 12.0774 -13.6252
# 3 37.1888 34.9128 71.9959 -9.4305 0.4431 -0.2257
# 4 4.6361 -2.5845 -9.4305 36.6430 8.6811 -4.0101
# 5 -8.0492 12.0774 0.4431 8.6811 44.3752 0.3051
# 6 -3.1537 -13.6252 -0.2257 -4.0101 0.3051 41.5353
#
#
#
# Elastic Compliance Matrix: (Units=1/GPa)
#
#
# Indices 1 2 3 4 5 6 
#
# 1 0.009892 -0.004634 -0.003342 -0.003458 0.003773 -0.001149
# 2 -0.004634 0.011346 -0.002798 0.002086 -0.004333 0.003588
# 3 -0.003342 -0.002798 0.017623 0.004928 -0.000981 -0.000593
# 4 -0.003458 0.002086 0.004928 0.031279 -0.007388 0.003523
# 5 0.003773 -0.004333 -0.000981 -0.007388 0.025868 -0.002044
# 6 -0.001149 0.003588 -0.000593 0.003523 -0.002044 0.025518
#
#
# Mechanical properties :
#
#
# Convention : Reuss Voigt Hill
#
# Bulk Modulus (GPa) = 57.75790 70.43465 64.09628
# Shear Modulus (GPa) = 33.59209 38.89226 36.24218
#
# Velocity S-wave (km/s) = 3.76562 4.05181 3.91133
# Velocity P-wave (km/s) = 6.57930 7.18480 6.88871
#
# Compressibility (1/GPa) = 0.01731365
#
# Stress axis : x y z
#
# Youngs Moduli (GPa) = 101.09107 88.13321 56.74534
#
# Poissons Ratio (x) = 0.40838 0.18967
# Poissons Ratio (y) = 0.46842 0.15875
# Poissons Ratio (z) = 0.33789 0.24656
#
# Static dielectric constant tensor:
#      x y z
#    x 4.730620 -0.197800 -0.394730 
#    y -0.197800 4.267500 -0.096860 
#    z -0.394730 -0.096860 4.135080 
# 
# 
# High freq. dielectric constant tensor:
#      x y z
#    x 1.956460 -0.008810 -0.019560 
#    y -0.008810 1.934040 -0.007230 
#    z -0.019560 -0.007230 1.928330 
# 
# From -- ./inp_files/199652.got.cif
#   From: 2010.06.25/outbox.cif.g09.slc.cpg/sg2_100_cif.got.tgz:199652.got - 2010.06.27 13:26:56.
