data_PCOD8024821
_publ_section_title
;
Structure prediction by ZEFSAII (Michael W. Deem and Ramdas Pophale) SiO2 
 PCOD8024821
Probable space group: P -1
;
_chemical_formula_sum "Si O2"
_cell_formula_units_Z 16
_cell_length_a 12.528966
_cell_length_b 12.975437
_cell_length_c 5.247854
_cell_angle_alpha 103.239069
_cell_angle_beta 83.234042
_cell_angle_gamma 128.875926
_cell_volume 646.143202
_symmetry_space_group_name_H-M "P -1"
_symmetry_group_IT_number 2
_symmetry_cell_setting 'triclinic'
loop_
_space_group_symop_operation_xyz
x,y,z
-x,-y,-z
loop_
_atom_site_type_symbol
_atom_site_label
_atom_site_fract_x
_atom_site_fract_y
_atom_site_fract_z
Si Si1 0.444301 0.165126 0.075274
Si Si2 0.023448 0.686139 0.028071
Si Si3 0.593897 0.184991 0.542608
Si Si4 0.883452 0.414071 0.683656
Si Si5 0.090330 0.995377 0.670087
Si Si6 0.241072 0.905344 0.712119
Si Si7 0.859198 0.773834 0.976538
Si Si8 0.569292 0.590574 0.782565
O O1 0.489774 0.157047 0.338676
O O2 0.442135 0.290235 0.146392
O O3 0.544783 0.180804 0.838543
O O4 0.296349 0.021269 0.979556
O O5 0.126021 0.760494 0.797029
O O6 0.911130 0.523312 0.941024
O O7 0.924556 0.726772 0.125073
O O8 0.112596 0.703503 0.259086
O O9 0.735325 0.336898 0.552875
O O10 0.632036 0.082893 0.437867
O O11 0.000000 0.500000 0.500000
O O12 0.179270 0.946963 0.532089
O O13 0.991165 0.887020 0.846190
O O14 0.000000 0.000000 0.500000
O O15 0.193111 0.151827 0.824264
O O16 0.730210 0.653526 0.779641
O O17 0.500000 0.500000 0.500000
O O18 0.500000 0.500000 0.000000
#
# Coordination Sequence:
#
# PCOD8024821 Si02
#       8
#     2   2   2   2   2   2   2   2
#     4  12  28  50  75 107 148 194 250 306 357 450
#     4  10  24  43  72 102 145 187 237 303 368 433
#     4  12  27  46  75 109 145 198 244 300 373 430
#     4  11  24  44  68 105 144 187 239 299 356 441
#     4  10  23  43  74 108 144 186 238 311 375 441
#     4  11  23  49  71 109 146 190 248 301 375 434
#     4  10  24  45  70 108 140 191 245 303 375 438
#     4  12  29  51  75 107 148 201 249 306 370 443
#
# _framework density 24.762315000000001
#
# number of rings (size 3 to 8) (size 9 to 14) (size 15 to 20)
#    0.000    1.000    2.500    2.250    8.750    2.000 
#    2.250    0.000    0.000    0.000    0.000    0.000 
#    0.000    0.000    0.000    0.000    0.000    0.000 
#
# Total GULP energy -198257.884023 kJ/mol
# GULP energy per Si atom -12391.117751 kJ/mol
# Density = 2.470595 g / cm^3
# Si number density = 24.762315 Si / 1000 Ang^3
#
#
#
# Elastic Constant Matrix: (Units=GPa)
#
#
# Indices 1 2 3 4 5 6 
#
# 1 136.5057 52.2647 23.9159 -1.5247 15.1735 -27.5226
# 2 52.2647 111.7756 23.2034 18.5208 7.9694 -25.3092
# 3 23.9159 23.2034 75.3315 -4.4253 9.7537 -9.1801
# 4 -1.5247 18.5208 -4.4253 34.3416 -5.2269 12.1859
# 5 15.1735 7.9694 9.7537 -5.2269 44.6532 6.1643
# 6 -27.5226 -25.3092 -9.1801 12.1859 6.1643 51.2310
#
#
#
# Elastic Compliance Matrix: (Units=1/GPa)
#
#
# Indices 1 2 3 4 5 6 
#
# 1 0.009922 -0.003383 -0.001252 0.000335 -0.002968 0.003713
# 2 -0.003383 0.015419 -0.002879 -0.012472 -0.003633 0.008688
# 3 -0.001252 -0.002879 0.015010 0.003093 -0.001991 0.000099
# 4 0.000335 -0.012472 0.003093 0.043593 0.008867 -0.016864
# 5 -0.002968 -0.003633 -0.001991 0.008867 0.026778 -0.009077
# 6 0.003713 0.008688 0.000099 -0.016864 -0.009077 0.030927
#
#
# Mechanical properties :
#
#
# Convention : Reuss Voigt Hill
#
# Bulk Modulus (GPa) = 39.48770 58.04231 48.76501
# Shear Modulus (GPa) = 30.28151 40.99373 35.63762
#
# Velocity S-wave (km/s) = 3.50077 4.07318 3.79778
# Velocity P-wave (km/s) = 5.68523 6.75365 6.24234
#
# Compressibility (1/GPa) = 0.02532434
#
# Stress axis : x y z
#
# Youngs Moduli (GPa) = 100.78177 64.85635 66.62058
#
# Poissons Ratio (x) = 0.21941 0.08339
# Poissons Ratio (y) = 0.34094 0.19179
# Poissons Ratio (z) = 0.12616 0.18671
#
# Static dielectric constant tensor:
#      x y z
#    x 4.618180 -0.135870 0.083600 
#    y -0.135870 5.464210 0.916470 
#    z 0.083600 0.916470 3.973940 
# 
# 
# High freq. dielectric constant tensor:
#      x y z
#    x 1.997000 -0.007260 0.015190 
#    y -0.007260 2.009870 0.020270 
#    z 0.015190 0.020270 1.974100 
# 
# From -- ./inp_files/71298.got.cif
#   From: 2010.06.25/outbox.cif.g09.slc.cpg/sg2_36_cif.got.tgz:71298.got - 2010.06.27 13:26:56.
