data_PCOD8024723
_publ_section_title
;
Structure prediction by ZEFSAII (Michael W. Deem and Ramdas Pophale) SiO2 
 PCOD8024723
Probable space group: P -1
;
_chemical_formula_sum "Si O2"
_cell_formula_units_Z 10
_cell_length_a 11.488716
_cell_length_b 11.184002
_cell_length_c 10.968727
_cell_angle_alpha 38.481649
_cell_angle_beta 24.284871
_cell_angle_gamma 38.413000
_cell_volume 346.926812
_symmetry_space_group_name_H-M "P -1"
_symmetry_group_IT_number 2
_symmetry_cell_setting 'triclinic'
loop_
_space_group_symop_operation_xyz
x,y,z
-x,-y,-z
loop_
_atom_site_type_symbol
_atom_site_label
_atom_site_fract_x
_atom_site_fract_y
_atom_site_fract_z
Si Si1 0.454503 0.028332 0.276129
Si Si2 0.357385 0.342341 0.899757
Si Si3 0.566632 0.686168 0.720081
Si Si4 0.893318 0.186997 0.368900
Si Si5 0.018788 0.721120 0.071304
O O1 0.440883 0.177574 0.057751
O O2 0.347854 0.159284 0.393664
O O3 0.242456 0.881831 0.571424
O O4 0.793749 0.903719 0.070164
O O5 0.174386 0.274623 0.018665
O O6 0.184285 0.559815 0.940436
O O7 0.653556 0.355225 0.539770
O O8 0.841192 0.617026 0.419437
O O9 0.500000 0.500000 0.000000
O O10 0.270253 0.797291 0.840638
O O11 0.000000 0.000000 0.500000
#
# Coordination Sequence:
#
# PCOD8024723 Si02
#       5
#     2   2   2   2   2
#     4  11  25  44  73  99 141 179 231 283 336 404
#     4  11  24  44  70 101 141 178 226 279 343 403
#     4  12  26  47  72  98 140 183 227 285 346 404
#     4  10  23  43  71 102 136 184 225 274 344 407
#     4  12  27  45  70 106 134 181 233 280 342 408
#
# _framework density 28.824524
#
# number of rings (size 3 to 8) (size 9 to 14) (size 15 to 20)
#    0.000    0.800    2.000    5.400    0.000    9.600 
#    0.000    0.000    0.000    0.000    0.000    0.000 
#    0.000    0.000    0.000    0.000    0.000    0.000 
#
# Total GULP energy -123993.631704 kJ/mol
# GULP energy per Si atom -12399.363170 kJ/mol
# Density = 2.875892 g / cm^3
# Si number density = 28.824524 Si / 1000 Ang^3
#
#
#
# Elastic Constant Matrix: (Units=GPa)
#
#
# Indices 1 2 3 4 5 6 
#
# 1 191.4639 47.2002 26.9148 2.1200 -19.4509 12.1712
# 2 47.2002 143.8220 -2.6015 8.1561 -6.6019 -1.4603
# 3 26.9148 -2.6015 103.9992 27.4222 -16.9972 16.9551
# 4 2.1200 8.1561 27.4222 51.2002 6.7235 3.4197
# 5 -19.4509 -6.6019 -16.9972 6.7235 49.6882 0.5764
# 6 12.1712 -1.4603 16.9551 3.4197 0.5764 40.2908
#
#
#
# Elastic Compliance Matrix: (Units=1/GPa)
#
#
# Indices 1 2 3 4 5 6 
#
# 1 0.006156 -0.002022 -0.001314 0.000656 0.001620 -0.001459
# 2 -0.002022 0.007806 0.001334 -0.002034 0.000971 0.000491
# 3 -0.001314 0.001334 0.013751 -0.007927 0.005494 -0.004747
# 4 0.000656 -0.002034 -0.007927 0.024804 -0.006094 0.001046
# 5 0.001620 0.000971 0.005494 -0.006094 0.023623 -0.002587
# 6 -0.001459 0.000491 -0.004747 0.001046 -0.002587 0.027224
#
#
# Mechanical properties :
#
#
# Convention : Reuss Voigt Hill
#
# Bulk Modulus (GPa) = 42.17925 64.70133 53.44029
# Shear Modulus (GPa) = 43.37599 52.75395 48.06497
#
# Velocity S-wave (km/s) = 3.88342 4.28270 4.08794
# Velocity P-wave (km/s) = 5.89685 6.85206 6.39232
#
# Compressibility (1/GPa) = 0.02370834
#
# Stress axis : x y z
#
# Youngs Moduli (GPa) = 162.44085 128.11302 72.72144
#
# Poissons Ratio (x) = 0.25901 0.09556
# Poissons Ratio (y) = 0.32841 -0.09698
# Poissons Ratio (z) = 0.21346 -0.17085
#
# Static dielectric constant tensor:
#      x y z
#    x 6.252600 -0.032500 0.005110 
#    y -0.032500 5.685380 -0.160930 
#    z 0.005110 -0.160930 4.981360 
# 
# 
# High freq. dielectric constant tensor:
#      x y z
#    x 2.210730 -0.016850 0.007230 
#    y -0.016850 2.179870 0.000510 
#    z 0.007230 0.000510 2.196210 
# 
# From -- ./inp_files/230047.got.cif
#   From: 2010.06.25/outbox.cif.g09.slc.cpg/sg2_116_cif.got.tgz:230047.got - 2010.06.27 13:26:56.
