data_PCOD8024038
_publ_section_title
;
Structure prediction by ZEFSAII (Michael W. Deem and Ramdas Pophale) SiO2 
 PCOD8024038
Probable space group: P -1
;
_chemical_formula_sum "Si O2"
_cell_formula_units_Z 16
_cell_length_a 11.824929
_cell_length_b 15.389016
_cell_length_c 9.535452
_cell_angle_alpha 47.910607
_cell_angle_beta 111.601232
_cell_angle_gamma 72.996728
_cell_volume 747.042508
_symmetry_space_group_name_H-M "P -1"
_symmetry_group_IT_number 2
_symmetry_cell_setting 'triclinic'
loop_
_space_group_symop_operation_xyz
x,y,z
-x,-y,-z
loop_
_atom_site_type_symbol
_atom_site_label
_atom_site_fract_x
_atom_site_fract_y
_atom_site_fract_z
Si Si1 0.407971 0.256409 0.111930
Si Si2 0.306711 0.067972 0.615608
Si Si3 0.121401 0.676662 0.423942
Si Si4 0.934110 0.639737 0.204347
Si Si5 0.725377 0.315777 0.775030
Si Si6 0.213912 0.988326 0.918169
Si Si7 0.541144 0.788024 0.499025
Si Si8 0.888812 0.400793 0.929911
O O1 0.495434 0.209733 0.356111
O O2 0.582473 0.108161 0.242658
O O3 0.273974 0.465605 0.777250
O O4 0.281695 0.230213 0.088163
O O5 0.420127 0.105185 0.631320
O O6 0.299491 0.022437 0.817782
O O7 0.087265 0.246727 0.272036
O O8 0.233920 0.684381 0.369636
O O9 0.945301 0.755708 0.162273
O O10 0.011540 0.818638 0.350980
O O11 0.000000 0.500000 0.500000
O O12 0.084232 0.527478 0.263720
O O13 0.500000 0.500000 0.500000
O O14 0.840469 0.309625 0.944637
O O15 0.786698 0.136124 0.024823
O O16 0.352447 0.882486 0.231150
O O17 0.724248 0.571972 0.771298
#
# Coordination Sequence:
#
# PCOD8024038 Si02
#       8
#     2   2   2   2   2   2   2   2
#     4  11  23  42  64 100 138 173 211 272 333 395
#     4  12  26  41  67 102 138 172 219 267 337 392
#     4  10  23  42  69  95 129 175 225 269 326 387
#     4   9  20  35  66  93 134 171 213 261 337 384
#     4  11  23  47  70  94 133 173 224 272 330 387
#     4  12  26  43  69  99 132 178 223 270 322 394
#     4  12  25  41  68 101 139 169 221 271 330 392
#     4  11  24  42  68  95 133 178 215 276 327 390
#
# _framework density 21.417788999999999
#
# number of rings (size 3 to 8) (size 9 to 14) (size 15 to 20)
#    0.000    1.000    2.500    3.750   10.500    0.500 
#    0.000    0.625    0.000    0.000    0.000    0.000 
#    0.000    0.000    0.000    0.000    0.000    0.000 
#
# Total GULP energy -198415.775691 kJ/mol
# GULP energy per Si atom -12400.985981 kJ/mol
# Density = 2.136904 g / cm^3
# Si number density = 21.417789 Si / 1000 Ang^3
#
#
#
# Elastic Constant Matrix: (Units=GPa)
#
#
# Indices 1 2 3 4 5 6 
#
# 1 74.0471 24.4221 14.6842 -4.9089 -2.6003 -3.2181
# 2 24.4221 113.5832 37.3455 -18.7753 -0.9942 -15.2341
# 3 14.6842 37.3455 76.1053 -11.3050 0.9890 0.2887
# 4 -4.9089 -18.7753 -11.3050 48.5640 -1.4780 5.7637
# 5 -2.6003 -0.9942 0.9890 -1.4780 23.6116 -5.2391
# 6 -3.2181 -15.2341 0.2887 5.7637 -5.2391 39.4236
#
#
#
# Elastic Compliance Matrix: (Units=1/GPa)
#
#
# Indices 1 2 3 4 5 6 
#
# 1 0.014750 -0.002551 -0.001598 0.000132 0.001689 0.000435
# 2 -0.002551 0.012060 -0.005051 0.002767 0.001564 0.004292
# 3 -0.001598 -0.005051 0.016245 0.001939 -0.001545 -0.002690
# 4 0.000132 0.002767 0.001939 0.022403 0.000991 -0.002078
# 5 0.001689 0.001564 -0.001545 0.000991 0.044168 0.006478
# 6 0.000435 0.004292 -0.002690 -0.002078 0.006478 0.028244
#
#
# Mechanical properties :
#
#
# Convention : Reuss Voigt Hill
#
# Bulk Modulus (GPa) = 40.56052 46.29324 43.42688
# Shear Modulus (GPa) = 30.39698 34.80542 32.60120
#
# Velocity S-wave (km/s) = 3.77137 4.03559 3.90571
# Velocity P-wave (km/s) = 6.15980 6.58604 6.37648
#
# Compressibility (1/GPa) = 0.02465452
#
# Stress axis : x y z
#
# Youngs Moduli (GPa) = 67.79563 82.91661 61.55666
#
# Poissons Ratio (x) = 0.21152 0.09837
# Poissons Ratio (y) = 0.17295 0.31095
# Poissons Ratio (z) = 0.10834 0.41885
#
# Static dielectric constant tensor:
#      x y z
#    x 4.422110 0.327410 0.071420 
#    y 0.327410 4.483650 0.037010 
#    z 0.071420 0.037010 3.750840 
# 
# 
# High freq. dielectric constant tensor:
#      x y z
#    x 1.838960 -0.010740 0.001830 
#    y -0.010740 1.851320 -0.002840 
#    z 0.001830 -0.002840 1.836940 
# 
# From -- ./inp_files/184863.got.cif
#   From: 2010.06.25/outbox.cif.g09.slc.cpg/sg2_93_cif.got.tgz:184863.got - 2010.06.27 13:26:56.
