data_PCOD8024118
_publ_section_title
;
Structure prediction by ZEFSAII (Michael W. Deem and Ramdas Pophale) SiO2 
 PCOD8024118
Probable space group: P -1
;
_chemical_formula_sum "Si O2"
_cell_formula_units_Z 14
_cell_length_a 9.358254
_cell_length_b 8.141159
_cell_length_c 16.673755
_cell_angle_alpha 144.814468
_cell_angle_beta 120.818379
_cell_angle_gamma 72.591245
_cell_volume 610.020344
_symmetry_space_group_name_H-M "P -1"
_symmetry_group_IT_number 2
_symmetry_cell_setting 'triclinic'
loop_
_space_group_symop_operation_xyz
x,y,z
-x,-y,-z
loop_
_atom_site_type_symbol
_atom_site_label
_atom_site_fract_x
_atom_site_fract_y
_atom_site_fract_z
Si Si1 0.209475 0.380718 0.197927
Si Si2 0.134008 0.958170 0.454054
Si Si3 0.246913 0.752233 0.710702
Si Si4 0.651883 0.593650 0.022010
Si Si5 0.872964 0.138831 0.914779
Si Si6 0.110197 0.195824 0.369910
Si Si7 0.469077 0.465466 0.752656
O O1 0.141166 0.618486 0.325063
O O2 0.396041 0.545315 0.283954
O O3 0.225004 0.112620 0.152981
O O4 0.075667 0.243123 0.033459
O O5 0.068939 0.021747 0.372597
O O6 0.325767 0.163221 0.604380
O O7 0.000000 0.000000 0.500000
O O8 0.259225 0.493736 0.547101
O O9 0.373925 0.726833 0.810266
O O10 0.053206 0.693046 0.665502
O O11 0.281168 0.064305 0.803040
O O12 0.797487 0.423606 0.014403
O O13 0.587161 0.547463 0.895444
O O14 0.500000 0.500000 0.000000
O O15 0.837926 0.016463 0.765478
#
# Coordination Sequence:
#
# PCOD8024118 Si02
#       7
#     2   2   2   2   2   2   2
#     4  11  25  46  71 103 144 187 236 288 353 417
#     4  11  26  45  74 103 142 184 236 294 356 418
#     4  10  23  42  70  99 141 176 236 280 353 403
#     4  12  26  42  68 104 142 185 235 288 347 420
#     4  11  26  45  74 103 145 187 238 284 353 423
#     4  10  23  44  73 103 135 188 235 286 349 418
#     4  11  25  45  68 103 145 185 231 297 352 413
#
# _framework density 22.950054999999999
#
# number of rings (size 3 to 8) (size 9 to 14) (size 15 to 20)
#    0.000    1.143    0.000    4.286   10.000    4.000 
#    0.000    4.286    0.000    0.000    0.000    0.000 
#    0.000    0.000    0.000    0.000    0.000    0.000 
#
# Total GULP energy -173568.660029 kJ/mol
# GULP energy per Si atom -12397.761431 kJ/mol
# Density = 2.289782 g / cm^3
# Si number density = 22.950055 Si / 1000 Ang^3
#
#
#
# Elastic Constant Matrix: (Units=GPa)
#
#
# Indices 1 2 3 4 5 6 
#
# 1 113.4267 43.2494 41.9659 -1.3275 7.0184 12.1747
# 2 43.2494 137.6594 48.8197 16.7434 -4.3226 -4.8864
# 3 41.9659 48.8197 111.9701 29.4791 5.7412 14.5171
# 4 -1.3275 16.7434 29.4791 42.5998 -2.7543 -1.1798
# 5 7.0184 -4.3226 5.7412 -2.7543 38.3077 -0.1066
# 6 12.1747 -4.8864 14.5171 -1.1798 -0.1066 34.1733
#
#
#
# Elastic Compliance Matrix: (Units=1/GPa)
#
#
# Indices 1 2 3 4 5 6 
#
# 1 0.011794 -0.003043 -0.003650 0.003899 -0.001685 -0.002957
# 2 -0.003043 0.009787 -0.003377 -0.001362 0.002081 0.003878
# 3 -0.003650 -0.003377 0.015233 -0.009669 -0.002707 -0.005996
# 4 0.003899 -0.001362 -0.009669 0.031105 0.002828 0.003606
# 5 -0.001685 0.002081 -0.002707 0.002828 0.027263 0.002231
# 6 -0.002957 0.003878 -0.005996 0.003606 0.002231 0.033549
#
#
# Mechanical properties :
#
#
# Convention : Reuss Voigt Hill
#
# Bulk Modulus (GPa) = 59.97681 70.12513 65.05097
# Shear Modulus (GPa) = 32.37685 38.28424 35.33054
#
# Velocity S-wave (km/s) = 3.76007 4.08874 3.92784
# Velocity P-wave (km/s) = 6.71128 7.27408 6.99834
#
# Compressibility (1/GPa) = 0.01667311
#
# Stress axis : x y z
#
# Youngs Moduli (GPa) = 84.78567 102.17842 65.64481
#
# Poissons Ratio (x) = 0.31093 0.23963
# Poissons Ratio (y) = 0.25801 0.22171
# Poissons Ratio (z) = 0.30950 0.34509
#
# Static dielectric constant tensor:
#      x y z
#    x 3.915280 -0.164640 0.115010 
#    y -0.164640 4.229540 0.138980 
#    z 0.115010 0.138980 4.166170 
# 
# 
# High freq. dielectric constant tensor:
#      x y z
#    x 1.893710 -0.011020 0.008540 
#    y -0.011020 1.916530 0.006910 
#    z 0.008540 0.006910 1.919620 
# 
# From -- ./inp_files/557061.got.cif
#   From: 2010.06.25/outbox.cif.g09.slc.cpg/sg2_279_cif.got.tgz:557061.got - 2010.06.27 13:26:56.
