data_PCOD8024413
_publ_section_title
;
Structure prediction by ZEFSAII (Michael W. Deem and Ramdas Pophale) SiO2 
 PCOD8024413
Probable space group: P -1
;
_chemical_formula_sum "Si O2"
_cell_formula_units_Z 16
_cell_length_a 10.219830
_cell_length_b 8.647758
_cell_length_c 14.061029
_cell_angle_alpha 140.255376
_cell_angle_beta 69.963358
_cell_angle_gamma 115.593986
_cell_volume 716.457876
_symmetry_space_group_name_H-M "P -1"
_symmetry_group_IT_number 2
_symmetry_cell_setting 'triclinic'
loop_
_space_group_symop_operation_xyz
x,y,z
-x,-y,-z
loop_
_atom_site_type_symbol
_atom_site_label
_atom_site_fract_x
_atom_site_fract_y
_atom_site_fract_z
Si Si1 0.816180 0.580988 0.752891
Si Si2 0.498454 0.225504 0.672961
Si Si3 0.782420 0.240034 0.936912
Si Si4 0.925693 0.580049 0.339310
Si Si5 0.183448 0.257977 0.747183
Si Si6 0.062234 0.163307 0.347514
Si Si7 0.510376 0.220059 0.876789
Si Si8 0.245983 0.950845 0.940039
O O1 0.643973 0.452916 0.727843
O O2 0.889643 0.644217 0.660253
O O3 0.901142 0.398999 0.695072
O O4 0.839185 0.835473 0.929421
O O5 0.358494 0.325182 0.733351
O O6 0.489850 0.104306 0.722167
O O7 0.500000 0.000000 0.500000
O O8 0.665014 0.221269 0.876729
O O9 0.884094 0.085793 0.794429
O O10 0.861405 0.535888 0.077343
O O11 0.715711 0.123316 0.999052
O O12 0.881868 0.738510 0.340738
O O13 0.879467 0.683700 0.498590
O O14 0.848096 0.283332 0.207536
O O15 0.112706 0.971968 0.668490
O O16 0.395088 0.054084 0.897703
O O17 0.500000 0.500000 0.000000
#
# Coordination Sequence:
#
# PCOD8024413 Si02
#       8
#     2   2   2   2   2   2   2   2
#     4  11  24  46  67  98 136 175 223 274 328 400
#     4  12  28  44  69 100 138 173 223 277 332 393
#     4  10  23  43  67 100 132 174 222 277 327 397
#     4  11  25  41  70  98 136 173 222 277 336 387
#     4  11  24  46  67  98 136 175 223 274 328 400
#     4  11  25  41  70  98 136 173 222 277 336 387
#     4  12  23  42  72  95 133 178 226 269 332 395
#     4  10  23  43  67 100 132 174 222 277 327 397
#
# _framework density 22.332089
#
# number of rings (size 3 to 8) (size 9 to 14) (size 15 to 20)
#    0.000    1.000    2.500    2.625    7.000    3.000 
#    0.000    1.250    0.000    0.000    0.000    0.000 
#    0.000    0.000    0.000    0.000    0.000    0.000 
#
# Total GULP energy -198376.491480 kJ/mol
# GULP energy per Si atom -12398.530718 kJ/mol
# Density = 2.228126 g / cm^3
# Si number density = 22.332089 Si / 1000 Ang^3
#
#
#
# Elastic Constant Matrix: (Units=GPa)
#
#
# Indices 1 2 3 4 5 6 
#
# 1 131.9421 44.9365 26.8400 -3.0226 6.4068 -7.2498
# 2 44.9365 93.9053 27.8679 -1.5577 11.4885 9.5299
# 3 26.8400 27.8679 149.0983 -8.4456 21.2891 -5.9240
# 4 -3.0226 -1.5577 -8.4456 30.5476 -6.9993 6.7385
# 5 6.4068 11.4885 21.2891 -6.9993 25.1700 2.7614
# 6 -7.2498 9.5299 -5.9240 6.7385 2.7614 33.5066
#
#
#
# Elastic Compliance Matrix: (Units=1/GPa)
#
#
# Indices 1 2 3 4 5 6 
#
# 1 0.009491 -0.004658 -0.000702 -0.000254 -0.000130 0.003316
# 2 -0.004658 0.014271 -0.001532 0.000182 -0.003423 -0.005092
# 3 -0.000702 -0.001532 0.008096 0.000199 -0.006154 0.002182
# 4 -0.000254 0.000182 0.000199 0.037181 0.011080 -0.008462
# 5 -0.000130 -0.003423 -0.006154 0.011080 0.050327 -0.006519
# 6 0.003316 -0.005092 0.002182 -0.008462 -0.006519 0.034636
#
#
# Mechanical properties :
#
#
# Convention : Reuss Voigt Hill
#
# Bulk Modulus (GPa) = 55.32704 63.80384 59.56544
# Shear Modulus (GPa) = 28.76683 36.19827 32.48255
#
# Velocity S-wave (km/s) = 3.59296 4.03042 3.81796
# Velocity P-wave (km/s) = 6.48390 7.09165 6.79457
#
# Compressibility (1/GPa) = 0.01807435
#
# Stress axis : x y z
#
# Youngs Moduli (GPa) = 105.36201 70.07002 123.51138
#
# Poissons Ratio (x) = 0.32641 0.08669
# Poissons Ratio (y) = 0.49080 0.18924
# Poissons Ratio (z) = 0.07395 0.10736
#
# Static dielectric constant tensor:
#      x y z
#    x 3.962150 0.409430 0.010990 
#    y 0.409430 3.703120 0.075020 
#    z 0.010990 0.075020 4.337860 
# 
# 
# High freq. dielectric constant tensor:
#      x y z
#    x 1.877910 0.000760 0.004260 
#    y 0.000760 1.878310 -0.002640 
#    z 0.004260 -0.002640 1.899450 
# 
# From -- ./inp_files/313794.got.cif
#   From: 2010.06.25/outbox.cif.g09.slc.cpg/sg2_157_cif.got.tgz:313794.got - 2010.06.27 13:26:56.
