data_PCOD8024963
_publ_section_title
;
Structure prediction by ZEFSAII (Michael W. Deem and Ramdas Pophale) SiO2 
 PCOD8024963
Probable space group: P -1
;
_chemical_formula_sum "Si O2"
_cell_formula_units_Z 14
_cell_length_a 26.316893
_cell_length_b 15.104861
_cell_length_c 15.178112
_cell_angle_alpha 160.537334
_cell_angle_beta 18.789692
_cell_angle_gamma 159.086014
_cell_volume 597.126556
_symmetry_space_group_name_H-M "P -1"
_symmetry_group_IT_number 2
_symmetry_cell_setting 'triclinic'
loop_
_space_group_symop_operation_xyz
x,y,z
-x,-y,-z
loop_
_atom_site_type_symbol
_atom_site_label
_atom_site_fract_x
_atom_site_fract_y
_atom_site_fract_z
Si Si1 0.505601 0.283602 0.712548
Si Si2 0.192595 0.745742 0.910518
Si Si3 0.148604 0.044082 0.100463
Si Si4 0.035552 0.525178 0.220816
Si Si5 0.538584 0.516530 0.348475
Si Si6 0.931422 0.677568 0.841026
Si Si7 0.634794 0.083177 0.026141
O O1 0.670062 0.391337 0.478721
O O2 0.500000 0.000000 0.500000
O O3 0.500000 0.500000 0.000000
O O4 0.312403 0.177460 0.889479
O O5 0.262123 0.889990 0.026609
O O6 0.000000 0.500000 0.000000
O O7 0.200900 0.019846 0.094138
O O8 0.042028 0.236953 0.442762
O O9 0.034570 0.709212 0.959597
O O10 0.987976 0.343865 0.217726
O O11 0.238830 0.690445 0.038017
O O12 0.500000 0.500000 0.500000
O O13 0.518231 0.799984 0.605969
O O14 0.728802 0.542655 0.046275
O O15 0.420583 0.233974 0.221897
O O16 0.000000 0.500000 0.500000
O O17 0.000000 0.000000 0.000000
#
# Coordination Sequence:
#
# PCOD8024963 Si02
#       7
#     2   2   2   2   2   2   2
#     4  10  23  44  66  98 146 204 244 296 373 427
#     4  11  25  47  73 115 151 199 260 311 358 447
#     4  11  24  44  73 103 157 196 239 302 370 445
#     4  12  25  45  76 110 144 200 245 300 387 445
#     4  12  27  51  78 105 153 199 247 317 386 450
#     4  12  28  49  78 113 145 187 252 321 377 447
#     4  12  27  44  79 114 148 200 259 305 379 452
#
# _framework density 23.445616999999999
#
# number of rings (size 3 to 8) (size 9 to 14) (size 15 to 20)
#    0.000    0.571    2.857    4.714    2.000    7.429 
#    0.000    0.000    0.000    0.000    0.000    0.000 
#    0.000    0.000    0.000    0.000    0.000    0.000 
#
# Total GULP energy -173439.527207 kJ/mol
# GULP energy per Si atom -12388.537658 kJ/mol
# Density = 2.339225 g / cm^3
# Si number density = 23.445617 Si / 1000 Ang^3
#
#
#
# Elastic Constant Matrix: (Units=GPa)
#
#
# Indices 1 2 3 4 5 6 
#
# 1 151.9255 42.8460 55.8227 17.4272 -1.5762 -6.2491
# 2 42.8460 128.6066 65.9469 -4.7900 11.7993 10.6975
# 3 55.8227 65.9469 166.3919 12.3637 -0.0753 2.0739
# 4 17.4272 -4.7900 12.3637 65.5271 -1.9603 -3.0741
# 5 -1.5762 11.7993 -0.0753 -1.9603 42.7653 8.5287
# 6 -6.2491 10.6975 2.0739 -3.0741 8.5287 43.8748
#
#
#
# Elastic Compliance Matrix: (Units=1/GPa)
#
#
# Indices 1 2 3 4 5 6 
#
# 1 0.008092 -0.002012 -0.001796 -0.001876 0.000464 0.001506
# 2 -0.002012 0.010842 -0.003735 0.001856 -0.002563 -0.002125
# 3 -0.001796 -0.003735 0.008191 -0.001313 0.000919 -0.000003
# 4 -0.001876 0.001856 -0.001313 0.016167 0.000065 0.000462
# 5 0.000464 -0.002563 0.000919 0.000065 0.024950 -0.004198
# 6 0.001506 -0.002125 -0.000003 0.000462 -0.004198 0.024373
#
#
# Mechanical properties :
#
#
# Convention : Reuss Voigt Hill
#
# Bulk Modulus (GPa) = 83.06993 86.23945 84.65469
# Shear Modulus (GPa) = 44.75733 49.25400 47.00567
#
# Velocity S-wave (km/s) = 4.37393 4.58840 4.48245
# Velocity P-wave (km/s) = 7.81129 8.05815 7.93568
#
# Compressibility (1/GPa) = 0.01203805
#
# Stress axis : x y z
#
# Youngs Moduli (GPa) = 123.58413 92.23220 122.08938
#
# Poissons Ratio (x) = 0.18561 0.21931
# Poissons Ratio (y) = 0.24870 0.45595
# Poissons Ratio (z) = 0.22199 0.34445
#
# Static dielectric constant tensor:
#      x y z
#    x 4.284740 0.020830 -0.009110 
#    y 0.020830 4.745340 -0.579660 
#    z -0.009110 -0.579660 5.110430 
# 
# 
# High freq. dielectric constant tensor:
#      x y z
#    x 1.925840 0.007930 -0.009990 
#    y 0.007930 1.939580 -0.004050 
#    z -0.009990 -0.004050 1.947840 
# 
# From -- ./inp_files/544238.got.cif
#   From: 2010.06.25/outbox.cif.g09.slc.cpg/sg2_273_cif.got.tgz:544238.got - 2010.06.27 13:26:56.
