data_PCOD8024937
_publ_section_title
;
Structure prediction by ZEFSAII (Michael W. Deem and Ramdas Pophale) SiO2 
 PCOD8024937
Probable space group: P -1
;
_chemical_formula_sum "Si O2"
_cell_formula_units_Z 16
_cell_length_a 8.785384
_cell_length_b 11.611579
_cell_length_c 11.396089
_cell_angle_alpha 86.447100
_cell_angle_beta 50.943908
_cell_angle_gamma 116.480714
_cell_volume 702.844477
_symmetry_space_group_name_H-M "P -1"
_symmetry_group_IT_number 2
_symmetry_cell_setting 'triclinic'
loop_
_space_group_symop_operation_xyz
x,y,z
-x,-y,-z
loop_
_atom_site_type_symbol
_atom_site_label
_atom_site_fract_x
_atom_site_fract_y
_atom_site_fract_z
Si Si1 0.915247 0.583440 0.467277
Si Si2 0.757899 0.825834 0.828257
Si Si3 0.468819 0.384555 0.247029
Si Si4 0.857645 0.905294 0.258455
Si Si5 0.853135 0.098739 0.066654
Si Si6 0.670506 0.367435 0.394249
Si Si7 0.437779 0.873758 0.125283
Si Si8 0.065234 0.336446 0.123575
O O1 0.745044 0.598163 0.633560
O O2 0.747174 0.493992 0.440701
O O3 0.000000 0.500000 0.500000
O O4 0.146899 0.747256 0.301885
O O5 0.646818 0.769662 0.754633
O O6 0.860475 0.739153 0.822038
O O7 0.546261 0.794527 0.023990
O O8 0.984336 0.005493 0.705483
O O9 0.592395 0.393888 0.308251
O O10 0.680490 0.512621 0.052307
O O11 0.564843 0.790300 0.430829
O O12 0.942244 0.040224 0.123761
O O13 0.967212 0.833596 0.141489
O O14 0.890185 0.235525 0.103203
O O15 0.569216 0.960812 0.178075
O O16 0.905457 0.369048 0.272284
O O17 0.500000 0.000000 0.000000
#
# Coordination Sequence:
#
# PCOD8024937 Si02
#       8
#     2   2   2   2   2   2   2   2
#     4  12  26  46  69  95 130 177 223 267 327 405
#     4  10  23  44  66  93 133 175 216 264 326 395
#     4  12  26  41  67  97 135 168 218 276 329 377
#     4   9  20  41  64  94 126 171 215 262 319 390
#     4   9  20  39  67  90 128 169 215 262 323 389
#     4  12  26  40  68  97 134 166 221 274 326 382
#     4  11  25  40  70  98 133 168 220 276 329 384
#     4  11  23  42  68  94 132 178 217 264 322 397
#
# _framework density 22.764638999999999
#
# number of rings (size 3 to 8) (size 9 to 14) (size 15 to 20)
#    0.000    1.250    0.000    5.625    7.000    3.500 
#    0.000    0.000    0.000    0.000    0.000    0.000 
#    0.000    0.000    0.000    0.000    0.000    0.000 
#
# Total GULP energy -198354.978143 kJ/mol
# GULP energy per Si atom -12397.186134 kJ/mol
# Density = 2.271283 g / cm^3
# Si number density = 22.764639 Si / 1000 Ang^3
#
#
#
# Elastic Constant Matrix: (Units=GPa)
#
#
# Indices 1 2 3 4 5 6 
#
# 1 60.2547 5.8362 7.1342 -7.6867 0.8405 14.5194
# 2 5.8362 108.6260 37.6265 0.4628 -8.2290 38.1181
# 3 7.1342 37.6265 142.1019 -19.8206 -29.5924 5.7894
# 4 -7.6867 0.4628 -19.8206 32.7894 2.3602 0.3798
# 5 0.8405 -8.2290 -29.5924 2.3602 36.4066 0.6528
# 6 14.5194 38.1181 5.7894 0.3798 0.6528 49.8917
#
#
#
# Elastic Compliance Matrix: (Units=1/GPa)
#
#
# Indices 1 2 3 4 5 6 
#
# 1 0.018620 0.001402 -0.000635 0.004092 -0.000779 -0.006437
# 2 0.001402 0.014219 -0.003530 -0.001926 0.000632 -0.010855
# 3 -0.000635 -0.003530 0.010194 0.005532 0.007116 0.001564
# 4 0.004092 -0.001926 0.005532 0.034711 0.001729 -0.000648
# 5 -0.000779 0.000632 0.007116 0.001729 0.033328 -0.001531
# 6 -0.006437 -0.010855 0.001564 -0.000648 -0.001531 0.030054
#
#
# Mechanical properties :
#
#
# Convention : Reuss Voigt Hill
#
# Bulk Modulus (GPa) = 26.66298 45.79735 36.23017
# Shear Modulus (GPa) = 31.41630 41.17658 36.29644
#
# Velocity S-wave (km/s) = 3.71893 4.25761 3.99735
# Velocity P-wave (km/s) = 5.49349 6.65816 6.10367
#
# Compressibility (1/GPa) = 0.03750519
#
# Stress axis : x y z
#
# Youngs Moduli (GPa) = 53.70680 70.33025 98.10075
#
# Poissons Ratio (x) = -0.09861 0.06233
# Poissons Ratio (y) = -0.07530 0.34630
# Poissons Ratio (z) = 0.03412 0.24827
#
# Static dielectric constant tensor:
#      x y z
#    x 4.165260 0.392510 -0.093290 
#    y 0.392510 4.491840 0.158280 
#    z -0.093290 0.158280 4.007240 
# 
# 
# High freq. dielectric constant tensor:
#      x y z
#    x 1.898550 0.019840 -0.009800 
#    y 0.019840 1.914110 0.004660 
#    z -0.009800 0.004660 1.889620 
# 
# From -- ./inp_files/392570.got.cif
#   From: 2010.06.25/outbox.cif.g09.slc.cpg/sg2_197_cif.got.tgz:392570.got - 2010.06.27 13:26:56.
