data_PCOD8024801
_publ_section_title
;
Structure prediction by ZEFSAII (Michael W. Deem and Ramdas Pophale) SiO2 
 PCOD8024801
Probable space group: P -1
;
_chemical_formula_sum "Si O2"
_cell_formula_units_Z 14
_cell_length_a 8.210783
_cell_length_b 8.908144
_cell_length_c 11.437401
_cell_angle_alpha 114.408218
_cell_angle_beta 62.654190
_cell_angle_gamma 130.168108
_cell_volume 559.337452
_symmetry_space_group_name_H-M "P -1"
_symmetry_group_IT_number 2
_symmetry_cell_setting 'triclinic'
loop_
_space_group_symop_operation_xyz
x,y,z
-x,-y,-z
loop_
_atom_site_type_symbol
_atom_site_label
_atom_site_fract_x
_atom_site_fract_y
_atom_site_fract_z
Si Si1 0.157096 0.801158 0.503795
Si Si2 0.428998 0.628417 0.694507
Si Si3 0.242972 0.939242 0.267234
Si Si4 0.335441 0.566736 0.450443
Si Si5 0.033454 0.997390 0.791858
Si Si6 0.745989 0.699510 0.979685
Si Si7 0.044674 0.528970 0.128806
O O1 0.220009 0.942262 0.416112
O O2 0.337058 0.742263 0.437737
O O3 0.152882 0.902954 0.658764
O O4 0.917305 0.604834 0.493514
O O5 0.480225 0.655799 0.548556
O O6 0.545113 0.527099 0.686426
O O7 0.167709 0.496775 0.750971
O O8 0.538234 0.851956 0.780334
O O9 0.254060 0.752855 0.163986
O O10 0.032761 0.913484 0.262166
O O11 0.211617 0.174017 0.875772
O O12 0.810775 0.838234 0.888399
O O13 0.500000 0.500000 0.000000
O O14 0.915846 0.633478 0.890828
O O15 0.000000 0.500000 0.000000
#
# Coordination Sequence:
#
# PCOD8024801 Si02
#       7
#     2   2   2   2   2   2   2
#     4  11  23  46  75 113 154 193 242 314 374 433
#     4  11  25  46  72 109 152 200 241 301 376 439
#     4  12  26  44  76 113 153 195 242 307 376 443
#     4  10  23  43  73 107 153 195 243 298 371 449
#     4  11  25  47  77 112 154 189 253 314 361 457
#     4  11  28  52  78 107 144 204 253 310 372 434
#     4  12  27  49  72 107 151 194 249 305 364 447
#
# _framework density 25.029613000000001
#
# number of rings (size 3 to 8) (size 9 to 14) (size 15 to 20)
#    0.000    0.857    4.286    1.286    4.000    4.571 
#    2.571    1.429    0.000    0.000    0.000    0.000 
#    0.000    0.000    0.000    0.000    0.000    0.000 
#
# Total GULP energy -173537.961841 kJ/mol
# GULP energy per Si atom -12395.568703 kJ/mol
# Density = 2.497264 g / cm^3
# Si number density = 25.029613 Si / 1000 Ang^3
#
#
#
# Elastic Constant Matrix: (Units=GPa)
#
#
# Indices 1 2 3 4 5 6 
#
# 1 118.5126 43.2397 42.2735 -3.9013 1.1661 -19.1268
# 2 43.2397 132.1972 62.0451 21.5386 6.0341 -3.9159
# 3 42.2735 62.0451 122.1352 17.3075 15.3576 -7.2285
# 4 -3.9013 21.5386 17.3075 42.9058 -0.6217 4.9328
# 5 1.1661 6.0341 15.3576 -0.6217 33.4511 1.7778
# 6 -19.1268 -3.9159 -7.2285 4.9328 1.7778 40.0588
#
#
#
# Elastic Compliance Matrix: (Units=1/GPa)
#
#
# Indices 1 2 3 4 5 6 
#
# 1 0.011217 -0.002785 -0.002818 0.003097 0.001243 0.004138
# 2 -0.002785 0.011051 -0.004089 -0.004097 -0.000070 -0.000480
# 3 -0.002818 -0.004089 0.012419 -0.003416 -0.004990 0.001138
# 4 0.003097 -0.004097 -0.003416 0.027415 0.002871 -0.003042
# 5 0.001243 -0.000070 -0.004990 0.002871 0.032320 -0.002102
# 6 0.004138 -0.000480 0.001138 -0.003042 -0.002102 0.027566
#
#
# Mechanical properties :
#
#
# Convention : Reuss Voigt Hill
#
# Bulk Modulus (GPa) = 65.34528 74.21795 69.78161
# Shear Modulus (GPa) = 34.13636 38.30224 36.21930
#
# Velocity S-wave (km/s) = 3.69703 3.91612 3.80815
# Velocity P-wave (km/s) = 6.66242 7.08268 6.87576
#
# Compressibility (1/GPa) = 0.01530333
#
# Stress axis : x y z
#
# Youngs Moduli (GPa) = 89.15237 90.48896 80.52143
#
# Poissons Ratio (x) = 0.25202 0.22688
# Poissons Ratio (y) = 0.24830 0.32925
# Poissons Ratio (z) = 0.25120 0.37001
#
# Static dielectric constant tensor:
#      x y z
#    x 3.744060 0.207430 0.221480 
#    y 0.207430 4.293000 0.348650 
#    z 0.221480 0.348650 4.212830 
# 
# 
# High freq. dielectric constant tensor:
#      x y z
#    x 1.994940 -0.008290 0.015470 
#    y -0.008290 2.009680 0.020540 
#    z 0.015470 0.020540 1.986400 
# 
# From -- ./inp_files/383155.got.cif
#   From: 2010.06.25/outbox.cif.g09.slc.cpg/sg2_192_cif.got.tgz:383155.got - 2010.06.27 13:26:56.
