data_PCOD8024391
_publ_section_title
;
Structure prediction by ZEFSAII (Michael W. Deem and Ramdas Pophale) SiO2 
 PCOD8024391
Probable space group: P -1
;
_chemical_formula_sum "Si O2"
_cell_formula_units_Z 16
_cell_length_a 10.621326
_cell_length_b 11.182646
_cell_length_c 13.838384
_cell_angle_alpha 96.422697
_cell_angle_beta 143.267540
_cell_angle_gamma 60.524304
_cell_volume 718.885424
_symmetry_space_group_name_H-M "P -1"
_symmetry_group_IT_number 2
_symmetry_cell_setting 'triclinic'
loop_
_space_group_symop_operation_xyz
x,y,z
-x,-y,-z
loop_
_atom_site_type_symbol
_atom_site_label
_atom_site_fract_x
_atom_site_fract_y
_atom_site_fract_z
Si Si1 0.678032 0.095376 0.837174
Si Si2 0.940608 0.826204 0.112216
Si Si3 0.987746 0.261032 0.558093
Si Si4 0.767593 0.432517 0.094723
Si Si5 0.404023 0.610196 0.212824
Si Si6 0.990484 0.968116 0.329472
Si Si7 0.675381 0.739779 0.073237
Si Si8 0.800776 0.854102 0.531899
O O1 0.521007 0.284591 0.771508
O O2 0.520857 0.075630 0.656369
O O3 0.688157 0.009704 0.931630
O O4 0.000000 0.000000 0.000000
O O5 0.087883 0.841580 0.291747
O O6 0.788804 0.764594 0.050566
O O7 0.177100 0.700869 0.167857
O O8 0.688806 0.440399 0.414823
O O9 0.969403 0.124481 0.555777
O O10 0.237078 0.221659 0.773414
O O11 0.054791 0.255651 0.486334
O O12 0.821600 0.553258 0.148039
O O13 0.041097 0.254322 0.285548
O O14 0.500000 0.500000 0.000000
O O15 0.723866 0.418825 0.954894
O O16 0.201827 0.000307 0.460777
O O17 0.666493 0.140001 0.132355
#
# Coordination Sequence:
#
# PCOD8024391 Si02
#       8
#     2   2   2   2   2   2   2   2
#     4  10  23  43  66  94 128 173 218 263 327 394
#     4  10  23  44  67  89 136 179 208 275 326 390
#     4  11  23  38  67 100 128 175 218 268 331 384
#     4  12  24  41  65  99 136 168 217 283 316 384
#     4  11  24  44  63  95 134 172 221 269 329 390
#     4  11  22  40  65 100 132 165 225 269 324 391
#     4  11  23  41  66  99 131 172 223 267 327 388
#     4  12  23  40  70  95 130 174 216 278 326 379
#
# _framework density 22.256675000000001
#
# number of rings (size 3 to 8) (size 9 to 14) (size 15 to 20)
#    0.000    1.000    2.500    4.875    1.750    4.500 
#    0.000   13.750    0.000    0.000    0.000    0.000 
#    0.000    0.000    0.000    0.000    0.000    0.000 
#
# Total GULP energy -198436.218888 kJ/mol
# GULP energy per Si atom -12402.263681 kJ/mol
# Density = 2.220602 g / cm^3
# Si number density = 22.256675 Si / 1000 Ang^3
#
#
#
# Elastic Constant Matrix: (Units=GPa)
#
#
# Indices 1 2 3 4 5 6 
#
# 1 92.8655 39.3083 25.2914 5.3700 2.1326 5.6603
# 2 39.3083 111.8985 23.9751 5.4578 12.5964 31.1824
# 3 25.2914 23.9751 107.2709 -2.4259 10.4432 15.2862
# 4 5.3700 5.4578 -2.4259 37.2457 11.1445 0.0019
# 5 2.1326 12.5964 10.4432 11.1445 31.6847 -0.5718
# 6 5.6603 31.1824 15.2862 0.0019 -0.5718 53.9678
#
#
#
# Elastic Compliance Matrix: (Units=1/GPa)
#
#
# Indices 1 2 3 4 5 6 
#
# 1 0.013562 -0.005024 -0.002724 -0.002238 0.002810 0.002282
# 2 -0.005024 0.013308 -0.000271 0.000280 -0.005091 -0.007140
# 3 -0.002724 -0.000271 0.010868 0.002391 -0.004181 -0.002681
# 4 -0.002238 0.000280 0.002391 0.030750 -0.011578 -0.000728
# 5 0.002810 -0.005091 -0.004181 -0.011578 0.038923 0.004244
# 6 0.002282 -0.007140 -0.002681 -0.000728 0.004244 0.023220
#
#
# Mechanical properties :
#
#
# Convention : Reuss Voigt Hill
#
# Bulk Modulus (GPa) = 46.07867 54.35384 50.21626
# Shear Modulus (GPa) = 32.48805 39.47699 35.98252
#
# Velocity S-wave (km/s) = 3.82475 4.21612 4.02519
# Velocity P-wave (km/s) = 6.34454 6.94084 6.64938
#
# Compressibility (1/GPa) = 0.02170201
#
# Stress axis : x y z
#
# Youngs Moduli (GPa) = 73.73334 75.14001 92.01303
#
# Poissons Ratio (x) = 0.37748 0.25066
# Poissons Ratio (y) = 0.37041 0.02490
# Poissons Ratio (z) = 0.20086 0.02033
#
# Static dielectric constant tensor:
#      x y z
#    x 4.107720 0.394670 -0.294950 
#    y 0.394670 4.197810 -0.057300 
#    z -0.294950 -0.057300 4.264850 
# 
# 
# High freq. dielectric constant tensor:
#      x y z
#    x 1.876310 0.016650 -0.010350 
#    y 0.016650 1.880750 0.002680 
#    z -0.010350 0.002680 1.877880 
# 
# From -- ./inp_files/519773.got.cif
#   From: 2010.06.25/outbox.cif.g09.slc.cpg/sg2_260_cif.got.tgz:519773.got - 2010.06.27 13:26:56.
