data_PCOD8024655
_publ_section_title
;
Structure prediction by ZEFSAII (Michael W. Deem and Ramdas Pophale) SiO2 
 PCOD8024655
Probable space group: P -1
;
_chemical_formula_sum "Si O2"
_cell_formula_units_Z 16
_cell_length_a 16.895744
_cell_length_b 6.861726
_cell_length_c 10.281844
_cell_angle_alpha 65.721268
_cell_angle_beta 131.556523
_cell_angle_gamma 125.759598
_cell_volume 723.282839
_symmetry_space_group_name_H-M "P -1"
_symmetry_group_IT_number 2
_symmetry_cell_setting 'triclinic'
loop_
_space_group_symop_operation_xyz
x,y,z
-x,-y,-z
loop_
_atom_site_type_symbol
_atom_site_label
_atom_site_fract_x
_atom_site_fract_y
_atom_site_fract_z
Si Si1 0.351001 0.365895 0.242620
Si Si2 0.834145 0.044406 0.548584
Si Si3 0.679573 0.716871 0.057727
Si Si4 0.054808 0.586701 0.215672
Si Si5 0.420702 0.161451 0.604321
Si Si6 0.910093 0.098943 0.338493
Si Si7 0.126050 0.331202 0.161120
Si Si8 0.470290 0.815924 0.899606
O O1 0.399900 0.206357 0.419453
O O2 0.461978 0.623230 0.266069
O O3 0.247736 0.399837 0.196490
O O4 0.303976 0.231821 0.092470
O O5 0.856156 0.251813 0.620336
O O6 0.872823 0.167250 0.417037
O O7 0.694114 0.861553 0.434877
O O8 0.903667 0.895614 0.713662
O O9 0.641400 0.437170 0.118492
O O10 0.804572 0.879011 0.213307
O O11 0.585495 0.788312 0.998428
O O12 0.135989 0.551762 0.202334
O O13 0.959596 0.331115 0.237978
O O14 0.982959 0.724589 0.041694
O O15 0.433430 0.918849 0.703747
O O16 0.000000 0.000000 0.500000
O O17 0.500000 0.000000 0.000000
#
# Coordination Sequence:
#
# PCOD8024655 Si02
#       8
#     2   2   2   2   2   2   2   2
#     4  10  23  46  70 103 140 177 223 292 337 421
#     4  11  24  46  68  99 141 178 229 291 341 409
#     4  11  27  44  72 101 139 183 232 283 350 402
#     4  11  25  45  71  99 132 192 227 283 355 400
#     4  10  23  43  70 102 138 175 226 278 348 404
#     4  12  27  45  68 102 137 179 237 285 338 414
#     4  10  24  45  70  98 139 174 239 285 340 418
#     4  11  23  46  72 103 139 183 226 285 344 416
#
# _framework density 22.121359999999999
#
# number of rings (size 3 to 8) (size 9 to 14) (size 15 to 20)
#    0.000    1.250    2.500    1.500    7.000    5.500 
#    4.500    0.000    0.000    0.000    0.000    0.000 
#    0.000    0.000    0.000    0.000    0.000    0.000 
#
# Total GULP energy -198404.388288 kJ/mol
# GULP energy per Si atom -12400.274268 kJ/mol
# Density = 2.207101 g / cm^3
# Si number density = 22.121360 Si / 1000 Ang^3
#
#
#
# Elastic Constant Matrix: (Units=GPa)
#
#
# Indices 1 2 3 4 5 6 
#
# 1 105.5272 36.3791 45.7009 19.4564 -12.5451 -1.8878
# 2 36.3791 100.3393 52.9374 -8.4391 1.3668 -2.6169
# 3 45.7009 52.9374 130.3026 6.0045 -5.8896 -3.6999
# 4 19.4564 -8.4391 6.0045 43.9222 -2.1213 -6.0653
# 5 -12.5451 1.3668 -5.8896 -2.1213 35.6333 2.9891
# 6 -1.8878 -2.6169 -3.6999 -6.0653 2.9891 29.9900
#
#
#
# Elastic Compliance Matrix: (Units=1/GPa)
#
#
# Indices 1 2 3 4 5 6 
#
# 1 0.013789 -0.004251 -0.002656 -0.006573 0.004321 -0.001591
# 2 -0.004251 0.014549 -0.004740 0.005444 -0.002664 0.001784
# 3 -0.002656 -0.004740 0.010635 -0.001086 0.000904 0.000421
# 4 -0.006573 0.005444 -0.001086 0.027581 -0.001535 0.005658
# 5 0.004321 -0.002664 0.000904 -0.001535 0.030009 -0.003150
# 6 -0.001591 0.001784 0.000421 0.005658 -0.003150 0.034910
#
#
# Mechanical properties :
#
#
# Convention : Reuss Voigt Hill
#
# Bulk Modulus (GPa) = 63.78540 67.35601 65.57070
# Shear Modulus (GPa) = 31.25092 35.31921 33.28506
#
# Velocity S-wave (km/s) = 3.76267 4.00010 3.88320
# Velocity P-wave (km/s) = 6.91186 7.20062 7.05772
#
# Compressibility (1/GPa) = 0.01567757
#
# Stress axis : x y z
#
# Youngs Moduli (GPa) = 72.52081 68.73222 94.03100
#
# Poissons Ratio (x) = 0.29220 0.24976
# Poissons Ratio (y) = 0.30830 0.44575
# Poissons Ratio (z) = 0.19262 0.32582
#
# Static dielectric constant tensor:
#      x y z
#    x 4.149600 0.147770 -0.209230 
#    y 0.147770 4.112050 -0.195130 
#    z -0.209230 -0.195130 4.332870 
# 
# 
# High freq. dielectric constant tensor:
#      x y z
#    x 1.873000 0.007770 -0.003510 
#    y 0.007770 1.865800 -0.010210 
#    z -0.003510 -0.010210 1.887400 
# 
# From -- ./inp_files/459469.got.cif
#   From: 2010.06.25/outbox.cif.g09.slc.cpg/sg2_230_cif.got.tgz:459469.got - 2010.06.27 13:26:56.
