data_PCOD8024522
_publ_section_title
;
Structure prediction by ZEFSAII (Michael W. Deem and Ramdas Pophale) SiO2 
 PCOD8024522
Probable space group: P -1
;
_chemical_formula_sum "Si O2"
_cell_formula_units_Z 16
_cell_length_a 17.400018
_cell_length_b 6.475179
_cell_length_c 17.924616
_cell_angle_alpha 133.875635
_cell_angle_beta 149.832235
_cell_angle_gamma 50.083162
_cell_volume 726.533651
_symmetry_space_group_name_H-M "P -1"
_symmetry_group_IT_number 2
_symmetry_cell_setting 'triclinic'
loop_
_space_group_symop_operation_xyz
x,y,z
-x,-y,-z
loop_
_atom_site_type_symbol
_atom_site_label
_atom_site_fract_x
_atom_site_fract_y
_atom_site_fract_z
Si Si1 0.685025 0.460282 0.335885
Si Si2 0.876758 0.858233 0.168237
Si Si3 0.399352 0.719368 0.417005
Si Si4 0.892746 0.908093 0.684714
Si Si5 0.849275 0.867519 0.317190
Si Si6 0.578585 0.253236 0.722500
Si Si7 0.905082 0.212927 0.029598
Si Si8 0.677526 0.429104 0.150667
O O1 0.808737 0.626403 0.525822
O O2 0.514786 0.528668 0.243843
O O3 0.696177 0.535589 0.277260
O O4 0.710745 0.116562 0.278347
O O5 0.886759 0.776388 0.242116
O O6 0.879275 0.539450 0.054744
O O7 0.723307 0.087022 0.087462
O O8 0.021923 0.003473 0.295890
O O9 0.500000 0.500000 0.500000
O O10 0.391308 0.596567 0.294818
O O11 0.225571 0.811011 0.322941
O O12 0.479317 0.004933 0.556148
O O13 0.015047 0.822598 0.831708
O O14 0.801618 0.587717 0.248487
O O15 0.000000 0.000000 0.500000
O O16 0.732597 0.121978 0.862716
O O17 0.000000 0.000000 0.000000
O O18 0.500000 0.500000 0.000000
#
# Coordination Sequence:
#
# PCOD8024522 Si02
#       8
#     2   2   2   2   2   2   2   2
#     4  10  24  42  72  98 137 177 232 277 354 411
#     4  11  26  41  70  97 138 177 231 281 346 404
#     4  10  23  43  68  94 138 176 235 286 344 406
#     4  11  24  45  67 105 133 186 231 287 342 416
#     4  11  23  44  71  99 135 180 227 288 346 419
#     4  10  24  43  64 100 134 182 228 282 343 411
#     4  12  26  44  69  96 142 184 233 285 342 408
#     4  11  26  44  68 106 141 179 230 288 352 421
#
# _framework density 22.022380999999999
#
# number of rings (size 3 to 8) (size 9 to 14) (size 15 to 20)
#    0.000    1.250    1.250    3.000    7.000    7.500 
#    0.000    0.000    0.000    0.000    0.000    0.000 
#    0.000    0.000    0.000    0.000    0.000    0.000 
#
# Total GULP energy -198272.450765 kJ/mol
# GULP energy per Si atom -12392.028173 kJ/mol
# Density = 2.197226 g / cm^3
# Si number density = 22.022381 Si / 1000 Ang^3
#
#
#
# Elastic Constant Matrix: (Units=GPa)
#
#
# Indices 1 2 3 4 5 6 
#
# 1 152.5334 72.2005 43.5384 -11.5950 -2.7963 -15.0986
# 2 72.2005 118.1999 25.6864 -14.8135 -11.0464 -18.4427
# 3 43.5384 25.6864 90.2771 -27.8968 -3.1459 -11.2722
# 4 -11.5950 -14.8135 -27.8968 37.0749 -3.5498 -2.5459
# 5 -2.7963 -11.0464 -3.1459 -3.5498 32.2914 -7.4688
# 6 -15.0986 -18.4427 -11.2722 -2.5459 -7.4688 37.5290
#
#
#
# Elastic Compliance Matrix: (Units=1/GPa)
#
#
# Indices 1 2 3 4 5 6 
#
# 1 0.010292 -0.005980 -0.004204 -0.002568 -0.001992 -0.000631
# 2 -0.005980 0.014221 0.001919 0.006389 0.006845 0.006955
# 3 -0.004204 0.001919 0.017813 0.013788 0.005057 0.006543
# 4 -0.002568 0.006389 0.013788 0.040850 0.010360 0.011081
# 5 -0.001992 0.006845 0.005057 0.010360 0.037606 0.012268
# 6 -0.000631 0.006955 0.006543 0.011081 0.012268 0.034969
#
#
# Mechanical properties :
#
#
# Convention : Reuss Voigt Hill
#
# Bulk Modulus (GPa) = 38.76555 71.54009 55.15282
# Shear Modulus (GPa) = 27.64274 36.01807 31.83041
#
# Velocity S-wave (km/s) = 3.54674 4.04855 3.80592
# Velocity P-wave (km/s) = 5.86630 7.37631 6.66421
#
# Compressibility (1/GPa) = 0.02579610
#
# Stress axis : x y z
#
# Youngs Moduli (GPa) = 97.16151 70.31630 56.14019
#
# Poissons Ratio (x) = 0.42047 0.23601
# Poissons Ratio (y) = 0.58099 -0.10771
# Poissons Ratio (z) = 0.40846 -0.13491
#
# Static dielectric constant tensor:
#      x y z
#    x 4.416400 -0.692440 0.100540 
#    y -0.692440 8.770130 -1.945130 
#    z 0.100540 -1.945130 4.671580 
# 
# 
# High freq. dielectric constant tensor:
#      x y z
#    x 1.881890 -0.018290 -0.000850 
#    y -0.018290 1.872930 -0.006060 
#    z -0.000850 -0.006060 1.863870 
# 
# From -- ./inp_files/574944.got.cif
#   From: 2010.06.25/outbox.cif.g09.slc.cpg/sg2_288_cif.got.tgz:574944.got - 2010.06.27 13:26:56.
