data_PCOD8024233
_publ_section_title
;
Structure prediction by ZEFSAII (Michael W. Deem and Ramdas Pophale) SiO2 
 PCOD8024233
Probable space group: P -1
;
_chemical_formula_sum "Si O2"
_cell_formula_units_Z 16
_cell_length_a 27.472075
_cell_length_b 6.487954
_cell_length_c 11.727356
_cell_angle_alpha 124.198364
_cell_angle_beta 149.368480
_cell_angle_gamma 45.343481
_cell_volume 752.300107
_symmetry_space_group_name_H-M "P -1"
_symmetry_group_IT_number 2
_symmetry_cell_setting 'triclinic'
loop_
_space_group_symop_operation_xyz
x,y,z
-x,-y,-z
loop_
_atom_site_type_symbol
_atom_site_label
_atom_site_fract_x
_atom_site_fract_y
_atom_site_fract_z
Si Si1 0.031755 0.149702 0.885765
Si Si2 0.048122 0.669262 0.460000
Si Si3 0.397234 0.282377 0.697803
Si Si4 0.540037 0.617028 0.719758
Si Si5 0.153983 0.467056 0.210237
Si Si6 0.272220 0.261076 0.914010
Si Si7 0.441385 0.609152 0.070203
Si Si8 0.873161 0.500533 0.098015
O O1 0.954532 0.350682 0.688403
O O2 0.954535 0.236601 0.869745
O O3 0.082077 0.814745 0.854863
O O4 0.134947 0.203543 0.125226
O O5 0.173075 0.441181 0.680673
O O6 0.969157 0.572759 0.328518
O O7 0.000000 0.000000 0.500000
O O8 0.263994 0.435007 0.477055
O O9 0.440859 0.415774 0.730426
O O10 0.446929 0.941118 0.672036
O O11 0.432918 0.349328 0.912960
O O12 0.500000 0.500000 0.500000
O O13 0.567655 0.404362 0.816748
O O14 0.651099 0.599985 0.894678
O O15 0.166592 0.482783 0.105555
O O16 0.231341 0.278658 0.966684
O O17 0.341608 0.918852 0.915904
#
# Coordination Sequence:
#
# PCOD8024233 Si02
#       8
#     2   2   2   2   2   2   2   2
#     4  10  23  43  60  98 133 172 219 268 323 400
#     4  11  24  40  64  97 132 168 218 268 326 393
#     4  10  24  45  69  97 128 180 217 275 328 387
#     4  11  27  43  71  99 131 168 222 275 333 392
#     4  10  24  40  66  93 132 175 219 267 327 389
#     4  11  26  40  69  97 127 179 212 273 334 384
#     4  10  25  47  66  97 134 166 231 268 329 400
#     4  11  24  40  65  95 134 169 221 265 331 392
#
# _framework density 21.268108000000002
#
# number of rings (size 3 to 8) (size 9 to 14) (size 15 to 20)
#    0.000    1.500    1.250    1.125   10.500    1.000 
#    0.000    0.000    0.000    0.000    0.000    0.000 
#    0.000    0.000    0.000    0.000    0.000    0.000 
#
# Total GULP energy -198439.123426 kJ/mol
# GULP energy per Si atom -12402.445214 kJ/mol
# Density = 2.121970 g / cm^3
# Si number density = 21.268108 Si / 1000 Ang^3
#
#
#
# Elastic Constant Matrix: (Units=GPa)
#
#
# Indices 1 2 3 4 5 6 
#
# 1 108.2409 23.7880 51.1306 4.6484 6.6522 -1.5996
# 2 23.7880 108.5367 47.0602 15.9074 3.4152 -0.4663
# 3 51.1306 47.0602 131.2039 14.8364 15.1138 6.5493
# 4 4.6484 15.9074 14.8364 27.7063 -1.4822 -2.3706
# 5 6.6522 3.4152 15.1138 -1.4822 38.0454 2.6911
# 6 -1.5996 -0.4663 6.5493 -2.3706 2.6911 28.6693
#
#
#
# Elastic Compliance Matrix: (Units=1/GPa)
#
#
# Indices 1 2 3 4 5 6 
#
# 1 0.011466 -0.000747 -0.004364 0.000975 -0.000289 0.001732
# 2 -0.000747 0.011509 -0.003364 -0.004626 0.000218 0.000511
# 3 -0.004364 -0.003364 0.011519 -0.003940 -0.003457 -0.002931
# 4 0.000975 -0.004626 -0.003940 0.041204 0.003133 0.003992
# 5 -0.000289 0.000218 -0.003457 0.003133 0.027923 -0.001585
# 6 0.001732 0.000511 -0.002931 0.003992 -0.001585 0.036134
#
#
# Mechanical properties :
#
#
# Convention : Reuss Voigt Hill
#
# Bulk Modulus (GPa) = 57.00152 65.77098 61.38625
# Shear Modulus (GPa) = 30.75908 33.95106 32.35507
#
# Velocity S-wave (km/s) = 3.80709 3.99975 3.90461
# Velocity P-wave (km/s) = 6.79594 7.23343 7.01810
#
# Compressibility (1/GPa) = 0.01754339
#
# Stress axis : x y z
#
# Youngs Moduli (GPa) = 87.21723 86.88597 86.81206
#
# Poissons Ratio (x) = 0.06493 0.37881
# Poissons Ratio (y) = 0.06517 0.29208
# Poissons Ratio (z) = 0.38058 0.29233
#
# Static dielectric constant tensor:
#      x y z
#    x 3.943580 0.031010 0.072990 
#    y 0.031010 3.784750 0.164430 
#    z 0.072990 0.164430 3.769540 
# 
# 
# High freq. dielectric constant tensor:
#      x y z
#    x 1.849200 -0.001570 0.004570 
#    y -0.001570 1.835190 0.014300 
#    z 0.004570 0.014300 1.830900 
# 
# From -- ./inp_files/78537.got.cif
#   From: 2010.06.25/outbox.cif.g09.slc.cpg/sg2_40_cif.got.tgz:78537.got - 2010.06.27 13:26:56.
