data_PCOD8024477
_publ_section_title
;
Structure prediction by ZEFSAII (Michael W. Deem and Ramdas Pophale) SiO2 
 PCOD8024477
Probable space group: P -1
;
_chemical_formula_sum "Si O2"
_cell_formula_units_Z 16
_cell_length_a 14.838951
_cell_length_b 18.263868
_cell_length_c 9.041770
_cell_angle_alpha 142.473663
_cell_angle_beta 146.311923
_cell_angle_gamma 35.949589
_cell_volume 742.294181
_symmetry_space_group_name_H-M "P -1"
_symmetry_group_IT_number 2
_symmetry_cell_setting 'triclinic'
loop_
_space_group_symop_operation_xyz
x,y,z
-x,-y,-z
loop_
_atom_site_type_symbol
_atom_site_label
_atom_site_fract_x
_atom_site_fract_y
_atom_site_fract_z
Si Si1 0.546883 0.387472 0.509280
Si Si2 0.219761 0.920634 0.660424
Si Si3 0.154314 0.546835 0.265640
Si Si4 0.233153 0.947713 0.380571
Si Si5 0.565211 0.945742 0.663900
Si Si6 0.855790 0.701921 0.547754
Si Si7 0.164119 0.549674 0.953706
Si Si8 0.945112 0.205712 0.264822
O O1 0.500000 0.500000 0.500000
O O2 0.676143 0.234215 0.389674
O O3 0.349454 0.415256 0.347625
O O4 0.668223 0.429416 0.854010
O O5 0.272842 0.915959 0.555118
O O6 0.000000 0.000000 0.500000
O O7 0.305803 0.995960 0.997173
O O8 0.144551 0.655448 0.547247
O O9 0.127958 0.612265 0.170584
O O10 0.000000 0.500000 0.000000
O O11 0.400153 0.968683 0.580586
O O12 0.053038 0.086185 0.335128
O O13 0.209387 0.825754 0.073496
O O14 0.685890 0.788960 0.556286
O O15 0.500000 0.000000 0.500000
O O16 0.797411 0.604660 0.217573
O O17 0.917803 0.788911 0.664247
O O18 0.004117 0.619693 0.736549
#
# Coordination Sequence:
#
# PCOD8024477 Si02
#       8
#     2   2   2   2   2   2   2   2
#     4  10  25  42  69 103 136 182 238 285 354 431
#     4  12  28  50  75 105 151 192 246 302 364 432
#     4  11  24  41  71  99 141 187 233 296 363 427
#     4  11  27  45  71 104 141 187 242 300 361 432
#     4  12  27  43  75 105 142 189 242 304 359 430
#     4  11  23  45  68  98 141 182 238 291 365 424
#     4  10  23  43  67  99 135 185 232 292 353 440
#     4  11  24  45  69 100 142 185 238 294 367 427
#
# _framework density 21.554796
#
# number of rings (size 3 to 8) (size 9 to 14) (size 15 to 20)
#    0.000    1.000    2.500    2.625   14.000    1.000 
#    0.000    1.250    0.000    0.000    0.000    0.000 
#    0.000    0.000    0.000    0.000    0.000    0.000 
#
# Total GULP energy -198262.463895 kJ/mol
# GULP energy per Si atom -12391.403993 kJ/mol
# Density = 2.150574 g / cm^3
# Si number density = 21.554796 Si / 1000 Ang^3
#
#
#
# Elastic Constant Matrix: (Units=GPa)
#
#
# Indices 1 2 3 4 5 6 
#
# 1 93.6033 33.9056 54.9050 -2.8547 1.5149 -7.1292
# 2 33.9056 116.2672 42.6366 7.2103 -1.1250 -19.4699
# 3 54.9050 42.6366 139.1564 -5.3405 2.9934 -18.8515
# 4 -2.8547 7.2103 -5.3405 24.3260 -2.9342 2.3009
# 5 1.5149 -1.1250 2.9934 -2.9342 44.6199 -6.7453
# 6 -7.1292 -19.4699 -18.8515 2.3009 -6.7453 36.4269
#
#
#
# Elastic Compliance Matrix: (Units=1/GPa)
#
#
# Indices 1 2 3 4 5 6 
#
# 1 0.014572 -0.002729 -0.005034 0.001503 -0.000334 -0.001369
# 2 -0.002729 0.011192 -0.001874 -0.004400 0.000957 0.004934
# 3 -0.005034 -0.001874 0.010253 0.001918 0.000047 0.003207
# 4 0.001503 -0.004400 0.001918 0.043583 0.002056 -0.003437
# 5 -0.000334 0.000957 0.000047 0.002056 0.023282 0.004652
# 6 -0.001369 0.004934 0.003207 -0.003437 0.004652 0.032560
#
#
# Mechanical properties :
#
#
# Convention : Reuss Voigt Hill
#
# Bulk Modulus (GPa) = 59.72119 67.99125 63.85622
# Shear Modulus (GPa) = 31.19235 35.57987 33.38611
#
# Velocity S-wave (km/s) = 3.80823 4.06725 3.93987
# Velocity P-wave (km/s) = 6.86321 7.32589 7.09832
#
# Compressibility (1/GPa) = 0.01674448
#
# Stress axis : x y z
#
# Youngs Moduli (GPa) = 68.62704 89.34924 97.52928
#
# Poissons Ratio (x) = 0.24384 0.49093
# Poissons Ratio (y) = 0.18729 0.18272
# Poissons Ratio (z) = 0.34544 0.16740
#
# Static dielectric constant tensor:
#      x y z
#    x 4.047730 0.001540 0.373570 
#    y 0.001540 4.063420 0.093030 
#    z 0.373570 0.093030 4.798170 
# 
# 
# High freq. dielectric constant tensor:
#      x y z
#    x 1.836460 -0.000270 0.006660 
#    y -0.000270 1.850390 -0.002060 
#    z 0.006660 -0.002060 1.872880 
# 
# From -- ./inp_files/318188.got.cif
#   From: 2010.06.25/outbox.cif.g09.slc.cpg/sg2_160_cif.got.tgz:318188.got - 2010.06.27 13:26:56.
