data_PCOD8024459
_publ_section_title
;
Structure prediction by ZEFSAII (Michael W. Deem and Ramdas Pophale) SiO2 
 PCOD8024459
Probable space group: P -1
;
_chemical_formula_sum "Si O2"
_cell_formula_units_Z 16
_cell_length_a 13.075818
_cell_length_b 13.205733
_cell_length_c 14.800759
_cell_angle_alpha 29.103743
_cell_angle_beta 59.079012
_cell_angle_gamma 41.514216
_cell_volume 741.694938
_symmetry_space_group_name_H-M "P -1"
_symmetry_group_IT_number 2
_symmetry_cell_setting 'triclinic'
loop_
_space_group_symop_operation_xyz
x,y,z
-x,-y,-z
loop_
_atom_site_type_symbol
_atom_site_label
_atom_site_fract_x
_atom_site_fract_y
_atom_site_fract_z
Si Si1 0.079536 0.239319 0.596738
Si Si2 0.852490 0.692668 0.844022
Si Si3 0.995612 0.566619 0.214017
Si Si4 0.468504 0.131605 0.135096
Si Si5 0.677941 0.218711 0.881588
Si Si6 0.537718 0.117137 0.313684
Si Si7 0.523465 0.319439 0.546511
Si Si8 0.801433 0.286733 0.947038
O O1 0.000000 0.500000 0.500000
O O2 0.976732 0.399548 0.424503
O O3 0.277213 0.018000 0.653035
O O4 0.067810 0.022965 0.813340
O O5 0.740461 0.619079 0.961142
O O6 0.933635 0.611776 0.771754
O O7 0.725928 0.050375 0.637657
O O8 0.000000 0.500000 0.000000
O O9 0.124240 0.573705 0.195447
O O10 0.809645 0.898490 0.022138
O O11 0.535789 0.012017 0.299102
O O12 0.537532 0.840228 0.275999
O O13 0.530649 0.269104 0.958345
O O14 0.587163 0.471126 0.651789
O O15 0.784186 0.223901 0.901289
O O16 0.500000 0.000000 0.500000
O O17 0.388779 0.479412 0.105245
O O18 0.500000 0.500000 0.500000
#
# Coordination Sequence:
#
# PCOD8024459 Si02
#       8
#     2   2   2   2   2   2   2   2
#     4  12  25  40  61  99 143 176 223 266 331 395
#     4  10  23  48  71  92 133 171 222 287 336 387
#     4  12  25  43  64 100 139 180 217 282 328 393
#     4  10  23  43  67  97 130 169 220 276 329 397
#     4  12  25  40  70  98 132 178 221 267 337 398
#     4  12  21  40  66  94 136 180 217 270 326 402
#     4  10  24  45  71  95 128 172 227 276 339 397
#     4  12  24  39  68  98 139 180 221 261 336 401
#
# _framework density 21.572212
#
# number of rings (size 3 to 8) (size 9 to 14) (size 15 to 20)
#    0.750    0.000    5.000    2.250    1.750    1.500 
#    0.000    0.625    0.000    0.000    0.000    0.000 
#    0.000    0.000    0.000    0.000    0.000    0.000 
#
# Total GULP energy -198303.852736 kJ/mol
# GULP energy per Si atom -12393.990796 kJ/mol
# Density = 2.152311 g / cm^3
# Si number density = 21.572212 Si / 1000 Ang^3
#
#
#
# Elastic Constant Matrix: (Units=GPa)
#
#
# Indices 1 2 3 4 5 6 
#
# 1 47.0827 1.0986 19.9360 15.9249 13.2109 19.1190
# 2 1.0986 104.7770 23.7162 -9.4709 8.2007 21.9136
# 3 19.9360 23.7162 129.4152 -4.3797 18.6010 13.4865
# 4 15.9249 -9.4709 -4.3797 42.4526 -0.9048 0.8227
# 5 13.2109 8.2007 18.6010 -0.9048 29.4361 -4.4850
# 6 19.1190 21.9136 13.4865 0.8227 -4.4850 40.1673
#
#
#
# Elastic Compliance Matrix: (Units=1/GPa)
#
#
# Indices 1 2 3 4 5 6 
#
# 1 0.045295 0.006140 -0.002247 -0.015873 -0.025166 -0.026640
# 2 0.006140 0.012442 -0.001148 0.000400 -0.007026 -0.010117
# 3 -0.002247 -0.001148 0.009221 0.001475 -0.004752 -0.001961
# 4 -0.015873 0.000400 0.001475 0.029786 0.008083 0.007135
# 5 -0.025166 -0.007026 -0.004752 0.008083 0.054021 0.023274
# 6 -0.026640 -0.010117 -0.001961 0.007135 0.023274 0.046207
#
#
# Mechanical properties :
#
#
# Convention : Reuss Voigt Hill
#
# Bulk Modulus (GPa) = 13.80287 41.19739 27.50013
# Shear Modulus (GPa) = 23.18782 38.17946 30.68364
#
# Velocity S-wave (km/s) = 3.28211 4.21152 3.77552
# Velocity P-wave (km/s) = 4.55800 6.54126 5.63753
#
# Compressibility (1/GPa) = 0.07244871
#
# Stress axis : x y z
#
# Youngs Moduli (GPa) = 22.07727 80.37514 108.44983
#
# Poissons Ratio (x) = -0.49352 0.24365
# Poissons Ratio (y) = -0.13556 0.12452
# Poissons Ratio (z) = 0.04960 0.09229
#
# Static dielectric constant tensor:
#      x y z
#    x 3.692880 -0.052250 0.141460 
#    y -0.052250 4.031730 0.002250 
#    z 0.141460 0.002250 3.831350 
# 
# 
# High freq. dielectric constant tensor:
#      x y z
#    x 1.818620 -0.002720 0.006210 
#    y -0.002720 1.860320 -0.010620 
#    z 0.006210 -0.010620 1.852490 
# 
# From -- ./inp_files/533153.got.cif
#   From: 2010.06.25/outbox.cif.g09.slc.cpg/sg2_267_cif.got.tgz:533153.got - 2010.06.27 13:26:56.
