data_PCOD8024041
_publ_section_title
;
Structure prediction by ZEFSAII (Michael W. Deem and Ramdas Pophale) SiO2 
 PCOD8024041
Probable space group: P -1
;
_chemical_formula_sum "Si O2"
_cell_formula_units_Z 16
_cell_length_a 19.465424
_cell_length_b 17.837322
_cell_length_c 6.693045
_cell_angle_alpha 135.782736
_cell_angle_beta 44.925199
_cell_angle_gamma 153.447600
_cell_volume 707.563764
_symmetry_space_group_name_H-M "P -1"
_symmetry_group_IT_number 2
_symmetry_cell_setting 'triclinic'
loop_
_space_group_symop_operation_xyz
x,y,z
-x,-y,-z
loop_
_atom_site_type_symbol
_atom_site_label
_atom_site_fract_x
_atom_site_fract_y
_atom_site_fract_z
Si Si1 0.817591 0.147710 0.824991
Si Si2 0.383338 0.955360 0.308632
Si Si3 0.613312 0.779998 0.685735
Si Si4 0.396663 0.679542 0.257207
Si Si5 0.897598 0.894094 0.310284
Si Si6 0.067277 0.212616 0.324096
Si Si7 0.180942 0.663744 0.502679
Si Si8 0.597764 0.479080 0.713441
O O1 0.743522 0.092560 0.652953
O O2 0.996739 0.268282 0.632730
O O3 0.725573 0.980972 0.829797
O O4 0.810938 0.251588 0.160586
O O5 0.292457 0.796197 0.342158
O O6 0.483842 0.123204 0.553560
O O7 0.500000 0.000000 0.000000
O O8 0.713895 0.758423 0.477596
O O9 0.506160 0.682664 0.525051
O O10 0.489008 0.679434 0.924399
O O11 0.242276 0.599661 0.323628
O O12 0.346055 0.555243 0.297308
O O13 0.914049 0.793291 0.968152
O O14 0.000000 0.000000 0.500000
O O15 0.938299 0.017218 0.294633
O O16 0.227451 0.331492 0.350626
O O17 0.000000 0.500000 0.500000
O O18 0.500000 0.500000 0.000000
#
# Coordination Sequence:
#
# PCOD8024041 Si02
#       8
#     2   2   2   2   2   2   2   2
#     4  11  24  45  73 102 143 190 231 289 362 435
#     4  12  24  46  79 102 143 191 245 291 356 440
#     4  11  24  44  71 102 134 191 238 294 352 425
#     4  12  27  44  74 101 143 192 238 290 362 426
#     4  10  23  42  69  95 139 184 242 293 358 419
#     4  10  25  42  66 101 140 185 236 290 356 425
#     4  12  29  47  71 115 150 183 241 302 362 436
#     4  12  27  47  69 103 145 183 244 302 349 414
#
# _framework density 22.612805000000002
#
# number of rings (size 3 to 8) (size 9 to 14) (size 15 to 20)
#    0.000    0.750    5.000    1.125    7.000    2.000 
#    0.000    0.000    0.000    0.000    0.000    0.000 
#    0.000    0.000    0.000    0.000    0.000    0.000 
#
# Total GULP energy -198302.390682 kJ/mol
# GULP energy per Si atom -12393.899418 kJ/mol
# Density = 2.256134 g / cm^3
# Si number density = 22.612805 Si / 1000 Ang^3
#
#
#
# Elastic Constant Matrix: (Units=GPa)
#
#
# Indices 1 2 3 4 5 6 
#
# 1 83.0750 18.7584 26.5287 -16.4613 5.0406 27.5912
# 2 18.7584 80.1510 27.4957 -5.0143 -5.5118 29.4143
# 3 26.5287 27.4957 125.5987 -26.9072 -9.1628 17.0678
# 4 -16.4613 -5.0143 -26.9072 32.0766 12.8443 -7.0688
# 5 5.0406 -5.5118 -9.1628 12.8443 31.9328 -2.8713
# 6 27.5912 29.4143 17.0678 -7.0688 -2.8713 44.4876
#
#
#
# Elastic Compliance Matrix: (Units=1/GPa)
#
#
# Indices 1 2 3 4 5 6 
#
# 1 0.017912 -0.000298 -0.000990 0.009322 -0.007771 -0.009553
# 2 -0.000298 0.017354 -0.002785 -0.003123 0.002551 -0.010553
# 3 -0.000990 -0.002785 0.010503 0.008020 -0.000567 -0.000336
# 4 0.009322 -0.003123 0.008020 0.050137 -0.019886 -0.000110
# 5 -0.007771 0.002551 -0.000567 -0.019886 0.041074 0.002842
# 6 -0.009553 -0.010553 -0.000336 -0.000110 0.002842 0.035675
#
#
# Mechanical properties :
#
#
# Convention : Reuss Voigt Hill
#
# Bulk Modulus (GPa) = 26.57937 48.26559 37.42248
# Shear Modulus (GPa) = 25.86080 36.10221 30.98150
#
# Velocity S-wave (km/s) = 3.38544 4.00001 3.70548
# Velocity P-wave (km/s) = 5.20204 6.53637 5.90700
#
# Compressibility (1/GPa) = 0.03762317
#
# Stress axis : x y z
#
# Youngs Moduli (GPa) = 55.82833 57.62247 95.20956
#
# Poissons Ratio (x) = 0.01718 0.09424
# Poissons Ratio (y) = 0.01664 0.26518
# Poissons Ratio (z) = 0.05526 0.16049
#
# Static dielectric constant tensor:
#      x y z
#    x 4.055960 0.197390 -0.138230 
#    y 0.197390 4.113880 -0.222240 
#    z -0.138230 -0.222240 4.236610 
# 
# 
# High freq. dielectric constant tensor:
#      x y z
#    x 1.888250 0.017030 -0.005970 
#    y 0.017030 1.895560 -0.007950 
#    z -0.005970 -0.007950 1.904300 
# 
# From -- ./inp_files/47861.got.cif
#   From: 2010.06.25/outbox.cif.g09.slc.cpg/sg2_24_cif.got.tgz:47861.got - 2010.06.27 13:26:56.
