data_PCOD8024328
_publ_section_title
;
Structure prediction by ZEFSAII (Michael W. Deem and Ramdas Pophale) SiO2 
 PCOD8024328
Probable space group: P -1
;
_chemical_formula_sum "Si O2"
_cell_formula_units_Z 12
_cell_length_a 14.123878
_cell_length_b 7.156955
_cell_length_c 5.219923
_cell_angle_alpha 107.419066
_cell_angle_beta 102.735761
_cell_angle_gamma 74.121676
_cell_volume 478.693184
_symmetry_space_group_name_H-M "P -1"
_symmetry_group_IT_number 2
_symmetry_cell_setting 'triclinic'
loop_
_space_group_symop_operation_xyz
x,y,z
-x,-y,-z
loop_
_atom_site_type_symbol
_atom_site_label
_atom_site_fract_x
_atom_site_fract_y
_atom_site_fract_z
Si Si1 0.135394 0.121342 0.660047
Si Si2 0.530282 0.691370 0.742908
Si Si3 0.627075 0.597680 0.255154
Si Si4 0.852021 0.451880 0.350758
Si Si5 0.071679 0.783515 0.204637
Si Si6 0.355508 0.031839 0.851713
O O1 0.126644 0.333010 0.604808
O O2 0.239225 0.045008 0.843396
O O3 0.047643 0.132815 0.820538
O O4 0.127319 0.961804 0.368642
O O5 0.555156 0.567754 0.439185
O O6 0.413441 0.799968 0.750906
O O7 0.573612 0.542489 0.943030
O O8 0.593345 0.869075 0.843520
O O9 0.735083 0.453669 0.291099
O O10 0.636245 0.831333 0.339654
O O11 0.897952 0.387793 0.629815
O O12 0.901168 0.297948 0.096214
#
# Coordination Sequence:
#
# PCOD8024328 Si02
#       6
#     2   2   2   2   2   2
#     4  10  23  43  65  94 123 170 204 257 312 366
#     4   9  16  31  53  89 115 147 210 242 292 374
#     4   9  17  31  55  84 114 156 193 247 299 357
#     4  11  23  42  66  90 128 167 203 256 314 362
#     4  11  25  43  61  96 128 158 214 258 298 377
#     4   8  18  31  56  87 114 157 201 245 301 365
#
# _framework density 25.068248000000001
#
# number of rings (size 3 to 8) (size 9 to 14) (size 15 to 20)
#    1.000    1.333    0.000    2.500    0.000    4.000 
#    6.000    0.000    0.000    6.000    0.000    0.000 
#    0.000    0.000    0.000    0.000    0.000    0.000 
#
# Total GULP energy -148770.329604 kJ/mol
# GULP energy per Si atom -12397.527467 kJ/mol
# Density = 2.501119 g / cm^3
# Si number density = 25.068248 Si / 1000 Ang^3
#
#
#
# Elastic Constant Matrix: (Units=GPa)
#
#
# Indices 1 2 3 4 5 6 
#
# 1 151.7873 18.4301 33.5847 -9.0787 16.4739 -21.8313
# 2 18.4301 44.2405 5.3100 14.2360 13.2136 -15.8034
# 3 33.5847 5.3100 78.3489 -5.1007 -3.9413 -5.4556
# 4 -9.0787 14.2360 -5.1007 40.1652 5.3830 11.7846
# 5 16.4739 13.2136 -3.9413 5.3830 38.7959 -5.9414
# 6 -21.8313 -15.8034 -5.4556 11.7846 -5.9414 37.5267
#
#
#
# Elastic Compliance Matrix: (Units=1/GPa)
#
#
# Indices 1 2 3 4 5 6 
#
# 1 0.008357 -0.001801 -0.003323 0.001770 -0.003125 0.002569
# 2 -0.001801 0.039199 -0.002104 -0.019553 -0.006995 0.020187
# 3 -0.003323 -0.002104 0.014552 0.001605 0.003278 -0.000689
# 4 0.001770 -0.019553 0.001605 0.038419 -0.002229 -0.019389
# 5 -0.003125 -0.006995 0.003278 -0.002229 0.030313 0.001212
# 6 0.002569 0.020187 -0.000689 -0.019389 0.001212 0.042824
#
#
# Mechanical properties :
#
#
# Convention : Reuss Voigt Hill
#
# Bulk Modulus (GPa) = 20.98568 43.22513 32.10540
# Shear Modulus (GPa) = 24.50942 37.76768 31.13855
#
# Velocity S-wave (km/s) = 3.13022 3.88570 3.52824
# Velocity P-wave (km/s) = 4.63185 6.11653 5.42522
#
# Compressibility (1/GPa) = 0.04765155
#
# Stress axis : x y z
#
# Youngs Moduli (GPa) = 119.66470 25.51103 68.71950
#
# Poissons Ratio (x) = 0.04594 0.22836
# Poissons Ratio (y) = 0.21550 0.14458
# Poissons Ratio (z) = 0.39766 0.05367
#
# Static dielectric constant tensor:
#      x y z
#    x 4.601140 -0.104470 0.260700 
#    y -0.104470 4.397130 0.087810 
#    z 0.260700 0.087810 4.179550 
# 
# 
# High freq. dielectric constant tensor:
#      x y z
#    x 2.013940 0.001470 0.018790 
#    y 0.001470 2.008540 0.008160 
#    z 0.018790 0.008160 1.983180 
# 
# From -- ./inp_files/88248.got.cif
#   From: 2010.06.25/outbox.cif.g09.slc.cpg/sg2_45_cif.got.tgz:88248.got - 2010.06.27 13:26:56.
