data_PCOD8024035
_publ_section_title
;
Structure prediction by ZEFSAII (Michael W. Deem and Ramdas Pophale) SiO2 
 PCOD8024035
Probable space group: P -1
;
_chemical_formula_sum "Si O2"
_cell_formula_units_Z 14
_cell_length_a 11.852599
_cell_length_b 6.683019
_cell_length_c 11.903883
_cell_angle_alpha 90.336974
_cell_angle_beta 114.255943
_cell_angle_gamma 128.872604
_cell_volume 621.394275
_symmetry_space_group_name_H-M "P -1"
_symmetry_group_IT_number 2
_symmetry_cell_setting 'triclinic'
loop_
_space_group_symop_operation_xyz
x,y,z
-x,-y,-z
loop_
_atom_site_type_symbol
_atom_site_label
_atom_site_fract_x
_atom_site_fract_y
_atom_site_fract_z
Si Si1 0.569246 0.547350 0.372496
Si Si2 0.973952 0.570773 0.721211
Si Si3 0.458442 0.326496 0.089352
Si Si4 0.627587 0.955186 0.558731
Si Si5 0.090474 0.028172 0.923431
Si Si6 0.220817 0.529342 0.818944
Si Si7 0.895019 0.687399 0.471322
O O1 0.534063 0.533432 0.226378
O O2 0.617779 0.824734 0.435825
O O3 0.409269 0.261311 0.366497
O O4 0.716647 0.549347 0.455387
O O5 0.989021 0.645142 0.596294
O O6 0.151919 0.664673 0.836935
O O7 0.814200 0.243218 0.669520
O O8 0.956441 0.746177 0.795002
O O9 0.572983 0.250811 0.118759
O O10 0.500000 0.500000 0.000000
O O11 0.255252 0.072391 0.021846
O O12 0.500000 0.000000 0.500000
O O13 0.156374 0.285106 0.875760
O O14 0.000000 0.000000 0.000000
O O15 0.123314 0.422776 0.659631
O O16 0.000000 0.000000 0.500000
#
# Coordination Sequence:
#
# PCOD8024035 Si02
#       7
#     2   2   2   2   2   2   2
#     4  10  23  42  69  94 140 174 220 283 337 401
#     4  12  25  41  71 104 134 175 231 280 344 409
#     4   9  22  47  68  93 133 187 225 269 341 395
#     4  11  24  41  65 104 136 176 219 282 349 398
#     4  11  26  44  69  96 137 185 227 278 333 403
#     4  10  23  44  68  98 133 175 230 282 337 400
#     4  11  20  41  69  98 133 174 216 286 351 395
#
# _framework density 22.529979000000001
#
# number of rings (size 3 to 8) (size 9 to 14) (size 15 to 20)
#    0.000    1.429    2.857    1.286    4.000    1.143 
#    0.000    0.000    0.000    0.000    0.000    0.000 
#    0.000    0.000    0.000    0.000    0.000    0.000 
#
# Total GULP energy -173455.763011 kJ/mol
# GULP energy per Si atom -12389.697358 kJ/mol
# Density = 2.247870 g / cm^3
# Si number density = 22.529979 Si / 1000 Ang^3
#
#
#
# Elastic Constant Matrix: (Units=GPa)
#
#
# Indices 1 2 3 4 5 6 
#
# 1 125.7567 34.2081 49.8509 -9.2227 5.5634 4.5663
# 2 34.2081 81.5784 34.3725 -1.6344 -1.4982 6.3795
# 3 49.8509 34.3725 116.8498 -12.4945 -10.8278 0.6424
# 4 -9.2227 -1.6344 -12.4945 26.2984 -0.7689 3.0287
# 5 5.5634 -1.4982 -10.8278 -0.7689 42.4793 -0.2939
# 6 4.5663 6.3795 0.6424 3.0287 -0.2939 34.0953
#
#
#
# Elastic Compliance Matrix: (Units=1/GPa)
#
#
# Indices 1 2 3 4 5 6 
#
# 1 0.010425 -0.002760 -0.003658 0.001791 -0.002370 -0.000990
# 2 -0.002760 0.014981 -0.003365 -0.001377 -0.000008 -0.002248
# 3 -0.003658 -0.003365 0.011874 0.004187 0.003467 0.000554
# 4 0.001791 -0.001377 0.004187 0.041026 0.001501 -0.003692
# 5 -0.002370 -0.000008 0.003467 0.001501 0.024764 0.000334
# 6 -0.000990 -0.002248 0.000554 -0.003692 0.000334 0.030203
#
#
# Mechanical properties :
#
#
# Convention : Reuss Voigt Hill
#
# Bulk Modulus (GPa) = 56.45276 62.33866 59.39571
# Shear Modulus (GPa) = 31.49687 34.29150 32.89419
#
# Velocity S-wave (km/s) = 3.74304 3.90556 3.82516
# Velocity P-wave (km/s) = 6.61752 6.93305 6.77712
#
# Compressibility (1/GPa) = 0.01771393
#
# Stress axis : x y z
#
# Youngs Moduli (GPa) = 95.92324 66.74904 84.21458
#
# Poissons Ratio (x) = 0.18425 0.30807
# Poissons Ratio (y) = 0.26478 0.28338
# Poissons Ratio (z) = 0.35090 0.22461
#
# Static dielectric constant tensor:
#      x y z
#    x 4.481640 0.047890 0.123270 
#    y 0.047890 3.803140 0.020900 
#    z 0.123270 0.020900 4.062660 
# 
# 
# High freq. dielectric constant tensor:
#      x y z
#    x 1.905910 -0.001380 0.000280 
#    y -0.001380 1.870340 -0.005140 
#    z 0.000280 -0.005140 1.891840 
# 
# From -- ./inp_files/117082.got.cif
#   From: 2010.06.25/outbox.cif.g09.slc.cpg/sg2_59_cif.got.tgz:117082.got - 2010.06.27 13:26:56.
