data_PCOD8024526
_publ_section_title
;
Structure prediction by ZEFSAII (Michael W. Deem and Ramdas Pophale) SiO2 
 PCOD8024526
Probable space group: P -1
;
_chemical_formula_sum "Si O2"
_cell_formula_units_Z 16
_cell_length_a 14.561234
_cell_length_b 5.264565
_cell_length_c 13.718290
_cell_angle_alpha 114.613212
_cell_angle_beta 135.917772
_cell_angle_gamma 78.982777
_cell_volume 655.348138
_symmetry_space_group_name_H-M "P -1"
_symmetry_group_IT_number 2
_symmetry_cell_setting 'triclinic'
loop_
_space_group_symop_operation_xyz
x,y,z
-x,-y,-z
loop_
_atom_site_type_symbol
_atom_site_label
_atom_site_fract_x
_atom_site_fract_y
_atom_site_fract_z
Si Si1 0.328170 0.290762 0.122614
Si Si2 0.978130 0.569345 0.723381
Si Si3 0.656912 0.885112 0.682774
Si Si4 0.650304 0.076576 0.091067
Si Si5 0.197487 0.325971 0.729121
Si Si6 0.837175 0.952306 0.538688
Si Si7 0.565141 0.757071 0.391038
Si Si8 0.890676 0.370491 0.973598
O O1 0.468187 0.485882 0.230609
O O2 0.316554 0.291030 0.230755
O O3 0.331990 0.996976 0.022378
O O4 0.194964 0.407552 0.008051
O O5 0.913955 0.801763 0.654035
O O6 0.090667 0.465528 0.728349
O O7 0.035724 0.733798 0.892373
O O8 0.871768 0.292010 0.628139
O O9 0.520503 0.997833 0.618156
O O10 0.635138 0.694676 0.537879
O O11 0.787102 0.124417 0.803107
O O12 0.737897 0.891213 0.190352
O O13 0.694646 0.413430 0.189454
O O14 0.500000 0.000000 0.000000
O O15 0.124181 0.148919 0.554537
O O16 0.677485 0.863235 0.413997
O O17 0.000000 0.500000 0.000000
#
# Coordination Sequence:
#
# PCOD8024526 Si02
#       8
#     2   2   2   2   2   2   2   2
#     4  11  24  42  71  98 137 182 225 293 345 412
#     4  12  26  46  69 103 140 184 231 284 345 410
#     4  10  23  43  68  95 139 175 229 282 353 402
#     4  12  26  43  74 105 142 184 231 285 349 412
#     4  12  25  48  68 102 143 180 236 286 345 412
#     4  12  27  44  74  99 138 184 236 283 341 413
#     4  10  24  43  66 102 132 179 228 288 339 414
#     4  11  25  43  68 101 137 183 232 284 348 415
#
# _framework density 24.414504000000001
#
# number of rings (size 3 to 8) (size 9 to 14) (size 15 to 20)
#    0.000    0.750    1.250    5.250    8.750    0.500 
#    0.000    0.000    0.000    0.000    0.000    0.000 
#    0.000    0.000    0.000    0.000    0.000    0.000 
#
# Total GULP energy -198423.789701 kJ/mol
# GULP energy per Si atom -12401.486856 kJ/mol
# Density = 2.435894 g / cm^3
# Si number density = 24.414504 Si / 1000 Ang^3
#
#
#
# Elastic Constant Matrix: (Units=GPa)
#
#
# Indices 1 2 3 4 5 6 
#
# 1 86.3460 -2.2529 37.6891 -6.0506 12.5888 16.8838
# 2 -2.2529 80.6862 15.5233 -2.9183 0.2308 15.9503
# 3 37.6891 15.5233 91.5917 -9.3804 3.2356 -0.1381
# 4 -6.0506 -2.9183 -9.3804 27.8995 5.7100 -5.3416
# 5 12.5888 0.2308 3.2356 5.7100 45.5897 7.3193
# 6 16.8838 15.9503 -0.1381 -5.3416 7.3193 27.7588
#
#
#
# Elastic Compliance Matrix: (Units=1/GPa)
#
#
# Indices 1 2 3 4 5 6 
#
# 1 0.018230 0.004729 -0.008286 -0.000423 -0.002277 -0.013328
# 2 0.004729 0.015904 -0.004868 -0.001617 0.001195 -0.012666
# 3 -0.008286 -0.004868 0.015698 0.004890 -0.000873 0.009086
# 4 -0.000423 -0.001617 0.004890 0.040767 -0.007082 0.010923
# 5 -0.002277 0.001195 -0.000873 -0.007082 0.024658 -0.007170
# 6 -0.013328 -0.012666 0.009086 0.010923 -0.007170 0.055446
#
#
# Mechanical properties :
#
#
# Convention : Reuss Voigt Hill
#
# Bulk Modulus (GPa) = 30.32010 40.06032 35.19021
# Shear Modulus (GPa) = 25.18296 34.09388 29.63842
#
# Velocity S-wave (km/s) = 3.21514 3.74098 3.48798
# Velocity P-wave (km/s) = 5.12140 5.92486 5.53772
#
# Compressibility (1/GPa) = 0.03298143
#
# Stress axis : x y z
#
# Youngs Moduli (GPa) = 54.85559 62.87636 63.70227
#
# Poissons Ratio (x) = -0.29734 0.52783
# Poissons Ratio (y) = -0.25941 0.31013
# Poissons Ratio (z) = 0.45452 0.30611
#
# Static dielectric constant tensor:
#      x y z
#    x 4.483980 0.021300 -0.036430 
#    y 0.021300 4.492250 -0.043110 
#    z -0.036430 -0.043110 4.843690 
# 
# 
# High freq. dielectric constant tensor:
#      x y z
#    x 1.981190 0.007340 0.005130 
#    y 0.007340 1.960800 -0.003190 
#    z 0.005130 -0.003190 1.987790 
# 
# From -- ./inp_files/143436.got.cif
#   From: 2010.06.25/outbox.cif.g09.slc.cpg/sg2_72_cif.got.tgz:143436.got - 2010.06.27 13:26:56.
