data_PCOD8024896
_publ_section_title
;
Structure prediction by ZEFSAII (Michael W. Deem and Ramdas Pophale) SiO2 
 PCOD8024896
Probable space group: P -1
;
_chemical_formula_sum "Si O2"
_cell_formula_units_Z 16
_cell_length_a 11.794954
_cell_length_b 11.905448
_cell_length_c 12.388764
_cell_angle_alpha 139.928950
_cell_angle_beta 105.229627
_cell_angle_gamma 104.871391
_cell_volume 730.539636
_symmetry_space_group_name_H-M "P -1"
_symmetry_group_IT_number 2
_symmetry_cell_setting 'triclinic'
loop_
_space_group_symop_operation_xyz
x,y,z
-x,-y,-z
loop_
_atom_site_type_symbol
_atom_site_label
_atom_site_fract_x
_atom_site_fract_y
_atom_site_fract_z
Si Si1 0.893742 0.591451 0.725228
Si Si2 0.755173 0.120418 0.919315
Si Si3 0.571895 0.471052 0.594178
Si Si4 0.468211 0.233064 0.077954
Si Si5 0.470784 0.664236 0.080824
Si Si6 0.841362 0.476589 0.024530
Si Si7 0.247626 0.702117 0.727475
Si Si8 0.200293 0.761707 0.373233
O O1 0.767579 0.617686 0.732807
O O2 0.906936 0.548032 0.569233
O O3 0.819440 0.345072 0.592473
O O4 0.090371 0.854543 0.007005
O O5 0.561309 0.835109 0.652660
O O6 0.780752 0.239191 0.899153
O O7 0.786940 0.291604 0.151548
O O8 0.500000 0.500000 0.500000
O O9 0.568553 0.602056 0.789274
O O10 0.613414 0.304958 0.244785
O O11 0.522642 0.283616 0.004904
O O12 0.301164 0.934050 0.845012
O O13 0.616541 0.942007 0.378720
O O14 0.500000 0.500000 0.000000
O O15 0.277555 0.491665 0.948646
O O16 0.044783 0.732153 0.290920
O O17 0.815052 0.412503 0.844265
#
# Coordination Sequence:
#
# PCOD8024896 Si02
#       8
#     2   2   2   2   2   2   2   2
#     4  11  23  40  66  91 119 165 210 251 309 374
#     4  11  23  40  66  91 119 165 210 251 309 374
#     4  12  23  40  58  88 131 159 192 258 311 359
#     4  11  23  39  62  92 127 169 198 254 313 358
#     4  12  25  40  65  94 125 165 208 248 315 375
#     4  10  23  44  65  90 122 161 211 259 302 361
#     4  11  19  42  66  89 127 160 209 255 302 369
#     4  10  23  44  65  90 122 161 211 259 302 361
#
# _framework density 21.901617000000002
#
# number of rings (size 3 to 8) (size 9 to 14) (size 15 to 20)
#    0.000    1.000    5.000    2.250    3.500    1.000 
#    0.000    1.250    0.000    0.000    0.000    0.000 
#    0.000    0.000    0.000    0.000    0.000    0.000 
#
# Total GULP energy -198290.605335 kJ/mol
# GULP energy per Si atom -12393.162833 kJ/mol
# Density = 2.185177 g / cm^3
# Si number density = 21.901617 Si / 1000 Ang^3
#
#
#
# Elastic Constant Matrix: (Units=GPa)
#
#
# Indices 1 2 3 4 5 6 
#
# 1 137.3266 6.3004 28.1758 -8.5386 5.3210 -5.0347
# 2 6.3004 61.9014 6.8603 -13.5525 -5.5229 1.5165
# 3 28.1758 6.8603 50.8237 -13.4223 -6.9376 -4.2309
# 4 -8.5386 -13.5525 -13.4223 24.2149 4.3451 -2.2149
# 5 5.3210 -5.5229 -6.9376 4.3451 26.7306 -3.7905
# 6 -5.0347 1.5165 -4.2309 -2.2149 -3.7905 34.0525
#
#
#
# Elastic Compliance Matrix: (Units=1/GPa)
#
#
# Indices 1 2 3 4 5 6 
#
# 1 0.008473 -0.000474 -0.004863 0.000616 -0.003095 0.000365
# 2 -0.000474 0.018575 0.000815 0.010246 0.002499 0.000149
# 3 -0.004863 0.000815 0.026905 0.012847 0.006621 0.004160
# 4 0.000616 0.010246 0.012847 0.055323 -0.003027 0.004492
# 5 -0.003095 0.002499 0.006621 -0.003027 0.041415 0.004667
# 6 0.000365 0.000149 0.004160 0.004492 0.004667 0.030742
#
#
# Mechanical properties :
#
#
# Convention : Reuss Voigt Hill
#
# Bulk Modulus (GPa) = 22.26719 36.96942 29.61830
# Shear Modulus (GPa) = 24.33723 30.91396 27.62559
#
# Velocity S-wave (km/s) = 3.33709 3.76106 3.55540
# Velocity P-wave (km/s) = 5.00372 5.98140 5.51427
#
# Compressibility (1/GPa) = 0.04490913
#
# Stress axis : x y z
#
# Youngs Moduli (GPa) = 118.02274 53.83537 37.16847
#
# Poissons Ratio (x) = 0.02550 0.18074
# Poissons Ratio (y) = 0.05591 -0.03028
# Poissons Ratio (z) = 0.57391 -0.04386
#
# Static dielectric constant tensor:
#      x y z
#    x 4.330650 0.220880 0.395440 
#    y 0.220880 3.816730 -0.267700 
#    z 0.395440 -0.267700 3.777200 
# 
# 
# High freq. dielectric constant tensor:
#      x y z
#    x 1.871330 0.006830 0.015100 
#    y 0.006830 1.854790 -0.025410 
#    z 0.015100 -0.025410 1.848200 
# 
# From -- ./inp_files/429110.got.cif
#   From: 2010.06.25/outbox.cif.g09.slc.cpg/sg2_215_cif.got.tgz:429110.got - 2010.06.27 13:26:56.
