data_PCOD8024458
_publ_section_title
;
Structure prediction by ZEFSAII (Michael W. Deem and Ramdas Pophale) SiO2 
 PCOD8024458
Probable space group: P -1
;
_chemical_formula_sum "Si O2"
_cell_formula_units_Z 14
_cell_length_a 8.694325
_cell_length_b 11.028867
_cell_length_c 11.756991
_cell_angle_alpha 56.593998
_cell_angle_beta 137.516520
_cell_angle_gamma 110.115152
_cell_volume 631.734529
_symmetry_space_group_name_H-M "P -1"
_symmetry_group_IT_number 2
_symmetry_cell_setting 'triclinic'
loop_
_space_group_symop_operation_xyz
x,y,z
-x,-y,-z
loop_
_atom_site_type_symbol
_atom_site_label
_atom_site_fract_x
_atom_site_fract_y
_atom_site_fract_z
Si Si1 0.249453 0.321618 0.766312
Si Si2 0.488868 0.656152 0.468272
Si Si3 0.543303 0.866598 0.678853
Si Si4 0.754740 0.360580 0.417792
Si Si5 0.793610 0.934960 0.983575
Si Si6 0.908063 0.669180 0.844165
Si Si7 0.666402 0.187366 0.925479
O O1 0.347187 0.477155 0.765844
O O2 0.435992 0.216430 0.854917
O O3 0.025898 0.353585 0.548979
O O4 0.166230 0.238231 0.875016
O O5 0.500000 0.500000 0.500000
O O6 0.322267 0.663174 0.482189
O O7 0.746090 0.687443 0.633287
O O8 0.373212 0.762307 0.253685
O O9 0.329578 0.773142 0.629859
O O10 0.580703 0.948506 0.774307
O O11 0.757188 0.746812 0.824618
O O12 0.500000 0.000000 0.500000
O O13 0.738457 0.015435 0.032876
O O14 0.000000 0.000000 0.000000
O O15 0.000000 0.500000 0.000000
O O16 0.137174 0.749404 0.925011
#
# Coordination Sequence:
#
# PCOD8024458 Si02
#       7
#     2   2   2   2   2   2   2
#     4  11  24  43  64  98 139 176 221 285 346 400
#     4  11  20  40  69  99 132 178 226 274 344 403
#     4  11  23  44  69 101 134 177 238 279 334 417
#     4  10  23  43  67  96 139 181 220 281 340 402
#     4  12  24  43  69  93 128 185 224 277 345 410
#     4  11  22  38  69 103 132 174 233 287 326 405
#     4  12  23  43  66 102 139 174 228 283 342 404
#
# _framework density 22.161207000000001
#
# number of rings (size 3 to 8) (size 9 to 14) (size 15 to 20)
#    0.000    0.857    4.286    4.714    0.000    0.571 
#    2.571    0.714    0.000    0.000    0.000    0.000 
#    0.000    0.000    0.000    0.000    0.000    0.000 
#
# Total GULP energy -173435.505666 kJ/mol
# GULP energy per Si atom -12388.250405 kJ/mol
# Density = 2.211077 g / cm^3
# Si number density = 22.161207 Si / 1000 Ang^3
#
#
#
# Elastic Constant Matrix: (Units=GPa)
#
#
# Indices 1 2 3 4 5 6 
#
# 1 71.7798 42.4061 19.6067 5.5398 16.4897 10.3473
# 2 42.4061 175.5223 51.2609 13.9393 -1.6097 14.6725
# 3 19.6067 51.2609 92.2285 10.7086 2.7715 12.5897
# 4 5.5398 13.9393 10.7086 51.2486 3.7650 -6.7758
# 5 16.4897 -1.6097 2.7715 3.7650 37.4254 -6.7858
# 6 10.3473 14.6725 12.5897 -6.7758 -6.7858 35.4627
#
#
#
# Elastic Compliance Matrix: (Units=1/GPa)
#
#
# Indices 1 2 3 4 5 6 
#
# 1 0.019694 -0.004074 -0.000723 -0.000926 -0.009767 -0.005850
# 2 -0.004074 0.007828 -0.003321 -0.001257 0.002385 -0.000655
# 3 -0.000723 -0.003321 0.013692 -0.002307 -0.001326 -0.003970
# 4 -0.000926 -0.001257 -0.002307 0.021214 -0.000604 0.005547
# 5 -0.009767 0.002385 -0.001326 -0.000604 0.032826 0.008499
# 6 -0.005850 -0.000655 -0.003970 0.005547 0.008499 0.034272
#
#
# Mechanical properties :
#
#
# Convention : Reuss Voigt Hill
#
# Bulk Modulus (GPa) = 40.03543 62.89756 51.46650
# Shear Modulus (GPa) = 32.44901 39.91111 36.18006
#
# Velocity S-wave (km/s) = 3.83067 4.24836 4.04491
# Velocity P-wave (km/s) = 6.13760 7.24625 6.71485
#
# Compressibility (1/GPa) = 0.02497787
#
# Stress axis : x y z
#
# Youngs Moduli (GPa) = 50.77652 127.74854 73.03597
#
# Poissons Ratio (x) = 0.52045 0.05280
# Poissons Ratio (y) = 0.20687 0.24256
# Poissons Ratio (z) = 0.03671 0.42426
#
# Static dielectric constant tensor:
#      x y z
#    x 3.739690 -0.068930 0.104890 
#    y -0.068930 4.765110 -0.100400 
#    z 0.104890 -0.100400 4.187220 
# 
# 
# High freq. dielectric constant tensor:
#      x y z
#    x 1.846080 -0.001080 0.018660 
#    y -0.001080 1.901630 -0.005560 
#    z 0.018660 -0.005560 1.868260 
# 
# From -- ./inp_files/222464.got.cif
#   From: 2010.06.25/outbox.cif.g09.slc.cpg/sg2_112_cif.got.tgz:222464.got - 2010.06.27 13:26:56.
