data_PCOD8024748
_publ_section_title
;
Structure prediction by ZEFSAII (Michael W. Deem and Ramdas Pophale) SiO2 
 PCOD8024748
Probable space group: P -1
;
_chemical_formula_sum "Si O2"
_cell_formula_units_Z 16
_cell_length_a 8.792007
_cell_length_b 11.169435
_cell_length_c 14.247320
_cell_angle_alpha 137.995536
_cell_angle_beta 106.666336
_cell_angle_gamma 53.812868
_cell_volume 725.137677
_symmetry_space_group_name_H-M "P -1"
_symmetry_group_IT_number 2
_symmetry_cell_setting 'triclinic'
loop_
_space_group_symop_operation_xyz
x,y,z
-x,-y,-z
loop_
_atom_site_type_symbol
_atom_site_label
_atom_site_fract_x
_atom_site_fract_y
_atom_site_fract_z
Si Si1 0.645978 0.979729 0.436724
Si Si2 0.512496 0.773308 0.634723
Si Si3 0.171538 0.520628 0.065453
Si Si4 0.206314 0.779143 0.887051
Si Si5 0.183639 0.907075 0.316167
Si Si6 0.496378 0.903784 0.040399
Si Si7 0.362552 0.391110 0.832221
Si Si8 0.798993 0.274716 0.363623
O O1 0.736026 0.742465 0.267105
O O2 0.500000 0.000000 0.500000
O O3 0.528828 0.171815 0.450645
O O4 0.808290 0.997281 0.525983
O O5 0.701491 0.519374 0.531016
O O6 0.319079 0.818380 0.674167
O O7 0.557817 0.929728 0.785809
O O8 0.106880 0.755118 0.233782
O O9 0.292568 0.326340 0.047735
O O10 0.303807 0.497149 0.986480
O O11 0.000000 0.500000 0.000000
O O12 0.257114 0.575659 0.841118
O O13 0.219065 0.708431 0.741302
O O14 0.348899 0.840633 0.976729
O O15 0.000000 0.000000 0.000000
O O16 0.401058 0.768116 0.227803
O O17 0.026328 0.111631 0.340693
O O18 0.500000 0.000000 0.000000
#
# Coordination Sequence:
#
# PCOD8024748 Si02
#       8
#     2   2   2   2   2   2   2   2
#     4  10  23  43  71  98 140 187 236 289 360 430
#     4  11  24  47  70 104 148 184 236 307 361 434
#     4  12  26  44  73 105 142 184 246 300 356 431
#     4  12  27  45  72 105 148 193 243 297 364 435
#     4  11  24  44  71 104 138 190 240 290 363 426
#     4  12  26  47  74 104 144 189 238 299 367 428
#     4  11  24  47  69 100 144 189 240 303 352 425
#     4  11  25  44  70 106 146 186 240 298 368 432
#
# _framework density 22.064774
#
# number of rings (size 3 to 8) (size 9 to 14) (size 15 to 20)
#    0.000    0.750    3.750    3.375    3.500    1.500 
#    0.000    3.750    0.000    0.000    0.000    0.000 
#    0.000    0.000    0.000    0.000    0.000    0.000 
#
# Total GULP energy -198382.854766 kJ/mol
# GULP energy per Si atom -12398.928423 kJ/mol
# Density = 2.201455 g / cm^3
# Si number density = 22.064774 Si / 1000 Ang^3
#
#
#
# Elastic Constant Matrix: (Units=GPa)
#
#
# Indices 1 2 3 4 5 6 
#
# 1 70.3620 50.3667 24.0771 8.6322 16.2443 -10.6026
# 2 50.3667 188.5996 46.3505 7.4588 3.8487 -1.9654
# 3 24.0771 46.3505 99.1462 1.4891 30.1226 -10.0032
# 4 8.6322 7.4588 1.4891 42.6212 0.7979 -3.3612
# 5 16.2443 3.8487 30.1226 0.7979 50.8920 -5.0142
# 6 -10.6026 -1.9654 -10.0032 -3.3612 -5.0142 44.7357
#
#
#
# Elastic Compliance Matrix: (Units=1/GPa)
#
#
# Indices 1 2 3 4 5 6 
#
# 1 0.020067 -0.004973 -0.000526 -0.002791 -0.005318 0.003614
# 2 -0.004973 0.007362 -0.003213 -0.000323 0.002811 -0.001283
# 3 -0.000526 -0.003213 0.014307 0.000481 -0.007859 0.002089
# 4 -0.002791 -0.000323 0.000481 0.024162 0.000379 0.001290
# 5 -0.005318 0.002811 -0.007859 0.000379 0.025782 0.000024
# 6 0.003614 -0.001283 0.002089 0.001290 0.000024 0.023720
#
#
# Mechanical properties :
#
#
# Convention : Reuss Voigt Hill
#
# Bulk Modulus (GPa) = 41.13117 66.63292 53.88204
# Shear Modulus (GPa) = 35.47916 43.47069 39.47493
#
# Velocity S-wave (km/s) = 4.01428 4.44344 4.23430
# Velocity P-wave (km/s) = 6.33778 7.52263 6.95548
#
# Compressibility (1/GPa) = 0.02431246
#
# Stress axis : x y z
#
# Youngs Moduli (GPa) = 49.83353 135.83460 69.89621
#
# Poissons Ratio (x) = 0.67553 0.03676
# Poissons Ratio (y) = 0.24783 0.22454
# Poissons Ratio (z) = 0.02621 0.43637
#
# Static dielectric constant tensor:
#      x y z
#    x 4.066430 -0.014670 0.652790 
#    y -0.014670 4.284330 -0.512170 
#    z 0.652790 -0.512170 6.194090 
# 
# 
# High freq. dielectric constant tensor:
#      x y z
#    x 1.864950 0.006380 0.015230 
#    y 0.006380 1.880930 -0.000050 
#    z 0.015230 -0.000050 1.884830 
# 
# From -- ./inp_files/209217.got.cif
#   From: 2010.06.25/outbox.cif.g09.slc.cpg/sg2_105_cif.got.tgz:209217.got - 2010.06.27 13:26:56.
