data_PCOD8024859
_publ_section_title
;
Structure prediction by ZEFSAII (Michael W. Deem and Ramdas Pophale) SiO2 
 PCOD8024859
Probable space group: P -1
;
_chemical_formula_sum "Si O2"
_cell_formula_units_Z 16
_cell_length_a 11.957027
_cell_length_b 5.595693
_cell_length_c 18.349487
_cell_angle_alpha 82.465204
_cell_angle_beta 129.985135
_cell_angle_gamma 65.048984
_cell_volume 695.420039
_symmetry_space_group_name_H-M "P -1"
_symmetry_group_IT_number 2
_symmetry_cell_setting 'triclinic'
loop_
_space_group_symop_operation_xyz
x,y,z
-x,-y,-z
loop_
_atom_site_type_symbol
_atom_site_label
_atom_site_fract_x
_atom_site_fract_y
_atom_site_fract_z
Si Si1 0.364712 0.326838 0.974038
Si Si2 0.059174 0.777906 0.330834
Si Si3 0.649546 0.305754 0.175139
Si Si4 0.702861 0.725288 0.821535
Si Si5 0.313755 0.795823 0.101809
Si Si6 0.962527 0.673634 0.139040
Si Si7 0.668342 0.129194 0.572110
Si Si8 0.579086 0.884711 0.429796
O O1 0.314860 0.608197 0.891282
O O2 0.165670 0.427139 0.913106
O O3 0.492205 0.262476 0.100850
O O4 0.500000 0.000000 0.000000
O O5 0.117690 0.985754 0.321212
O O6 0.240599 0.497343 0.469038
O O7 0.029099 0.648124 0.251490
O O8 0.870066 0.975317 0.297863
O O9 0.544042 0.579232 0.183206
O O10 0.720226 0.430601 0.868881
O O11 0.856138 0.573584 0.826839
O O12 0.744417 0.904852 0.886130
O O13 0.485091 0.009455 0.685269
O O14 0.174721 0.958953 0.964971
O O15 0.500000 0.500000 0.500000
O O16 0.621123 0.966809 0.615666
O O17 0.654609 0.055379 0.485967
#
# Coordination Sequence:
#
# PCOD8024859 Si02
#       8
#     2   2   2   2   2   2   2   2
#     4  11  21  42  69 101 144 179 223 317 358 418
#     4  11  24  39  75 108 134 178 226 323 365 414
#     4  11  24  42  68 103 143 186 241 287 368 422
#     4  12  29  47  75  97 152 201 241 288 342 440
#     4  12  28  49  68 102 151 205 237 284 343 444
#     4  12  24  45  74 112 142 177 245 294 382 421
#     4   9  19  38  66  98 137 165 223 311 363 404
#     4  10  23  44  63 105 133 184 240 291 365 416
#
# _framework density 23.007676
#
# number of rings (size 3 to 8) (size 9 to 14) (size 15 to 20)
#    0.000    1.000    2.500    4.500    8.750    1.000 
#    0.000    1.250    0.000    0.000    0.000    0.000 
#    0.000    0.000    0.000    0.000    0.000    0.000 
#
# Total GULP energy -198222.502418 kJ/mol
# GULP energy per Si atom -12388.906401 kJ/mol
# Density = 2.295531 g / cm^3
# Si number density = 23.007676 Si / 1000 Ang^3
#
#
#
# Elastic Constant Matrix: (Units=GPa)
#
#
# Indices 1 2 3 4 5 6 
#
# 1 97.1015 31.3970 34.0012 -5.2824 24.5047 7.8899
# 2 31.3970 89.2548 10.9447 -5.2172 8.7941 0.5122
# 3 34.0012 10.9447 95.7814 -12.0911 4.8002 13.0919
# 4 -5.2824 -5.2172 -12.0911 33.6480 1.8382 13.0727
# 5 24.5047 8.7941 4.8002 1.8382 40.1133 -2.1254
# 6 7.8899 0.5122 13.0919 13.0727 -2.1254 47.1820
#
#
#
# Elastic Compliance Matrix: (Units=1/GPa)
#
#
# Indices 1 2 3 4 5 6 
#
# 1 0.015355 -0.003984 -0.004074 0.001639 -0.008212 -0.002218
# 2 -0.003984 0.012710 0.000148 0.001390 -0.000430 0.000083
# 3 -0.004074 0.000148 0.013228 0.005909 0.000358 -0.004612
# 4 0.001639 0.001390 0.005909 0.037408 -0.004389 -0.012491
# 5 -0.008212 -0.000430 0.000358 -0.004389 0.030403 0.003864
# 6 -0.002218 0.000083 -0.004612 -0.012491 0.003864 0.026479
#
#
# Mechanical properties :
#
#
# Convention : Reuss Voigt Hill
#
# Bulk Modulus (GPa) = 39.25814 48.31372 43.78593
# Shear Modulus (GPa) = 31.27027 37.90830 34.58928
#
# Velocity S-wave (km/s) = 3.69063 4.06351 3.88155
# Velocity P-wave (km/s) = 5.93810 6.56207 6.25787
#
# Compressibility (1/GPa) = 0.02547243
#
# Stress axis : x y z
#
# Youngs Moduli (GPa) = 65.12508 78.67591 75.59649
#
# Poissons Ratio (x) = 0.31346 0.30797
# Poissons Ratio (y) = 0.25947 -0.01115
# Poissons Ratio (z) = 0.26531 -0.01161
#
# Static dielectric constant tensor:
#      x y z
#    x 4.208220 -0.211250 0.261650 
#    y -0.211250 4.157560 0.002840 
#    z 0.261650 0.002840 4.363590 
# 
# 
# High freq. dielectric constant tensor:
#      x y z
#    x 1.897060 0.007790 0.018430 
#    y 0.007790 1.918290 -0.012500 
#    z 0.018430 -0.012500 1.903960 
# 
# From -- ./inp_files/564475.got.cif
#   From: 2010.06.25/outbox.cif.g09.slc.cpg/sg2_283_cif.got.tgz:564475.got - 2010.06.27 13:26:56.
