data_PCOD8024683
_publ_section_title
;
Structure prediction by ZEFSAII (Michael W. Deem and Ramdas Pophale) SiO2 
 PCOD8024683
Probable space group: P -1
;
_chemical_formula_sum "Si O2"
_cell_formula_units_Z 16
_cell_length_a 15.180800
_cell_length_b 9.040011
_cell_length_c 8.715564
_cell_angle_alpha 67.392591
_cell_angle_beta 127.461439
_cell_angle_gamma 79.478064
_cell_volume 721.170056
_symmetry_space_group_name_H-M "P -1"
_symmetry_group_IT_number 2
_symmetry_cell_setting 'triclinic'
loop_
_space_group_symop_operation_xyz
x,y,z
-x,-y,-z
loop_
_atom_site_type_symbol
_atom_site_label
_atom_site_fract_x
_atom_site_fract_y
_atom_site_fract_z
Si Si1 0.425741 0.912480 0.887116
Si Si2 0.105320 0.777264 0.499884
Si Si3 0.148873 0.104984 0.366960
Si Si4 0.911692 0.438700 0.149012
Si Si5 0.868758 0.832972 0.030731
Si Si6 0.397161 0.451158 0.958557
Si Si7 0.373488 0.812974 0.188636
Si Si8 0.356280 0.466257 0.266860
O O1 0.292879 0.055630 0.590618
O O2 0.543397 0.759808 0.959667
O O3 0.378417 0.830854 0.003693
O O4 0.500000 0.000000 0.000000
O O5 0.072673 0.717219 0.649577
O O6 0.252213 0.600914 0.667447
O O7 0.110416 0.964561 0.455066
O O8 0.995393 0.822019 0.239482
O O9 0.150859 0.087560 0.193070
O O10 0.041389 0.325884 0.221133
O O11 0.897710 0.618902 0.150562
O O12 0.782071 0.519442 0.869126
O O13 0.735565 0.980719 0.930718
O O14 0.500000 0.500000 0.000000
O O15 0.390541 0.451968 0.131888
O O16 0.336241 0.658293 0.244889
O O17 0.522730 0.728893 0.445364
#
# Coordination Sequence:
#
# PCOD8024683 Si02
#       8
#     2   2   2   2   2   2   2   2
#     4  12  27  40  68  97 133 174 217 273 329 394
#     4  11  24  43  73  94 132 180 223 270 323 406
#     4  12  25  47  67  97 136 178 224 271 330 398
#     4  11  25  44  68  95 137 174 221 272 340 382
#     4  12  27  42  68 104 135 172 219 282 332 388
#     4  11  21  44  66  98 129 170 222 269 328 384
#     4  11  24  43  67  98 134 171 228 263 334 396
#     4  10  23  43  70  96 130 178 215 276 319 405
#
# _framework density 22.186167999999999
#
# number of rings (size 3 to 8) (size 9 to 14) (size 15 to 20)
#    0.000    0.750    2.500    4.500    7.000    1.500 
#    0.000    0.000    0.000    0.000    0.000    0.000 
#    0.000    0.000    0.000    0.000    0.000    0.000 
#
# Total GULP energy -198431.668492 kJ/mol
# GULP energy per Si atom -12401.979281 kJ/mol
# Density = 2.213567 g / cm^3
# Si number density = 22.186168 Si / 1000 Ang^3
#
#
#
# Elastic Constant Matrix: (Units=GPa)
#
#
# Indices 1 2 3 4 5 6 
#
# 1 57.9900 24.0069 38.0270 -6.8265 14.4079 -14.4501
# 2 24.0069 126.7836 41.5476 -7.0414 25.0281 -13.9759
# 3 38.0270 41.5476 166.3336 13.5027 31.6341 -14.8253
# 4 -6.8265 -7.0414 13.5027 39.0496 0.8664 11.6249
# 5 14.4079 25.0281 31.6341 0.8664 47.0215 -2.8195
# 6 -14.4501 -13.9759 -14.8253 11.6249 -2.8195 44.2665
#
#
#
# Elastic Compliance Matrix: (Units=1/GPa)
#
#
# Indices 1 2 3 4 5 6 
#
# 1 0.023005 -0.001665 -0.004173 0.003940 -0.003167 0.004350
# 2 -0.001665 0.009599 -0.001324 0.001562 -0.003653 0.001401
# 3 -0.004173 -0.001324 0.008508 -0.004429 -0.003538 0.002007
# 4 0.003940 0.001562 -0.004429 0.030402 -0.000080 -0.007693
# 5 -0.003167 -0.003653 -0.003538 -0.000080 0.026464 -0.001666
# 6 0.004350 0.001401 0.002007 -0.007693 -0.001666 0.027039
#
#
# Mechanical properties :
#
#
# Convention : Reuss Voigt Hill
#
# Bulk Modulus (GPa) = 37.33139 62.03001 49.68070
# Shear Modulus (GPa) = 33.72199 42.56924 38.14561
#
# Velocity S-wave (km/s) = 3.90289 4.38508 4.15099
# Velocity P-wave (km/s) = 6.09697 7.32517 6.73911
#
# Compressibility (1/GPa) = 0.02678711
#
# Stress axis : x y z
#
# Youngs Moduli (GPa) = 43.46926 104.17808 117.53259
#
# Poissons Ratio (x) = 0.17345 0.49050
# Poissons Ratio (y) = 0.07237 0.15564
# Poissons Ratio (z) = 0.18141 0.13795
#
# Static dielectric constant tensor:
#      x y z
#    x 3.600560 0.228190 0.083940 
#    y 0.228190 3.718580 0.002690 
#    z 0.083940 0.002690 4.320830 
# 
# 
# High freq. dielectric constant tensor:
#      x y z
#    x 1.871280 -0.004020 0.011350 
#    y -0.004020 1.880320 0.000820 
#    z 0.011350 0.000820 1.889000 
# 
# From -- ./inp_files/297981.got.cif
#   From: 2010.06.25/outbox.cif.g09.slc.cpg/sg2_149_cif.got.tgz:297981.got - 2010.06.27 13:26:56.
