data_PCOD8024902
_publ_section_title
;
Structure prediction by ZEFSAII (Michael W. Deem and Ramdas Pophale) SiO2 
 PCOD8024902
Probable space group: P -1
;
_chemical_formula_sum "Si O2"
_cell_formula_units_Z 16
_cell_length_a 11.130422
_cell_length_b 9.214184
_cell_length_c 11.670498
_cell_angle_alpha 84.360817
_cell_angle_beta 60.899299
_cell_angle_gamma 125.582647
_cell_volume 717.756415
_symmetry_space_group_name_H-M "P -1"
_symmetry_group_IT_number 2
_symmetry_cell_setting 'triclinic'
loop_
_space_group_symop_operation_xyz
x,y,z
-x,-y,-z
loop_
_atom_site_type_symbol
_atom_site_label
_atom_site_fract_x
_atom_site_fract_y
_atom_site_fract_z
Si Si1 0.600630 0.980414 0.151773
Si Si2 0.890077 0.726021 0.395298
Si Si3 0.019310 0.880300 0.671051
Si Si4 0.868999 0.310818 0.818114
Si Si5 0.254862 0.526581 0.293884
Si Si6 0.009921 0.856040 0.943861
Si Si7 0.239972 0.500044 0.744326
Si Si8 0.581329 0.975292 0.572276
O O1 0.487770 0.751978 0.168492
O O2 0.781910 0.064266 0.137348
O O3 0.446329 0.951618 0.304983
O O4 0.676824 0.146901 0.002508
O O5 0.804922 0.547364 0.541572
O O6 0.745175 0.607915 0.358539
O O7 0.104836 0.825259 0.248606
O O8 0.918012 0.910024 0.416627
O O9 0.980922 0.856523 0.824386
O O10 0.808187 0.669108 0.729474
O O11 0.188212 0.893889 0.554630
O O12 0.857959 0.428650 0.721142
O O13 0.073105 0.493242 0.783819
O O14 0.828414 0.622017 0.094851
O O15 0.000000 0.000000 0.000000
O O16 0.453784 0.729581 0.655125
O O17 0.500000 0.000000 0.500000
#
# Coordination Sequence:
#
# PCOD8024902 Si02
#       8
#     2   2   2   2   2   2   2   2
#     4  11  25  42  66 100 136 166 232 268 327 395
#     4  10  23  44  65  95 132 174 224 273 328 392
#     4  12  26  42  68  99 140 172 223 269 338 386
#     4   9  22  43  68  90 129 177 222 271 327 389
#     4  12  25  43  68  96 135 186 216 272 329 395
#     4  11  22  46  70  96 131 173 215 280 331 395
#     4   9  22  39  68  95 128 168 221 273 333 375
#     4  12  24  38  64 106 132 168 219 279 320 403
#
# _framework density 22.291685000000001
#
# number of rings (size 3 to 8) (size 9 to 14) (size 15 to 20)
#    0.750    0.500    2.500    2.625    5.250    2.500 
#    0.000    2.500    0.000    0.000    0.000    0.000 
#    0.000    0.000    0.000    0.000    0.000    0.000 
#
# Total GULP energy -198259.495812 kJ/mol
# GULP energy per Si atom -12391.218488 kJ/mol
# Density = 2.224095 g / cm^3
# Si number density = 22.291685 Si / 1000 Ang^3
#
#
#
# Elastic Constant Matrix: (Units=GPa)
#
#
# Indices 1 2 3 4 5 6 
#
# 1 33.3248 7.8579 24.0618 1.7307 18.9700 -13.0962
# 2 7.8579 125.3481 34.8458 -14.9284 -6.0353 6.1154
# 3 24.0618 34.8458 108.3779 6.6841 13.9163 -0.6885
# 4 1.7307 -14.9284 6.6841 33.7127 -8.9703 -1.8516
# 5 18.9700 -6.0353 13.9163 -8.9703 23.0857 -0.8691
# 6 -13.0962 6.1154 -0.6885 -1.8516 -0.8691 33.0443
#
#
#
# Elastic Compliance Matrix: (Units=1/GPa)
#
#
# Indices 1 2 3 4 5 6 
#
# 1 0.135666 -0.022602 -0.002415 -0.049060 -0.133051 0.051652
# 2 -0.022602 0.014673 -0.004791 0.016380 0.031284 -0.010032
# 3 -0.002415 -0.004791 0.013026 -0.007255 -0.009957 -0.000467
# 4 -0.049060 0.016380 -0.007255 0.058854 0.071181 -0.017456
# 5 -0.133051 0.031284 -0.009957 0.071181 0.192616 -0.049674
# 6 0.051652 -0.010032 -0.000467 -0.017456 -0.049674 0.050296
#
#
# Mechanical properties :
#
#
# Convention : Reuss Voigt Hill
#
# Bulk Modulus (GPa) = 9.63856 44.50910 27.07383
# Shear Modulus (GPa) = 8.93927 31.32090 20.13009
#
# Velocity S-wave (km/s) = 2.00471 3.75246 3.00831
# Velocity P-wave (km/s) = 3.11315 6.22773 4.92323
#
# Compressibility (1/GPa) = 0.10374991
#
# Stress axis : x y z
#
# Youngs Moduli (GPa) = 7.37105 68.15264 76.76729
#
# Poissons Ratio (x) = 1.54040 0.18538
# Poissons Ratio (y) = 0.16660 0.36775
# Poissons Ratio (z) = 0.01780 0.32649
#
# Static dielectric constant tensor:
#      x y z
#    x 3.948670 0.072830 0.415730 
#    y 0.072830 4.156140 -0.065650 
#    z 0.415730 -0.065650 4.382310 
# 
# 
# High freq. dielectric constant tensor:
#      x y z
#    x 1.858130 0.001550 0.024200 
#    y 0.001550 1.876690 -0.006220 
#    z 0.024200 -0.006220 1.884810 
# 
# From -- ./inp_files/419449.got.cif
#   From: 2010.06.25/outbox.cif.g09.slc.cpg/sg2_210_cif.got.tgz:419449.got - 2010.06.27 13:26:56.
