data_PCOD8024918
_publ_section_title
;
Structure prediction by ZEFSAII (Michael W. Deem and Ramdas Pophale) SiO2 
 PCOD8024918
Probable space group: P -1
;
_chemical_formula_sum "Si O2"
_cell_formula_units_Z 16
_cell_length_a 12.224841
_cell_length_b 5.101855
_cell_length_c 10.973162
_cell_angle_alpha 104.889951
_cell_angle_beta 97.819444
_cell_angle_gamma 89.646444
_cell_volume 654.961911
_symmetry_space_group_name_H-M "P -1"
_symmetry_group_IT_number 2
_symmetry_cell_setting 'triclinic'
loop_
_space_group_symop_operation_xyz
x,y,z
-x,-y,-z
loop_
_atom_site_type_symbol
_atom_site_label
_atom_site_fract_x
_atom_site_fract_y
_atom_site_fract_z
Si Si1 0.186982 0.237981 0.338148
Si Si2 0.695393 0.981712 0.025250
Si Si3 0.884117 0.359850 0.150499
Si Si4 0.765448 0.466816 0.376690
Si Si5 0.633553 0.933936 0.284214
Si Si6 0.979193 0.130755 0.843908
Si Si7 0.384711 0.938898 0.230026
Si Si8 0.794426 0.494818 0.872594
O O1 0.178611 0.397007 0.481068
O O2 0.154456 0.427447 0.242104
O O3 0.097895 0.985297 0.293483
O O4 0.311884 0.137969 0.324584
O O5 0.636014 0.926588 0.137110
O O6 0.761495 0.275323 0.067281
O O7 0.786667 0.754518 0.988852
O O8 0.608393 0.961834 0.898390
O O9 0.864051 0.360835 0.294343
O O10 0.923289 0.665724 0.160567
O O11 0.972032 0.124933 0.106754
O O12 0.691507 0.676471 0.317414
O O13 0.689430 0.210152 0.377682
O O14 0.505534 0.923264 0.304129
O O15 0.888347 0.304557 0.929651
O O16 0.325293 0.643672 0.183921
#
# Coordination Sequence:
#
# PCOD8024918 Si02
#       8
#     2   2   2   2   2   2   2   2
#     4  10  24  47  66 100 137 175 224 272 332 389
#     4  10  24  43  68  99 140 171 218 280 328 396
#     4  11  24  43  66 101 132 172 223 274 333 388
#     4  11  27  45  69  98 139 171 222 285 321 396
#     4  11  26  45  70 103 130 177 222 270 342 390
#     4  11  23  44  68  98 131 176 226 267 334 395
#     4  10  24  43  71  98 136 176 222 271 333 399
#     4  10  23  44  66 100 133 181 220 275 323 397
#
# _framework density 24.428902000000001
#
# number of rings (size 3 to 8) (size 9 to 14) (size 15 to 20)
#    0.000    1.500    1.250    1.875   12.250    3.500 
#    0.000    0.000    0.000    0.000    0.000    0.000 
#    0.000    0.000    0.000    0.000    0.000    0.000 
#
# Total GULP energy -198377.438228 kJ/mol
# GULP energy per Si atom -12398.589889 kJ/mol
# Density = 2.437330 g / cm^3
# Si number density = 24.428902 Si / 1000 Ang^3
#
#
#
# Elastic Constant Matrix: (Units=GPa)
#
#
# Indices 1 2 3 4 5 6 
#
# 1 65.6665 27.7597 -2.2790 -10.2459 14.6984 -0.6213
# 2 27.7597 121.1951 3.1038 8.8875 9.0923 -2.0880
# 3 -2.2790 3.1038 63.5415 13.1916 -0.8436 -4.7450
# 4 -10.2459 8.8875 13.1916 25.1346 3.3698 1.6351
# 5 14.6984 9.0923 -0.8436 3.3698 24.4775 2.1678
# 6 -0.6213 -2.0880 -4.7450 1.6351 2.1678 38.0645
#
#
#
# Elastic Compliance Matrix: (Units=1/GPa)
#
#
# Indices 1 2 3 4 5 6 
#
# 1 0.022525 -0.005103 -0.001999 0.013859 -0.013609 0.000018
# 2 -0.005103 0.009841 0.000636 -0.005970 0.000183 0.000782
# 3 -0.001999 0.000636 0.018178 -0.011137 0.002895 0.002582
# 4 0.013859 -0.005970 -0.011137 0.055449 -0.013849 -0.003083
# 5 -0.013609 0.000183 0.002895 -0.013849 0.051156 -0.002170
# 6 0.000018 0.000782 0.002582 -0.003083 -0.002170 0.026892
#
#
# Mechanical properties :
#
#
# Convention : Reuss Voigt Hill
#
# Bulk Modulus (GPa) = 26.58719 34.17469 30.38094
# Shear Modulus (GPa) = 23.86500 32.32322 28.09411
#
# Velocity S-wave (km/s) = 3.12896 3.64147 3.39490
# Velocity P-wave (km/s) = 4.89499 5.63029 5.27547
#
# Compressibility (1/GPa) = 0.03761210
#
# Stress axis : x y z
#
# Youngs Moduli (GPa) = 44.39473 101.61328 55.01071
#
# Poissons Ratio (x) = 0.51856 0.10999
# Poissons Ratio (y) = 0.22656 -0.03501
# Poissons Ratio (z) = 0.08877 -0.06467
#
# Static dielectric constant tensor:
#      x y z
#    x 4.211220 0.019980 -0.119010 
#    y 0.019980 4.583890 0.159540 
#    z -0.119010 0.159540 4.326200 
# 
# 
# High freq. dielectric constant tensor:
#      x y z
#    x 1.964540 0.002720 0.003000 
#    y 0.002720 1.987120 0.009590 
#    z 0.003000 0.009590 1.962890 
# 
# From -- ./inp_files/408756.got.cif
#   From: 2010.06.25/outbox.cif.g09.slc.cpg/sg2_205_cif.got.tgz:408756.got - 2010.06.27 13:26:56.
