data_PCOD8024667
_publ_section_title
;
Structure prediction by ZEFSAII (Michael W. Deem and Ramdas Pophale) SiO2 
 PCOD8024667
Probable space group: P -1
;
_chemical_formula_sum "Si O2"
_cell_formula_units_Z 14
_cell_length_a 9.110538
_cell_length_b 11.702200
_cell_length_c 18.487838
_cell_angle_alpha 152.347195
_cell_angle_beta 38.841105
_cell_angle_gamma 131.145036
_cell_volume 570.254246
_symmetry_space_group_name_H-M "P -1"
_symmetry_group_IT_number 2
_symmetry_cell_setting 'triclinic'
loop_
_space_group_symop_operation_xyz
x,y,z
-x,-y,-z
loop_
_atom_site_type_symbol
_atom_site_label
_atom_site_fract_x
_atom_site_fract_y
_atom_site_fract_z
Si Si1 0.436998 0.937806 0.075953
Si Si2 0.334222 0.823395 0.429177
Si Si3 0.374083 0.481346 0.461117
Si Si4 0.382942 0.523845 0.775947
Si Si5 0.274123 0.632179 0.198451
Si Si6 0.929426 0.770673 0.854550
Si Si7 0.951744 0.223166 0.777644
O O1 0.291647 0.732977 0.059361
O O2 0.330889 0.206088 0.296442
O O3 0.384924 0.831047 0.953026
O O4 0.708438 0.883201 0.957597
O O5 0.398704 0.566689 0.303384
O O6 0.376958 0.804382 0.315937
O O7 0.500000 0.000000 0.500000
O O8 0.067885 0.954220 0.610908
O O9 0.500000 0.500000 0.500000
O O10 0.545191 0.578067 0.388566
O O11 0.128368 0.655706 0.657227
O O12 0.129157 0.434045 0.842169
O O13 0.117875 0.442895 0.191101
O O14 0.109676 0.786571 0.289423
O O15 0.500000 0.500000 0.000000
O O16 0.000000 0.000000 0.000000
#
# Coordination Sequence:
#
# PCOD8024667 Si02
#       7
#     2   2   2   2   2   2   2
#     4  12  25  48  75 109 147 193 245 307 369 433
#     4  10  23  43  70 110 146 186 244 302 368 432
#     4  12  27  49  75 105 150 199 246 299 370 449
#     4  11  25  49  74 109 149 196 245 306 374 434
#     4  12  23  45  72 105 143 192 244 300 364 433
#     4  12  26  47  73 109 151 188 250 303 362 444
#     4  11  24  44  78 108 147 191 248 305 364 440
#
# _framework density 24.550453000000001
#
# number of rings (size 3 to 8) (size 9 to 14) (size 15 to 20)
#    0.000    0.571    4.286    3.000    0.000    6.286 
#    2.571    0.000    0.000    0.000    0.000    0.000 
#    0.000    0.000    0.000    0.000    0.000    0.000 
#
# Total GULP energy -173448.401740 kJ/mol
# GULP energy per Si atom -12389.171553 kJ/mol
# Density = 2.449458 g / cm^3
# Si number density = 24.550453 Si / 1000 Ang^3
#
#
#
# Elastic Constant Matrix: (Units=GPa)
#
#
# Indices 1 2 3 4 5 6 
#
# 1 167.3042 29.8512 62.7696 5.5776 6.3514 2.5049
# 2 29.8512 45.4024 49.3100 -2.0400 -4.9020 27.3242
# 3 62.7696 49.3100 162.6076 -1.2360 17.2136 24.5407
# 4 5.5776 -2.0400 -1.2360 40.7596 6.7043 -0.1781
# 5 6.3514 -4.9020 17.2136 6.7043 50.6064 7.2876
# 6 2.5049 27.3242 24.5407 -0.1781 7.2876 36.9912
#
#
#
# Elastic Compliance Matrix: (Units=1/GPa)
#
#
# Indices 1 2 3 4 5 6 
#
# 1 0.007966 -0.007985 -0.001457 -0.001160 -0.002093 0.006732
# 2 -0.007985 0.074217 -0.014159 0.000888 0.019918 -0.048807
# 3 -0.001457 -0.014159 0.010944 0.000771 -0.005649 0.004414
# 4 -0.001160 0.000888 0.000771 0.025309 -0.003339 -0.000309
# 5 -0.002093 0.019918 -0.005649 -0.003339 0.026633 -0.016086
# 6 0.006732 -0.048807 0.004414 -0.000309 -0.016086 0.062869
#
#
# Mechanical properties :
#
#
# Convention : Reuss Voigt Hill
#
# Bulk Modulus (GPa) = 21.77510 73.24175 47.50843
# Shear Modulus (GPa) = 18.48799 41.23033 29.85916
#
# Velocity S-wave (km/s) = 2.74717 4.10251 3.49124
# Velocity P-wave (km/s) = 4.35332 7.23455 5.97035
#
# Compressibility (1/GPa) = 0.04592401
#
# Stress axis : x y z
#
# Youngs Moduli (GPa) = 125.53786 13.47408 91.37788
#
# Poissons Ratio (x) = 0.10759 0.13312
# Poissons Ratio (y) = 1.00238 1.29386
# Poissons Ratio (z) = 0.18288 0.19079
#
# Static dielectric constant tensor:
#      x y z
#    x 4.938230 -0.216340 -0.070250 
#    y -0.216340 4.762250 0.428520 
#    z -0.070250 0.428520 5.463770 
# 
# 
# High freq. dielectric constant tensor:
#      x y z
#    x 1.990280 0.006270 0.010020 
#    y 0.006270 1.979820 -0.000100 
#    z 0.010020 -0.000100 1.995230 
# 
# From -- ./inp_files/560097.got.cif
#   From: 2010.06.25/outbox.cif.g09.slc.cpg/sg2_281_cif.got.tgz:560097.got - 2010.06.27 13:26:56.
