data_PCOD8024756
_publ_section_title
;
Structure prediction by ZEFSAII (Michael W. Deem and Ramdas Pophale) SiO2 
 PCOD8024756
Probable space group: P -1
;
_chemical_formula_sum "Si O2"
_cell_formula_units_Z 14
_cell_length_a 11.247266
_cell_length_b 22.203081
_cell_length_c 5.411386
_cell_angle_alpha 112.819123
_cell_angle_beta 129.170613
_cell_angle_gamma 32.684957
_cell_volume 531.341680
_symmetry_space_group_name_H-M "P -1"
_symmetry_group_IT_number 2
_symmetry_cell_setting 'triclinic'
loop_
_space_group_symop_operation_xyz
x,y,z
-x,-y,-z
loop_
_atom_site_type_symbol
_atom_site_label
_atom_site_fract_x
_atom_site_fract_y
_atom_site_fract_z
Si Si1 0.160191 0.108890 0.333457
Si Si2 0.565191 0.526321 0.410393
Si Si3 0.259473 0.830493 0.909689
Si Si4 0.023563 0.686131 0.682956
Si Si5 0.272775 0.004523 0.800989
Si Si6 0.679896 0.629157 0.795566
Si Si7 0.578235 0.788597 0.611913
O O1 0.857255 0.182744 0.073581
O O2 0.308046 0.029362 0.149438
O O3 0.147886 0.191528 0.451517
O O4 0.338468 0.028076 0.687100
O O5 0.500000 0.500000 0.500000
O O6 0.891584 0.398396 0.547690
O O7 0.518514 0.617934 0.564855
O O8 0.331817 0.600890 0.015562
O O9 0.321264 0.877151 0.212311
O O10 0.568767 0.701789 0.016226
O O11 0.042360 0.913092 0.524501
O O12 0.864448 0.712091 0.747112
O O13 0.489843 0.866502 0.849636
O O14 0.614715 0.700631 0.597479
O O15 0.000000 0.500000 0.000000
#
# Coordination Sequence:
#
# PCOD8024756 Si02
#       7
#     2   2   2   2   2   2   2
#     4  10  24  47  74 105 140 195 245 295 360 434
#     4  11  24  45  70  99 140 192 250 293 367 431
#     4  10  23  43  72 100 147 188 238 295 360 429
#     4  11  25  43  70 101 142 194 240 305 361 434
#     4  10  25  46  77 107 146 193 244 297 366 433
#     4  12  26  44  71 107 145 191 243 308 360 437
#     4  12  26  43  69 107 149 185 243 300 372 430
#
# _framework density 26.348396000000001
#
# number of rings (size 3 to 8) (size 9 to 14) (size 15 to 20)
#    0.857    0.286    0.000    5.571    4.000    6.857 
#    0.000    0.000    0.000    0.000    0.000    0.000 
#    0.000    0.000    0.000    0.000    0.000    0.000 
#
# Total GULP energy -173495.343578 kJ/mol
# GULP energy per Si atom -12392.524541 kJ/mol
# Density = 2.628843 g / cm^3
# Si number density = 26.348396 Si / 1000 Ang^3
#
#
#
# Elastic Constant Matrix: (Units=GPa)
#
#
# Indices 1 2 3 4 5 6 
#
# 1 137.1629 55.7972 12.0789 3.7623 -9.4863 -2.4098
# 2 55.7972 137.6228 28.9918 12.8710 -12.5277 0.4027
# 3 12.0789 28.9918 87.6003 25.4946 -21.2450 3.1376
# 4 3.7623 12.8710 25.4946 37.9715 -5.5819 -2.7577
# 5 -9.4863 -12.5277 -21.2450 -5.5819 24.5121 4.4586
# 6 -2.4098 0.4027 3.1376 -2.7577 4.4586 60.4829
#
#
#
# Elastic Compliance Matrix: (Units=1/GPa)
#
#
# Indices 1 2 3 4 5 6 
#
# 1 0.008814 -0.003498 0.000274 0.000427 0.001915 0.000239
# 2 -0.003498 0.009341 -0.001808 -0.001393 0.001588 -0.000288
# 3 0.000274 -0.001808 0.018074 -0.009801 0.013037 -0.002323
# 4 0.000427 -0.001393 -0.009801 0.033230 -0.001872 0.002188
# 5 0.001915 0.001588 0.013037 -0.001872 0.054074 -0.004682
# 6 0.000239 -0.000288 -0.002323 0.002188 -0.004682 0.017110
#
#
# Mechanical properties :
#
#
# Convention : Reuss Voigt Hill
#
# Bulk Modulus (GPa) = 38.21977 61.79131 50.00554
# Shear Modulus (GPa) = 31.36204 42.29450 36.82827
#
# Velocity S-wave (km/s) = 3.45379 4.01084 3.74270
# Velocity P-wave (km/s) = 5.51742 6.70460 6.13977
#
# Compressibility (1/GPa) = 0.02616447
#
# Stress axis : x y z
#
# Youngs Moduli (GPa) = 113.45318 107.05569 55.32928
#
# Poissons Ratio (x) = 0.37444 -0.01514
# Poissons Ratio (y) = 0.39682 0.10004
# Poissons Ratio (z) = -0.03104 0.19357
#
# Static dielectric constant tensor:
#      x y z
#    x 4.774600 0.139970 0.243790 
#    y 0.139970 5.946080 0.493220 
#    z 0.243790 0.493220 4.798210 
# 
# 
# High freq. dielectric constant tensor:
#      x y z
#    x 2.071810 -0.010710 0.014020 
#    y -0.010710 2.061040 0.007220 
#    z 0.014020 0.007220 2.053310 
# 
# From -- ./inp_files/45099.got.cif
#   From: 2010.06.25/outbox.cif.g09.slc.cpg/sg2_23_cif.got.tgz:45099.got - 2010.06.27 13:26:56.
