data_PCOD8024584
_publ_section_title
;
Structure prediction by ZEFSAII (Michael W. Deem and Ramdas Pophale) SiO2 
 PCOD8024584
Probable space group: P -1
;
_chemical_formula_sum "Si O2"
_cell_formula_units_Z 16
_cell_length_a 8.818831
_cell_length_b 8.833278
_cell_length_c 16.805711
_cell_angle_alpha 76.191717
_cell_angle_beta 135.166794
_cell_angle_gamma 127.663193
_cell_volume 684.800104
_symmetry_space_group_name_H-M "P -1"
_symmetry_group_IT_number 2
_symmetry_cell_setting 'triclinic'
loop_
_space_group_symop_operation_xyz
x,y,z
-x,-y,-z
loop_
_atom_site_type_symbol
_atom_site_label
_atom_site_fract_x
_atom_site_fract_y
_atom_site_fract_z
Si Si1 0.332242 0.146247 0.614142
Si Si2 0.782433 0.344236 0.175600
Si Si3 0.257159 0.914043 0.478336
Si Si4 0.656533 0.577183 0.632111
Si Si5 0.723845 0.585065 0.244283
Si Si6 0.477273 0.740223 0.663386
Si Si7 0.643264 0.024140 0.827988
Si Si8 0.845987 0.526230 0.006900
O O1 0.494478 0.384398 0.657261
O O2 0.436974 0.074387 0.728805
O O3 0.398949 0.120090 0.553866
O O4 0.000000 0.000000 0.500000
O O5 0.838611 0.529076 0.222836
O O6 0.779444 0.389573 0.076229
O O7 0.027147 0.331266 0.278897
O O8 0.490167 0.131185 0.126325
O O9 0.232128 0.743796 0.542891
O O10 0.967705 0.818357 0.335974
O O11 0.500000 0.000000 0.500000
O O12 0.500000 0.500000 0.500000
O O13 0.650920 0.743559 0.653345
O O14 0.673950 0.463373 0.319155
O O15 0.455395 0.558024 0.123580
O O16 0.679045 0.928900 0.776379
O O17 0.958933 0.231655 0.935465
O O18 0.000000 0.500000 0.000000
#
# Coordination Sequence:
#
# PCOD8024584 Si02
#       8
#     2   2   2   2   2   2   2   2
#     4  11  22  38  68 100 142 181 229 291 351 415
#     4  11  24  46  70 104 140 183 238 293 349 424
#     4  11  23  40  65 106 138 178 228 286 350 418
#     4  12  22  40  69 109 147 184 233 293 357 415
#     4  11  24  44  71  99 139 190 236 283 359 414
#     4  10  23  43  69 101 142 188 225 293 354 419
#     4  10  25  47  71 101 140 185 237 287 358 418
#     4  12  27  49  73 101 143 189 235 300 347 419
#
# _framework density 23.364481999999999
#
# number of rings (size 3 to 8) (size 9 to 14) (size 15 to 20)
#    0.000    1.000    1.250    5.250    3.500    4.500 
#    2.250    0.000    0.000    0.000    0.000    0.000 
#    0.000    0.000    0.000    0.000    0.000    0.000 
#
# Total GULP energy -198247.076010 kJ/mol
# GULP energy per Si atom -12390.442251 kJ/mol
# Density = 2.331130 g / cm^3
# Si number density = 23.364482 Si / 1000 Ang^3
#
#
#
# Elastic Constant Matrix: (Units=GPa)
#
#
# Indices 1 2 3 4 5 6 
#
# 1 126.6427 23.4858 44.0650 -3.7806 -10.3446 -12.3354
# 2 23.4858 92.0955 37.7444 10.9464 -10.1997 4.1771
# 3 44.0650 37.7444 140.3388 6.7259 8.5599 7.8108
# 4 -3.7806 10.9464 6.7259 28.8784 3.3573 -4.4093
# 5 -10.3446 -10.1997 8.5599 3.3573 42.6457 -4.7529
# 6 -12.3354 4.1771 7.8108 -4.4093 -4.7529 42.3232
#
#
#
# Elastic Compliance Matrix: (Units=1/GPa)
#
#
# Indices 1 2 3 4 5 6 
#
# 1 0.010084 -0.001407 -0.003356 0.002946 0.003035 0.004345
# 2 -0.001407 0.013603 -0.003125 -0.005253 0.003809 -0.001295
# 3 -0.003356 -0.003125 0.009482 -0.001492 -0.003680 -0.002988
# 4 0.002946 -0.005253 -0.001492 0.038482 -0.002674 0.005361
# 5 0.003035 0.003809 -0.003680 -0.002674 0.026478 0.003883
# 6 0.004345 -0.001295 -0.002988 0.005361 0.003883 0.026568
#
#
# Mechanical properties :
#
#
# Convention : Reuss Voigt Hill
#
# Bulk Modulus (GPa) = 57.49604 63.29639 60.39622
# Shear Modulus (GPa) = 34.18311 39.68824 36.93568
#
# Velocity S-wave (km/s) = 3.82912 4.12595 3.98030
# Velocity P-wave (km/s) = 6.64915 7.06028 6.85780
#
# Compressibility (1/GPa) = 0.01739250
#
# Stress axis : x y z
#
# Youngs Moduli (GPa) = 99.16701 73.51386 105.46129
#
# Poissons Ratio (x) = 0.10345 0.35392
# Poissons Ratio (y) = 0.13955 0.32958
# Poissons Ratio (z) = 0.33280 0.22974
#
# Static dielectric constant tensor:
#      x y z
#    x 4.533570 -0.019900 -0.122560 
#    y -0.019900 4.178010 0.077360 
#    z -0.122560 0.077360 3.976230 
# 
# 
# High freq. dielectric constant tensor:
#      x y z
#    x 1.940340 -0.005470 -0.006880 
#    y -0.005470 1.927200 -0.005990 
#    z -0.006880 -0.005990 1.919070 
# 
# From -- ./inp_files/354955.got.cif
#   From: 2010.06.25/outbox.cif.g09.slc.cpg/sg2_178_cif.got.tgz:354955.got - 2010.06.27 13:26:56.
