data_PCOD8024850
_publ_section_title
;
Structure prediction by ZEFSAII (Michael W. Deem and Ramdas Pophale) SiO2 
 PCOD8024850
Probable space group: P -1
;
_chemical_formula_sum "Si O2"
_cell_formula_units_Z 12
_cell_length_a 13.696182
_cell_length_b 6.544908
_cell_length_c 16.587177
_cell_angle_alpha 130.987451
_cell_angle_beta 145.239742
_cell_angle_gamma 44.716680
_cell_volume 586.752237
_symmetry_space_group_name_H-M "P -1"
_symmetry_group_IT_number 2
_symmetry_cell_setting 'triclinic'
loop_
_space_group_symop_operation_xyz
x,y,z
-x,-y,-z
loop_
_atom_site_type_symbol
_atom_site_label
_atom_site_fract_x
_atom_site_fract_y
_atom_site_fract_z
Si Si1 0.666880 0.745008 0.216740
Si Si2 0.708603 0.157117 0.477945
Si Si3 0.599123 0.214836 0.600879
Si Si4 0.063757 0.280994 0.745894
Si Si5 0.254446 0.911085 0.927808
Si Si6 0.036534 0.048791 0.129071
O O1 0.828729 0.832727 0.127290
O O2 0.731274 0.395703 0.180977
O O3 0.692436 0.873583 0.353088
O O4 0.453748 0.898783 0.085017
O O5 0.694155 0.126009 0.555344
O O6 0.546755 0.449329 0.408691
O O7 0.909874 0.150751 0.591668
O O8 0.500000 0.000000 0.500000
O O9 0.760346 0.186556 0.767103
O O10 0.210748 0.176950 0.746333
O O11 0.961097 0.632149 0.773151
O O12 0.125155 0.991968 0.939821
O O13 0.000000 0.000000 0.000000
#
# Coordination Sequence:
#
# PCOD8024850 Si02
#       6
#     2   2   2   2   2   2
#     4  10  24  41  65  92 121 168 208 256 314 359
#     4  11  24  41  67  93 125 166 204 257 315 363
#     4  11  24  43  61  95 131 158 210 256 303 380
#     4  11  22  43  63  94 125 161 211 258 304 373
#     4  10  23  44  61  92 130 157 216 258 297 378
#     4  11  25  41  66  94 125 167 205 256 313 364
#
# _framework density 20.451561000000002
#
# number of rings (size 3 to 8) (size 9 to 14) (size 15 to 20)
#    0.000    1.333    3.333    1.000    4.667    2.667 
#    0.000    0.000    0.000    0.000    0.000    0.000 
#    0.000    0.000    0.000    0.000    0.000    0.000 
#
# Total GULP energy -148886.985155 kJ/mol
# GULP energy per Si atom -12407.248763 kJ/mol
# Density = 2.040501 g / cm^3
# Si number density = 20.451561 Si / 1000 Ang^3
#
#
#
# Elastic Constant Matrix: (Units=GPa)
#
#
# Indices 1 2 3 4 5 6 
#
# 1 95.4217 18.8228 48.4612 -7.9384 14.0854 2.6380
# 2 18.8228 39.0298 16.5073 -20.7582 4.8800 11.8287
# 3 48.4612 16.5073 121.9382 -13.3042 8.6803 -4.5542
# 4 -7.9384 -20.7582 -13.3042 39.6364 0.1173 -0.2853
# 5 14.0854 4.8800 8.6803 0.1173 43.0049 -2.7337
# 6 2.6380 11.8287 -4.5542 -0.2853 -2.7337 26.4786
#
#
#
# Elastic Compliance Matrix: (Units=1/GPa)
#
#
# Indices 1 2 3 4 5 6 
#
# 1 0.014359 -0.005103 -0.004964 -0.001456 -0.003140 -0.000345
# 2 -0.005103 0.049025 -0.002505 0.023668 -0.004854 -0.022070
# 3 -0.004964 -0.002505 0.010793 0.001342 -0.000051 0.003479
# 4 -0.001456 0.023668 0.001342 0.037720 -0.003226 -0.010124
# 5 -0.003140 -0.004854 -0.000051 -0.003226 0.025172 0.005036
# 6 -0.000345 -0.022070 0.003479 -0.010124 0.005036 0.048669
#
#
# Mechanical properties :
#
#
# Convention : Reuss Voigt Hill
#
# Bulk Modulus (GPa) = 20.39435 47.10803 33.75119
# Shear Modulus (GPa) = 22.00440 33.33054 27.66747
#
# Velocity S-wave (km/s) = 3.28369 4.04137 3.68207
# Velocity P-wave (km/s) = 4.93665 6.69783 5.88351
#
# Compressibility (1/GPa) = 0.04903320
#
# Stress axis : x y z
#
# Youngs Moduli (GPa) = 69.64084 20.39760 92.65399
#
# Poissons Ratio (x) = 0.10408 0.45995
# Poissons Ratio (y) = 0.35536 0.23212
# Poissons Ratio (z) = 0.34571 0.05110
#
# Static dielectric constant tensor:
#      x y z
#    x 3.839280 0.001250 0.159680 
#    y 0.001250 3.751780 -0.121710 
#    z 0.159680 -0.121710 3.663940 
# 
# 
# High freq. dielectric constant tensor:
#      x y z
#    x 1.810960 0.001770 0.011870 
#    y 0.001770 1.802950 -0.009480 
#    z 0.011870 -0.009480 1.807240 
# 
# From -- ./inp_files/92050.got.cif
#   From: 2010.06.25/outbox.cif.g09.slc.cpg/sg2_47_cif.got.tgz:92050.got - 2010.06.27 13:26:56.
