data_PCOD8024899
_publ_section_title
;
Structure prediction by ZEFSAII (Michael W. Deem and Ramdas Pophale) SiO2 
 PCOD8024899
Probable space group: P -1
;
_chemical_formula_sum "Si O2"
_cell_formula_units_Z 14
_cell_length_a 9.291063
_cell_length_b 8.683261
_cell_length_c 14.012694
_cell_angle_alpha 36.201876
_cell_angle_beta 76.147974
_cell_angle_gamma 69.961650
_cell_volume 625.885427
_symmetry_space_group_name_H-M "P -1"
_symmetry_group_IT_number 2
_symmetry_cell_setting 'triclinic'
loop_
_space_group_symop_operation_xyz
x,y,z
-x,-y,-z
loop_
_atom_site_type_symbol
_atom_site_label
_atom_site_fract_x
_atom_site_fract_y
_atom_site_fract_z
Si Si1 0.136365 0.542749 0.392230
Si Si2 0.720219 0.067219 0.323139
Si Si3 0.160429 0.754629 0.979280
Si Si4 0.575284 0.725656 0.834861
Si Si5 0.167319 0.795941 0.571273
Si Si6 0.359657 0.764880 0.376014
Si Si7 0.080477 0.264349 0.837553
O O1 0.240190 0.714360 0.342151
O O2 0.000000 0.500000 0.500000
O O3 0.066758 0.695433 0.230751
O O4 0.237548 0.245870 0.500549
O O5 0.820201 0.148568 0.180134
O O6 0.537784 0.137620 0.300328
O O7 0.750958 0.232316 0.326268
O O8 0.200288 0.982021 0.929190
O O9 0.258896 0.449859 0.138968
O O10 0.985923 0.745455 0.039375
O O11 0.583123 0.963743 0.791446
O O12 0.500000 0.500000 0.000000
O O13 0.272846 0.872681 0.435156
O O14 0.162887 0.497006 0.692307
O O15 0.000000 0.000000 0.500000
O O16 0.500000 0.500000 0.500000
#
# Coordination Sequence:
#
# PCOD8024899 Si02
#       7
#     2   2   2   2   2   2   2
#     4  12  21  42  72  99 137 181 236 293 349 402
#     4  11  22  42  69  96 135 185 226 290 347 410
#     4  10  23  44  65  93 140 187 224 282 357 412
#     4  10  24  45  66  95 143 184 226 284 353 423
#     4  12  24  40  70 106 135 178 240 294 342 410
#     4  12  25  43  73 105 138 183 240 290 351 413
#     4  11  23  42  67 100 139 179 236 291 337 423
#
# _framework density 22.368313000000001
#
# number of rings (size 3 to 8) (size 9 to 14) (size 15 to 20)
#    0.000    0.857    5.714    0.857    2.000    2.286 
#   10.286    0.714    0.000    0.000    0.000    0.000 
#    0.000    0.000    0.000    0.000    0.000    0.000 
#
# Total GULP energy -173462.646694 kJ/mol
# GULP energy per Si atom -12390.189050 kJ/mol
# Density = 2.231740 g / cm^3
# Si number density = 22.368313 Si / 1000 Ang^3
#
#
#
# Elastic Constant Matrix: (Units=GPa)
#
#
# Indices 1 2 3 4 5 6 
#
# 1 93.3025 34.6685 17.1307 -13.7714 2.4470 33.2892
# 2 34.6685 110.4866 32.0997 -18.5223 5.4047 9.4745
# 3 17.1307 32.0997 65.5099 -27.0861 -7.5390 10.8695
# 4 -13.7714 -18.5223 -27.0861 60.4366 -0.8476 -2.3425
# 5 2.4470 5.4047 -7.5390 -0.8476 34.0698 -3.9464
# 6 33.2892 9.4745 10.8695 -2.3425 -3.9464 43.7177
#
#
#
# Elastic Compliance Matrix: (Units=1/GPa)
#
#
# Indices 1 2 3 4 5 6 
#
# 1 0.016782 -0.003819 0.000193 0.002246 -0.001897 -0.012050
# 2 -0.003819 0.011822 -0.005128 0.000474 -0.002560 0.001415
# 3 0.000193 -0.005128 0.022484 0.008485 0.005561 -0.003669
# 4 0.002246 0.000474 0.008485 0.020930 0.001857 -0.002634
# 5 -0.001897 -0.002560 0.005561 0.001857 0.031584 0.003567
# 6 -0.012050 0.001415 -0.003669 -0.002634 0.003567 0.032836
#
#
# Mechanical properties :
#
#
# Convention : Reuss Voigt Hill
#
# Bulk Modulus (GPa) = 29.77956 48.56631 39.17294
# Shear Modulus (GPa) = 30.27736 40.00484 35.14110
#
# Velocity S-wave (km/s) = 3.68310 4.23361 3.96791
# Velocity P-wave (km/s) = 5.60617 6.75701 6.20831
#
# Compressibility (1/GPa) = 0.03358008
#
# Stress axis : x y z
#
# Youngs Moduli (GPa) = 59.58724 84.58567 44.47607
#
# Poissons Ratio (x) = 0.32305 -0.00857
# Poissons Ratio (y) = 0.22758 0.22806
# Poissons Ratio (z) = -0.01149 0.43373
#
# Static dielectric constant tensor:
#      x y z
#    x 4.593730 -0.688750 0.454080 
#    y -0.688750 5.071940 -0.824750 
#    z 0.454080 -0.824750 4.639490 
# 
# 
# High freq. dielectric constant tensor:
#      x y z
#    x 1.869040 -0.005550 -0.010390 
#    y -0.005550 1.887120 -0.024270 
#    z -0.010390 -0.024270 1.889330 
# 
# From -- ./inp_files/456624.got.cif
#   From: 2010.06.25/outbox.cif.g09.slc.cpg/sg2_229_cif.got.tgz:456624.got - 2010.06.27 13:26:56.
