data_PCOD8024093
_publ_section_title
;
Structure prediction by ZEFSAII (Michael W. Deem and Ramdas Pophale) SiO2 
 PCOD8024093
Probable space group: P -1
;
_chemical_formula_sum "Si O2"
_cell_formula_units_Z 16
_cell_length_a 11.012860
_cell_length_b 8.250375
_cell_length_c 13.427463
_cell_angle_alpha 71.109749
_cell_angle_beta 34.728030
_cell_angle_gamma 72.192474
_cell_volume 655.801222
_symmetry_space_group_name_H-M "P -1"
_symmetry_group_IT_number 2
_symmetry_cell_setting 'triclinic'
loop_
_space_group_symop_operation_xyz
x,y,z
-x,-y,-z
loop_
_atom_site_type_symbol
_atom_site_label
_atom_site_fract_x
_atom_site_fract_y
_atom_site_fract_z
Si Si1 0.229974 0.198189 0.827822
Si Si2 0.838783 0.245685 0.225233
Si Si3 0.378540 0.690400 0.350338
Si Si4 0.676215 0.136786 0.843973
Si Si5 0.458850 0.824236 0.720865
Si Si6 0.865270 0.005143 0.432548
Si Si7 0.329469 0.616329 0.030150
Si Si8 0.871274 0.535600 0.307401
O O1 0.388933 0.312563 0.757866
O O2 0.201830 0.271739 0.719113
O O3 0.314983 0.999848 0.808354
O O4 0.002274 0.231796 0.026521
O O5 0.603685 0.236731 0.335784
O O6 0.842649 0.415438 0.254761
O O7 0.892554 0.081486 0.289836
O O8 0.400833 0.710210 0.211772
O O9 0.271049 0.517721 0.491656
O O10 0.234004 0.854981 0.452294
O O11 0.718367 0.209775 0.909743
O O12 0.902884 0.053714 0.668457
O O13 0.500000 0.000000 0.000000
O O14 0.710241 0.850239 0.556041
O O15 0.415061 0.668571 0.854892
O O16 0.116224 0.516922 0.181432
O O17 0.500000 0.500000 0.000000
#
# Coordination Sequence:
#
# PCOD8024093 Si02
#       8
#     2   2   2   2   2   2   2   2
#     4  11  22  43  72 103 137 175 241 282 338 402
#     4  11  22  41  72  99 138 184 223 280 348 407
#     4  10  24  42  70 102 140 180 228 288 340 411
#     4  12  26  47  76  97 132 193 234 281 343 410
#     4  11  24  45  70 105 137 179 228 294 337 401
#     4  10  23  42  70 107 137 170 234 289 341 404
#     4  12  30  47  67 103 144 180 231 284 342 416
#     4  11  26  45  66 103 143 183 225 284 345 409
#
# _framework density 24.397638000000001
#
# number of rings (size 3 to 8) (size 9 to 14) (size 15 to 20)
#    0.000    1.000    1.250    4.875    8.750    0.500 
#    2.250    0.000    0.000    0.000    0.000    0.000 
#    0.000    0.000    0.000    0.000    0.000    0.000 
#
# Total GULP energy -198452.711843 kJ/mol
# GULP energy per Si atom -12403.294490 kJ/mol
# Density = 2.434211 g / cm^3
# Si number density = 24.397638 Si / 1000 Ang^3
#
#
#
# Elastic Constant Matrix: (Units=GPa)
#
#
# Indices 1 2 3 4 5 6 
#
# 1 122.5001 19.0795 29.1116 -20.4993 -6.8677 -16.5235
# 2 19.0795 57.9041 13.6951 -24.4973 -2.2145 -12.5215
# 3 29.1116 13.6951 101.7537 -32.0261 -14.8940 -8.4113
# 4 -20.4993 -24.4973 -32.0261 41.9350 -7.7456 4.5474
# 5 -6.8677 -2.2145 -14.8940 -7.7456 48.2266 -5.8465
# 6 -16.5235 -12.5215 -8.4113 4.5474 -5.8465 51.3337
#
#
#
# Elastic Compliance Matrix: (Units=1/GPa)
#
#
# Indices 1 2 3 4 5 6 
#
# 1 0.009578 -0.000796 -0.001045 0.003482 0.001882 0.002623
# 2 -0.000796 0.025679 0.003724 0.017907 0.005782 0.005690
# 3 -0.001045 0.003724 0.015551 0.014637 0.007500 0.002678
# 4 0.003482 0.017907 0.014637 0.049284 0.014379 0.005159
# 5 0.001882 0.005782 0.007500 0.014379 0.026500 0.004989
# 6 0.002623 0.005690 0.002678 0.005159 0.004989 0.022263
#
#
# Mechanical properties :
#
#
# Convention : Reuss Voigt Hill
#
# Bulk Modulus (GPa) = 18.32377 45.10336 31.71357
# Shear Modulus (GPa) = 30.62255 42.98385 36.80320
#
# Velocity S-wave (km/s) = 3.54664 4.20194 3.88812
# Velocity P-wave (km/s) = 4.92934 6.48603 5.76051
#
# Compressibility (1/GPa) = 0.05457391
#
# Stress axis : x y z
#
# Youngs Moduli (GPa) = 104.41042 38.94271 64.30358
#
# Poissons Ratio (x) = 0.03101 0.06718
# Poissons Ratio (y) = 0.08315 -0.23949
# Poissons Ratio (z) = 0.10908 -0.14504
#
# Static dielectric constant tensor:
#      x y z
#    x 4.554930 0.009390 -0.026420 
#    y 0.009390 4.269150 -0.238280 
#    z -0.026420 -0.238280 4.470920 
# 
# 
# High freq. dielectric constant tensor:
#      x y z
#    x 1.983320 -0.005410 -0.003940 
#    y -0.005410 1.965040 -0.009670 
#    z -0.003940 -0.009670 1.976420 
# 
# From -- ./inp_files/515281.got.cif
#   From: 2010.06.25/outbox.cif.g09.slc.cpg/sg2_258_cif.got.tgz:515281.got - 2010.06.27 13:26:56.
