data_PCOD8024299
_publ_section_title
;
Structure prediction by ZEFSAII (Michael W. Deem and Ramdas Pophale) SiO2 
 PCOD8024299
Probable space group: P -1
;
_chemical_formula_sum "Si O2"
_cell_formula_units_Z 16
_cell_length_a 17.001860
_cell_length_b 14.079887
_cell_length_c 23.128104
_cell_angle_alpha 157.093439
_cell_angle_beta 158.863474
_cell_angle_gamma 33.725911
_cell_volume 762.038689
_symmetry_space_group_name_H-M "P -1"
_symmetry_group_IT_number 2
_symmetry_cell_setting 'triclinic'
loop_
_space_group_symop_operation_xyz
x,y,z
-x,-y,-z
loop_
_atom_site_type_symbol
_atom_site_label
_atom_site_fract_x
_atom_site_fract_y
_atom_site_fract_z
Si Si1 0.012849 0.375128 0.761804
Si Si2 0.749808 0.860887 0.298019
Si Si3 0.851999 0.814853 0.838900
Si Si4 0.056397 0.699976 0.515735
Si Si5 0.136282 0.612418 0.100774
Si Si6 0.145650 0.022396 0.870104
Si Si7 0.477110 0.532971 0.658196
Si Si8 0.250186 0.792043 0.924667
O O1 0.990405 0.614021 0.842966
O O2 0.212545 0.262939 0.807237
O O3 0.789002 0.160746 0.485626
O O4 0.067428 0.441906 0.902608
O O5 0.927242 0.798155 0.430155
O O6 0.499572 0.753691 0.086251
O O7 0.628166 0.674251 0.576284
O O8 0.784952 0.959055 0.928567
O O9 0.000000 0.000000 0.000000
O O10 0.294832 0.657198 0.634720
O O11 0.918359 0.441794 0.298515
O O12 0.091146 0.905127 0.704320
O O13 0.396530 0.614669 0.291730
O O14 0.074576 0.885349 0.204287
O O15 0.000000 0.500000 0.000000
O O16 0.208644 0.819774 0.843483
O O17 0.352265 0.252709 0.137451
#
# Coordination Sequence:
#
# PCOD8024299 Si02
#       8
#     2   2   2   2   2   2   2   2
#     4  11  23  45  68 101 138 171 236 281 328 406
#     4  11  25  41  71 101 134 179 225 281 335 397
#     4  12  24  46  69  99 139 175 225 281 343 404
#     4  12  25  47  64 101 142 177 224 277 342 405
#     4  10  23  43  65 100 131 175 223 282 333 390
#     4  11  25  43  68  99 134 177 232 277 330 405
#     4  11  24  43  72  96 133 183 226 277 338 395
#     4  12  26  43  69  99 139 181 219 280 344 402
#
# _framework density 20.996307999999999
#
# number of rings (size 3 to 8) (size 9 to 14) (size 15 to 20)
#    0.000    0.750    3.750    3.375    8.750    1.000 
#    0.000    1.250    0.000    0.000    0.000    0.000 
#    0.000    0.000    0.000    0.000    0.000    0.000 
#
# Total GULP energy -198443.026117 kJ/mol
# GULP energy per Si atom -12402.689132 kJ/mol
# Density = 2.094852 g / cm^3
# Si number density = 20.996308 Si / 1000 Ang^3
#
#
#
# Elastic Constant Matrix: (Units=GPa)
#
#
# Indices 1 2 3 4 5 6 
#
# 1 101.7428 41.8234 34.8707 -1.0137 -14.9446 5.6081
# 2 41.8234 97.7854 73.1549 -35.9468 65.6599 27.4952
# 3 34.8707 73.1549 25.9150 50.4820 -113.1660 -41.1702
# 4 -1.0137 -35.9468 50.4820 5.9316 74.6240 38.9132
# 5 -14.9446 65.6599 -113.1660 74.6240 -140.2740 -80.3130
# 6 5.6081 27.4952 -41.1702 38.9132 -80.3130 -8.0386
#
#
#
# Elastic Compliance Matrix: (Units=1/GPa)
#
#
# Indices 1 2 3 4 5 6 
#
# 1 0.013086 -0.003161 -0.003949 0.001398 0.002846 -0.003127
# 2 -0.003161 0.009167 -0.001215 -0.000312 0.002954 0.004344
# 3 -0.003949 -0.001215 0.011621 0.001175 -0.005483 -0.005966
# 4 0.001398 -0.000312 0.001175 0.022510 0.010203 0.000925
# 5 0.002846 0.002954 -0.005483 0.010203 0.010058 -0.010927
# 6 -0.003127 0.004344 -0.005966 0.000925 -0.010927 0.032485
#
#
# Mechanical properties :
#
#
# Convention : Reuss Voigt Hill
#
# Bulk Modulus (GPa) = 58.05022 58.34905 58.19964
# Shear Modulus (GPa) = 41.21432 -23.43658 8.88887
#
# Velocity S-wave (km/s) = 4.43531 -3.34462 2.05979
# Velocity P-wave (km/s) = 7.34419 3.59655 5.78240
#
# Compressibility (1/GPa) = 0.01722646
#
# Stress axis : x y z
#
# Youngs Moduli (GPa) = 76.41979 109.08646 86.04830
#
# Poissons Ratio (x) = 0.34479 0.33976
# Poissons Ratio (y) = 0.24154 0.10451
# Poissons Ratio (z) = 0.30175 0.13249
#
# Static dielectric constant tensor:
#      x y z
#    x 3.861760 -0.082960 -0.165670 
#    y -0.082960 4.358790 -0.001180 
#    z -0.165670 -0.001180 3.820750 
# 
# 
# High freq. dielectric constant tensor:
#      x y z
#    x 1.831220 -0.001410 -0.013740 
#    y -0.001410 1.837360 0.003150 
#    z -0.013740 0.003150 1.819010 
# 
# From -- ./inp_files/226665.got.cif
#   From: 2010.06.25/outbox.cif.g09.slc.cpg/sg2_114_cif.got.tgz:226665.got - 2010.06.27 13:26:56.
