data_PCOD8024775
_publ_section_title
;
Structure prediction by ZEFSAII (Michael W. Deem and Ramdas Pophale) SiO2 
 PCOD8024775
Probable space group: P -1
;
_chemical_formula_sum "Si O2"
_cell_formula_units_Z 12
_cell_length_a 8.999340
_cell_length_b 9.350331
_cell_length_c 14.602508
_cell_angle_alpha 60.741601
_cell_angle_beta 32.159968
_cell_angle_gamma 72.591030
_cell_volume 552.968770
_symmetry_space_group_name_H-M "P -1"
_symmetry_group_IT_number 2
_symmetry_cell_setting 'triclinic'
loop_
_space_group_symop_operation_xyz
x,y,z
-x,-y,-z
loop_
_atom_site_type_symbol
_atom_site_label
_atom_site_fract_x
_atom_site_fract_y
_atom_site_fract_z
Si Si1 0.700253 0.817240 0.993059
Si Si2 0.071630 0.802002 0.293451
Si Si3 0.324002 0.115272 0.370944
Si Si4 0.938420 0.759337 0.695213
Si Si5 0.168804 0.436075 0.666340
Si Si6 0.966500 0.173576 0.007885
O O1 0.831432 0.743761 0.860303
O O2 0.808980 0.020020 0.875319
O O3 0.355216 0.745053 0.195928
O O4 0.809575 0.755869 0.049902
O O5 0.876997 0.813012 0.478474
O O6 0.867282 0.669441 0.375281
O O7 0.313848 0.204147 0.249545
O O8 0.650143 0.150254 0.223940
O O9 0.217203 0.912557 0.484439
O O10 0.021755 0.589004 0.678114
O O11 0.500000 0.500000 0.500000
O O12 0.002151 0.318667 0.869371
O O13 0.000000 0.000000 0.000000
#
# Coordination Sequence:
#
# PCOD8024775 Si02
#       6
#     2   2   2   2   2   2
#     4  10  23  43  72  98 132 180 227 272 327 407
#     4  10  23  44  70 100 134 178 225 272 335 398
#     4  10  24  44  74  96 131 182 227 273 328 406
#     4  10  24  44  68 100 137 175 225 274 340 393
#     4  12  27  44  68 102 142 172 221 285 339 389
#     4  12  25  43  71  99 135 178 229 273 334 398
#
# _framework density 21.701045000000001
#
# number of rings (size 3 to 8) (size 9 to 14) (size 15 to 20)
#    0.000    1.333    1.667    2.000   11.667    5.333 
#    0.000    0.000    0.000    0.000    0.000    0.000 
#    0.000    0.000    0.000    0.000    0.000    0.000 
#
# Total GULP energy -148847.634770 kJ/mol
# GULP energy per Si atom -12403.969564 kJ/mol
# Density = 2.165165 g / cm^3
# Si number density = 21.701045 Si / 1000 Ang^3
#
#
#
# Elastic Constant Matrix: (Units=GPa)
#
#
# Indices 1 2 3 4 5 6 
#
# 1 122.7065 23.4071 37.1066 -1.0131 -6.6238 16.3148
# 2 23.4071 86.7233 27.9100 -7.6441 4.6118 9.5255
# 3 37.1066 27.9100 94.7619 8.8864 -16.8394 -1.3566
# 4 -1.0131 -7.6441 8.8864 23.7772 -2.1905 -0.7601
# 5 -6.6238 4.6118 -16.8394 -2.1905 46.9937 -2.2156
# 6 16.3148 9.5255 -1.3566 -0.7601 -2.2156 35.3408
#
#
#
# Elastic Compliance Matrix: (Units=1/GPa)
#
#
# Indices 1 2 3 4 5 6 
#
# 1 0.010113 -0.000831 -0.003928 0.001481 -0.000047 -0.004566
# 2 -0.000831 0.014559 -0.005180 0.006156 -0.003295 -0.003814
# 3 -0.003928 -0.005180 0.015262 -0.006922 0.005289 0.003978
# 4 0.001481 0.006156 -0.006922 0.046561 -0.000784 -0.001657
# 5 -0.000047 -0.003295 0.005289 -0.000784 0.023576 0.002574
# 6 -0.004566 -0.003814 0.003978 -0.001657 0.002574 0.031710
#
#
# Mechanical properties :
#
#
# Convention : Reuss Voigt Hill
#
# Bulk Modulus (GPa) = 49.85867 53.44878 51.65373
# Shear Modulus (GPa) = 29.70103 35.60688 32.65395
#
# Velocity S-wave (km/s) = 3.70353 4.05506 3.88328
# Velocity P-wave (km/s) = 6.42755 6.82699 6.63028
#
# Compressibility (1/GPa) = 0.02005669
#
# Stress axis : x y z
#
# Youngs Moduli (GPa) = 98.88641 68.68636 65.52055
#
# Poissons Ratio (x) = 0.05706 0.25735
# Poissons Ratio (y) = 0.08215 0.33940
# Poissons Ratio (z) = 0.38841 0.35580
#
# Static dielectric constant tensor:
#      x y z
#    x 4.042870 0.035430 -0.153920 
#    y 0.035430 3.884910 -0.088100 
#    z -0.153920 -0.088100 3.994950 
# 
# 
# High freq. dielectric constant tensor:
#      x y z
#    x 1.864630 0.001500 -0.002250 
#    y 0.001500 1.847510 0.006060 
#    z -0.002250 0.006060 1.854370 
# 
# From -- ./inp_files/144744.got.cif
#   From: 2010.06.25/outbox.cif.g09.slc.cpg/sg2_73_cif.got.tgz:144744.got - 2010.06.27 13:26:56.
