data_PCOD8024317
_publ_section_title
;
Structure prediction by ZEFSAII (Michael W. Deem and Ramdas Pophale) SiO2 
 PCOD8024317
Probable space group: P -1
;
_chemical_formula_sum "Si O2"
_cell_formula_units_Z 12
_cell_length_a 14.999577
_cell_length_b 12.045129
_cell_length_c 8.449455
_cell_angle_alpha 100.977878
_cell_angle_beta 84.084284
_cell_angle_gamma 27.751217
_cell_volume 561.295127
_symmetry_space_group_name_H-M "P -1"
_symmetry_group_IT_number 2
_symmetry_cell_setting 'triclinic'
loop_
_space_group_symop_operation_xyz
x,y,z
-x,-y,-z
loop_
_atom_site_type_symbol
_atom_site_label
_atom_site_fract_x
_atom_site_fract_y
_atom_site_fract_z
Si Si1 0.649893 0.783960 0.561193
Si Si2 0.975185 0.821464 0.126746
Si Si3 0.502115 0.182877 0.800707
Si Si4 0.882483 0.883432 0.804028
Si Si5 0.465812 0.773562 0.551635
Si Si6 0.924740 0.115982 0.368413
O O1 0.516565 0.826942 0.663551
O O2 0.917974 0.440934 0.369228
O O3 0.500000 0.000000 0.500000
O O4 0.646197 0.895343 0.710996
O O5 0.805718 0.951846 0.315794
O O6 0.982224 0.945876 0.195199
O O7 0.868047 0.923091 0.002571
O O8 0.241779 0.462839 0.996242
O O9 0.470227 0.267940 0.651576
O O10 0.629412 0.129177 0.866604
O O11 0.922154 0.954980 0.728443
O O12 0.642436 0.469780 0.499869
O O13 0.000000 0.000000 0.500000
#
# Coordination Sequence:
#
# PCOD8024317 Si02
#       6
#     2   2   2   2   2   2
#     4   9  18  43  66  90 131 170 202 260 319 365
#     4  12  24  41  66  97 128 163 218 258 313 377
#     4  11  23  43  67  94 129 170 208 259 317 377
#     4  11  23  41  68  94 128 169 211 260 315 375
#     4  10  23  43  65  91 133 165 210 265 313 372
#     4  11  24  44  66  92 129 171 209 262 322 372
#
# _framework density 21.379127
#
# number of rings (size 3 to 8) (size 9 to 14) (size 15 to 20)
#    0.000    1.333    5.000    2.500    2.333    1.333 
#    0.000    0.833    0.000    0.000    0.000    0.000 
#    0.000    0.000    0.000    0.000    0.000    0.000 
#
# Total GULP energy -148785.455930 kJ/mol
# GULP energy per Si atom -12398.787994 kJ/mol
# Density = 2.133047 g / cm^3
# Si number density = 21.379127 Si / 1000 Ang^3
#
#
#
# Elastic Constant Matrix: (Units=GPa)
#
#
# Indices 1 2 3 4 5 6 
#
# 1 109.2328 27.7192 50.9558 6.4339 16.4541 -17.4457
# 2 27.7192 79.4637 31.8120 10.3753 10.3335 -5.6189
# 3 50.9558 31.8120 93.1759 22.3605 8.4779 -3.4319
# 4 6.4339 10.3753 22.3605 15.4380 -6.3766 4.3645
# 5 16.4541 10.3335 8.4779 -6.3766 44.8804 8.0695
# 6 -17.4457 -5.6189 -3.4319 4.3645 8.0695 38.6467
#
#
#
# Elastic Compliance Matrix: (Units=1/GPa)
#
#
# Indices 1 2 3 4 5 6 
#
# 1 0.014476 -0.001317 -0.007166 0.001490 -0.004608 0.006501
# 2 -0.001317 0.016089 -0.001323 -0.011717 -0.005369 0.004072
# 3 -0.007166 -0.001323 0.024684 -0.036321 -0.007696 0.004473
# 4 0.001490 -0.011717 -0.036321 0.147041 0.034967 -0.028163
# 5 -0.004608 -0.005369 -0.007696 0.034967 0.034262 -0.014647
# 6 0.006501 0.004072 0.004473 -0.028163 -0.014647 0.036038
#
#
# Mechanical properties :
#
#
# Convention : Reuss Voigt Hill
#
# Bulk Modulus (GPa) = 28.05962 55.87182 41.96572
# Shear Modulus (GPa) = 16.44294 31.21871 23.83083
#
# Velocity S-wave (km/s) = 2.77630 3.82546 3.34230
# Velocity P-wave (km/s) = 4.84049 6.76038 5.87933
#
# Compressibility (1/GPa) = 0.03563840
#
# Stress axis : x y z
#
# Youngs Moduli (GPa) = 69.07797 62.15402 40.51133
#
# Poissons Ratio (x) = 0.08183 0.29032
# Poissons Ratio (y) = 0.09095 0.05359
# Poissons Ratio (z) = 0.49503 0.08222
#
# Static dielectric constant tensor:
#      x y z
#    x 4.942170 0.378800 0.730670 
#    y 0.378800 3.992710 0.546920 
#    z 0.730670 0.546920 4.326720 
# 
# 
# High freq. dielectric constant tensor:
#      x y z
#    x 1.859630 -0.005560 0.011060 
#    y -0.005560 1.831830 0.013870 
#    z 0.011060 0.013870 1.826320 
# 
# From -- ./inp_files/270347.got.cif
#   From: 2010.06.25/outbox.cif.g09.slc.cpg/sg2_136_cif.got.tgz:270347.got - 2010.06.27 13:26:56.
