data_PCOD8024585
_publ_section_title
;
Structure prediction by ZEFSAII (Michael W. Deem and Ramdas Pophale) SiO2 
 PCOD8024585
Probable space group: P -1
;
_chemical_formula_sum "Si O2"
_cell_formula_units_Z 16
_cell_length_a 11.019273
_cell_length_b 12.837639
_cell_length_c 10.794437
_cell_angle_alpha 73.054134
_cell_angle_beta 46.717543
_cell_angle_gamma 107.677722
_cell_volume 734.599559
_symmetry_space_group_name_H-M "P -1"
_symmetry_group_IT_number 2
_symmetry_cell_setting 'triclinic'
loop_
_space_group_symop_operation_xyz
x,y,z
-x,-y,-z
loop_
_atom_site_type_symbol
_atom_site_label
_atom_site_fract_x
_atom_site_fract_y
_atom_site_fract_z
Si Si1 0.337947 0.406101 0.769357
Si Si2 0.814451 0.635100 0.462897
Si Si3 0.470272 0.971440 0.387449
Si Si4 0.632303 0.878722 0.761860
Si Si5 0.958324 0.646371 0.801969
Si Si6 0.081600 0.201369 0.423697
Si Si7 0.115257 0.580402 0.260994
Si Si8 0.988254 0.121241 0.952042
O O1 0.500000 0.500000 0.500000
O O2 0.538651 0.460141 0.708875
O O3 0.113177 0.222304 0.957115
O O4 0.198682 0.438339 0.930800
O O5 0.884703 0.687850 0.537603
O O6 0.848988 0.763643 0.318017
O O7 0.985921 0.626708 0.281604
O O8 0.245678 0.785985 0.577792
O O9 0.500000 0.000000 0.500000
O O10 0.427899 0.072443 0.329011
O O11 0.716403 0.032472 0.145939
O O12 0.739717 0.813475 0.666495
O O13 0.387996 0.736228 0.053113
O O14 0.810484 0.024918 0.680918
O O15 0.877377 0.721152 0.764654
O O16 0.902780 0.518511 0.797710
O O17 0.000000 0.500000 0.500000
O O18 0.000000 0.000000 0.000000
#
# Coordination Sequence:
#
# PCOD8024585 Si02
#       8
#     2   2   2   2   2   2   2   2
#     4  10  24  46  66  98 136 182 231 282 342 414
#     4  11  24  44  64  97 144 173 232 278 350 409
#     4  11  23  45  68  99 136 179 236 287 341 405
#     4  10  24  43  68  99 137 175 232 283 345 404
#     4  11  24  43  72 100 139 184 231 284 345 415
#     4  10  23  43  69 102 130 184 224 289 342 411
#     4  12  25  42  65 104 141 183 221 280 346 411
#     4  11  25  44  68  97 132 185 230 288 340 410
#
# _framework density 21.780573
#
# number of rings (size 3 to 8) (size 9 to 14) (size 15 to 20)
#    0.000    1.250    3.750    0.750    5.250    3.500 
#    0.000    3.125    0.000    0.000    0.000    0.000 
#    0.000    0.000    0.000    0.000    0.000    0.000 
#
# Total GULP energy -198244.472425 kJ/mol
# GULP energy per Si atom -12390.279527 kJ/mol
# Density = 2.173100 g / cm^3
# Si number density = 21.780573 Si / 1000 Ang^3
#
#
#
# Elastic Constant Matrix: (Units=GPa)
#
#
# Indices 1 2 3 4 5 6 
#
# 1 108.6268 46.7845 48.3534 -1.7883 -20.7764 -3.6790
# 2 46.7845 118.2441 48.9389 11.0225 -11.2486 5.8519
# 3 48.3534 48.9389 137.8288 3.3469 -24.0062 10.4469
# 4 -1.7883 11.0225 3.3469 27.3158 4.5836 0.6929
# 5 -20.7764 -11.2486 -24.0062 4.5836 46.0418 0.3828
# 6 -3.6790 5.8519 10.4469 0.6929 0.3828 44.3777
#
#
#
# Elastic Compliance Matrix: (Units=1/GPa)
#
#
# Indices 1 2 3 4 5 6 
#
# 1 0.012856 -0.003949 -0.002777 0.002191 0.003152 0.002179
# 2 -0.003949 0.011556 -0.002476 -0.004625 0.000220 -0.001198
# 3 -0.002777 -0.002476 0.009895 -0.000910 0.003411 -0.002248
# 4 0.002191 -0.004625 -0.000910 0.039483 -0.004550 0.000429
# 5 0.003152 0.000220 0.003411 -0.004550 0.025433 -0.000719
# 6 0.002179 -0.001198 -0.002248 0.000429 -0.000719 0.023401
#
#
# Mechanical properties :
#
#
# Convention : Reuss Voigt Hill
#
# Bulk Modulus (GPa) = 62.88602 72.53926 67.71264
# Shear Modulus (GPa) = 34.16944 38.25526 36.21235
#
# Velocity S-wave (km/s) = 3.96511 4.19548 4.08192
# Velocity P-wave (km/s) = 7.06385 7.53965 7.30562
#
# Compressibility (1/GPa) = 0.01590179
#
# Stress axis : x y z
#
# Youngs Moduli (GPa) = 77.78646 86.53612 101.05673
#
# Poissons Ratio (x) = 0.34176 0.28065
# Poissons Ratio (y) = 0.30721 0.25023
# Poissons Ratio (z) = 0.21602 0.21427
#
# Static dielectric constant tensor:
#      x y z
#    x 4.979310 0.181860 -0.713250 
#    y 0.181860 3.939690 -0.161250 
#    z -0.713250 -0.161250 4.439200 
# 
# 
# High freq. dielectric constant tensor:
#      x y z
#    x 1.862610 0.011820 -0.018860 
#    y 0.011820 1.849560 -0.005790 
#    z -0.018860 -0.005790 1.865470 
# 
# From -- ./inp_files/427959.got.cif
#   From: 2010.06.25/outbox.cif.g09.slc.cpg/sg2_214_cif.got.tgz:427959.got - 2010.06.27 13:26:56.
