data_PCOD8024434
_publ_section_title
;
Structure prediction by ZEFSAII (Michael W. Deem and Ramdas Pophale) SiO2 
 PCOD8024434
Probable space group: P -1
;
_chemical_formula_sum "Si O2"
_cell_formula_units_Z 14
_cell_length_a 9.448907
_cell_length_b 9.018487
_cell_length_c 8.896075
_cell_angle_alpha 110.430591
_cell_angle_beta 67.520772
_cell_angle_gamma 100.790449
_cell_volume 655.148639
_symmetry_space_group_name_H-M "P -1"
_symmetry_group_IT_number 2
_symmetry_cell_setting 'triclinic'
loop_
_space_group_symop_operation_xyz
x,y,z
-x,-y,-z
loop_
_atom_site_type_symbol
_atom_site_label
_atom_site_fract_x
_atom_site_fract_y
_atom_site_fract_z
Si Si1 0.396339 0.624042 0.229679
Si Si2 0.624022 0.550919 0.344796
Si Si3 0.808343 0.133807 0.701950
Si Si4 0.380632 0.280079 0.085285
Si Si5 0.837695 0.842286 0.397393
Si Si6 0.657799 0.211587 0.101385
Si Si7 0.824541 0.961216 0.105664
O O1 0.536134 0.656481 0.298826
O O2 0.264155 0.745892 0.344081
O O3 0.316494 0.446132 0.224327
O O4 0.468907 0.658940 0.049390
O O5 0.500000 0.500000 0.500000
O O6 0.758993 0.668001 0.395180
O O7 0.697312 0.397897 0.186796
O O8 0.987202 0.178408 0.644733
O O9 0.769861 0.958030 0.589918
O O10 0.749968 0.147557 0.899913
O O11 0.470397 0.184622 0.145410
O O12 0.245388 0.179495 0.023076
O O13 0.815238 0.908597 0.262646
O O14 0.716981 0.109431 0.181303
O O15 0.000000 0.000000 0.000000
#
# Coordination Sequence:
#
# PCOD8024434 Si02
#       7
#     2   2   2   2   2   2   2
#     4   9  19  39  64  91 120 168 210 259 321 378
#     4  11  25  43  66  99 127 165 221 272 313 378
#     4  10  23  43  67  91 132 176 211 256 335 378
#     4   9  19  38  64  92 125 162 213 261 316 377
#     4  11  25  44  64  95 137 167 213 271 318 376
#     4  10  23  43  67  96 129 169 218 257 327 388
#     4  12  23  39  65 101 129 166 218 265 317 382
#
# _framework density 21.369195000000001
#
# number of rings (size 3 to 8) (size 9 to 14) (size 15 to 20)
#    0.000    1.714    2.857    1.286    2.000    6.857 
#    0.000    0.714    0.000    0.000    0.000    0.000 
#    0.000    0.000    0.000    0.000    0.000    0.000 
#
# Total GULP energy -173500.865216 kJ/mol
# GULP energy per Si atom -12392.918944 kJ/mol
# Density = 2.132056 g / cm^3
# Si number density = 21.369195 Si / 1000 Ang^3
#
#
#
# Elastic Constant Matrix: (Units=GPa)
#
#
# Indices 1 2 3 4 5 6 
#
# 1 96.7626 46.7289 10.8802 21.7032 3.9409 9.5841
# 2 46.7289 89.2736 31.4965 20.9181 -2.6992 18.0354
# 3 10.8802 31.4965 82.2202 20.8755 -4.3718 19.6474
# 4 21.7032 20.9181 20.8755 37.9872 2.4377 7.6258
# 5 3.9409 -2.6992 -4.3718 2.4377 20.4974 8.3954
# 6 9.5841 18.0354 19.6474 7.6258 8.3954 45.7224
#
#
#
# Elastic Compliance Matrix: (Units=1/GPa)
#
#
# Indices 1 2 3 4 5 6 
#
# 1 0.015017 -0.007454 0.002008 -0.005466 -0.002947 0.000383
# 2 -0.007454 0.018247 -0.003891 -0.003101 0.005176 -0.004397
# 3 0.002008 -0.003891 0.017092 -0.007568 0.006144 -0.006097
# 4 -0.005466 -0.003101 -0.007568 0.035525 -0.005485 0.000703
# 5 -0.002947 0.005176 0.006144 -0.005485 0.057621 -0.013730
# 6 0.000383 -0.004397 -0.006097 0.000703 -0.013730 0.028549
#
#
# Mechanical properties :
#
#
# Convention : Reuss Voigt Hill
#
# Bulk Modulus (GPa) = 31.56308 49.60750 40.58529
# Shear Modulus (GPa) = 24.84030 32.78478 28.81254
#
# Velocity S-wave (km/s) = 3.41315 3.92115 3.67593
# Velocity P-wave (km/s) = 5.50774 6.61554 6.08690
#
# Compressibility (1/GPa) = 0.03168258
#
# Stress axis : x y z
#
# Youngs Moduli (GPa) = 66.59206 54.80264 58.50579
#
# Poissons Ratio (x) = 0.40852 -0.11748
# Poissons Ratio (y) = 0.49641 0.22762
# Poissons Ratio (z) = -0.13372 0.21321
#
# Static dielectric constant tensor:
#      x y z
#    x 4.444800 -0.813050 0.588460 
#    y -0.813050 4.636760 -0.300160 
#    z 0.588460 -0.300160 4.196390 
# 
# 
# High freq. dielectric constant tensor:
#      x y z
#    x 1.844700 -0.013660 0.015450 
#    y -0.013660 1.843540 0.011260 
#    z 0.015450 0.011260 1.824730 
# 
# From -- ./inp_files/157967.got.cif
#   From: 2010.06.25/outbox.cif.g09.slc.cpg/sg2_79_cif.got.tgz:157967.got - 2010.06.27 13:26:56.
