data_PCOD8024694
_publ_section_title
;
Structure prediction by ZEFSAII (Michael W. Deem and Ramdas Pophale) SiO2 
 PCOD8024694
Probable space group: P -1
;
_chemical_formula_sum "Si O2"
_cell_formula_units_Z 16
_cell_length_a 12.468414
_cell_length_b 15.634506
_cell_length_c 15.174223
_cell_angle_alpha 29.472683
_cell_angle_beta 125.920889
_cell_angle_gamma 145.275247
_cell_volume 736.193843
_symmetry_space_group_name_H-M "P -1"
_symmetry_group_IT_number 2
_symmetry_cell_setting 'triclinic'
loop_
_space_group_symop_operation_xyz
x,y,z
-x,-y,-z
loop_
_atom_site_type_symbol
_atom_site_label
_atom_site_fract_x
_atom_site_fract_y
_atom_site_fract_z
Si Si1 0.389479 0.832752 0.306426
Si Si2 0.832270 0.976198 0.190411
Si Si3 0.039640 0.252040 0.583198
Si Si4 0.287897 0.151790 0.551802
Si Si5 0.783313 0.386581 0.219709
Si Si6 0.546744 0.306507 0.849649
Si Si7 0.311293 0.901662 0.387545
Si Si8 0.987443 0.274826 0.345938
O O1 0.207395 0.581318 0.377988
O O2 0.572700 0.877702 0.358169
O O3 0.289476 0.753941 0.425639
O O4 0.471371 0.106828 0.071869
O O5 0.837753 0.802630 0.292363
O O6 0.807265 0.914999 0.337065
O O7 0.630027 0.878141 0.147309
O O8 0.055917 0.289992 0.993674
O O9 0.940756 0.138325 0.539640
O O10 0.843019 0.087364 0.703058
O O11 0.415677 0.456702 0.312158
O O12 0.095196 0.930560 0.588736
O O13 0.772873 0.295051 0.393743
O O14 0.868548 0.338184 0.230854
O O15 0.551639 0.214329 0.233940
O O16 0.760613 0.439673 0.796266
#
# Coordination Sequence:
#
# PCOD8024694 Si02
#       8
#     2   2   2   2   2   2   2   2
#     4  12  25  45  72  99 138 181 224 277 342 399
#     4  12  25  44  67 103 138 176 229 275 341 405
#     4  11  24  44  69  95 141 180 222 285 330 393
#     4  12  25  44  70 103 142 172 224 283 335 414
#     4  10  23  43  70  97 133 179 227 280 335 397
#     4  12  25  43  68 105 138 179 219 276 344 406
#     4  10  23  46  67  96 132 180 231 277 331 396
#     4  11  23  43  67 100 136 178 219 279 341 398
#
# _framework density 21.733404
#
# number of rings (size 3 to 8) (size 9 to 14) (size 15 to 20)
#    0.000    0.750    3.750    4.125    1.750    3.000 
#    2.250    1.250    0.000    0.000    0.000    0.000 
#    0.000    0.000    0.000    0.000    0.000    0.000 
#
# Total GULP energy -198401.225418 kJ/mol
# GULP energy per Si atom -12400.076589 kJ/mol
# Density = 2.168394 g / cm^3
# Si number density = 21.733404 Si / 1000 Ang^3
#
#
#
# Elastic Constant Matrix: (Units=GPa)
#
#
# Indices 1 2 3 4 5 6 
#
# 1 153.6193 51.6326 53.8259 -6.5377 -3.4260 7.8197
# 2 51.6326 103.9969 49.0814 -17.8470 -3.9986 -0.6861
# 3 53.8259 49.0814 124.9019 -17.7584 8.3731 -0.7957
# 4 -6.5377 -17.8470 -17.7584 24.8898 4.7839 -3.9392
# 5 -3.4260 -3.9986 8.3731 4.7839 23.3200 -4.1594
# 6 7.8197 -0.6861 -0.7957 -3.9392 -4.1594 39.9024
#
#
#
# Elastic Compliance Matrix: (Units=1/GPa)
#
#
# Indices 1 2 3 4 5 6 
#
# 1 0.008703 -0.003342 -0.003006 -0.002950 0.002051 -0.001900
# 2 -0.003342 0.014056 -0.003243 0.006773 0.001999 0.001709
# 3 -0.003006 -0.003243 0.011992 0.006823 -0.006567 0.000762
# 4 -0.002950 0.006773 0.006823 0.052104 -0.011560 0.004769
# 5 0.002051 0.001999 -0.006567 -0.011560 0.048871 0.003454
# 6 -0.001900 0.001709 0.000762 0.004769 0.003454 0.026309
#
#
# Mechanical properties :
#
#
# Convention : Reuss Voigt Hill
#
# Bulk Modulus (GPa) = 64.23745 76.84420 70.54083
# Shear Modulus (GPa) = 26.82286 32.82099 29.82193
#
# Velocity S-wave (km/s) = 3.51690 3.89030 3.70830
# Velocity P-wave (km/s) = 6.79063 7.45745 7.13184
#
# Compressibility (1/GPa) = 0.01556724
#
# Stress axis : x y z
#
# Youngs Moduli (GPa) = 114.89984 71.14319 83.39150
#
# Poissons Ratio (x) = 0.23777 0.25071
# Poissons Ratio (y) = 0.38401 0.27047
# Poissons Ratio (z) = 0.34544 0.23074
#
# Static dielectric constant tensor:
#      x y z
#    x 4.216910 0.158550 0.053560 
#    y 0.158550 4.026080 -0.056740 
#    z 0.053560 -0.056740 3.677060 
# 
# 
# High freq. dielectric constant tensor:
#      x y z
#    x 1.868920 0.011270 0.002710 
#    y 0.011270 1.864930 -0.008730 
#    z 0.002710 -0.008730 1.831120 
# 
# From -- ./inp_files/209230.got.cif
#   From: 2010.06.25/outbox.cif.g09.slc.cpg/sg2_105_cif.got.tgz:209230.got - 2010.06.27 13:26:56.
