data_PCOD8024243
_publ_section_title
;
Structure prediction by ZEFSAII (Michael W. Deem and Ramdas Pophale) SiO2 
 PCOD8024243
Probable space group: P -1
;
_chemical_formula_sum "Si O2"
_cell_formula_units_Z 16
_cell_length_a 21.067415
_cell_length_b 11.145038
_cell_length_c 15.071422
_cell_angle_alpha 136.398235
_cell_angle_beta 24.986722
_cell_angle_gamma 150.828440
_cell_volume 688.588302
_symmetry_space_group_name_H-M "P -1"
_symmetry_group_IT_number 2
_symmetry_cell_setting 'triclinic'
loop_
_space_group_symop_operation_xyz
x,y,z
-x,-y,-z
loop_
_atom_site_type_symbol
_atom_site_label
_atom_site_fract_x
_atom_site_fract_y
_atom_site_fract_z
Si Si1 0.132813 0.045942 0.025867
Si Si2 0.473626 0.452540 0.304921
Si Si3 0.164153 0.527488 0.437177
Si Si4 0.680117 0.514953 0.314183
Si Si5 0.048430 0.749651 0.614372
Si Si6 0.372687 0.209555 0.992357
Si Si7 0.781290 0.024557 0.752872
Si Si8 0.537714 0.167355 0.166540
O O1 0.973043 0.075347 0.232354
O O2 0.349538 0.256664 0.803111
O O3 0.211280 0.072829 0.039962
O O4 0.945157 0.745376 0.071738
O O5 0.324698 0.450906 0.555579
O O6 0.610426 0.409631 0.154228
O O7 0.318980 0.228251 0.306563
O O8 0.059238 0.632243 0.624210
O O9 0.426731 0.759833 0.255675
O O10 0.157391 0.465014 0.307694
O O11 0.032496 0.281577 0.536981
O O12 0.500000 0.500000 0.500000
O O13 0.601610 0.257654 0.238491
O O14 0.269647 0.919042 0.363266
O O15 0.500000 0.500000 0.000000
O O16 0.211596 0.022090 0.178283
O O17 0.641466 0.082934 0.948023
#
# Coordination Sequence:
#
# PCOD8024243 Si02
#       8
#     2   2   2   2   2   2   2   2
#     4  12  23  42  65  96 131 175 214 270 322 389
#     4  11  22  37  67  98 129 167 218 265 327 384
#     4  11  23  38  62  96 132 173 207 269 329 385
#     4  10  23  43  62  94 134 172 213 267 326 384
#     4  11  20  38  65  92 135 165 214 271 325 374
#     4  12  25  40  61  99 139 168 211 272 333 379
#     4  12  23  41  67  97 132 170 221 264 326 387
#     4  11  22  41  65  97 134 166 213 277 324 380
#
# _framework density 23.235944
#
# number of rings (size 3 to 8) (size 9 to 14) (size 15 to 20)
#    0.000    0.750    7.500    1.125    1.750    3.500 
#    2.250    0.625    0.000    1.500    0.000    0.000 
#    0.000    0.000    0.000    0.000    0.000    0.000 
#
# Total GULP energy -198215.276276 kJ/mol
# GULP energy per Si atom -12388.454767 kJ/mol
# Density = 2.318306 g / cm^3
# Si number density = 23.235944 Si / 1000 Ang^3
#
#
#
# Elastic Constant Matrix: (Units=GPa)
#
#
# Indices 1 2 3 4 5 6 
#
# 1 95.1127 27.9170 23.4034 -20.4351 8.1444 -12.3458
# 2 27.9170 44.5505 25.9910 -17.6780 0.5508 10.8803
# 3 23.4034 25.9910 64.4445 -19.5908 11.7088 2.1093
# 4 -20.4351 -17.6780 -19.5908 40.7160 -5.7681 3.4878
# 5 8.1444 0.5508 11.7088 -5.7681 34.9458 -7.6237
# 6 -12.3458 10.8803 2.1093 3.4878 -7.6237 32.6066
#
#
#
# Elastic Compliance Matrix: (Units=1/GPa)
#
#
# Indices 1 2 3 4 5 6 
#
# 1 0.015520 -0.010686 -0.000920 0.001806 -0.000855 0.009109
# 2 -0.010686 0.044030 -0.010584 0.010679 0.003075 -0.018477
# 3 -0.000920 -0.010584 0.022850 0.005044 -0.006520 -0.000359
# 4 0.001806 0.010679 0.005044 0.033334 0.001839 -0.006342
# 5 -0.000855 0.003075 -0.006520 0.001839 0.032676 0.006515
# 6 0.009109 -0.018477 -0.000359 -0.006342 0.006515 0.042508
#
#
# Mechanical properties :
#
#
# Convention : Reuss Voigt Hill
#
# Bulk Modulus (GPa) = 26.30305 39.85894 33.08100
# Shear Modulus (GPa) = 20.16349 30.10675 25.13512
#
# Velocity S-wave (km/s) = 2.94899 3.60348 3.29254
# Velocity P-wave (km/s) = 4.78957 5.87407 5.35932
#
# Compressibility (1/GPa) = 0.03801841
#
# Stress axis : x y z
#
# Youngs Moduli (GPa) = 64.43143 22.71188 43.76370
#
# Poissons Ratio (x) = 0.24270 0.04028
# Poissons Ratio (y) = 0.68853 0.46321
# Poissons Ratio (z) = 0.05930 0.24039
#
# Static dielectric constant tensor:
#      x y z
#    x 4.288580 -0.002140 0.071590 
#    y -0.002140 4.442430 -0.107820 
#    z 0.071590 -0.107820 4.256230 
# 
# 
# High freq. dielectric constant tensor:
#      x y z
#    x 1.902700 -0.002670 0.005090 
#    y -0.002670 1.908570 -0.019070 
#    z 0.005090 -0.019070 1.910740 
# 
# From -- ./inp_files/540976.got.cif
#   From: 2010.06.25/outbox.cif.g09.slc.cpg/sg2_271_cif.got.tgz:540976.got - 2010.06.27 13:26:56.
