data_PCOD8024523
_publ_section_title
;
Structure prediction by ZEFSAII (Michael W. Deem and Ramdas Pophale) SiO2 
 PCOD8024523
Probable space group: P -1
;
_chemical_formula_sum "Si O2"
_cell_formula_units_Z 14
_cell_length_a 8.420777
_cell_length_b 13.416786
_cell_length_c 12.106921
_cell_angle_alpha 33.447412
_cell_angle_beta 48.683422
_cell_angle_gamma 51.294032
_cell_volume 557.012914
_symmetry_space_group_name_H-M "P -1"
_symmetry_group_IT_number 2
_symmetry_cell_setting 'triclinic'
loop_
_space_group_symop_operation_xyz
x,y,z
-x,-y,-z
loop_
_atom_site_type_symbol
_atom_site_label
_atom_site_fract_x
_atom_site_fract_y
_atom_site_fract_z
Si Si1 0.207484 0.746608 0.881119
Si Si2 0.154009 0.368055 0.171706
Si Si3 0.063031 0.928332 0.405408
Si Si4 0.576895 0.173048 0.501833
Si Si5 0.243205 0.916473 0.939071
Si Si6 0.331051 0.476562 0.784418
Si Si7 0.582493 0.186298 0.814885
O O1 0.398918 0.788752 0.674915
O O2 0.260497 0.786326 0.945088
O O3 0.190144 0.531841 0.085340
O O4 0.987913 0.875524 0.816411
O O5 0.152792 0.167392 0.413006
O O6 0.909443 0.408600 0.202354
O O7 0.332412 0.341302 0.016701
O O8 0.187007 0.942913 0.454054
O O9 0.243712 0.789870 0.378968
O O10 0.378052 0.076818 0.707664
O O11 0.519073 0.370625 0.407237
O O12 0.325621 0.800756 0.116027
O O13 0.000000 0.000000 0.000000
O O14 0.388417 0.363284 0.748261
O O15 0.500000 0.000000 0.000000
#
# Coordination Sequence:
#
# PCOD8024523 Si02
#       7
#     2   2   2   2   2   2   2
#     4  11  23  44  67  98 136 166 215 274 330 386
#     4   9  21  40  67 101 128 164 216 278 318 382
#     4  11  22  40  70 100 126 171 222 263 328 383
#     4  10  23  43  68  95 125 176 218 269 324 382
#     4  12  26  43  61  96 135 176 216 265 328 388
#     4   9  21  41  65  97 129 162 222 273 319 382
#     4  12  24  42  66  95 129 176 221 263 326 391
#
# _framework density 25.134065
#
# number of rings (size 3 to 8) (size 9 to 14) (size 15 to 20)
#    0.000    1.429    2.857    2.571    2.000    3.429 
#    2.571    2.857    0.000    0.000    0.000    0.000 
#    0.000    0.000    0.000    0.000    0.000    0.000 
#
# Total GULP energy -173511.800750 kJ/mol
# GULP energy per Si atom -12393.700054 kJ/mol
# Density = 2.507686 g / cm^3
# Si number density = 25.134065 Si / 1000 Ang^3
#
#
#
# Elastic Constant Matrix: (Units=GPa)
#
#
# Indices 1 2 3 4 5 6 
#
# 1 71.9022 10.7814 24.3591 2.1044 -6.6763 25.9142
# 2 10.7814 96.9122 23.5085 -17.4862 -13.2348 26.1264
# 3 24.3591 23.5085 118.8302 -3.0857 -35.1364 20.0878
# 4 2.1044 -17.4862 -3.0857 33.0622 5.1761 -0.8734
# 5 -6.6763 -13.2348 -35.1364 5.1761 43.0186 6.2530
# 6 25.9142 26.1264 20.0878 -0.8734 6.2530 45.4866
#
#
#
# Elastic Compliance Matrix: (Units=1/GPa)
#
#
# Indices 1 2 3 4 5 6 
#
# 1 0.018711 0.001727 -0.000805 -0.001403 0.004686 -0.011967
# 2 0.001727 0.014801 0.000353 0.006568 0.005819 -0.010315
# 3 -0.000805 0.000353 0.013247 -0.000584 0.011926 -0.007245
# 4 -0.001403 0.006568 -0.000584 0.034105 -0.002529 -0.001713
# 5 0.004686 0.005819 0.011926 -0.002529 0.038219 -0.016581
# 6 -0.011967 -0.010315 -0.007245 -0.001713 -0.016581 0.040173
#
#
# Mechanical properties :
#
#
# Convention : Reuss Voigt Hill
#
# Bulk Modulus (GPa) = 20.28098 44.99363 32.63731
# Shear Modulus (GPa) = 28.87796 39.57986 34.22891
#
# Velocity S-wave (km/s) = 3.39330 3.97262 3.69433
# Velocity P-wave (km/s) = 4.84142 6.24360 5.58668
#
# Compressibility (1/GPa) = 0.04930728
#
# Stress axis : x y z
#
# Youngs Moduli (GPa) = 53.44521 67.56096 75.49115
#
# Poissons Ratio (x) = -0.11666 0.06078
# Poissons Ratio (y) = -0.09229 -0.02662
# Poissons Ratio (z) = 0.04303 -0.02382
#
# Static dielectric constant tensor:
#      x y z
#    x 4.236880 -0.034580 0.060020 
#    y -0.034580 4.921310 0.084580 
#    z 0.060020 0.084580 4.953530 
# 
# 
# High freq. dielectric constant tensor:
#      x y z
#    x 1.962530 0.001480 -0.003280 
#    y 0.001480 2.031230 -0.001200 
#    z -0.003280 -0.001200 2.010950 
# 
# From -- ./inp_files/154092.got.cif
#   From: 2010.06.25/outbox.cif.g09.slc.cpg/sg2_78_cif.got.tgz:154092.got - 2010.06.27 13:26:56.
