data_PCOD8024004
_publ_section_title
;
Structure prediction by ZEFSAII (Michael W. Deem and Ramdas Pophale) SiO2 
 PCOD8024004
Probable space group: P -1
;
_chemical_formula_sum "Si O2"
_cell_formula_units_Z 16
_cell_length_a 9.138161
_cell_length_b 8.527208
_cell_length_c 15.549295
_cell_angle_alpha 73.287583
_cell_angle_beta 140.473987
_cell_angle_gamma 96.079306
_cell_volume 725.079614
_symmetry_space_group_name_H-M "P -1"
_symmetry_group_IT_number 2
_symmetry_cell_setting 'triclinic'
loop_
_space_group_symop_operation_xyz
x,y,z
-x,-y,-z
loop_
_atom_site_type_symbol
_atom_site_label
_atom_site_fract_x
_atom_site_fract_y
_atom_site_fract_z
Si Si1 0.835521 0.480343 0.047694
Si Si2 0.683842 0.461102 0.796886
Si Si3 0.172868 0.805308 0.784110
Si Si4 0.811673 0.368046 0.512711
Si Si5 0.920306 0.086620 0.738674
Si Si6 0.607460 0.117340 0.748777
Si Si7 0.331343 0.144129 0.033971
Si Si8 0.082327 0.277137 0.482464
O O1 0.777615 0.373663 0.118728
O O2 0.113559 0.450173 0.162270
O O3 0.709933 0.422477 0.916078
O O4 0.733116 0.672388 0.986077
O O5 0.441932 0.587012 0.652184
O O6 0.696296 0.287309 0.781813
O O7 0.404725 0.884967 0.877106
O O8 0.095854 0.781413 0.655347
O O9 0.970015 0.928993 0.722813
O O10 0.802049 0.252371 0.608379
O O11 0.895219 0.533610 0.558238
O O12 0.989855 0.268783 0.539071
O O13 0.732249 0.046404 0.728478
O O14 0.161655 0.116019 0.884663
O O15 0.328113 0.149614 0.607090
O O16 0.694633 0.985062 0.882781
#
# Coordination Sequence:
#
# PCOD8024004 Si02
#       8
#     2   2   2   2   2   2   2   2
#     4  11  24  41  70 100 131 172 220 272 329 387
#     4  10  23  42  69 100 134 169 217 276 324 389
#     4  12  27  43  67 100 136 170 223 270 325 394
#     4  10  23  45  70  95 131 175 221 268 330 390
#     4  12  26  42  68  99 131 178 221 268 323 395
#     4  11  25  44  70  96 135 175 218 270 328 389
#     4  12  25  45  68  96 136 175 217 273 328 389
#     4  10  24  45  68  99 132 175 216 272 331 387
#
# _framework density 22.066541999999998
#
# number of rings (size 3 to 8) (size 9 to 14) (size 15 to 20)
#    0.000    1.000    1.250    4.125    5.250    7.500 
#    0.000    0.000    0.000    0.000    0.000    0.000 
#    0.000    0.000    0.000    0.000    0.000    0.000 
#
# Total GULP energy -198542.248427 kJ/mol
# GULP energy per Si atom -12408.890527 kJ/mol
# Density = 2.201632 g / cm^3
# Si number density = 22.066542 Si / 1000 Ang^3
#
#
#
# Elastic Constant Matrix: (Units=GPa)
#
#
# Indices 1 2 3 4 5 6 
#
# 1 98.1020 26.5654 33.9670 -1.5900 7.4700 -2.3104
# 2 26.5654 54.1127 32.7472 -6.9518 3.3275 -2.3230
# 3 33.9670 32.7472 102.6997 1.4436 3.1595 10.7132
# 4 -1.5900 -6.9518 1.4436 29.4997 1.0571 -5.3136
# 5 7.4700 3.3275 3.1595 1.0571 33.4617 -7.6248
# 6 -2.3104 -2.3230 10.7132 -5.3136 -7.6248 40.5034
#
#
#
# Elastic Compliance Matrix: (Units=1/GPa)
#
#
# Indices 1 2 3 4 5 6 
#
# 1 0.012486 -0.004282 -0.002795 0.000022 -0.001905 0.000850
# 2 -0.004282 0.026192 -0.007456 0.007055 -0.000230 0.004112
# 3 -0.002795 -0.007456 0.013616 -0.003407 -0.000908 -0.004806
# 4 0.000022 0.007055 -0.003407 0.036835 -0.000156 0.006110
# 5 -0.001905 -0.000230 -0.000908 -0.000156 0.031810 0.006086
# 6 0.000850 0.004112 -0.004806 0.006110 0.006086 0.028192
#
#
# Mechanical properties :
#
#
# Convention : Reuss Voigt Hill
#
# Bulk Modulus (GPa) = 43.05203 49.05261 46.05232
# Shear Modulus (GPa) = 26.89030 31.46862 29.17946
#
# Velocity S-wave (km/s) = 3.49463 3.78044 3.64034
# Velocity P-wave (km/s) = 5.98630 6.42910 6.21164
#
# Compressibility (1/GPa) = 0.02322771
#
# Stress axis : x y z
#
# Youngs Moduli (GPa) = 80.08924 38.18024 73.44192
#
# Poissons Ratio (x) = 0.16349 0.20525
# Poissons Ratio (y) = 0.34295 0.54761
# Poissons Ratio (z) = 0.22382 0.28468
#
# Static dielectric constant tensor:
#      x y z
#    x 4.058420 -0.007080 0.087700 
#    y -0.007080 3.910930 -0.004780 
#    z 0.087700 -0.004780 3.987290 
# 
# 
# High freq. dielectric constant tensor:
#      x y z
#    x 1.878500 -0.004280 0.002940 
#    y -0.004280 1.870070 -0.002000 
#    z 0.002940 -0.002000 1.876880 
# 
# From -- ./inp_files/243654.got.cif
#   From: 2010.06.25/outbox.cif.g09.slc.cpg/sg2_122_cif.got.tgz:243654.got - 2010.06.27 13:26:56.
