data_PCOD8024844
_publ_section_title
;
Structure prediction by ZEFSAII (Michael W. Deem and Ramdas Pophale) SiO2 
 PCOD8024844
Probable space group: P -1
;
_chemical_formula_sum "Si O2"
_cell_formula_units_Z 14
_cell_length_a 11.552489
_cell_length_b 8.150664
_cell_length_c 8.796578
_cell_angle_alpha 73.756324
_cell_angle_beta 139.147129
_cell_angle_gamma 99.222946
_cell_volume 518.433073
_symmetry_space_group_name_H-M "P -1"
_symmetry_group_IT_number 2
_symmetry_cell_setting 'triclinic'
loop_
_space_group_symop_operation_xyz
x,y,z
-x,-y,-z
loop_
_atom_site_type_symbol
_atom_site_label
_atom_site_fract_x
_atom_site_fract_y
_atom_site_fract_z
Si Si1 0.935306 0.189178 0.337662
Si Si2 0.278556 0.730571 0.497860
Si Si3 0.116754 0.654783 0.050485
Si Si4 0.528692 0.182900 0.916181
Si Si5 0.217822 0.412796 0.702877
Si Si6 0.374978 0.085411 0.482878
Si Si7 0.322410 0.383792 0.153886
O O1 0.041985 0.329985 0.493005
O O2 0.977898 0.203826 0.195190
O O3 0.724991 0.229168 0.143186
O O4 0.000000 0.000000 0.500000
O O5 0.156572 0.741936 0.224891
O O6 0.201630 0.612747 0.582550
O O7 0.470762 0.649476 0.662134
O O8 0.275768 0.929057 0.501230
O O9 0.292450 0.567805 0.159559
O O10 0.000000 0.500000 0.000000
O O11 0.396743 0.323673 0.831228
O O12 0.491124 0.176405 0.700125
O O13 0.500000 0.000000 0.000000
O O14 0.216627 0.390533 0.888555
O O15 0.251575 0.234671 0.233476
O O16 0.500000 0.000000 0.500000
#
# Coordination Sequence:
#
# PCOD8024844 Si02
#       7
#     2   2   2   2   2   2   2
#     4  12  27  46  77 108 152 191 254 309 363 441
#     4  11  23  46  76 106 147 190 248 301 376 442
#     4  12  26  49  70 107 149 195 245 307 370 440
#     4  12  24  47  80 109 146 199 250 301 376 440
#     4  12  26  49  75 114 148 195 247 304 379 439
#     4  10  23  43  77 110 142 190 248 302 365 445
#     4  11  25  47  75 108 149 192 251 304 367 448
#
# _framework density 27.004449000000001
#
# number of rings (size 3 to 8) (size 9 to 14) (size 15 to 20)
#    0.000    0.571    2.857    6.000    2.000    1.714 
#    5.143    0.714    0.000    0.000    0.000    0.000 
#    0.000    0.000    0.000    0.000    0.000    0.000 
#
# Total GULP energy -173588.217879 kJ/mol
# GULP energy per Si atom -12399.158420 kJ/mol
# Density = 2.694299 g / cm^3
# Si number density = 27.004449 Si / 1000 Ang^3
#
#
#
# Elastic Constant Matrix: (Units=GPa)
#
#
# Indices 1 2 3 4 5 6 
#
# 1 90.2412 33.4367 55.0019 -7.2750 -13.1090 15.7045
# 2 33.4367 183.1956 73.5384 -14.1434 -19.9232 45.4503
# 3 55.0019 73.5384 188.5536 2.8272 -27.9187 28.1465
# 4 -7.2750 -14.1434 2.8272 56.6723 11.2937 -8.3120
# 5 -13.1090 -19.9232 -27.9187 11.2937 59.4363 0.5442
# 6 15.7045 45.4503 28.1465 -8.3120 0.5442 53.8182
#
#
#
# Elastic Compliance Matrix: (Units=1/GPa)
#
#
# Indices 1 2 3 4 5 6 
#
# 1 0.013944 -0.000531 -0.003496 0.001399 0.001004 -0.001586
# 2 -0.000531 0.007893 -0.001909 0.000906 0.001509 -0.005387
# 3 -0.003496 -0.001909 0.007756 -0.002100 0.002648 -0.001775
# 4 0.001399 0.000906 -0.002100 0.019405 -0.004089 0.002963
# 5 0.001004 0.001509 0.002648 -0.004089 0.019607 -0.003782
# 6 -0.001586 -0.005387 -0.001775 0.002963 -0.003782 0.025018
#
#
# Mechanical properties :
#
#
# Convention : Reuss Voigt Hill
#
# Bulk Modulus (GPa) = 56.43228 87.32715 71.87971
# Shear Modulus (GPa) = 44.88258 53.98626 49.43442
#
# Velocity S-wave (km/s) = 4.08124 4.47605 4.28320
# Velocity P-wave (km/s) = 6.56898 7.68906 7.15098
#
# Compressibility (1/GPa) = 0.01772036
#
# Stress axis : x y z
#
# Youngs Moduli (GPa) = 71.71780 126.70105 128.92470
#
# Poissons Ratio (x) = 0.06727 0.45070
# Poissons Ratio (y) = 0.03808 0.24616
# Poissons Ratio (z) = 0.25072 0.24191
#
# Static dielectric constant tensor:
#      x y z
#    x 5.346730 0.583310 -0.383800 
#    y 0.583310 5.784360 -0.431080 
#    z -0.383800 -0.431080 5.796630 
# 
# 
# High freq. dielectric constant tensor:
#      x y z
#    x 2.102070 0.013880 -0.014860 
#    y 0.013880 2.103580 -0.009920 
#    z -0.014860 -0.009920 2.097790 
# 
# From -- ./inp_files/243766.got.cif
#   From: 2010.06.25/outbox.cif.g09.slc.cpg/sg2_122_cif.got.tgz:243766.got - 2010.06.27 13:26:56.
