data_PCOD8024579
_publ_section_title
;
Structure prediction by ZEFSAII (Michael W. Deem and Ramdas Pophale) SiO2 
 PCOD8024579
Probable space group: P -1
;
_chemical_formula_sum "Si O2"
_cell_formula_units_Z 16
_cell_length_a 14.934925
_cell_length_b 9.045791
_cell_length_c 9.353703
_cell_angle_alpha 79.881258
_cell_angle_beta 143.303122
_cell_angle_gamma 107.716485
_cell_volume 714.133644
_symmetry_space_group_name_H-M "P -1"
_symmetry_group_IT_number 2
_symmetry_cell_setting 'triclinic'
loop_
_space_group_symop_operation_xyz
x,y,z
-x,-y,-z
loop_
_atom_site_type_symbol
_atom_site_label
_atom_site_fract_x
_atom_site_fract_y
_atom_site_fract_z
Si Si1 0.553672 0.951408 0.348087
Si Si2 0.709749 0.547495 0.183368
Si Si3 0.895069 0.767424 0.165699
Si Si4 0.853094 0.353640 0.858656
Si Si5 0.318030 0.443938 0.296329
Si Si6 0.413504 0.351743 0.711372
Si Si7 0.255126 0.975059 0.130879
Si Si8 0.234210 0.745161 0.539500
O O1 0.541752 0.803137 0.256046
O O2 0.384195 0.955756 0.185939
O O3 0.663625 0.951471 0.627957
O O4 0.622804 0.098011 0.304956
O O5 0.860142 0.661285 0.280975
O O6 0.663650 0.653532 0.229909
O O7 0.743177 0.385718 0.300685
O O8 0.572076 0.496666 0.897441
O O9 0.074818 0.792636 0.354132
O O10 0.780549 0.691654 0.904529
O O11 0.851821 0.930257 0.099912
O O12 0.743190 0.403553 0.826510
O O13 0.873404 0.190798 0.970956
O O14 0.762811 0.327382 0.599163
O O15 0.000000 0.500000 0.000000
O O16 0.500000 0.500000 0.500000
O O17 0.290658 0.384195 0.435343
#
# Coordination Sequence:
#
# PCOD8024579 Si02
#       8
#     2   2   2   2   2   2   2   2
#     4  10  23  43  69 101 138 175 227 282 333 402
#     4  11  26  43  67 100 137 179 230 275 338 403
#     4  12  25  44  68 100 140 176 223 286 335 402
#     4  11  23  42  67 103 134 172 223 282 336 403
#     4  12  22  39  71 102 129 173 232 280 336 388
#     4  11  23  42  70  99 130 178 230 283 331 398
#     4  10  24  40  68 104 137 170 225 285 337 391
#     4  11  25  44  66  96 141 184 219 275 345 402
#
# _framework density 22.404768000000001
#
# number of rings (size 3 to 8) (size 9 to 14) (size 15 to 20)
#    0.000    1.000    5.000    1.125    7.000    3.500 
#    0.000    0.625    0.000    0.000    0.000    0.000 
#    0.000    0.000    0.000    0.000    0.000    0.000 
#
# Total GULP energy -198269.677280 kJ/mol
# GULP energy per Si atom -12391.854830 kJ/mol
# Density = 2.235377 g / cm^3
# Si number density = 22.404768 Si / 1000 Ang^3
#
#
#
# Elastic Constant Matrix: (Units=GPa)
#
#
# Indices 1 2 3 4 5 6 
#
# 1 116.4804 68.5343 28.2723 8.1069 15.1550 -5.3766
# 2 68.5343 137.7323 35.7840 -5.7221 -5.6072 0.8335
# 3 28.2723 35.7840 53.2194 -0.4787 2.3110 -0.6831
# 4 8.1069 -5.7221 -0.4787 41.0470 -2.8263 -0.2236
# 5 15.1550 -5.6072 2.3110 -2.8263 32.4937 -0.2164
# 6 -5.3766 0.8335 -0.6831 -0.2236 -0.2164 46.0155
#
#
#
# Elastic Compliance Matrix: (Units=1/GPa)
#
#
# Indices 1 2 3 4 5 6 
#
# 1 0.015073 -0.007341 -0.002721 -0.004607 -0.008492 0.001791
# 2 -0.007341 0.012571 -0.004806 0.003570 0.006238 -0.001110
# 3 -0.002721 -0.004806 0.023522 0.000058 -0.001227 0.000113
# 4 -0.004607 0.003570 0.000058 0.026114 0.005029 -0.000452
# 5 -0.008492 0.006238 -0.001227 0.005029 0.036331 -0.000928
# 6 0.001791 -0.001110 0.000113 -0.000452 -0.000928 0.021956
#
#
# Mechanical properties :
#
#
# Convention : Reuss Voigt Hill
#
# Bulk Modulus (GPa) = 46.66234 63.62370 55.14302
# Shear Modulus (GPa) = 28.99436 35.56735 32.28085
#
# Velocity S-wave (km/s) = 3.60128 3.98865 3.79991
# Velocity P-wave (km/s) = 6.17774 7.04780 6.62707
#
# Compressibility (1/GPa) = 0.02143056
#
# Stress axis : x y z
#
# Youngs Moduli (GPa) = 66.34234 79.54838 42.51324
#
# Poissons Ratio (x) = 0.58400 0.11568
# Poissons Ratio (y) = 0.48704 0.20430
# Poissons Ratio (z) = 0.18052 0.38227
#
# Static dielectric constant tensor:
#      x y z
#    x 4.111470 0.089050 -0.151360 
#    y 0.089050 4.088990 -0.019500 
#    z -0.151360 -0.019500 3.957860 
# 
# 
# High freq. dielectric constant tensor:
#      x y z
#    x 1.893240 -0.006250 -0.000300 
#    y -0.006250 1.893480 -0.002010 
#    z -0.000300 -0.002010 1.860040 
# 
# From -- ./inp_files/261614.got.cif
#   From: 2010.06.25/outbox.cif.g09.slc.cpg/sg2_131_cif.got.tgz:261614.got - 2010.06.27 13:26:56.
