data_PCOD8024389
_publ_section_title
;
Structure prediction by ZEFSAII (Michael W. Deem and Ramdas Pophale) SiO2 
 PCOD8024389
Probable space group: P -1
;
_chemical_formula_sum "Si O2"
_cell_formula_units_Z 14
_cell_length_a 17.736574
_cell_length_b 9.026054
_cell_length_c 6.561138
_cell_angle_alpha 103.138458
_cell_angle_beta 69.560513
_cell_angle_gamma 53.905409
_cell_volume 652.411984
_symmetry_space_group_name_H-M "P -1"
_symmetry_group_IT_number 2
_symmetry_cell_setting 'triclinic'
loop_
_space_group_symop_operation_xyz
x,y,z
-x,-y,-z
loop_
_atom_site_type_symbol
_atom_site_label
_atom_site_fract_x
_atom_site_fract_y
_atom_site_fract_z
Si Si1 0.829596 0.369666 0.777038
Si Si2 0.407113 0.863148 0.149780
Si Si3 0.430030 0.473819 0.434476
Si Si4 0.042138 0.021966 0.767517
Si Si5 0.240804 0.954776 0.653484
Si Si6 0.418328 0.264254 0.726563
Si Si7 0.706221 0.837943 0.041782
O O1 0.814730 0.571769 0.808981
O O2 0.926743 0.218599 0.810674
O O3 0.868087 0.219879 0.499267
O O4 0.701071 0.484429 0.003823
O O5 0.302925 0.912177 0.369238
O O6 0.472589 0.863794 0.265179
O O7 0.348684 0.049519 0.090653
O O8 0.506453 0.621853 0.874041
O O9 0.500000 0.500000 0.500000
O O10 0.297846 0.719710 0.612643
O O11 0.440540 0.298742 0.488812
O O12 0.105890 0.095192 0.778063
O O13 0.000000 0.000000 0.000000
O O14 0.248034 0.077764 0.854459
O O15 0.391519 0.117624 0.708914
#
# Coordination Sequence:
#
# PCOD8024389 Si02
#       7
#     2   2   2   2   2   2   2
#     4   9  24  45  66  96 126 170 219 271 319 393
#     4  12  23  39  65  99 136 178 214 259 334 384
#     4  12  23  39  64  98 137 175 220 265 313 392
#     4  11  24  46  73  93 124 174 224 269 331 389
#     4  12  26  42  68 101 133 171 221 275 325 386
#     4  10  23  43  66  92 138 174 220 258 328 387
#     4  10  25  43  64 102 136 170 215 274 326 389
#
# _framework density 21.458832999999998
#
# number of rings (size 3 to 8) (size 9 to 14) (size 15 to 20)
#    0.857    0.286    2.857    2.571    2.000    7.429 
#    0.000    1.429    0.000    0.000    0.000    0.000 
#    0.000    0.000    0.000    0.000    0.000    0.000 
#
# Total GULP energy -173513.738651 kJ/mol
# GULP energy per Si atom -12393.838475 kJ/mol
# Density = 2.140999 g / cm^3
# Si number density = 21.458833 Si / 1000 Ang^3
#
#
#
# Elastic Constant Matrix: (Units=GPa)
#
#
# Indices 1 2 3 4 5 6 
#
# 1 137.6963 42.7838 53.4066 -15.9755 -3.0260 6.1238
# 2 42.7838 122.6982 43.1122 -9.5672 5.4175 8.5319
# 3 53.4066 43.1122 89.7639 -17.3881 1.9116 0.5789
# 4 -15.9755 -9.5672 -17.3881 33.5110 7.3451 1.0893
# 5 -3.0260 5.4175 1.9116 7.3451 28.6639 -3.4275
# 6 6.1238 8.5319 0.5789 1.0893 -3.4275 25.0318
#
#
#
# Elastic Compliance Matrix: (Units=1/GPa)
#
#
# Indices 1 2 3 4 5 6 
#
# 1 0.009911 -0.001554 -0.004854 0.001587 0.001053 -0.001708
# 2 -0.001554 0.010471 -0.003849 0.000921 -0.002539 -0.003488
# 3 -0.004854 -0.003849 0.017054 0.005877 -0.002244 0.001542
# 4 0.001587 0.000921 0.005877 0.036257 -0.010144 -0.003805
# 5 0.001053 -0.002539 -0.002244 -0.010144 0.038997 0.006441
# 6 -0.001708 -0.003488 0.001542 -0.003805 0.006441 0.042567
#
#
# Mechanical properties :
#
#
# Convention : Reuss Voigt Hill
#
# Bulk Modulus (GPa) = 59.10178 69.86261 64.48220
# Shear Modulus (GPa) = 27.56126 31.49841 29.52984
#
# Velocity S-wave (km/s) = 3.58771 3.83541 3.71363
# Velocity P-wave (km/s) = 6.69059 7.22780 6.96438
#
# Compressibility (1/GPa) = 0.01691996
#
# Stress axis : x y z
#
# Youngs Moduli (GPa) = 100.89462 95.50156 58.63861
#
# Poissons Ratio (x) = 0.14844 0.28465
# Poissons Ratio (y) = 0.15682 0.22572
# Poissons Ratio (z) = 0.48978 0.36761
#
# Static dielectric constant tensor:
#      x y z
#    x 3.835030 -0.213760 0.017240 
#    y -0.213760 4.768620 -0.624720 
#    z 0.017240 -0.624720 4.525100 
# 
# 
# High freq. dielectric constant tensor:
#      x y z
#    x 1.837030 -0.005940 0.005370 
#    y -0.005940 1.852680 0.001390 
#    z 0.005370 0.001390 1.849150 
# 
# From -- ./inp_files/105585.got.cif
#   From: 2010.06.25/outbox.cif.g09.slc.cpg/sg2_53_cif.got.tgz:105585.got - 2010.06.27 13:26:56.
