data_PCOD8024429
_publ_section_title
;
Structure prediction by ZEFSAII (Michael W. Deem and Ramdas Pophale) SiO2 
 PCOD8024429
Probable space group: P -1
;
_chemical_formula_sum "Si O2"
_cell_formula_units_Z 14
_cell_length_a 11.569405
_cell_length_b 5.186793
_cell_length_c 14.894226
_cell_angle_alpha 116.048782
_cell_angle_beta 132.586810
_cell_angle_gamma 64.944983
_cell_volume 580.319272
_symmetry_space_group_name_H-M "P -1"
_symmetry_group_IT_number 2
_symmetry_cell_setting 'triclinic'
loop_
_space_group_symop_operation_xyz
x,y,z
-x,-y,-z
loop_
_atom_site_type_symbol
_atom_site_label
_atom_site_fract_x
_atom_site_fract_y
_atom_site_fract_z
Si Si1 0.400138 0.751312 0.697848
Si Si2 0.096540 0.755556 0.877880
Si Si3 0.288105 0.060935 0.145622
Si Si4 0.406297 0.831102 0.357698
Si Si5 0.125383 0.091838 0.513425
Si Si6 0.159317 0.695067 0.705193
Si Si7 0.896607 0.369174 0.810847
O O1 0.544265 0.925249 0.811653
O O2 0.465850 0.410761 0.664153
O O3 0.294265 0.832489 0.745123
O O4 0.291057 0.858206 0.568162
O O5 0.988376 0.077515 0.862336
O O6 0.196312 0.665616 0.825290
O O7 0.223086 0.784525 0.027840
O O8 0.002100 0.492486 0.808641
O O9 0.157318 0.361297 0.105610
O O10 0.311812 0.035277 0.261609
O O11 0.274585 0.696743 0.325236
O O12 0.500000 0.000000 0.500000
O O13 0.167874 0.395285 0.611884
O O14 0.026730 0.120197 0.371270
O O15 0.000000 0.000000 0.500000
#
# Coordination Sequence:
#
# PCOD8024429 Si02
#       7
#     2   2   2   2   2   2   2
#     4  10  23  43  71 100 142 185 232 291 357 419
#     4  12  27  44  77 104 143 186 242 287 349 423
#     4  11  25  47  71 102 144 187 235 296 351 413
#     4  11  26  47  71 106 142 188 234 295 356 417
#     4   9  20  41  64  94 139 181 231 283 348 412
#     4  10  23  43  67 104 137 186 233 289 353 422
#     4  11  26  47  73 104 141 188 237 293 347 418
#
# _framework density 24.124649000000002
#
# number of rings (size 3 to 8) (size 9 to 14) (size 15 to 20)
#    0.000    1.429    1.429    1.714    8.000    8.571 
#    5.143    2.857    0.000    0.000    0.000    0.000 
#    0.000    0.000    0.000    0.000    0.000    0.000 
#
# Total GULP energy -173473.301858 kJ/mol
# GULP energy per Si atom -12390.950133 kJ/mol
# Density = 2.406974 g / cm^3
# Si number density = 24.124649 Si / 1000 Ang^3
#
#
#
# Elastic Constant Matrix: (Units=GPa)
#
#
# Indices 1 2 3 4 5 6 
#
# 1 130.4311 11.0484 58.0044 12.4589 20.4094 15.7427
# 2 11.0484 70.4775 21.5955 -4.5018 19.1495 16.9411
# 3 58.0044 21.5955 124.9287 22.8296 -2.5311 15.5443
# 4 12.4589 -4.5018 22.8296 32.1607 2.6169 11.0567
# 5 20.4094 19.1495 -2.5311 2.6169 30.9157 -3.2814
# 6 15.7427 16.9411 15.5443 11.0567 -3.2814 33.3829
#
#
#
# Elastic Compliance Matrix: (Units=1/GPa)
#
#
# Indices 1 2 3 4 5 6 
#
# 1 0.013578 0.007289 -0.007725 0.005966 -0.015680 -0.010022
# 2 0.007289 0.030716 -0.009794 0.018858 -0.028734 -0.023535
# 3 -0.007725 -0.009794 0.014987 -0.012659 0.014232 0.007227
# 4 0.005966 0.018858 -0.012659 0.051202 -0.023726 -0.025779
# 5 -0.015680 -0.028734 0.014232 -0.023726 0.066830 0.029777
# 6 -0.010022 -0.023535 0.007227 -0.025779 0.029777 0.054726
#
#
# Mechanical properties :
#
#
# Convention : Reuss Voigt Hill
#
# Bulk Modulus (GPa) = 25.75875 56.34820 41.05348
# Shear Modulus (GPa) = 18.83664 34.97112 26.90388
#
# Velocity S-wave (km/s) = 2.79732 3.81149 3.34309
# Velocity P-wave (km/s) = 4.59716 6.54047 5.65295
#
# Compressibility (1/GPa) = 0.03882176
#
# Stress axis : x y z
#
# Youngs Moduli (GPa) = 73.64643 32.55580 66.72447
#
# Poissons Ratio (x) = -0.23731 0.51547
# Poissons Ratio (y) = -0.53682 0.65350
# Poissons Ratio (z) = 0.56894 0.31885
#
# Static dielectric constant tensor:
#      x y z
#    x 4.145460 0.058360 0.429820 
#    y 0.058360 4.391030 -0.211270 
#    z 0.429820 -0.211270 4.493680 
# 
# 
# High freq. dielectric constant tensor:
#      x y z
#    x 1.956260 0.012350 0.026700 
#    y 0.012350 1.961260 -0.003110 
#    z 0.026700 -0.003110 1.945460 
# 
# From -- ./inp_files/511197.got.cif
#   From: 2010.06.25/outbox.cif.g09.slc.cpg/sg2_256_cif.got.tgz:511197.got - 2010.06.27 13:26:56.
