data_PCOD8024602
_publ_section_title
;
Structure prediction by ZEFSAII (Michael W. Deem and Ramdas Pophale) SiO2 
 PCOD8024602
Probable space group: P -1
;
_chemical_formula_sum "Si O2"
_cell_formula_units_Z 14
_cell_length_a 5.493412
_cell_length_b 12.742686
_cell_length_c 11.902172
_cell_angle_alpha 132.711867
_cell_angle_beta 96.087427
_cell_angle_gamma 69.424098
_cell_volume 562.425884
_symmetry_space_group_name_H-M "P -1"
_symmetry_group_IT_number 2
_symmetry_cell_setting 'triclinic'
loop_
_space_group_symop_operation_xyz
x,y,z
-x,-y,-z
loop_
_atom_site_type_symbol
_atom_site_label
_atom_site_fract_x
_atom_site_fract_y
_atom_site_fract_z
Si Si1 0.366253 0.083499 0.166264
Si Si2 0.038531 0.551955 0.162450
Si Si3 0.212798 0.878725 0.165271
Si Si4 0.655274 0.424013 0.173379
Si Si5 0.716005 0.189590 0.399822
Si Si6 0.113272 0.629502 0.624340
Si Si7 0.821965 0.174578 0.634870
O O1 0.480393 0.199802 0.313828
O O2 0.075162 0.205006 0.210402
O O3 0.396767 0.950671 0.162485
O O4 0.500000 0.000000 0.000000
O O5 0.351992 0.473928 0.154650
O O6 0.979051 0.734425 0.288357
O O7 0.824830 0.523693 0.212106
O O8 0.000000 0.500000 0.000000
O O9 0.336832 0.804709 0.239528
O O10 0.180248 0.747714 0.990840
O O11 0.930818 0.015608 0.272171
O O12 0.654985 0.431672 0.315118
O O13 0.802618 0.326526 0.460468
O O14 0.628396 0.229845 0.555717
O O15 0.000000 0.500000 0.500000
O O16 0.000000 0.000000 0.500000
#
# Coordination Sequence:
#
# PCOD8024602 Si02
#       7
#     2   2   2   2   2   2   2
#     4  11  24  42  71 103 144 189 251 306 366 455
#     4  12  27  49  73 112 147 191 248 311 370 455
#     4  10  23  43  69 105 137 193 244 306 374 443
#     4  12  27  45  78 107 150 193 250 305 381 446
#     4  10  23  44  68 102 144 188 251 306 371 446
#     4  11  26  45  69 103 147 196 246 309 378 447
#     4  10  23  47  72 103 144 190 248 308 378 442
#
# _framework density 24.892168999999999
#
# number of rings (size 3 to 8) (size 9 to 14) (size 15 to 20)
#    0.000    1.143    1.429    3.000    8.000    3.429 
#    0.000    0.000    0.000    0.000    0.000    0.000 
#    0.000    0.000    0.000    0.000    0.000    0.000 
#
# Total GULP energy -173469.303942 kJ/mol
# GULP energy per Si atom -12390.664567 kJ/mol
# Density = 2.483551 g / cm^3
# Si number density = 24.892169 Si / 1000 Ang^3
#
#
#
# Elastic Constant Matrix: (Units=GPa)
#
#
# Indices 1 2 3 4 5 6 
#
# 1 105.7252 54.8924 31.3959 -5.2870 10.5665 5.6560
# 2 54.8924 155.9564 65.0734 -13.9384 10.5534 19.6386
# 3 31.3959 65.0734 139.7576 -11.3468 22.7949 8.8625
# 4 -5.2870 -13.9384 -11.3468 56.0717 5.4449 14.8630
# 5 10.5665 10.5534 22.7949 5.4449 39.9828 -5.1539
# 6 5.6560 19.6386 8.8625 14.8630 -5.1539 38.3139
#
#
#
# Elastic Compliance Matrix: (Units=1/GPa)
#
#
# Indices 1 2 3 4 5 6 
#
# 1 0.011776 -0.003756 -0.000578 0.000242 -0.001827 -0.000019
# 2 -0.003756 0.009999 -0.003092 0.002958 -0.000948 -0.005130
# 3 -0.000578 -0.003092 0.009912 0.002283 -0.005279 -0.002219
# 4 0.000242 0.002958 0.002283 0.022857 -0.006788 -0.011860
# 5 -0.001827 -0.000948 -0.005279 -0.006788 0.030806 0.008754
# 6 -0.000019 -0.005130 -0.002219 -0.011860 0.008754 0.035024
#
#
# Mechanical properties :
#
#
# Convention : Reuss Voigt Hill
#
# Bulk Modulus (GPa) = 59.39884 78.24028 68.81956
# Shear Modulus (GPa) = 35.50215 43.54551 39.52383
#
# Velocity S-wave (km/s) = 3.78065 4.18708 3.98905
# Velocity P-wave (km/s) = 6.55531 7.40780 6.99455
#
# Compressibility (1/GPa) = 0.01683534
#
# Stress axis : x y z
#
# Youngs Moduli (GPa) = 84.91928 100.01419 100.89124
#
# Poissons Ratio (x) = 0.37566 0.05828
# Poissons Ratio (y) = 0.31896 0.31192
# Poissons Ratio (z) = 0.04906 0.30921
#
# Static dielectric constant tensor:
#      x y z
#    x 4.126780 -0.172340 0.128790 
#    y -0.172340 4.779790 -0.079040 
#    z 0.128790 -0.079040 4.784010 
# 
# 
# High freq. dielectric constant tensor:
#      x y z
#    x 1.962540 0.009130 0.002480 
#    y 0.009130 2.016310 0.003820 
#    z 0.002480 0.003820 2.017920 
# 
# From -- ./inp_files/71306.got.cif
#   From: 2010.06.25/outbox.cif.g09.slc.cpg/sg2_36_cif.got.tgz:71306.got - 2010.06.27 13:26:56.
