data_PCOD8024817
_publ_section_title
;
Structure prediction by ZEFSAII (Michael W. Deem and Ramdas Pophale) SiO2 
 PCOD8024817
Probable space group: P -1
;
_chemical_formula_sum "Si O2"
_cell_formula_units_Z 12
_cell_length_a 5.130098
_cell_length_b 14.459098
_cell_length_c 12.489142
_cell_angle_alpha 144.909383
_cell_angle_beta 99.788915
_cell_angle_gamma 90.831468
_cell_volume 505.141797
_symmetry_space_group_name_H-M "P -1"
_symmetry_group_IT_number 2
_symmetry_cell_setting 'triclinic'
loop_
_space_group_symop_operation_xyz
x,y,z
-x,-y,-z
loop_
_atom_site_type_symbol
_atom_site_label
_atom_site_fract_x
_atom_site_fract_y
_atom_site_fract_z
Si Si1 0.786562 0.324611 0.797137
Si Si2 0.667196 0.384209 0.452624
Si Si3 0.787298 0.350590 0.204582
Si Si4 0.968959 0.101157 0.445200
Si Si5 0.366008 0.884086 0.212950
Si Si6 0.610629 0.642531 0.390365
O O1 0.950047 0.191867 0.643102
O O2 0.626353 0.255888 0.830451
O O3 0.566000 0.345991 0.715492
O O4 0.000000 0.500000 0.000000
O O5 0.500000 0.500000 0.500000
O O6 0.722166 0.277270 0.252137
O O7 0.498081 0.274005 0.434046
O O8 0.936274 0.502818 0.636245
O O9 0.574509 0.447127 0.230773
O O10 0.799217 0.200427 0.984192
O O11 0.071533 0.250100 0.505286
O O12 0.671561 0.977766 0.282392
O O13 0.210983 0.008534 0.374413
#
# Coordination Sequence:
#
# PCOD8024817 Si02
#       6
#     2   2   2   2   2   2
#     4  12  27  46  73 103 137 187 237 285 336 417
#     4   9  20  42  72 101 134 177 238 292 335 399
#     4  10  23  43  74 102 135 181 239 286 343 408
#     4  12  27  47  66 102 149 185 225 285 349 419
#     4  12  28  45  70 103 147 184 226 283 359 405
#     4  11  23  44  71 102 139 182 235 287 340 411
#
# _framework density 23.755704999999999
#
# number of rings (size 3 to 8) (size 9 to 14) (size 15 to 20)
#    0.000    1.000    1.667    4.000    9.333    1.333 
#    0.000    1.667    0.000    0.000    0.000    0.000 
#    0.000    0.000    0.000    0.000    0.000    0.000 
#
# Total GULP energy -148695.188522 kJ/mol
# GULP energy per Si atom -12391.265710 kJ/mol
# Density = 2.370164 g / cm^3
# Si number density = 23.755705 Si / 1000 Ang^3
#
#
#
# Elastic Constant Matrix: (Units=GPa)
#
#
# Indices 1 2 3 4 5 6 
#
# 1 94.7203 25.6711 30.0667 -6.4143 7.9497 19.1793
# 2 25.6711 74.8888 68.4585 -14.2474 14.0337 37.0612
# 3 30.0667 68.4585 138.8615 -17.8033 2.1845 17.4157
# 4 -6.4143 -14.2474 -17.8033 35.1301 1.1606 -5.2540
# 5 7.9497 14.0337 2.1845 1.1606 22.3895 -0.5510
# 6 19.1793 37.0612 17.4157 -5.2540 -0.5510 50.7221
#
#
#
# Elastic Compliance Matrix: (Units=1/GPa)
#
#
# Indices 1 2 3 4 5 6 
#
# 1 0.012519 0.002499 -0.003016 0.001148 -0.005911 -0.005469
# 2 0.002499 0.064127 -0.025529 0.009086 -0.040010 -0.038528
# 3 -0.003016 -0.025529 0.018485 -0.000016 0.015605 0.013615
# 4 0.001148 0.009086 -0.000016 0.032038 -0.007856 -0.003834
# 5 -0.005911 -0.040010 0.015605 -0.007856 0.071367 0.026073
# 6 -0.005469 -0.038528 0.013615 -0.003834 0.026073 0.045146
#
#
# Mechanical properties :
#
#
# Convention : Reuss Voigt Hill
#
# Bulk Modulus (GPa) = 23.23563 61.87368 42.55466
# Shear Modulus (GPa) = 16.12268 33.93329 25.02799
#
# Velocity S-wave (km/s) = 2.60799 3.78355 3.24938
# Velocity P-wave (km/s) = 4.34409 6.72231 5.65953
#
# Compressibility (1/GPa) = 0.04303735
#
# Stress axis : x y z
#
# Youngs Moduli (GPa) = 79.87921 15.59408 54.09710
#
# Poissons Ratio (x) = -0.03896 0.16318
# Poissons Ratio (y) = -0.19958 1.38105
# Poissons Ratio (z) = 0.24094 0.39810
#
# Static dielectric constant tensor:
#      x y z
#    x 4.306560 0.661560 -0.124050 
#    y 0.661560 4.778900 -0.367730 
#    z -0.124050 -0.367730 4.333330 
# 
# 
# High freq. dielectric constant tensor:
#      x y z
#    x 1.950590 0.016980 0.000060 
#    y 0.016980 1.951040 -0.013610 
#    z 0.000060 -0.013610 1.920150 
# 
# From -- ./inp_files/23915.got.cif
#   From: 2010.06.25/outbox.cif.g09.slc.cpg/sg2_12_cif.got.tgz:23915.got - 2010.06.27 13:26:56.
