data_PCOD8024828
_publ_section_title
;
Structure prediction by ZEFSAII (Michael W. Deem and Ramdas Pophale) SiO2 
 PCOD8024828
Probable space group: P -1
;
_chemical_formula_sum "Si O2"
_cell_formula_units_Z 12
_cell_length_a 10.690190
_cell_length_b 9.064238
_cell_length_c 8.988448
_cell_angle_alpha 50.278130
_cell_angle_beta 55.997021
_cell_angle_gamma 81.664205
_cell_volume 523.639679
_symmetry_space_group_name_H-M "P -1"
_symmetry_group_IT_number 2
_symmetry_cell_setting 'triclinic'
loop_
_space_group_symop_operation_xyz
x,y,z
-x,-y,-z
loop_
_atom_site_type_symbol
_atom_site_label
_atom_site_fract_x
_atom_site_fract_y
_atom_site_fract_z
Si Si1 0.113979 0.188024 0.389154
Si Si2 0.618364 0.385057 0.558709
Si Si3 0.446588 0.428138 0.916973
Si Si4 0.860997 0.006957 0.190267
Si Si5 0.012397 0.467239 0.840250
Si Si6 0.489215 0.157715 0.530340
O O1 0.041672 0.372062 0.324399
O O2 0.142015 0.121246 0.577445
O O3 0.278769 0.248062 0.149715
O O4 0.000000 0.000000 0.500000
O O5 0.500000 0.500000 0.500000
O O6 0.572651 0.350558 0.787701
O O7 0.806484 0.514094 0.338271
O O8 0.575180 0.171348 0.627978
O O9 0.417787 0.619531 0.736586
O O10 0.500000 0.500000 0.000000
O O11 0.698265 0.890266 0.286247
O O12 0.884823 0.243185 0.045790
O O13 0.000000 0.000000 0.000000
O O14 0.000000 0.500000 0.000000
O O15 0.500000 0.000000 0.500000
#
# Coordination Sequence:
#
# PCOD8024828 Si02
#       6
#     2   2   2   2   2   2
#     4  12  27  45  74 103 142 190 238 295 361 418
#     4  10  23  43  74  98 137 193 229 288 360 416
#     4  11  23  46  68  97 143 178 233 295 343 420
#     4  12  26  45  71 103 143 183 236 297 356 421
#     4  12  24  47  75 104 143 186 239 294 354 429
#     4  11  23  43  69  99 136 182 234 284 356 421
#
# _framework density 22.916520999999999
#
# number of rings (size 3 to 8) (size 9 to 14) (size 15 to 20)
#    0.000    0.667    3.333    6.000    2.333    0.667 
#    3.000    1.667    0.000    0.000    0.000    0.000 
#    0.000    0.000    0.000    0.000    0.000    0.000 
#
# Total GULP energy -148697.842198 kJ/mol
# GULP energy per Si atom -12391.486850 kJ/mol
# Density = 2.286436 g / cm^3
# Si number density = 22.916521 Si / 1000 Ang^3
#
#
#
# Elastic Constant Matrix: (Units=GPa)
#
#
# Indices 1 2 3 4 5 6 
#
# 1 75.5609 12.3306 49.2790 -2.8336 -11.2660 8.7765
# 2 12.3306 112.5458 54.9330 11.4261 16.1685 18.0403
# 3 49.2790 54.9330 167.7713 7.4084 -21.8640 3.2726
# 4 -2.8336 11.4261 7.4084 57.7190 -6.1112 2.6379
# 5 -11.2660 16.1685 -21.8640 -6.1112 33.2478 0.0598
# 6 8.7765 18.0403 3.2726 2.6379 0.0598 49.3801
#
#
#
# Elastic Compliance Matrix: (Units=1/GPa)
#
#
# Indices 1 2 3 4 5 6 
#
# 1 0.017143 0.000352 -0.004806 0.001822 0.002817 -0.002958
# 2 0.000352 0.014609 -0.006168 -0.003091 -0.011601 -0.004812
# 3 -0.004806 -0.006168 0.010407 0.000418 0.008287 0.002386
# 4 0.001822 -0.003091 0.000418 0.018599 0.005815 -0.000223
# 5 0.002817 -0.011601 0.008287 0.005815 0.043187 0.002825
# 6 -0.002958 -0.004812 0.002386 -0.000223 0.002825 0.022385
#
#
# Mechanical properties :
#
#
# Convention : Reuss Voigt Hill
#
# Bulk Modulus (GPa) = 47.81417 65.44037 56.62727
# Shear Modulus (GPa) = 32.35251 44.02507 38.18879
#
# Velocity S-wave (km/s) = 3.76141 4.38780 4.08662
# Velocity P-wave (km/s) = 6.30667 7.36806 6.85793
#
# Compressibility (1/GPa) = 0.02091430
#
# Stress axis : x y z
#
# Youngs Moduli (GPa) = 58.33124 68.44984 96.08937
#
# Poissons Ratio (x) = -0.02410 0.46184
# Poissons Ratio (y) = -0.02054 0.59272
# Poissons Ratio (z) = 0.28036 0.42222
#
# Static dielectric constant tensor:
#      x y z
#    x 4.212000 -0.134770 -0.582590 
#    y -0.134770 3.830150 -0.075060 
#    z -0.582590 -0.075060 4.613730 
# 
# 
# High freq. dielectric constant tensor:
#      x y z
#    x 1.899020 0.018180 -0.020880 
#    y 0.018180 1.917130 0.008830 
#    z -0.020880 0.008830 1.918500 
# 
# From -- ./inp_files/152437.got.cif
#   From: 2010.06.25/outbox.cif.g09.slc.cpg/sg2_77_cif.got.tgz:152437.got - 2010.06.27 13:26:56.
