data_PCOD8024107
_publ_section_title
;
Structure prediction by ZEFSAII (Michael W. Deem and Ramdas Pophale) SiO2 
 PCOD8024107
Probable space group: P -1
;
_chemical_formula_sum "Si O2"
_cell_formula_units_Z 14
_cell_length_a 9.464754
_cell_length_b 8.846395
_cell_length_c 19.578199
_cell_angle_alpha 148.164138
_cell_angle_beta 59.332469
_cell_angle_gamma 131.372439
_cell_volume 643.381525
_symmetry_space_group_name_H-M "P -1"
_symmetry_group_IT_number 2
_symmetry_cell_setting 'triclinic'
loop_
_space_group_symop_operation_xyz
x,y,z
-x,-y,-z
loop_
_atom_site_type_symbol
_atom_site_label
_atom_site_fract_x
_atom_site_fract_y
_atom_site_fract_z
Si Si1 0.478538 0.022261 0.853842
Si Si2 0.432087 0.646209 0.845983
Si Si3 0.890868 0.045873 0.105583
Si Si4 0.992422 0.662992 0.393851
Si Si5 0.396858 0.799654 0.381211
Si Si6 0.164577 0.421710 0.943783
Si Si7 0.580768 0.259397 0.385294
O O1 0.383700 0.686059 0.794889
O O2 0.330078 0.156414 0.940069
O O3 0.506351 0.944596 0.740467
O O4 0.678722 0.288652 0.936941
O O5 0.591631 0.536057 0.759624
O O6 0.251843 0.384985 0.835890
O O7 0.500000 0.000000 0.000000
O O8 0.963566 0.436451 0.247170
O O9 0.920742 0.915063 0.120865
O O10 0.000000 0.000000 0.000000
O O11 0.809504 0.456837 0.408017
O O12 0.181581 0.725433 0.410099
O O13 0.000000 0.000000 0.500000
O O14 0.500000 0.000000 0.500000
O O15 0.505725 0.015036 0.372507
O O16 0.000000 0.500000 0.000000
O O17 0.500000 0.500000 0.500000
#
# Coordination Sequence:
#
# PCOD8024107 Si02
#       7
#     2   2   2   2   2   2   2
#     4  10  23  42  70  97 141 177 229 282 350 410
#     4  10  23  43  68  98 141 175 223 288 348 401
#     4  11  25  41  71 102 134 184 235 281 348 415
#     4  11  26  46  71 104 140 183 241 285 347 423
#     4  12  27  47  74 101 144 185 232 295 355 410
#     4  11  24  42  66 108 142 176 227 290 353 413
#     4  11  23  47  72 102 137 187 239 286 345 422
#
# _framework density 21.760027000000001
#
# number of rings (size 3 to 8) (size 9 to 14) (size 15 to 20)
#    0.000    1.143    1.429    3.857   12.000    0.571 
#    2.571    0.000    0.000    0.000    0.000    0.000 
#    0.000    0.000    0.000    0.000    0.000    0.000 
#
# Total GULP energy -173538.618493 kJ/mol
# GULP energy per Si atom -12395.615607 kJ/mol
# Density = 2.171050 g / cm^3
# Si number density = 21.760027 Si / 1000 Ang^3
#
#
#
# Elastic Constant Matrix: (Units=GPa)
#
#
# Indices 1 2 3 4 5 6 
#
# 1 172.7036 46.1220 65.2625 -8.5332 -10.8659 15.2870
# 2 46.1220 120.6927 47.4290 -20.1262 5.0281 -16.4257
# 3 65.2625 47.4290 134.9733 -11.2080 -15.2168 4.0425
# 4 -8.5332 -20.1262 -11.2080 35.8300 -0.0733 -2.8525
# 5 -10.8659 5.0281 -15.2168 -0.0733 48.1526 -0.1966
# 6 15.2870 -16.4257 4.0425 -2.8525 -0.1966 53.7555
#
#
#
# Elastic Compliance Matrix: (Units=1/GPa)
#
#
# Indices 1 2 3 4 5 6 
#
# 1 0.007756 -0.002404 -0.002744 -0.000579 0.001122 -0.002761
# 2 -0.002404 0.012151 -0.003095 0.005671 -0.002761 0.004920
# 3 -0.002744 -0.003095 0.010243 0.000748 0.002938 -0.000885
# 4 -0.000579 0.005671 0.000748 0.031469 -0.000424 0.003510
# 5 0.001122 -0.002761 0.002938 -0.000424 0.022231 -0.001325
# 6 -0.002761 0.004920 -0.000885 0.003510 -0.001325 0.021139
#
#
# Mechanical properties :
#
#
# Convention : Reuss Voigt Hill
#
# Bulk Modulus (GPa) = 73.19166 82.88852 78.04009
# Shear Modulus (GPa) = 39.67304 45.51803 42.59554
#
# Velocity S-wave (km/s) = 4.27454 4.57860 4.42918
# Velocity P-wave (km/s) = 7.62044 8.13181 7.88027
#
# Compressibility (1/GPa) = 0.01366276
#
# Stress axis : x y z
#
# Youngs Moduli (GPa) = 128.93800 82.29935 97.62706
#
# Poissons Ratio (x) = 0.19789 0.26789
# Poissons Ratio (y) = 0.31003 0.30214
# Poissons Ratio (z) = 0.35381 0.25470
#
# Static dielectric constant tensor:
#      x y z
#    x 4.173050 -0.106340 -0.222880 
#    y -0.106340 4.324100 -0.052440 
#    z -0.222880 -0.052440 3.962010 
# 
# 
# High freq. dielectric constant tensor:
#      x y z
#    x 1.866710 -0.003490 -0.019240 
#    y -0.003490 1.864340 -0.005730 
#    z -0.019240 -0.005730 1.853800 
# 
# From -- ./inp_files/200438.got.cif
#   From: 2010.06.25/outbox.cif.g09.slc.cpg/sg2_101_cif.got.tgz:200438.got - 2010.06.27 13:26:56.
