data_PCOD8024481
_publ_section_title
;
Structure prediction by ZEFSAII (Michael W. Deem and Ramdas Pophale) SiO2 
 PCOD8024481
Probable space group: P -1
;
_chemical_formula_sum "Si O2"
_cell_formula_units_Z 16
_cell_length_a 14.060257
_cell_length_b 25.661119
_cell_length_c 17.212637
_cell_angle_alpha 20.922738
_cell_angle_beta 22.026623
_cell_angle_gamma 20.580107
_cell_volume 707.964720
_symmetry_space_group_name_H-M "P -1"
_symmetry_group_IT_number 2
_symmetry_cell_setting 'triclinic'
loop_
_space_group_symop_operation_xyz
x,y,z
-x,-y,-z
loop_
_atom_site_type_symbol
_atom_site_label
_atom_site_fract_x
_atom_site_fract_y
_atom_site_fract_z
Si Si1 0.685031 0.443984 0.778801
Si Si2 0.340465 0.259460 0.537201
Si Si3 0.695072 0.716410 0.706060
Si Si4 0.719392 0.000656 0.479104
Si Si5 0.665272 0.472797 0.581905
Si Si6 0.693143 0.029707 0.720427
Si Si7 0.738389 0.667526 0.922475
Si Si8 0.380604 0.843868 0.227567
O O1 0.684320 0.557267 0.693231
O O2 0.573563 0.540332 0.645758
O O3 0.019119 0.284987 0.729068
O O4 0.476700 0.377356 0.057222
O O5 0.426930 0.190289 0.655109
O O6 0.583795 0.141656 0.453531
O O7 0.793811 0.685523 0.764085
O O8 0.983226 0.634463 0.547667
O O9 0.472106 0.916067 0.571084
O O10 0.695444 0.840521 0.751060
O O11 0.066390 0.936836 0.289425
O O12 0.505884 0.641543 0.413848
O O13 0.553764 0.342409 0.828947
O O14 0.689160 0.064593 0.764742
O O15 0.000000 0.000000 0.500000
O O16 0.639194 0.873334 0.957355
O O17 0.000000 0.500000 0.000000
#
# Coordination Sequence:
#
# PCOD8024481 Si02
#       8
#     2   2   2   2   2   2   2   2
#     4  10  23  43  67  99 143 175 226 278 345 403
#     4  11  22  41  68  98 140 184 218 281 344 406
#     4  11  26  45  72  99 134 182 233 286 338 412
#     4  12  24  46  70 105 136 183 233 283 345 402
#     4  11  23  45  70  99 132 186 228 280 344 407
#     4  11  23  38  60  99 137 179 221 274 335 403
#     4  11  26  49  72  97 140 178 232 294 342 402
#     4  11  24  39  67  97 142 175 230 276 339 410
#
# _framework density 22.599996000000001
#
# number of rings (size 3 to 8) (size 9 to 14) (size 15 to 20)
#    0.000    1.000    5.000    1.125    1.750    2.500 
#    4.500    0.000    0.000    0.000    0.000    0.000 
#    0.000    0.000    0.000    0.000    0.000    0.000 
#
# Total GULP energy -198313.340649 kJ/mol
# GULP energy per Si atom -12394.583791 kJ/mol
# Density = 2.254856 g / cm^3
# Si number density = 22.599996 Si / 1000 Ang^3
#
#
#
# Elastic Constant Matrix: (Units=GPa)
#
#
# Indices 1 2 3 4 5 6 
#
# 1 83.4088 35.6144 26.6524 -2.8433 0.2070 -22.5981
# 2 35.6144 106.9786 64.4230 -2.2011 -4.1799 -24.3594
# 3 26.6524 64.4230 161.1062 13.0230 -18.5321 -9.9721
# 4 -2.8433 -2.2011 13.0230 37.1822 -10.3285 0.8990
# 5 0.2070 -4.1799 -18.5321 -10.3285 32.2040 -4.9915
# 6 -22.5981 -24.3594 -9.9721 0.8990 -4.9915 35.0359
#
#
#
# Elastic Compliance Matrix: (Units=1/GPa)
#
#
# Indices 1 2 3 4 5 6 
#
# 1 0.015697 -0.002718 -0.001056 0.001389 0.000622 0.007987
# 2 -0.002718 0.015201 -0.005276 0.002622 0.000939 0.007381
# 3 -0.001056 -0.005276 0.009026 -0.002550 0.003510 -0.001215
# 4 0.001389 0.002622 -0.002550 0.030498 0.009032 0.002498
# 5 0.000622 0.000939 0.003510 0.009032 0.037190 0.007120
# 6 0.007987 0.007381 -0.001215 0.002498 0.007120 0.039430
#
#
# Mechanical properties :
#
#
# Convention : Reuss Voigt Hill
#
# Bulk Modulus (GPa) = 45.82184 67.20813 56.51499
# Shear Modulus (GPa) = 28.99941 35.87135 32.43538
#
# Velocity S-wave (km/s) = 3.58601 3.98833 3.79251
# Velocity P-wave (km/s) = 6.12087 7.14224 6.65119
#
# Compressibility (1/GPa) = 0.02182365
#
# Stress axis : x y z
#
# Youngs Moduli (GPa) = 63.70639 65.78518 110.78745
#
# Poissons Ratio (x) = 0.17881 0.11702
# Poissons Ratio (y) = 0.17316 0.58451
# Poissons Ratio (z) = 0.06729 0.34708
#
# Static dielectric constant tensor:
#      x y z
#    x 2.093980 -0.931680 -1.906510 
#    y -0.931680 3.675540 -0.574170 
#    z -1.906510 -0.574170 2.932440 
# 
# 
# High freq. dielectric constant tensor:
#      x y z
#    x 1.892430 -0.021540 -0.008060 
#    y -0.021540 1.878630 -0.003040 
#    z -0.008060 -0.003040 1.902120 
# 
# From -- ./inp_files/574496.got.cif
#   From: 2010.06.25/outbox.cif.g09.slc.cpg/sg2_288_cif.got.tgz:574496.got - 2010.06.27 13:26:56.
