data_PCOD8024322
_publ_section_title
;
Structure prediction by ZEFSAII (Michael W. Deem and Ramdas Pophale) SiO2 
 PCOD8024322
Probable space group: P -1
;
_chemical_formula_sum "Si O2"
_cell_formula_units_Z 14
_cell_length_a 8.968320
_cell_length_b 9.366428
_cell_length_c 9.026062
_cell_angle_alpha 75.532445
_cell_angle_beta 77.380827
_cell_angle_gamma 70.126282
_cell_volume 682.968655
_symmetry_space_group_name_H-M "P -1"
_symmetry_group_IT_number 2
_symmetry_cell_setting 'triclinic'
loop_
_space_group_symop_operation_xyz
x,y,z
-x,-y,-z
loop_
_atom_site_type_symbol
_atom_site_label
_atom_site_fract_x
_atom_site_fract_y
_atom_site_fract_z
Si Si1 0.569529 0.617553 0.370109
Si Si2 0.148954 0.090365 0.792879
Si Si3 0.230310 0.243689 0.215215
Si Si4 0.048490 0.788849 0.904479
Si Si5 0.349129 0.484344 0.948657
Si Si6 0.857826 0.649823 0.474126
Si Si7 0.507283 0.042000 0.660978
O O1 0.500000 0.500000 0.500000
O O2 0.580918 0.568472 0.212113
O O3 0.745110 0.606285 0.390586
O O4 0.457601 0.793413 0.375574
O O5 0.087261 0.206420 0.637194
O O6 0.340484 0.049473 0.775333
O O7 0.105908 0.934602 0.810953
O O8 0.065545 0.175803 0.936710
O O9 0.229153 0.311454 0.361062
O O10 0.054660 0.240878 0.203727
O O11 0.354904 0.073080 0.241496
O O12 0.289324 0.348967 0.062472
O O13 0.203058 0.642853 0.938122
O O14 0.500000 0.500000 0.000000
O O15 0.000000 0.500000 0.500000
O O16 0.500000 0.000000 0.500000
#
# Coordination Sequence:
#
# PCOD8024322 Si02
#       7
#     2   2   2   2   2   2   2
#     4  11  25  42  67  98 130 176 224 276 329 399
#     4  10  23  43  65  92 138 182 221 276 335 403
#     4  12  23  40  69  96 130 181 219 279 338 389
#     4  11  25  42  66  99 137 172 229 278 335 406
#     4  12  26  43  68  99 137 177 225 282 338 402
#     4  11  22  40  63  92 132 172 219 273 331 395
#     4  11  23  45  69  95 138 177 229 276 331 404
#
# _framework density 20.498743999999999
#
# number of rings (size 3 to 8) (size 9 to 14) (size 15 to 20)
#    0.000    0.857    2.857    5.571    2.000    6.286 
#    0.000    0.000    0.000    0.000    0.000    0.000 
#    0.000    0.000    0.000    0.000    0.000    0.000 
#
# Total GULP energy -173618.579833 kJ/mol
# GULP energy per Si atom -12401.327131 kJ/mol
# Density = 2.045209 g / cm^3
# Si number density = 20.498744 Si / 1000 Ang^3
#
#
#
# Elastic Constant Matrix: (Units=GPa)
#
#
# Indices 1 2 3 4 5 6 
#
# 1 130.6375 78.6576 41.8941 -11.5444 14.3324 -8.9188
# 2 78.6576 177.8474 69.4149 -20.5455 -2.4249 -13.9340
# 3 41.8941 69.4149 139.6778 -6.5367 -2.2977 9.4713
# 4 -11.5444 -20.5455 -6.5367 47.9580 5.1868 2.3493
# 5 14.3324 -2.4249 -2.2977 5.1868 36.6992 -5.1104
# 6 -8.9188 -13.9340 9.4713 2.3493 -5.1104 48.6701
#
#
#
# Elastic Compliance Matrix: (Units=1/GPa)
#
#
# Indices 1 2 3 4 5 6 
#
# 1 0.011419 -0.004445 -0.001275 0.001180 -0.004931 0.000493
# 2 -0.004445 0.009391 -0.003379 0.002123 0.002216 0.002662
# 3 -0.001275 -0.003379 0.009412 -0.000381 0.000506 -0.002961
# 4 0.001180 0.002123 -0.000381 0.022409 -0.003590 -0.000560
# 5 -0.004931 0.002216 0.000506 -0.003590 0.030275 0.002984
# 6 0.000493 0.002662 -0.002961 -0.000560 0.002984 0.022316
#
#
# Mechanical properties :
#
#
# Convention : Reuss Voigt Hill
#
# Bulk Modulus (GPa) = 83.16194 92.01063 87.58628
# Shear Modulus (GPa) = 39.23771 43.87853 41.55812
#
# Velocity S-wave (km/s) = 4.37985 4.63162 4.50749
# Velocity P-wave (km/s) = 8.13848 8.57823 8.36124
#
# Compressibility (1/GPa) = 0.01202473
#
# Stress axis : x y z
#
# Youngs Moduli (GPa) = 87.57351 106.48080 106.24454
#
# Poissons Ratio (x) = 0.47329 0.13550
# Poissons Ratio (y) = 0.38925 0.35897
# Poissons Ratio (z) = 0.11169 0.35977
#
# Static dielectric constant tensor:
#      x y z
#    x 3.704260 0.246310 -0.139740 
#    y 0.246310 4.012110 0.393100 
#    z -0.139740 0.393100 3.808110 
# 
# 
# High freq. dielectric constant tensor:
#      x y z
#    x 1.800880 -0.003280 -0.000710 
#    y -0.003280 1.824650 -0.004550 
#    z -0.000710 -0.004550 1.815650 
# 
# From -- ./inp_files/157966.got.cif
#   From: 2010.06.25/outbox.cif.g09.slc.cpg/sg2_79_cif.got.tgz:157966.got - 2010.06.27 13:26:56.
