data_PCOD8024412
_publ_section_title
;
Structure prediction by ZEFSAII (Michael W. Deem and Ramdas Pophale) SiO2 
 PCOD8024412
Probable space group: P -1
;
_chemical_formula_sum "Si O2"
_cell_formula_units_Z 16
_cell_length_a 5.328303
_cell_length_b 20.471938
_cell_length_c 9.970326
_cell_angle_alpha 50.132763
_cell_angle_beta 60.713732
_cell_angle_gamma 62.055083
_cell_volume 708.253690
_symmetry_space_group_name_H-M "P -1"
_symmetry_group_IT_number 2
_symmetry_cell_setting 'triclinic'
loop_
_space_group_symop_operation_xyz
x,y,z
-x,-y,-z
loop_
_atom_site_type_symbol
_atom_site_label
_atom_site_fract_x
_atom_site_fract_y
_atom_site_fract_z
Si Si1 0.098100 0.650192 0.346360
Si Si2 0.642748 0.035343 0.290408
Si Si3 0.486718 0.220392 0.688614
Si Si4 0.895769 0.615857 0.980683
Si Si5 0.318715 0.538339 0.201292
Si Si6 0.737431 0.374812 0.382081
Si Si7 0.529063 0.772969 0.011535
Si Si8 0.345204 0.967596 0.206539
O O1 0.080398 0.583901 0.315986
O O2 0.212101 0.591005 0.525883
O O3 0.290894 0.715294 0.155856
O O4 0.791489 0.712358 0.387685
O O5 0.500000 0.000000 0.500000
O O6 0.491391 0.997670 0.257813
O O7 0.572592 0.140710 0.166312
O O8 0.994586 0.002658 0.244483
O O9 0.744731 0.272697 0.540492
O O10 0.415088 0.196599 0.891879
O O11 0.578296 0.137062 0.679533
O O12 0.620473 0.571416 0.099344
O O13 0.817678 0.711145 0.947725
O O14 0.167411 0.556050 0.072074
O O15 0.002306 0.622538 0.792712
O O16 0.420573 0.433548 0.335863
O O17 0.500000 0.000000 0.000000
#
# Coordination Sequence:
#
# PCOD8024412 Si02
#       8
#     2   2   2   2   2   2   2   2
#     4  10  23  43  67 100 131 189 227 282 337 404
#     4  12  28  47  74 108 141 182 228 294 354 420
#     4  11  24  42  70  98 138 179 233 280 340 402
#     4  11  25  43  69  99 136 185 221 282 347 407
#     4  11  24  46  67  97 139 184 228 274 349 405
#     4  11  26  40  68 102 136 177 233 291 326 408
#     4  10  23  45  68  96 140 179 226 277 351 410
#     4  12  26  47  75 103 140 186 235 284 347 421
#
# _framework density 22.590776999999999
#
# number of rings (size 3 to 8) (size 9 to 14) (size 15 to 20)
#    0.000    1.000    2.500    2.625    8.750    0.500 
#    2.250    0.000    0.000    0.000    0.000    0.000 
#    0.000    0.000    0.000    0.000    0.000    0.000 
#
# Total GULP energy -198362.073817 kJ/mol
# GULP energy per Si atom -12397.629614 kJ/mol
# Density = 2.253936 g / cm^3
# Si number density = 22.590777 Si / 1000 Ang^3
#
#
#
# Elastic Constant Matrix: (Units=GPa)
#
#
# Indices 1 2 3 4 5 6 
#
# 1 118.6500 24.2194 41.7841 5.4713 8.1231 -10.1551
# 2 24.2194 112.9641 49.3982 -13.1910 -0.5210 -9.4382
# 3 41.7841 49.3982 155.6464 2.4638 15.3297 -4.0700
# 4 5.4713 -13.1910 2.4638 32.7682 -0.5303 8.3280
# 5 8.1231 -0.5210 15.3297 -0.5303 17.4484 7.3485
# 6 -10.1551 -9.4382 -4.0700 8.3280 7.3485 38.7822
#
#
#
# Elastic Compliance Matrix: (Units=1/GPa)
#
#
# Indices 1 2 3 4 5 6 
#
# 1 0.010119 -0.001571 -0.001570 -0.003241 -0.005059 0.003757
# 2 -0.001571 0.011457 -0.003742 0.005227 0.004518 0.000006
# 3 -0.001570 -0.003742 0.008901 -0.002462 -0.007972 0.001652
# 4 -0.003241 0.005227 -0.002462 0.035827 0.008789 -0.009193
# 5 -0.005059 0.004518 -0.007972 0.008789 0.074239 -0.017016
# 6 0.003757 0.000006 0.001652 -0.009193 -0.017016 0.032142
#
#
# Mechanical properties :
#
#
# Convention : Reuss Voigt Hill
#
# Bulk Modulus (GPa) = 59.83877 68.67377 64.25627
# Shear Modulus (GPa) = 26.03868 35.92367 30.98118
#
# Velocity S-wave (km/s) = 3.39872 3.99205 3.70727
# Velocity P-wave (km/s) = 6.47668 7.19122 6.84328
#
# Compressibility (1/GPa) = 0.01671157
#
# Stress axis : x y z
#
# Youngs Moduli (GPa) = 98.82309 87.28088 112.34337
#
# Poissons Ratio (x) = 0.13709 0.17640
# Poissons Ratio (y) = 0.15522 0.42040
# Poissons Ratio (z) = 0.15517 0.32661
#
# Static dielectric constant tensor:
#      x y z
#    x 3.896290 -0.030360 -0.106510 
#    y -0.030360 4.281990 -0.054540 
#    z -0.106510 -0.054540 4.077110 
# 
# 
# High freq. dielectric constant tensor:
#      x y z
#    x 1.891670 0.000370 0.000280 
#    y 0.000370 1.900760 -0.002410 
#    z 0.000280 -0.002410 1.898680 
# 
# From -- ./inp_files/47580.got.cif
#   From: 2010.06.25/outbox.cif.g09.slc.cpg/sg2_24_cif.got.tgz:47580.got - 2010.06.27 13:26:56.
