data_PCOD8024653
_publ_section_title
;
Structure prediction by ZEFSAII (Michael W. Deem and Ramdas Pophale) SiO2 
 PCOD8024653
Probable space group: P -1
;
_chemical_formula_sum "Si O2"
_cell_formula_units_Z 12
_cell_length_a 13.070386
_cell_length_b 7.764505
_cell_length_c 12.709528
_cell_angle_alpha 82.369687
_cell_angle_beta 21.983347
_cell_angle_gamma 73.264207
_cell_volume 428.735322
_symmetry_space_group_name_H-M "P -1"
_symmetry_group_IT_number 2
_symmetry_cell_setting 'triclinic'
loop_
_space_group_symop_operation_xyz
x,y,z
-x,-y,-z
loop_
_atom_site_type_symbol
_atom_site_label
_atom_site_fract_x
_atom_site_fract_y
_atom_site_fract_z
Si Si1 0.185866 0.582725 0.891051
Si Si2 0.800483 0.755500 0.796264
Si Si3 0.708811 0.273076 0.819338
Si Si4 0.322523 0.807903 0.576829
Si Si5 0.938338 0.679653 0.346937
Si Si6 0.669311 0.981914 0.113509
O O1 0.247036 0.758858 0.770252
O O2 0.517118 0.404787 0.615004
O O3 0.000000 0.500000 0.000000
O O4 0.005187 0.668297 0.161513
O O5 0.055967 0.803801 0.496945
O O6 0.958130 0.523299 0.678083
O O7 0.516354 0.826317 0.978009
O O8 0.682161 0.847959 0.014254
O O9 0.892929 0.209086 0.759707
O O10 0.500000 0.500000 0.000000
O O11 0.552660 0.905949 0.334985
O O12 0.008675 0.956781 0.810360
O O13 0.570641 0.796730 0.699397
#
# Coordination Sequence:
#
# PCOD8024653 Si02
#       6
#     2   2   2   2   2   2
#     4  11  23  48  77  95 138 186 227 281 350 406
#     4  11  23  46  70  95 149 176 227 281 340 395
#     4  10  23  43  70 102 134 186 227 280 332 407
#     4  11  24  47  66 104 136 179 225 282 348 395
#     4  11  25  44  71 106 133 185 234 277 342 413
#     4  12  26  44  71 105 140 180 225 284 342 408
#
# _framework density 27.989298000000002
#
# number of rings (size 3 to 8) (size 9 to 14) (size 15 to 20)
#    0.000    1.000    3.333    3.000    2.333    6.667 
#   12.000    0.000    0.000    0.000    0.000    0.000 
#    0.000    0.000    0.000    0.000    0.000    0.000 
#
# Total GULP energy -148765.600865 kJ/mol
# GULP energy per Si atom -12397.133405 kJ/mol
# Density = 2.792559 g / cm^3
# Si number density = 27.989298 Si / 1000 Ang^3
#
#
#
# Elastic Constant Matrix: (Units=GPa)
#
#
# Indices 1 2 3 4 5 6 
#
# 1 101.3625 14.4545 48.8861 8.6749 13.4637 -11.2698
# 2 14.4545 49.2264 22.4941 -5.2118 6.8681 -9.7103
# 3 48.8861 22.4941 180.3644 13.7862 -5.7237 -4.9906
# 4 8.6749 -5.2118 13.7862 49.8855 -10.9451 -1.8849
# 5 13.4637 6.8681 -5.7237 -10.9451 32.0712 -4.1548
# 6 -11.2698 -9.7103 -4.9906 -1.8849 -4.1548 27.8889
#
#
#
# Elastic Compliance Matrix: (Units=1/GPa)
#
#
# Indices 1 2 3 4 5 6 
#
# 1 0.013047 -0.001101 -0.003303 -0.002746 -0.006358 0.003165
# 2 -0.001101 0.024130 -0.002849 0.003060 -0.003241 0.007171
# 3 -0.003303 -0.002849 0.006944 -0.001061 0.002778 -0.000742
# 4 -0.002746 0.003060 -0.001061 0.023106 0.008531 0.002598
# 5 -0.006358 -0.003241 0.002778 0.008531 0.038351 0.003089
# 6 0.003165 0.007171 -0.000742 0.002598 0.003089 0.040135
#
#
# Mechanical properties :
#
#
# Convention : Reuss Voigt Hill
#
# Bulk Modulus (GPa) = 33.76780 55.84696 44.80738
# Shear Modulus (GPa) = 29.39582 38.31036 33.85309
#
# Velocity S-wave (km/s) = 3.24428 3.70368 3.48156
# Velocity P-wave (km/s) = 5.11121 6.18756 5.67496
#
# Compressibility (1/GPa) = 0.02961401
#
# Stress axis : x y z
#
# Youngs Moduli (GPa) = 76.64451 41.44190 144.01538
#
# Poissons Ratio (x) = 0.04563 0.47573
# Poissons Ratio (y) = 0.08438 0.41034
# Poissons Ratio (z) = 0.25318 0.11808
#
# Static dielectric constant tensor:
#      x y z
#    x 5.132310 -0.097800 -0.194060 
#    y -0.097800 5.146100 0.164040 
#    z -0.194060 0.164040 5.570540 
# 
# 
# High freq. dielectric constant tensor:
#      x y z
#    x 2.115880 -0.018720 0.005470 
#    y -0.018720 2.137160 0.009970 
#    z 0.005470 0.009970 2.161360 
# 
# From -- ./inp_files/528440.got.cif
#   From: 2010.06.25/outbox.cif.g09.slc.cpg/sg2_265_cif.got.tgz:528440.got - 2010.06.27 13:26:56.
