data_PCOD8024282
_publ_section_title
;
Structure prediction by ZEFSAII (Michael W. Deem and Ramdas Pophale) SiO2 
 PCOD8024282
Probable space group: P -1
;
_chemical_formula_sum "Si O2"
_cell_formula_units_Z 14
_cell_length_a 9.021622
_cell_length_b 17.106836
_cell_length_c 8.403410
_cell_angle_alpha 54.035221
_cell_angle_beta 33.119933
_cell_angle_gamma 51.328146
_cell_volume 546.996626
_symmetry_space_group_name_H-M "P -1"
_symmetry_group_IT_number 2
_symmetry_cell_setting 'triclinic'
loop_
_space_group_symop_operation_xyz
x,y,z
-x,-y,-z
loop_
_atom_site_type_symbol
_atom_site_label
_atom_site_fract_x
_atom_site_fract_y
_atom_site_fract_z
Si Si1 0.427416 0.083152 0.825249
Si Si2 0.421788 0.613435 0.879344
Si Si3 0.275837 0.273159 0.934462
Si Si4 0.953063 0.013938 0.213419
Si Si5 0.130563 0.789054 0.402518
Si Si6 0.051483 0.337134 0.528251
Si Si7 0.322930 0.468053 0.560036
O O1 0.421534 0.194937 0.755626
O O2 0.632277 0.054263 0.520438
O O3 0.500000 0.000000 0.000000
O O4 0.114099 0.092115 0.033212
O O5 0.451110 0.609195 0.668484
O O6 0.625957 0.668627 0.719047
O O7 0.500000 0.500000 0.000000
O O8 0.098797 0.665911 0.162364
O O9 0.145838 0.393444 0.869148
O O10 0.532180 0.269343 0.833738
O O11 0.018689 0.238318 0.275001
O O12 0.097620 0.906810 0.294861
O O13 0.000000 0.000000 0.000000
O O14 0.967358 0.760999 0.431649
O O15 0.893348 0.436819 0.446905
O O16 0.500000 0.500000 0.500000
#
# Coordination Sequence:
#
# PCOD8024282 Si02
#       7
#     2   2   2   2   2   2   2
#     4  12  23  46  74  97 139 182 222 282 347 407
#     4  10  23  43  64  91 130 182 219 267 337 388
#     4  12  26  41  70 103 133 177 230 276 336 404
#     4  12  26  45  73 106 137 176 231 287 343 408
#     4  12  24  43  68 102 135 179 221 278 346 398
#     4  11  24  44  68  92 140 179 214 276 336 396
#     4  11  24  44  67 102 132 175 230 278 322 399
#
# _framework density 25.594306
#
# number of rings (size 3 to 8) (size 9 to 14) (size 15 to 20)
#    0.000    0.571    4.286    4.286    2.000    6.286 
#    0.000    0.000    0.000    0.000    0.000    0.000 
#    0.000    0.000    0.000    0.000    0.000    0.000 
#
# Total GULP energy -173559.488344 kJ/mol
# GULP energy per Si atom -12397.106310 kJ/mol
# Density = 2.553605 g / cm^3
# Si number density = 25.594306 Si / 1000 Ang^3
#
#
#
# Elastic Constant Matrix: (Units=GPa)
#
#
# Indices 1 2 3 4 5 6 
#
# 1 92.5759 11.4186 23.0859 -13.5987 -0.1155 24.5604
# 2 11.4186 79.5835 3.1548 -18.7150 -3.2125 16.6547
# 3 23.0859 3.1548 119.2257 -9.4794 -1.4062 -0.2832
# 4 -13.5987 -18.7150 -9.4794 31.5387 11.1972 -2.4592
# 5 -0.1155 -3.2125 -1.4062 11.1972 45.6400 -0.1514
# 6 24.5604 16.6547 -0.2832 -2.4592 -0.1514 42.6486
#
#
#
# Elastic Compliance Matrix: (Units=1/GPa)
#
#
# Indices 1 2 3 4 5 6 
#
# 1 0.014361 0.001148 -0.002369 0.006026 -0.001462 -0.008392
# 2 0.001148 0.016027 0.000120 0.010024 -0.001346 -0.006346
# 3 -0.002369 0.000120 0.008998 0.001938 -0.000191 0.001488
# 4 0.006026 0.010024 0.001938 0.044019 -0.010035 -0.004869
# 5 -0.001462 -0.001346 -0.000191 -0.010035 0.024271 0.000874
# 6 -0.008392 -0.006346 0.001488 -0.004869 0.000874 0.030490
#
#
# Mechanical properties :
#
#
# Convention : Reuss Voigt Hill
#
# Bulk Modulus (GPa) = 26.89438 40.74487 33.81963
# Shear Modulus (GPa) = 32.73011 40.88052 36.80531
#
# Velocity S-wave (km/s) = 3.57992 4.00090 3.79625
# Velocity P-wave (km/s) = 5.25533 6.10712 5.69717
#
# Compressibility (1/GPa) = 0.03718249
#
# Stress axis : x y z
#
# Youngs Moduli (GPa) = 69.63387 62.39496 111.13088
#
# Poissons Ratio (x) = -0.07160 0.26329
# Poissons Ratio (y) = -0.07991 -0.01331
# Poissons Ratio (z) = 0.16497 -0.00747
#
# Static dielectric constant tensor:
#      x y z
#    x 4.718720 0.294900 0.441360 
#    y 0.294900 4.622130 0.053660 
#    z 0.441360 0.053660 5.500850 
# 
# 
# High freq. dielectric constant tensor:
#      x y z
#    x 2.019650 0.020700 0.000010 
#    y 0.020700 2.020410 -0.012670 
#    z 0.000010 -0.012670 2.035920 
# 
# From -- ./inp_files/216883.got.cif
#   From: 2010.06.25/outbox.cif.g09.slc.cpg/sg2_109_cif.got.tgz:216883.got - 2010.06.27 13:26:56.
