data_PCOD8024777
_publ_section_title
;
Structure prediction by ZEFSAII (Michael W. Deem and Ramdas Pophale) SiO2 
 PCOD8024777
Probable space group: P -1
;
_chemical_formula_sum "Si O2"
_cell_formula_units_Z 14
_cell_length_a 11.895699
_cell_length_b 8.824892
_cell_length_c 10.834086
_cell_angle_alpha 42.049469
_cell_angle_beta 120.782649
_cell_angle_gamma 121.957456
_cell_volume 632.040128
_symmetry_space_group_name_H-M "P -1"
_symmetry_group_IT_number 2
_symmetry_cell_setting 'triclinic'
loop_
_space_group_symop_operation_xyz
x,y,z
-x,-y,-z
loop_
_atom_site_type_symbol
_atom_site_label
_atom_site_fract_x
_atom_site_fract_y
_atom_site_fract_z
Si Si1 0.987949 0.753857 0.306397
Si Si2 0.888612 0.822151 0.470674
Si Si3 0.819596 0.986563 0.932884
Si Si4 0.393759 0.141806 0.627204
Si Si5 0.589936 0.412780 0.773605
Si Si6 0.121053 0.595812 0.107875
Si Si7 0.483624 0.259534 0.065456
O O1 0.940707 0.858201 0.339507
O O2 0.000000 0.500000 0.500000
O O3 0.130544 0.909505 0.237479
O O4 0.876068 0.758797 0.133507
O O5 0.744804 0.885852 0.358179
O O6 0.878603 0.567803 0.674183
O O7 0.000000 0.000000 0.500000
O O8 0.882248 0.162443 0.974755
O O9 0.659609 0.916959 0.879051
O O10 0.523572 0.255791 0.715623
O O11 0.397816 0.311479 0.409338
O O12 0.406578 0.884673 0.747326
O O13 0.738753 0.377292 0.903826
O O14 0.494490 0.324158 0.889111
O O15 0.000000 0.500000 0.000000
O O16 0.500000 0.500000 0.000000
#
# Coordination Sequence:
#
# PCOD8024777 Si02
#       7
#     2   2   2   2   2   2   2
#     4  11  24  44  70  98 142 186 224 287 359 408
#     4  11  24  41  69 106 135 181 233 287 348 419
#     4  11  25  44  68 103 140 184 236 287 345 426
#     4  10  23  45  71 100 134 181 238 285 347 416
#     4  10  23  43  72  99 133 181 231 290 347 412
#     4  11  23  41  70 103 137 175 235 291 347 418
#     4  12  27  43  70 102 140 188 230 286 353 412
#
# _framework density 22.150493000000001
#
# number of rings (size 3 to 8) (size 9 to 14) (size 15 to 20)
#    0.000    1.143    2.857    2.143    4.000    7.429 
#    0.000    0.000    0.000    0.000    0.000    0.000 
#    0.000    0.000    0.000    0.000    0.000    0.000 
#
# Total GULP energy -173558.831806 kJ/mol
# GULP energy per Si atom -12397.059415 kJ/mol
# Density = 2.210008 g / cm^3
# Si number density = 22.150493 Si / 1000 Ang^3
#
#
#
# Elastic Constant Matrix: (Units=GPa)
#
#
# Indices 1 2 3 4 5 6 
#
# 1 179.1852 49.1180 75.7100 -0.4936 -11.3564 11.6672
# 2 49.1180 76.4507 25.9562 -8.7293 14.5753 15.9768
# 3 75.7100 25.9562 145.7688 -16.4435 3.9623 -8.1385
# 4 -0.4936 -8.7293 -16.4435 30.5547 -1.9840 11.1714
# 5 -11.3564 14.5753 3.9623 -1.9840 46.3246 0.7409
# 6 11.6672 15.9768 -8.1385 11.1714 0.7409 28.2329
#
#
#
# Elastic Compliance Matrix: (Units=1/GPa)
#
#
# Indices 1 2 3 4 5 6 
#
# 1 0.009218 -0.005438 -0.004337 -0.003156 0.004220 -0.000844
# 2 -0.005438 0.022594 -0.000580 0.010986 -0.007685 -0.014851
# 3 -0.004337 -0.000580 0.009873 0.003672 -0.001625 0.003556
# 4 -0.003156 0.010986 0.003672 0.045636 -0.002240 -0.021853
# 5 0.004220 -0.007685 -0.001625 -0.002240 0.025044 0.002366
# 6 -0.000844 -0.014851 0.003556 -0.021853 0.002366 0.053782
#
#
# Mechanical properties :
#
#
# Convention : Reuss Voigt Hill
#
# Bulk Modulus (GPa) = 47.67618 78.10812 62.89215
# Shear Modulus (GPa) = 25.79314 37.73045 31.76180
#
# Velocity S-wave (km/s) = 3.41611 4.13167 3.79081
# Velocity P-wave (km/s) = 6.09345 7.62233 6.90037
#
# Compressibility (1/GPa) = 0.02097484
#
# Stress axis : x y z
#
# Youngs Moduli (GPa) = 108.48574 44.25911 101.28718
#
# Poissons Ratio (x) = 0.24070 0.43929
# Poissons Ratio (y) = 0.58999 0.05871
# Poissons Ratio (z) = 0.47051 0.02565
#
# Static dielectric constant tensor:
#      x y z
#    x 4.118660 0.064870 0.168690 
#    y 0.064870 3.682320 -0.294530 
#    z 0.168690 -0.294530 3.894580 
# 
# 
# High freq. dielectric constant tensor:
#      x y z
#    x 1.890120 0.003910 -0.001230 
#    y 0.003910 1.839690 -0.013510 
#    z -0.001230 -0.013510 1.895090 
# 
# From -- ./inp_files/416210.got.cif
#   From: 2010.06.25/outbox.cif.g09.slc.cpg/sg2_209_cif.got.tgz:416210.got - 2010.06.27 13:26:56.
