data_PCOD8024237
_publ_section_title
;
Structure prediction by ZEFSAII (Michael W. Deem and Ramdas Pophale) SiO2 
 PCOD8024237
Probable space group: P -1
;
_chemical_formula_sum "Si O2"
_cell_formula_units_Z 16
_cell_length_a 11.773467
_cell_length_b 14.919805
_cell_length_c 8.980408
_cell_angle_alpha 113.918177
_cell_angle_beta 62.131553
_cell_angle_gamma 60.474485
_cell_volume 683.010262
_symmetry_space_group_name_H-M "P -1"
_symmetry_group_IT_number 2
_symmetry_cell_setting 'triclinic'
loop_
_space_group_symop_operation_xyz
x,y,z
-x,-y,-z
loop_
_atom_site_type_symbol
_atom_site_label
_atom_site_fract_x
_atom_site_fract_y
_atom_site_fract_z
Si Si1 0.823753 0.452799 0.958152
Si Si2 0.742168 0.383641 0.453907
Si Si3 0.623007 0.197117 0.705561
Si Si4 0.254801 0.986507 0.786706
Si Si5 0.489637 0.659872 0.562966
Si Si6 0.605811 0.072512 0.909980
Si Si7 0.351257 0.167057 0.399386
Si Si8 0.137105 0.748563 0.397835
O O1 0.843631 0.323976 0.817998
O O2 0.071606 0.351847 0.731276
O O3 0.644853 0.613945 0.057478
O O4 0.726865 0.531204 0.235605
O O5 0.590638 0.574329 0.610603
O O6 0.630274 0.357781 0.442600
O O7 0.712515 0.402276 0.663911
O O8 0.020630 0.202107 0.111186
O O9 0.763466 0.041696 0.390685
O O10 0.590030 0.167631 0.863545
O O11 0.774877 0.197801 0.640943
O O12 0.291891 0.872991 0.807649
O O13 0.490397 0.903632 0.602362
O O14 0.569174 0.993141 0.797833
O O15 0.407248 0.206167 0.253497
O O16 0.861156 0.919651 0.732965
#
# Coordination Sequence:
#
# PCOD8024237 Si02
#       8
#     2   2   2   2   2   2   2   2
#     4  10  23  43  62  91 135 165 209 269 316 381
#     4  11  22  41  67  96 131 171 205 269 327 373
#     4  11  24  39  65  99 123 166 214 267 332 376
#     4  11  23  43  64  96 131 169 217 260 316 385
#     4  10  24  41  64 100 132 165 214 263 326 386
#     4  10  23  43  61  93 123 168 223 255 319 381
#     4  10  23  43  62  85 132 173 212 266 303 386
#     4  11  21  42  65  93 130 162 211 272 322 383
#
# _framework density 23.425709000000001
#
# number of rings (size 3 to 8) (size 9 to 14) (size 15 to 20)
#    0.000    1.500    3.750    1.125    3.500    4.000 
#    4.500    0.000    0.000    0.000    0.000    0.000 
#    0.000    0.000    0.000    0.000    0.000    0.000 
#
# Total GULP energy -198320.100941 kJ/mol
# GULP energy per Si atom -12395.006309 kJ/mol
# Density = 2.337239 g / cm^3
# Si number density = 23.425709 Si / 1000 Ang^3
#
#
#
# Elastic Constant Matrix: (Units=GPa)
#
#
# Indices 1 2 3 4 5 6 
#
# 1 306.2648 3.9778 26.6216 -13.9425 -10.8256 -46.5777
# 2 3.9778 108.1957 -7.5916 -17.7990 -6.9578 -4.2997
# 3 26.6216 -7.5916 44.5739 -5.0904 -8.9064 0.3490
# 4 -13.9425 -17.7990 -5.0904 29.5353 -4.9760 -6.8200
# 5 -10.8256 -6.9578 -8.9064 -4.9760 37.6856 -3.9755
# 6 -46.5777 -4.2997 0.3490 -6.8200 -3.9755 23.5009
#
#
#
# Elastic Compliance Matrix: (Units=1/GPa)
#
#
# Indices 1 2 3 4 5 6 
#
# 1 0.006439 0.001996 -0.001729 0.008521 0.004666 0.016414
# 2 0.001996 0.012349 0.003569 0.012620 0.006516 0.010927
# 3 -0.001729 0.003569 0.026360 0.007152 0.007353 0.000155
# 4 0.008521 0.012620 0.007152 0.058889 0.018389 0.039291
# 5 0.004666 0.006516 0.007353 0.018389 0.035531 0.021678
# 6 0.016414 0.010927 0.000155 0.039291 0.021678 0.092150
#
#
# Mechanical properties :
#
#
# Convention : Reuss Voigt Hill
#
# Bulk Modulus (GPa) = 18.93240 56.11666 37.52453
# Shear Modulus (GPa) = 20.69096 47.21280 33.95188
#
# Velocity S-wave (km/s) = 2.97519 4.49422 3.81115
# Velocity P-wave (km/s) = 4.46114 7.13708 5.95146
#
# Compressibility (1/GPa) = 0.05281950
#
# Stress axis : x y z
#
# Youngs Moduli (GPa) = 155.31288 80.97887 37.93692
#
# Poissons Ratio (x) = -0.16164 0.06558
# Poissons Ratio (y) = -0.31002 -0.13538
# Poissons Ratio (z) = 0.26847 -0.28899
#
# Static dielectric constant tensor:
#      x y z
#    x 4.388760 -0.075410 -0.028050 
#    y -0.075410 4.394670 0.018730 
#    z -0.028050 0.018730 4.331900 
# 
# 
# High freq. dielectric constant tensor:
#      x y z
#    x 1.940870 -0.007040 -0.001840 
#    y -0.007040 1.911480 -0.001660 
#    z -0.001840 -0.001660 1.926230 
# 
# From -- ./inp_files/189363.got.cif
#   From: 2010.06.25/outbox.cif.g09.slc.cpg/sg2_95_cif.got.tgz:189363.got - 2010.06.27 13:26:56.
