data_PCOD8024262
_publ_section_title
;
Structure prediction by ZEFSAII (Michael W. Deem and Ramdas Pophale) SiO2 
 PCOD8024262
Probable space group: P -1
;
_chemical_formula_sum "Si O2"
_cell_formula_units_Z 16
_cell_length_a 14.747633
_cell_length_b 12.501214
_cell_length_c 21.606712
_cell_angle_alpha 27.316381
_cell_angle_beta 151.223706
_cell_angle_gamma 131.283620
_cell_volume 741.471551
_symmetry_space_group_name_H-M "P -1"
_symmetry_group_IT_number 2
_symmetry_cell_setting 'triclinic'
loop_
_space_group_symop_operation_xyz
x,y,z
-x,-y,-z
loop_
_atom_site_type_symbol
_atom_site_label
_atom_site_fract_x
_atom_site_fract_y
_atom_site_fract_z
Si Si1 0.532465 0.527930 0.096093
Si Si2 0.875401 0.683259 0.890677
Si Si3 0.443751 0.678628 0.652264
Si Si4 0.106464 0.038372 0.983928
Si Si5 0.312590 0.172097 0.616990
Si Si6 0.801956 0.514008 0.160233
Si Si7 0.301104 0.472990 0.335300
Si Si8 0.366657 0.548514 0.545812
O O1 0.608289 0.435018 0.259208
O O2 0.748377 0.383134 0.254498
O O3 0.363191 0.438158 0.019663
O O4 0.428383 0.850431 0.859626
O O5 0.682453 0.642857 0.820862
O O6 0.761155 0.006474 0.640941
O O7 0.000000 0.500000 0.000000
O O8 0.058343 0.581233 0.106348
O O9 0.465129 0.486073 0.706126
O O10 0.235790 0.191022 0.996079
O O11 0.894293 0.218712 0.719851
O O12 0.290305 0.741335 0.219244
O O13 0.000000 0.000000 0.000000
O O14 0.361959 0.248108 0.540112
O O15 0.394043 0.281769 0.665902
O O16 0.050531 0.301010 0.397245
O O17 0.499983 0.342625 0.470394
#
# Coordination Sequence:
#
# PCOD8024262 Si02
#       8
#     2   2   2   2   2   2   2   2
#     4  11  25  43  66  93 136 175 215 262 319 404
#     4  11  24  42  66  96 129 170 219 273 325 382
#     4  11  25  43  63  96 134 175 217 262 329 392
#     4  11  22  39  68  95 131 164 220 283 324 370
#     4  11  24  40  65  98 129 170 217 266 322 384
#     4  10  23  43  63  96 124 173 222 266 330 374
#     4  12  22  39  67  99 129 167 216 278 329 376
#     4  11  23  39  64  99 129 170 218 269 331 383
#
# _framework density 21.578710999999998
#
# number of rings (size 3 to 8) (size 9 to 14) (size 15 to 20)
#    0.000    1.000    5.000    2.250    1.750    3.500 
#    0.000    2.500    0.000    0.000    0.000    0.000 
#    0.000    0.000    0.000    0.000    0.000    0.000 
#
# Total GULP energy -198394.251718 kJ/mol
# GULP energy per Si atom -12399.640732 kJ/mol
# Density = 2.152960 g / cm^3
# Si number density = 21.578711 Si / 1000 Ang^3
#
#
#
# Elastic Constant Matrix: (Units=GPa)
#
#
# Indices 1 2 3 4 5 6 
#
# 1 120.8663 47.1470 21.1871 16.3906 -16.2568 -10.4055
# 2 47.1470 115.2005 45.1082 15.1579 -16.5516 1.2951
# 3 21.1871 45.1082 70.9653 2.7481 -10.7067 3.7575
# 4 16.3906 15.1579 2.7481 28.1460 0.2713 3.4088
# 5 -16.2568 -16.5516 -10.7067 0.2713 40.3553 6.4084
# 6 -10.4055 1.2951 3.7575 3.4088 6.4084 32.1127
#
#
#
# Elastic Compliance Matrix: (Units=1/GPa)
#
#
# Indices 1 2 3 4 5 6 
#
# 1 0.011015 -0.003189 -0.000923 -0.005100 0.002302 0.003888
# 2 -0.003189 0.013832 -0.007217 -0.004821 0.002627 -0.000759
# 3 -0.000923 -0.007217 0.019344 0.002880 0.002262 -0.003029
# 4 -0.005100 -0.004821 0.002880 0.041527 -0.002646 -0.005675
# 5 0.002302 0.002627 0.002262 -0.002646 0.028192 -0.004970
# 6 0.003888 -0.000759 -0.003029 -0.005675 -0.004970 0.034379
#
#
# Mechanical properties :
#
#
# Convention : Reuss Voigt Hill
#
# Bulk Modulus (GPa) = 46.43725 59.32409 52.88067
# Shear Modulus (GPa) = 28.07043 33.02879 30.54961
#
# Velocity S-wave (km/s) = 3.61063 3.91656 3.76670
# Velocity P-wave (km/s) = 6.24090 6.92851 6.59367
#
# Compressibility (1/GPa) = 0.02153444
#
# Stress axis : x y z
#
# Youngs Moduli (GPa) = 90.78438 72.29867 51.69500
#
# Poissons Ratio (x) = 0.23053 0.04771
# Poissons Ratio (y) = 0.28948 0.37307
# Poissons Ratio (z) = 0.08379 0.52176
#
# Static dielectric constant tensor:
#      x y z
#    x 4.018940 0.104230 0.274250 
#    y 0.104230 4.015120 0.346330 
#    z 0.274250 0.346330 3.953150 
# 
# 
# High freq. dielectric constant tensor:
#      x y z
#    x 1.851700 -0.001180 0.022210 
#    y -0.001180 1.858670 0.012640 
#    z 0.022210 0.012640 1.841830 
# 
# From -- ./inp_files/597950.got.cif
#   From: 2010.06.25/outbox.cif.g09.slc.cpg/sg2_299_cif.got.tgz:597950.got - 2010.06.27 13:26:56.
