data_PCOD8024273
_publ_section_title
;
Structure prediction by ZEFSAII (Michael W. Deem and Ramdas Pophale) SiO2 
 PCOD8024273
Probable space group: P -1
;
_chemical_formula_sum "Si O2"
_cell_formula_units_Z 16
_cell_length_a 18.680585
_cell_length_b 22.171048
_cell_length_c 9.265348
_cell_angle_alpha 134.839541
_cell_angle_beta 54.924507
_cell_angle_gamma 162.395001
_cell_volume 733.135279
_symmetry_space_group_name_H-M "P -1"
_symmetry_group_IT_number 2
_symmetry_cell_setting 'triclinic'
loop_
_space_group_symop_operation_xyz
x,y,z
-x,-y,-z
loop_
_atom_site_type_symbol
_atom_site_label
_atom_site_fract_x
_atom_site_fract_y
_atom_site_fract_z
Si Si1 0.139042 0.740733 0.531555
Si Si2 0.059102 0.742898 0.928608
Si Si3 0.601775 0.586139 0.749542
Si Si4 0.845835 0.724817 0.133633
Si Si5 0.465161 0.310808 0.629167
Si Si6 0.016390 0.998144 0.742477
Si Si7 0.396793 0.804261 0.444604
Si Si8 0.556378 0.198025 0.292581
O O1 0.084022 0.757443 0.751490
O O2 0.265258 0.772318 0.503681
O O3 0.849385 0.453136 0.313421
O O4 0.330634 0.959714 0.561388
O O5 0.806812 0.458485 0.800106
O O6 0.025502 0.811272 0.127548
O O7 0.328016 0.950819 0.036785
O O8 0.316645 0.374127 0.718630
O O9 0.564329 0.453551 0.614724
O O10 0.785032 0.799613 0.015592
O O11 0.732489 0.709136 0.647126
O O12 0.030463 0.961439 0.233529
O O13 0.629635 0.487016 0.875938
O O14 0.153627 0.049350 0.574479
O O15 0.497749 0.242610 0.452133
O O16 0.465212 0.869681 0.644227
#
# Coordination Sequence:
#
# PCOD8024273 Si02
#       8
#     2   2   2   2   2   2   2   2
#     4  10  23  43  64  87 117 153 192 237 293 355
#     4  11  22  38  62  91 121 153 193 241 292 346
#     4   8  15  27  48  74 106 150 193 235 282 329
#     4   9  16  31  50  78 112 146 194 238 279 337
#     4   9  16  31  50  78 112 146 194 238 279 337
#     4   8  15  27  48  74 106 150 193 235 282 329
#     4  10  23  43  64  87 117 153 192 237 293 355
#     4  11  22  38  62  91 121 153 193 241 292 346
#
# _framework density 21.824076999999999
#
# number of rings (size 3 to 8) (size 9 to 14) (size 15 to 20)
#    0.000    2.500    2.500    3.000    0.000    5.000 
#    0.000    5.000    0.000    1.500    0.000    0.000 
#    0.000    0.000    0.000    0.000    0.000    0.000 
#
# Total GULP energy -198377.610291 kJ/mol
# GULP energy per Si atom -12398.600643 kJ/mol
# Density = 2.177440 g / cm^3
# Si number density = 21.824077 Si / 1000 Ang^3
#
#
#
# Elastic Constant Matrix: (Units=GPa)
#
#
# Indices 1 2 3 4 5 6 
#
# 1 74.5114 51.1301 5.6068 8.7176 -3.9405 6.7355
# 2 51.1301 182.7853 19.5412 7.6090 9.8882 -16.7515
# 3 5.6068 19.5412 13.3460 2.5099 5.6837 -1.0788
# 4 8.7176 7.6090 2.5099 23.6321 18.8933 3.5157
# 5 -3.9405 9.8882 5.6837 18.8933 28.9903 4.9262
# 6 6.7355 -16.7515 -1.0788 3.5157 4.9262 33.0511
#
#
#
# Elastic Compliance Matrix: (Units=1/GPa)
#
#
# Indices 1 2 3 4 5 6 
#
# 1 0.023620 -0.007177 -0.005872 -0.023170 0.023557 -0.009689
# 2 -0.007177 0.009040 -0.007704 0.005243 -0.007034 0.006284
# 3 -0.005872 -0.007704 0.098058 0.016912 -0.028927 0.003005
# 4 -0.023170 0.005243 0.016912 0.112468 -0.082966 0.008334
# 5 0.023557 -0.007034 -0.028927 -0.082966 0.102515 -0.015764
# 6 -0.009689 0.006284 0.003005 0.008334 -0.015764 0.036977
#
#
# Mechanical properties :
#
#
# Convention : Reuss Voigt Hill
#
# Bulk Modulus (GPa) = 11.20930 47.02209 29.11569
# Shear Modulus (GPa) = 11.01508 30.09234 20.55371
#
# Velocity S-wave (km/s) = 2.24904 3.71733 3.07219
# Velocity P-wave (km/s) = 3.44842 6.32593 5.09456
#
# Compressibility (1/GPa) = 0.08921165
#
# Stress axis : x y z
#
# Youngs Moduli (GPa) = 42.33669 110.61542 10.19801
#
# Poissons Ratio (x) = 0.79391 0.05988
# Poissons Ratio (y) = 0.30386 0.07857
# Poissons Ratio (z) = 0.24860 0.85222
#
# Static dielectric constant tensor:
#      x y z
#    x 3.999540 0.155210 0.120650 
#    y 0.155210 4.430060 0.047810 
#    z 0.120650 0.047810 4.014460 
# 
# 
# High freq. dielectric constant tensor:
#      x y z
#    x 1.860080 0.012240 0.007610 
#    y 0.012240 1.860440 0.015380 
#    z 0.007610 0.015380 1.854050 
# 
# From -- ./inp_files/337803.got.cif
#   From: 2010.06.25/outbox.cif.g09.slc.cpg/sg2_169_cif.got.tgz:337803.got - 2010.06.27 13:26:56.
