data_PCOD8024956
_publ_section_title
;
Structure prediction by ZEFSAII (Michael W. Deem and Ramdas Pophale) SiO2 
 PCOD8024956
Probable space group: P -1
;
_chemical_formula_sum "Si O2"
_cell_formula_units_Z 16
_cell_length_a 14.486716
_cell_length_b 9.090683
_cell_length_c 5.282065
_cell_angle_alpha 101.309861
_cell_angle_beta 85.907399
_cell_angle_gamma 90.045026
_cell_volume 680.307345
_symmetry_space_group_name_H-M "P -1"
_symmetry_group_IT_number 2
_symmetry_cell_setting 'triclinic'
loop_
_space_group_symop_operation_xyz
x,y,z
-x,-y,-z
loop_
_atom_site_type_symbol
_atom_site_label
_atom_site_fract_x
_atom_site_fract_y
_atom_site_fract_z
Si Si1 0.910895 0.703941 0.887738
Si Si2 0.716081 0.364666 0.320132
Si Si3 0.377994 0.937506 0.744836
Si Si4 0.577955 0.573723 0.177292
Si Si5 0.005112 0.821402 0.411735
Si Si6 0.563093 0.840879 0.582431
Si Si7 0.833013 0.388943 0.795145
Si Si8 0.702160 0.767681 0.899651
O O1 0.977442 0.747537 0.659474
O O2 0.906079 0.524103 0.849298
O O3 0.941297 0.771989 0.173195
O O4 0.811285 0.774713 0.863299
O O5 0.697479 0.189922 0.309977
O O6 0.618472 0.453415 0.330733
O O7 0.765502 0.426630 0.584002
O O8 0.779705 0.376337 0.064507
O O9 0.477922 0.872571 0.805424
O O10 0.401774 0.001762 0.483537
O O11 0.338178 0.068220 0.969172
O O12 0.525475 0.720797 0.346088
O O13 0.670225 0.631069 0.034457
O O14 0.500000 0.500000 0.000000
O O15 0.109848 0.765268 0.316796
O O16 0.000000 0.000000 0.500000
O O17 0.652544 0.746863 0.633792
#
# Coordination Sequence:
#
# PCOD8024956 Si02
#       8
#     2   2   2   2   2   2   2   2
#     4  12  26  48  78 105 150 189 239 300 369 442
#     4  12  27  44  75 109 145 191 248 302 360 425
#     4  10  25  40  67 100 143 190 242 298 363 418
#     4  11  25  43  68 103 145 191 246 300 348 425
#     4  12  29  49  79 111 143 188 240 304 375 440
#     4  10  23  44  66  97 143 196 245 292 367 424
#     4  12  27  50  75 108 148 187 245 297 372 448
#     4  11  24  42  71 101 142 188 247 289 366 430
#
# _framework density 23.518784
#
# number of rings (size 3 to 8) (size 9 to 14) (size 15 to 20)
#    0.000    0.750    1.250    4.500   10.500    2.000 
#    0.000    0.000    0.000    0.000    0.000    0.000 
#    0.000    0.000    0.000    0.000    0.000    0.000 
#
# Total GULP energy -198348.198663 kJ/mol
# GULP energy per Si atom -12396.762416 kJ/mol
# Density = 2.346525 g / cm^3
# Si number density = 23.518784 Si / 1000 Ang^3
#
#
#
# Elastic Constant Matrix: (Units=GPa)
#
#
# Indices 1 2 3 4 5 6 
#
# 1 78.5107 17.4337 19.7366 9.6444 8.8750 -14.6202
# 2 17.4337 133.7256 38.8661 19.6660 3.1749 13.6962
# 3 19.7366 38.8661 114.4506 3.6087 10.3380 11.8764
# 4 9.6444 19.6660 3.6087 33.8144 3.5587 -1.5213
# 5 8.8750 3.1749 10.3380 3.5587 48.7324 -2.9849
# 6 -14.6202 13.6962 11.8764 -1.5213 -2.9849 46.4742
#
#
#
# Elastic Compliance Matrix: (Units=1/GPa)
#
#
# Indices 1 2 3 4 5 6 
#
# 1 0.015261 -0.001379 -0.002515 -0.002859 -0.001601 0.005654
# 2 -0.001379 0.009395 -0.002551 -0.004959 0.000378 -0.002689
# 3 -0.002515 -0.002551 0.010458 0.001154 -0.001850 -0.002793
# 4 -0.002859 -0.004959 0.001154 0.033391 -0.001763 0.001247
# 5 -0.001601 0.000378 -0.001850 -0.001763 0.021380 0.001173
# 6 0.005654 -0.002689 -0.002793 0.001247 0.001173 0.024918
#
#
# Mechanical properties :
#
#
# Convention : Reuss Voigt Hill
#
# Bulk Modulus (GPa) = 44.99971 53.19552 49.09762
# Shear Modulus (GPa) = 37.00905 42.51423 39.76164
#
# Velocity S-wave (km/s) = 3.97116 4.25628 4.11619
# Velocity P-wave (km/s) = 6.34050 6.84266 6.59636
#
# Compressibility (1/GPa) = 0.02222236
#
# Stress axis : x y z
#
# Youngs Moduli (GPa) = 65.52808 106.43924 95.62002
#
# Poissons Ratio (x) = 0.14678 0.24051
# Poissons Ratio (y) = 0.09036 0.24396
# Poissons Ratio (z) = 0.16482 0.27157
#
# Static dielectric constant tensor:
#      x y z
#    x 4.225630 -0.131010 0.017380 
#    y -0.131010 4.410520 0.002010 
#    z 0.017380 0.002010 4.299590 
# 
# 
# High freq. dielectric constant tensor:
#      x y z
#    x 1.931290 -0.008460 -0.001840 
#    y -0.008460 1.948970 0.009660 
#    z -0.001840 0.009660 1.937480 
# 
# From -- ./inp_files/90976.got.cif
#   From: 2010.06.25/outbox.cif.g09.slc.cpg/sg2_46_cif.got.tgz:90976.got - 2010.06.27 13:26:56.
