data_PCOD8024375
_publ_section_title
;
Structure prediction by ZEFSAII (Michael W. Deem and Ramdas Pophale) SiO2 
 PCOD8024375
Probable space group: P -1
;
_chemical_formula_sum "Si O2"
_cell_formula_units_Z 14
_cell_length_a 14.350534
_cell_length_b 5.225313
_cell_length_c 9.156882
_cell_angle_alpha 71.649282
_cell_angle_beta 89.527037
_cell_angle_gamma 118.064419
_cell_volume 564.978746
_symmetry_space_group_name_H-M "P -1"
_symmetry_group_IT_number 2
_symmetry_cell_setting 'triclinic'
loop_
_space_group_symop_operation_xyz
x,y,z
-x,-y,-z
loop_
_atom_site_type_symbol
_atom_site_label
_atom_site_fract_x
_atom_site_fract_y
_atom_site_fract_z
Si Si1 0.843245 0.909171 0.586880
Si Si2 0.726237 0.907267 0.854572
Si Si3 0.008246 0.718498 0.731531
Si Si4 0.594863 0.965209 0.330669
Si Si5 0.622248 0.218476 0.978414
Si Si6 0.910872 0.090196 0.997930
Si Si7 0.358903 0.573664 0.494443
O O1 0.787475 0.038104 0.675956
O O2 0.753055 0.593586 0.564844
O O3 0.925955 0.847604 0.691930
O O4 0.913861 0.192878 0.424778
O O5 0.793536 0.837200 0.990467
O O6 0.634184 0.554920 0.888940
O O7 0.687980 0.141044 0.870966
O O8 0.934298 0.356712 0.829925
O O9 0.091287 0.840242 0.844775
O O10 0.463978 0.802363 0.354027
O O11 0.624778 0.695311 0.387049
O O12 0.651994 0.164841 0.150214
O O13 0.647099 0.204495 0.421612
O O14 0.500000 0.000000 0.000000
O O15 0.000000 0.000000 0.000000
#
# Coordination Sequence:
#
# PCOD8024375 Si02
#       7
#     2   2   2   2   2   2   2
#     4  11  24  47  71 111 142 201 239 309 365 437
#     4  12  27  45  76 106 147 193 249 295 375 434
#     4  10  25  47  72 104 153 189 250 302 370 433
#     4  10  23  43  66 103 134 189 235 299 360 432
#     4  12  27  47  74 105 146 191 247 305 363 440
#     4  11  24  47  72 107 147 195 242 310 360 449
#     4  10  23  43  70  98 146 178 240 298 363 434
#
# _framework density 24.779693000000002
#
# number of rings (size 3 to 8) (size 9 to 14) (size 15 to 20)
#    0.000    1.143    1.429    3.000    6.000    6.286 
#    2.571    0.000    0.000    0.000    0.000    0.000 
#    0.000    0.000    0.000    0.000    0.000    0.000 
#
# Total GULP energy -173509.955036 kJ/mol
# GULP energy per Si atom -12393.568217 kJ/mol
# Density = 2.472329 g / cm^3
# Si number density = 24.779693 Si / 1000 Ang^3
#
#
#
# Elastic Constant Matrix: (Units=GPa)
#
#
# Indices 1 2 3 4 5 6 
#
# 1 66.1615 6.7296 32.3622 8.3424 -5.0010 13.0959
# 2 6.7296 63.9285 30.7396 22.1293 0.5830 0.1789
# 3 32.3622 30.7396 158.1281 -12.6610 -18.0666 -5.6833
# 4 8.3424 22.1293 -12.6610 26.5019 -5.5329 11.6061
# 5 -5.0010 0.5830 -18.0666 -5.5329 37.8904 6.7870
# 6 13.0959 0.1789 -5.6833 11.6061 6.7870 45.4347
#
#
#
# Elastic Compliance Matrix: (Units=1/GPa)
#
#
# Indices 1 2 3 4 5 6 
#
# 1 0.019842 0.005717 -0.006576 -0.013338 -0.002041 -0.002852
# 2 0.005717 0.039096 -0.014137 -0.049528 -0.015871 0.011452
# 3 -0.006576 -0.014137 0.013338 0.024083 0.009946 -0.004018
# 4 -0.013338 -0.049528 0.024083 0.113059 0.031753 -0.026572
# 5 -0.002041 -0.015871 0.009946 0.031753 0.037873 -0.011874
# 6 -0.002852 0.011452 -0.004018 -0.026572 -0.011874 0.030845
#
#
# Mechanical properties :
#
#
# Convention : Reuss Voigt Hill
#
# Bulk Modulus (GPa) = 23.65016 47.54231 35.59624
# Shear Modulus (GPa) = 16.77071 36.52453 26.64762
#
# Velocity S-wave (km/s) = 2.60435 3.84340 3.28286
# Velocity P-wave (km/s) = 4.31374 6.23885 5.36338
#
# Compressibility (1/GPa) = 0.04228301
#
# Stress axis : x y z
#
# Youngs Moduli (GPa) = 50.39920 25.57835 74.97216
#
# Poissons Ratio (x) = -0.14623 0.49301
# Poissons Ratio (y) = -0.28813 1.05991
# Poissons Ratio (z) = 0.33142 0.36161
#
# Static dielectric constant tensor:
#      x y z
#    x 4.197150 -0.004360 0.019600 
#    y -0.004360 5.710150 1.392090 
#    z 0.019600 1.392090 6.643840 
# 
# 
# High freq. dielectric constant tensor:
#      x y z
#    x 1.983400 0.013230 0.003840 
#    y 0.013230 1.992560 0.006660 
#    z 0.003840 0.006660 2.000680 
# 
# From -- ./inp_files/288511.got.cif
#   From: 2010.06.25/outbox.cif.g09.slc.cpg/sg2_145_cif.got.tgz:288511.got - 2010.06.27 13:26:56.
