data_PCOD8024515
_publ_section_title
;
Structure prediction by ZEFSAII (Michael W. Deem and Ramdas Pophale) SiO2 
 PCOD8024515
Probable space group: P -1
;
_chemical_formula_sum "Si O2"
_cell_formula_units_Z 16
_cell_length_a 6.327688
_cell_length_b 8.307107
_cell_length_c 19.714222
_cell_angle_alpha 138.039247
_cell_angle_beta 89.948660
_cell_angle_gamma 87.165068
_cell_volume 690.924765
_symmetry_space_group_name_H-M "P -1"
_symmetry_group_IT_number 2
_symmetry_cell_setting 'triclinic'
loop_
_space_group_symop_operation_xyz
x,y,z
-x,-y,-z
loop_
_atom_site_type_symbol
_atom_site_label
_atom_site_fract_x
_atom_site_fract_y
_atom_site_fract_z
Si Si1 0.826424 0.008998 0.442073
Si Si2 0.870438 0.735175 0.996076
Si Si3 0.165005 0.925294 0.314576
Si Si4 0.762984 0.502058 0.319818
Si Si5 0.433945 0.309288 0.493678
Si Si6 0.212106 0.777098 0.120202
Si Si7 0.491618 0.914124 0.856922
Si Si8 0.868607 0.601918 0.809917
O O1 0.636638 0.220193 0.513584
O O2 0.718922 0.753619 0.357998
O O3 0.000000 0.000000 0.500000
O O4 0.946960 0.048360 0.383844
O O5 0.753688 0.508284 0.955022
O O6 0.980953 0.665672 0.901593
O O7 0.044214 0.824858 0.075014
O O8 0.693704 0.956707 0.057010
O O9 0.127079 0.914427 0.230856
O O10 0.216155 0.663121 0.266867
O O11 0.360076 0.081678 0.381169
O O12 0.757810 0.574072 0.422307
O O13 0.583495 0.317471 0.254908
O O14 0.984897 0.380542 0.251605
O O15 0.500000 0.500000 0.500000
O O16 0.430517 0.888420 0.134249
O O17 0.678824 0.807592 0.871244
#
# Coordination Sequence:
#
# PCOD8024515 Si02
#       8
#     2   2   2   2   2   2   2   2
#     4  11  24  45  73  93 136 184 223 274 335 395
#     4  10  23  45  66  95 131 178 223 275 335 397
#     4  10  23  45  68  94 133 181 221 267 338 396
#     4  11  25  41  67 100 135 177 225 274 331 405
#     4  12  26  43  69 104 137 176 226 275 335 407
#     4  10  23  43  68  93 137 175 221 272 338 398
#     4  12  23  38  66  99 135 169 223 277 336 389
#     4  10  24  42  68  97 129 177 224 279 327 397
#
# _framework density 23.157368999999999
#
# number of rings (size 3 to 8) (size 9 to 14) (size 15 to 20)
#    0.000    1.250    1.250    3.375    3.500    6.500 
#    2.250    5.000    0.000    0.000    0.000    0.000 
#    0.000    0.000    0.000    0.000    0.000    0.000 
#
# Total GULP energy -198328.676449 kJ/mol
# GULP energy per Si atom -12395.542278 kJ/mol
# Density = 2.310466 g / cm^3
# Si number density = 23.157369 Si / 1000 Ang^3
#
#
#
# Elastic Constant Matrix: (Units=GPa)
#
#
# Indices 1 2 3 4 5 6 
#
# 1 90.9380 51.6155 64.5859 1.1998 -2.8738 1.0597
# 2 51.6155 76.9025 57.0456 3.7420 0.9735 9.1833
# 3 64.5859 57.0456 148.9319 -14.4577 2.0197 3.4064
# 4 1.1998 3.7420 -14.4577 40.4420 8.5426 2.9834
# 5 -2.8738 0.9735 2.0197 8.5426 46.6138 7.3562
# 6 1.0597 9.1833 3.4064 2.9834 7.3562 40.8912
#
#
#
# Elastic Compliance Matrix: (Units=1/GPa)
#
#
# Indices 1 2 3 4 5 6 
#
# 1 0.020510 -0.009945 -0.005361 -0.002127 0.001781 0.001983
# 2 -0.009945 0.024279 -0.005237 -0.003588 0.000488 -0.004584
# 3 -0.005361 -0.005237 0.011558 0.005115 -0.001704 0.000286
# 4 -0.002127 -0.003588 0.005115 0.028124 -0.005328 -0.000658
# 5 0.001781 0.000488 -0.001704 -0.005328 0.023202 -0.003799
# 6 0.001983 -0.004584 0.000286 -0.000658 -0.003799 0.026141
#
#
# Mechanical properties :
#
#
# Convention : Reuss Voigt Hill
#
# Bulk Modulus (GPa) = 65.52572 73.69627 69.61100
# Shear Modulus (GPa) = 27.77959 35.15778 31.46869
#
# Velocity S-wave (km/s) = 3.46728 3.90065 3.69033
# Velocity P-wave (km/s) = 6.66233 7.22357 6.94862
#
# Compressibility (1/GPa) = 0.01526118
#
# Stress axis : x y z
#
# Youngs Moduli (GPa) = 48.75675 41.18802 86.51675
#
# Poissons Ratio (x) = 0.40961 0.46384
# Poissons Ratio (y) = 0.48488 0.45309
# Poissons Ratio (z) = 0.26140 0.21570
#
# Static dielectric constant tensor:
#      x y z
#    x 4.043900 0.292030 -0.000390 
#    y 0.292030 4.131770 0.141260 
#    z -0.000390 0.141260 4.347180 
# 
# 
# High freq. dielectric constant tensor:
#      x y z
#    x 1.895000 0.023340 -0.000750 
#    y 0.023340 1.914910 0.011220 
#    z -0.000750 0.011220 1.933130 
# 
# From -- ./inp_files/582661.got.cif
#   From: 2010.06.25/outbox.cif.g09.slc.cpg/sg2_292_cif.got.tgz:582661.got - 2010.06.27 13:26:56.
