data_PCOD8024636
_publ_section_title
;
Structure prediction by ZEFSAII (Michael W. Deem and Ramdas Pophale) SiO2 
 PCOD8024636
Probable space group: P -1
;
_chemical_formula_sum "Si O2"
_cell_formula_units_Z 14
_cell_length_a 8.417569
_cell_length_b 8.582647
_cell_length_c 11.705843
_cell_angle_alpha 57.587389
_cell_angle_beta 120.243860
_cell_angle_gamma 97.174814
_cell_volume 604.437213
_symmetry_space_group_name_H-M "P -1"
_symmetry_group_IT_number 2
_symmetry_cell_setting 'triclinic'
loop_
_space_group_symop_operation_xyz
x,y,z
-x,-y,-z
loop_
_atom_site_type_symbol
_atom_site_label
_atom_site_fract_x
_atom_site_fract_y
_atom_site_fract_z
Si Si1 0.144490 0.683949 0.389629
Si Si2 0.609805 0.049094 0.255584
Si Si3 0.282610 0.016523 0.435338
Si Si4 0.241100 0.283469 0.125494
Si Si5 0.277280 0.307121 0.714576
Si Si6 0.369662 0.675053 0.033599
Si Si7 0.100665 0.791594 0.087884
O O1 0.246273 0.481431 0.548808
O O2 0.205664 0.693638 0.276281
O O3 0.919356 0.720297 0.295398
O O4 0.209198 0.840204 0.428283
O O5 0.394965 0.116149 0.191547
O O6 0.749978 0.983651 0.439318
O O7 0.616985 0.875560 0.242105
O O8 0.677708 0.219309 0.145888
O O9 0.183620 0.208996 0.258863
O O10 0.500000 0.000000 0.500000
O O11 0.325191 0.468699 0.094174
O O12 0.052881 0.326040 0.965675
O O13 0.408894 0.343683 0.852986
O O14 0.253781 0.796832 0.043993
O O15 0.000000 0.000000 0.000000
#
# Coordination Sequence:
#
# PCOD8024636 Si02
#       7
#     2   2   2   2   2   2   2
#     4  11  25  46  69 101 139 181 226 286 339 411
#     4  11  24  44  72  99 138 180 231 280 337 406
#     4  10  23  43  69  99 134 176 223 280 344 398
#     4  11  24  46  70 102 139 179 226 284 343 406
#     4  11  25  44  69 103 136 181 234 277 345 401
#     4  12  26  44  72 103 137 181 230 282 342 405
#     4  12  24  44  72  99 141 176 230 278 340 406
#
# _framework density 23.162043000000001
#
# number of rings (size 3 to 8) (size 9 to 14) (size 15 to 20)
#    0.000    0.857    1.429    5.571    4.000    3.429 
#    0.000    0.000    0.000    0.000    0.000    0.000 
#    0.000    0.000    0.000    0.000    0.000    0.000 
#
# Total GULP energy -173644.384395 kJ/mol
# GULP energy per Si atom -12403.170314 kJ/mol
# Density = 2.310933 g / cm^3
# Si number density = 23.162043 Si / 1000 Ang^3
#
#
#
# Elastic Constant Matrix: (Units=GPa)
#
#
# Indices 1 2 3 4 5 6 
#
# 1 82.2298 29.9363 31.8528 0.6062 -16.2766 12.1791
# 2 29.9363 58.7316 38.6917 -1.2531 24.5662 -1.2904
# 3 31.8528 38.6917 104.4131 2.2840 -29.4396 3.9964
# 4 0.6062 -1.2531 2.2840 43.9905 4.4282 2.2263
# 5 -16.2766 24.5662 -29.4396 4.4282 37.2928 15.6211
# 6 12.1791 -1.2904 3.9964 2.2263 15.6211 23.5203
#
#
#
# Elastic Compliance Matrix: (Units=1/GPa)
#
#
# Indices 1 2 3 4 5 6 
#
# 1 0.008093 0.010598 -0.011461 0.001990 -0.016566 0.009152
# 2 0.010598 -0.010688 0.011423 -0.002907 0.033626 -0.030073
# 3 -0.011461 0.011423 0.003226 0.001187 -0.017446 0.017488
# 4 0.001990 -0.002907 0.001187 0.022504 0.003496 -0.005843
# 5 -0.016566 0.033626 -0.017446 0.003496 -0.030788 0.033504
# 6 0.009152 -0.030073 0.017488 -0.005843 0.033504 0.011457
#
#
# Mechanical properties :
#
#
# Convention : Reuss Voigt Hill
#
# Bulk Modulus (GPa) = 45.97395 49.59291 47.78343
# Shear Modulus (GPa) = -496.73906 30.62030 -233.05938
#
# Velocity S-wave (km/s) = -14.66043 3.63988 -10.04190
# Velocity P-wave (km/s) = 16.33031 6.25482 10.66668
#
# Compressibility (1/GPa) = 0.02175145
#
# Stress axis : x y z
#
# Youngs Moduli (GPa) = 123.56146 -93.55899 309.96956
#
# Poissons Ratio (x) = 0.99150 3.55245
# Poissons Ratio (y) = -1.30946 -3.54088
# Poissons Ratio (z) = 1.41610 1.06876
#
# Static dielectric constant tensor:
#      x y z
#    x 4.289230 0.056800 -0.344270 
#    y 0.056800 4.043200 0.127600 
#    z -0.344270 0.127600 4.790570 
# 
# 
# High freq. dielectric constant tensor:
#      x y z
#    x 1.913330 0.012060 -0.011310 
#    y 0.012060 1.917550 0.004300 
#    z -0.011310 0.004300 1.932100 
# 
# From -- ./inp_files/159526.got.cif
#   From: 2010.06.25/outbox.cif.g09.slc.cpg/sg2_80_cif.got.tgz:159526.got - 2010.06.27 13:26:56.
