data_PCOD8024975
_publ_section_title
;
Structure prediction by ZEFSAII (Michael W. Deem and Ramdas Pophale) SiO2 
 PCOD8024975
Probable space group: P -1
;
_chemical_formula_sum "Si O2"
_cell_formula_units_Z 12
_cell_length_a 5.350152
_cell_length_b 9.336471
_cell_length_c 10.137137
_cell_angle_alpha 79.515030
_cell_angle_beta 74.616878
_cell_angle_gamma 95.980080
_cell_volume 473.824632
_symmetry_space_group_name_H-M "P -1"
_symmetry_group_IT_number 2
_symmetry_cell_setting 'triclinic'
loop_
_space_group_symop_operation_xyz
x,y,z
-x,-y,-z
loop_
_atom_site_type_symbol
_atom_site_label
_atom_site_fract_x
_atom_site_fract_y
_atom_site_fract_z
Si Si1 0.033308 0.082492 0.844870
Si Si2 0.791286 0.805978 0.803141
Si Si3 0.473847 0.762143 0.121207
Si Si4 0.243017 0.383188 0.555205
Si Si5 0.719966 0.906632 0.523847
Si Si6 0.131984 0.477735 0.272926
O O1 0.317325 0.186847 0.799594
O O2 0.785645 0.164090 0.836150
O O3 0.022387 0.949754 0.760084
O O4 0.000000 0.000000 0.000000
O O5 0.631430 0.816392 0.687000
O O6 0.918291 0.654328 0.805637
O O7 0.588405 0.799584 0.953183
O O8 0.402483 0.584945 0.181456
O O9 0.500000 0.500000 0.500000
O O10 0.266746 0.208268 0.581411
O O11 0.100675 0.401888 0.433525
O O12 0.088756 0.415346 0.705061
O O13 0.500000 0.000000 0.500000
O O14 0.000000 0.000000 0.500000
#
# Coordination Sequence:
#
# PCOD8024975 Si02
#       6
#     2   2   2   2   2   2
#     4  10  23  44  67 102 144 182 224 284 345 412
#     4  10  23  47  70 105 142 181 234 291 345 419
#     4  11  24  45  71 106 138 185 229 288 351 413
#     4  10  25  47  68  97 141 184 234 289 343 413
#     4  11  28  46  73 103 137 186 235 289 345 412
#     4  10  24  45  69 101 137 187 229 287 349 415
#
# _framework density 25.325821999999999
#
# number of rings (size 3 to 8) (size 9 to 14) (size 15 to 20)
#    0.000    1.667    0.000    2.500   11.667    4.000 
#    9.000    4.167    0.000    0.000    0.000    0.000 
#    0.000    0.000    0.000    0.000    0.000    0.000 
#
# Total GULP energy -148690.732526 kJ/mol
# GULP energy per Si atom -12390.894377 kJ/mol
# Density = 2.526818 g / cm^3
# Si number density = 25.325822 Si / 1000 Ang^3
#
#
#
# Elastic Constant Matrix: (Units=GPa)
#
#
# Indices 1 2 3 4 5 6 
#
# 1 160.1838 95.9605 36.7144 15.5123 -14.9611 -2.3661
# 2 95.9605 269.5485 46.8284 18.1390 -24.6700 11.4508
# 3 36.7144 46.8284 76.9938 13.7803 0.9522 -0.9787
# 4 15.5123 18.1390 13.7803 45.8946 4.3758 -6.6309
# 5 -14.9611 -24.6700 0.9522 4.3758 34.4182 -7.8571
# 6 -2.3661 11.4508 -0.9787 -6.6309 -7.8571 41.7990
#
#
#
# Elastic Compliance Matrix: (Units=1/GPa)
#
#
# Indices 1 2 3 4 5 6 
#
# 1 0.008613 -0.002376 -0.002446 -0.001287 0.002583 0.001363
# 2 -0.002376 0.005262 -0.001912 -0.001143 0.002639 -0.001306
# 3 -0.002446 -0.001912 0.015878 -0.002971 -0.002539 -0.000191
# 4 -0.001287 -0.001143 -0.002971 0.024399 -0.003632 0.003359
# 5 0.002583 0.002639 -0.002539 -0.003632 0.033773 0.005136
# 6 0.001363 -0.001306 -0.000191 0.003359 0.005136 0.025853
#
#
# Mechanical properties :
#
#
# Convention : Reuss Voigt Hill
#
# Bulk Modulus (GPa) = 61.40883 96.19251 78.80067
# Shear Modulus (GPa) = 37.68617 46.23721 41.96169
#
# Velocity S-wave (km/s) = 3.86171 4.27745 4.07489
# Velocity P-wave (km/s) = 6.64710 7.90316 7.30219
#
# Compressibility (1/GPa) = 0.01628430
#
# Stress axis : x y z
#
# Youngs Moduli (GPa) = 116.10362 190.04621 62.98005
#
# Poissons Ratio (x) = 0.45158 0.15406
# Poissons Ratio (y) = 0.27588 0.12042
# Poissons Ratio (z) = 0.28401 0.36336
#
# Static dielectric constant tensor:
#      x y z
#    x 4.471280 0.056950 0.259540 
#    y 0.056950 5.480930 0.034320 
#    z 0.259540 0.034320 5.390450 
# 
# 
# High freq. dielectric constant tensor:
#      x y z
#    x 1.983910 0.001280 0.006140 
#    y 0.001280 2.036420 -0.010020 
#    z 0.006140 -0.010020 2.036330 
# 
# From -- ./inp_files/315840.got.cif
#   From: 2010.06.25/outbox.cif.g09.slc.cpg/sg2_158_cif.got.tgz:315840.got - 2010.06.27 13:26:56.
