data_PCOD8024143
_publ_section_title
;
Structure prediction by ZEFSAII (Michael W. Deem and Ramdas Pophale) SiO2 
 PCOD8024143
Probable space group: P -1
;
_chemical_formula_sum "Si O2"
_cell_formula_units_Z 16
_cell_length_a 18.724357
_cell_length_b 13.527727
_cell_length_c 8.083622
_cell_angle_alpha 50.491906
_cell_angle_beta 46.887724
_cell_angle_gamma 29.507011
_cell_volume 731.315011
_symmetry_space_group_name_H-M "P -1"
_symmetry_group_IT_number 2
_symmetry_cell_setting 'triclinic'
loop_
_space_group_symop_operation_xyz
x,y,z
-x,-y,-z
loop_
_atom_site_type_symbol
_atom_site_label
_atom_site_fract_x
_atom_site_fract_y
_atom_site_fract_z
Si Si1 0.561411 0.687405 0.596389
Si Si2 0.893591 0.372861 0.561447
Si Si3 0.493081 0.986903 0.829273
Si Si4 0.765518 0.546758 0.916685
Si Si5 0.291924 0.005873 0.920351
Si Si6 0.969023 0.571250 0.283599
Si Si7 0.381903 0.526642 0.575652
Si Si8 0.887135 0.022586 0.561409
O O1 0.734420 0.505438 0.581427
O O2 0.435718 0.792697 0.826702
O O3 0.548907 0.586719 0.589288
O O4 0.523543 0.862934 0.394340
O O5 0.871983 0.374561 0.790969
O O6 0.954579 0.453684 0.329722
O O7 0.024377 0.142099 0.546852
O O8 0.658820 0.757790 0.762265
O O9 0.354596 0.035428 0.935031
O O10 0.500000 0.000000 0.000000
O O11 0.877072 0.500945 0.927787
O O12 0.649200 0.568534 0.166686
O O13 0.184029 0.190479 0.763387
O O14 0.193842 0.992524 0.169565
O O15 0.000000 0.500000 0.500000
O O16 0.500000 0.500000 0.500000
O O17 0.228589 0.763295 0.567043
O O18 0.000000 0.000000 0.500000
#
# Coordination Sequence:
#
# PCOD8024143 Si02
#       8
#     2   2   2   2   2   2   2   2
#     4  12  24  45  75 105 140 183 232 295 357 425
#     4  11  24  45  73 101 141 181 230 293 358 421
#     4  12  24  42  75 111 143 181 228 293 365 432
#     4  11  24  46  70 105 144 179 230 297 360 418
#     4  12  26  45  75 105 143 186 237 288 360 424
#     4  10  23  42  71 108 140 173 226 292 364 429
#     4  12  28  46  68 101 141 188 247 291 340 409
#     4  12  28  46  68  99 137 189 248 284 335 414
#
# _framework density 21.878397
#
# number of rings (size 3 to 8) (size 9 to 14) (size 15 to 20)
#    0.000    0.500    5.000    3.375    1.750    4.500 
#    0.000    0.000    0.000    0.000    0.000    0.000 
#    0.000    0.000    0.000    0.000    0.000    0.000 
#
# Total GULP energy -198382.740366 kJ/mol
# GULP energy per Si atom -12398.921273 kJ/mol
# Density = 2.182860 g / cm^3
# Si number density = 21.878397 Si / 1000 Ang^3
#
#
#
# Elastic Constant Matrix: (Units=GPa)
#
#
# Indices 1 2 3 4 5 6 
#
# 1 168.1848 47.0080 41.5337 11.4495 -26.1649 -3.9034
# 2 47.0080 136.3134 25.6457 -1.6432 -3.0896 2.7217
# 3 41.5337 25.6457 68.6870 14.3502 -6.1580 3.7941
# 4 11.4495 -1.6432 14.3502 31.9702 -3.4313 6.3165
# 5 -26.1649 -3.0896 -6.1580 -3.4313 37.5760 1.3393
# 6 -3.9034 2.7217 3.7941 6.3165 1.3393 46.3608
#
#
#
# Elastic Compliance Matrix: (Units=1/GPa)
#
#
# Indices 1 2 3 4 5 6 
#
# 1 0.008287 -0.002105 -0.003610 -0.001158 0.004859 0.001134
# 2 -0.002105 0.008545 -0.002448 0.002345 -0.000923 -0.000771
# 3 -0.003610 -0.002448 0.019209 -0.007334 -0.000211 -0.000727
# 4 -0.001158 0.002345 -0.007334 0.036196 0.001654 -0.004614
# 5 0.004859 -0.000923 -0.000211 0.001654 0.030059 -0.000613
# 6 0.001134 -0.000771 -0.000727 -0.004614 -0.000613 0.022417
#
#
# Mechanical properties :
#
#
# Convention : Reuss Voigt Hill
#
# Bulk Modulus (GPa) = 50.72089 66.84002 58.78045
# Shear Modulus (GPa) = 33.87308 40.44792 37.16050
#
# Velocity S-wave (km/s) = 3.93904 4.30439 4.12576
# Velocity P-wave (km/s) = 6.62733 7.43779 7.04422
#
# Compressibility (1/GPa) = 0.01971574
#
# Stress axis : x y z
#
# Youngs Moduli (GPa) = 120.67301 117.02433 52.05863
#
# Poissons Ratio (x) = 0.24634 0.18793
# Poissons Ratio (y) = 0.25402 0.12742
# Poissons Ratio (z) = 0.43563 0.28644
#
# Static dielectric constant tensor:
#      x y z
#    x 4.443260 0.071390 -0.103330 
#    y 0.071390 4.889940 0.132440 
#    z -0.103330 0.132440 4.153990 
# 
# 
# High freq. dielectric constant tensor:
#      x y z
#    x 1.878960 -0.007180 -0.009140 
#    y -0.007180 1.872510 -0.000740 
#    z -0.009140 -0.000740 1.851850 
# 
# From -- ./inp_files/332849.got.cif
#   From: 2010.06.25/outbox.cif.g09.slc.cpg/sg2_167_cif.got.tgz:332849.got - 2010.06.27 13:26:56.
