data_PCOD8024392
_publ_section_title
;
Structure prediction by ZEFSAII (Michael W. Deem and Ramdas Pophale) SiO2 
 PCOD8024392
Probable space group: P -1
;
_chemical_formula_sum "Si O2"
_cell_formula_units_Z 12
_cell_length_a 8.613848
_cell_length_b 15.189897
_cell_length_c 15.695773
_cell_angle_alpha 18.395422
_cell_angle_beta 121.310812
_cell_angle_gamma 113.566460
_cell_volume 519.482330
_symmetry_space_group_name_H-M "P -1"
_symmetry_group_IT_number 2
_symmetry_cell_setting 'triclinic'
loop_
_space_group_symop_operation_xyz
x,y,z
-x,-y,-z
loop_
_atom_site_type_symbol
_atom_site_label
_atom_site_fract_x
_atom_site_fract_y
_atom_site_fract_z
Si Si1 0.006296 0.770696 0.465031
Si Si2 0.540059 0.679668 0.270207
Si Si3 0.794366 0.423608 0.817071
Si Si4 0.152252 0.790326 0.302216
Si Si5 0.417688 0.509526 0.874486
Si Si6 0.501513 0.117912 0.587559
O O1 0.041391 0.751782 0.390831
O O2 0.188693 0.570191 0.756676
O O3 0.847474 0.612705 0.582519
O O4 0.963728 0.110653 0.173314
O O5 0.500000 0.500000 0.500000
O O6 0.377203 0.701414 0.135147
O O7 0.750848 0.527549 0.425952
O O8 0.500000 0.000000 0.000000
O O9 0.713513 0.657645 0.655668
O O10 0.330143 0.906083 0.271796
O O11 0.000000 0.000000 0.000000
O O12 0.444713 0.779322 0.582214
O O13 0.500000 0.500000 0.000000
O O14 0.519709 0.201904 0.135982
#
# Coordination Sequence:
#
# PCOD8024392 Si02
#       6
#     2   2   2   2   2   2
#     4  11  23  42  66  94 125 166 215 268 316 377
#     4  11  24  40  60  87 124 170 214 257 310 368
#     4  11  23  42  63  91 131 167 210 268 319 372
#     4  10  23  43  66  94 129 172 218 261 313 382
#     4  11  23  44  69  96 127 167 213 264 322 385
#     4  10  23  43  67  94 130 170 210 262 322 380
#
# _framework density 23.099919
#
# number of rings (size 3 to 8) (size 9 to 14) (size 15 to 20)
#    0.000    1.333    0.000    5.500    0.000    9.333 
#    0.000   20.000    0.000    0.000    0.000    0.000 
#    0.000    0.000    0.000    0.000    0.000    0.000 
#
# Total GULP energy -148735.921077 kJ/mol
# GULP energy per Si atom -12394.660090 kJ/mol
# Density = 2.304734 g / cm^3
# Si number density = 23.099919 Si / 1000 Ang^3
#
#
#
# Elastic Constant Matrix: (Units=GPa)
#
#
# Indices 1 2 3 4 5 6 
#
# 1 96.5669 31.5045 45.0321 -7.3714 12.0769 -12.0287
# 2 31.5045 121.7363 70.2768 3.9495 22.1302 -5.9246
# 3 45.0321 70.2768 158.6504 -19.4916 17.1345 -3.2595
# 4 -7.3714 3.9495 -19.4916 52.7461 -5.5318 1.8874
# 5 12.0769 22.1302 17.1345 -5.5318 38.4970 -11.4092
# 6 -12.0287 -5.9246 -3.2595 1.8874 -11.4092 19.1263
#
#
#
# Elastic Compliance Matrix: (Units=1/GPa)
#
#
# Indices 1 2 3 4 5 6 
#
# 1 0.013106 -0.001440 -0.002882 0.000639 0.000288 0.007414
# 2 -0.001440 0.012512 -0.005017 -0.003515 -0.005203 -0.000642
# 3 -0.002882 -0.005017 0.009823 0.003608 -0.000817 -0.002536
# 4 0.000639 -0.003515 0.003608 0.020984 0.003152 -0.000263
# 5 0.000288 -0.005203 -0.000817 0.003152 0.035393 0.019232
# 6 0.007414 -0.000642 -0.002536 -0.000263 0.019232 0.067814
#
#
# Mechanical properties :
#
#
# Convention : Reuss Voigt Hill
#
# Bulk Modulus (GPa) = 59.65754 74.50893 67.08324
# Shear Modulus (GPa) = 27.18907 37.41657 32.30282
#
# Velocity S-wave (km/s) = 3.43449 4.02900 3.74357
# Velocity P-wave (km/s) = 6.45055 7.34635 6.91298
#
# Compressibility (1/GPa) = 0.01676234
#
# Stress axis : x y z
#
# Youngs Moduli (GPa) = 76.30265 79.92422 101.80273
#
# Poissons Ratio (x) = 0.11509 0.29344
# Poissons Ratio (y) = 0.10988 0.51071
# Poissons Ratio (z) = 0.21993 0.40095
#
# Static dielectric constant tensor:
#      x y z
#    x 4.251900 -0.189140 0.352980 
#    y -0.189140 3.929380 -0.252110 
#    z 0.352980 -0.252110 4.459210 
# 
# 
# High freq. dielectric constant tensor:
#      x y z
#    x 1.918110 -0.010540 0.005940 
#    y -0.010540 1.884490 -0.016960 
#    z 0.005940 -0.016960 1.932400 
# 
# From -- ./inp_files/503525.got.cif
#   From: 2010.06.25/outbox.cif.g09.slc.cpg/sg2_252_cif.got.tgz:503525.got - 2010.06.27 13:26:56.
