data_PCOD8024542
_publ_section_title
;
Structure prediction by ZEFSAII (Michael W. Deem and Ramdas Pophale) SiO2 
 PCOD8024542
Probable space group: P -1
;
_chemical_formula_sum "Si O2"
_cell_formula_units_Z 14
_cell_length_a 11.000451
_cell_length_b 9.076686
_cell_length_c 11.513962
_cell_angle_alpha 113.551103
_cell_angle_beta 43.143806
_cell_angle_gamma 125.044863
_cell_volume 643.245980
_symmetry_space_group_name_H-M "P -1"
_symmetry_group_IT_number 2
_symmetry_cell_setting 'triclinic'
loop_
_space_group_symop_operation_xyz
x,y,z
-x,-y,-z
loop_
_atom_site_type_symbol
_atom_site_label
_atom_site_fract_x
_atom_site_fract_y
_atom_site_fract_z
Si Si1 0.291638 0.925455 0.425788
Si Si2 0.424939 0.318770 0.422362
Si Si3 0.188003 0.680040 0.893028
Si Si4 0.291010 0.348594 0.137501
Si Si5 0.605346 0.970776 0.030095
Si Si6 0.909132 0.319427 0.300218
Si Si7 0.899828 0.664677 0.504796
O O1 0.463582 0.912709 0.224315
O O2 0.252198 0.812698 0.536653
O O3 0.094437 0.846987 0.458484
O O4 0.353506 0.132212 0.485330
O O5 0.500000 0.500000 0.500000
O O6 0.614550 0.342744 0.220801
O O7 0.237374 0.287400 0.467161
O O8 0.188910 0.730839 0.773487
O O9 0.199091 0.842721 0.016958
O O10 0.000000 0.500000 0.000000
O O11 0.222918 0.423306 0.320239
O O12 0.116238 0.302935 0.149498
O O13 0.500000 0.500000 0.000000
O O14 0.312353 0.171247 0.099513
O O15 0.500000 0.000000 0.000000
O O16 0.962833 0.524935 0.356727
#
# Coordination Sequence:
#
# PCOD8024542 Si02
#       7
#     2   2   2   2   2   2   2
#     4  10  23  43  68  98 132 172 224 281 325 394
#     4  11  23  42  66  97 127 176 221 270 332 393
#     4  11  27  45  66  98 139 176 218 282 337 396
#     4  11  23  40  67 101 131 175 220 273 333 394
#     4  11  25  44  70 100 135 179 222 269 333 400
#     4  11  24  44  68  99 135 174 224 278 340 384
#     4  11  22  42  68  98 130 173 225 274 327 397
#
# _framework density 21.764613000000001
#
# number of rings (size 3 to 8) (size 9 to 14) (size 15 to 20)
#    0.000    1.143    1.429    5.571    6.000    6.286 
#    2.571    0.000    0.000    0.000    0.000    0.000 
#    0.000    0.000    0.000    0.000    0.000    0.000 
#
# Total GULP energy -173584.242525 kJ/mol
# GULP energy per Si atom -12398.874466 kJ/mol
# Density = 2.171508 g / cm^3
# Si number density = 21.764613 Si / 1000 Ang^3
#
#
#
# Elastic Constant Matrix: (Units=GPa)
#
#
# Indices 1 2 3 4 5 6 
#
# 1 116.4758 41.6907 30.0017 7.4004 -2.3073 -3.1405
# 2 41.6907 141.1563 29.6609 1.4795 -2.0874 11.8171
# 3 30.0017 29.6609 58.0281 -7.9813 -7.7780 1.1859
# 4 7.4004 1.4795 -7.9813 45.8903 0.7781 -2.1676
# 5 -2.3073 -2.0874 -7.7780 0.7781 39.1201 7.3486
# 6 -3.1405 11.8171 1.1859 -2.1676 7.3486 34.3164
#
#
#
# Elastic Compliance Matrix: (Units=1/GPa)
#
#
# Indices 1 2 3 4 5 6 
#
# 1 0.010877 -0.002333 -0.004911 -0.002426 -0.000784 0.001983
# 2 -0.002333 0.008734 -0.003238 -0.000625 0.000301 -0.003213
# 3 -0.004911 -0.003238 0.022638 0.004732 0.004074 -0.000690
# 4 -0.002426 -0.000625 0.004732 0.023084 0.000066 0.001274
# 5 -0.000784 0.000301 0.004074 0.000066 0.027506 -0.006202
# 6 0.001983 -0.003213 -0.000690 0.001274 -0.006202 0.031861
#
#
# Mechanical properties :
#
#
# Convention : Reuss Voigt Hill
#
# Bulk Modulus (GPa) = 46.97937 57.59632 52.28784
# Shear Modulus (GPa) = 32.73121 38.15249 35.44185
#
# Velocity S-wave (km/s) = 3.88219 4.19138 4.03974
# Velocity P-wave (km/s) = 6.45966 7.06713 6.77021
#
# Compressibility (1/GPa) = 0.02128594
#
# Stress axis : x y z
#
# Youngs Moduli (GPa) = 91.93295 114.49773 44.17337
#
# Poissons Ratio (x) = 0.26712 0.21692
# Poissons Ratio (y) = 0.21448 0.14304
# Poissons Ratio (z) = 0.45145 0.37075
#
# Static dielectric constant tensor:
#      x y z
#    x 4.201530 0.072130 -0.197830 
#    y 0.072130 4.195420 0.143400 
#    z -0.197830 0.143400 4.035000 
# 
# 
# High freq. dielectric constant tensor:
#      x y z
#    x 1.861040 0.006350 -0.011780 
#    y 0.006350 1.867590 0.000030 
#    z -0.011780 0.000030 1.849660 
# 
# From -- ./inp_files/154188.got.cif
#   From: 2010.06.25/outbox.cif.g09.slc.cpg/sg2_78_cif.got.tgz:154188.got - 2010.06.27 13:26:56.
