data_PCOD8024335
_publ_section_title
;
Structure prediction by ZEFSAII (Michael W. Deem and Ramdas Pophale) SiO2 
 PCOD8024335
Probable space group: P -1
;
_chemical_formula_sum "Si O2"
_cell_formula_units_Z 10
_cell_length_a 13.890374
_cell_length_b 6.637052
_cell_length_c 5.324650
_cell_angle_alpha 80.488064
_cell_angle_beta 61.072839
_cell_angle_gamma 97.286086
_cell_volume 411.398790
_symmetry_space_group_name_H-M "P -1"
_symmetry_group_IT_number 2
_symmetry_cell_setting 'triclinic'
loop_
_space_group_symop_operation_xyz
x,y,z
-x,-y,-z
loop_
_atom_site_type_symbol
_atom_site_label
_atom_site_fract_x
_atom_site_fract_y
_atom_site_fract_z
Si Si1 0.637932 0.461801 0.076638
Si Si2 0.897298 0.459901 0.329747
Si Si3 0.975436 0.172567 0.675892
Si Si4 0.371301 0.303830 0.456710
Si Si5 0.758242 0.156594 0.215429
O O1 0.505928 0.354737 0.263942
O O2 0.669799 0.618130 0.243456
O O3 0.704423 0.274569 0.039518
O O4 0.676155 0.588960 0.743926
O O5 0.919725 0.331127 0.564778
O O6 0.781953 0.333317 0.370824
O O7 0.905455 0.700026 0.371830
O O8 0.000000 0.500000 0.000000
O O9 0.874661 0.083237 0.021146
O O10 0.000000 0.000000 0.500000
O O11 0.330580 0.051726 0.538203
#
# Coordination Sequence:
#
# PCOD8024335 Si02
#       5
#     2   2   2   2   2
#     4  10  24  45  68 105 145 176 230 292 342 415
#     4   9  22  42  60  93 130 173 223 285 338 400
#     4  10  23  43  65  94 136 177 225 286 347 403
#     4  10  24  44  71 104 141 183 226 287 353 410
#     4  11  24  41  71 100 133 185 234 278 348 419
#
# _framework density 24.307314999999999
#
# number of rings (size 3 to 8) (size 9 to 14) (size 15 to 20)
#    0.000    2.000    0.000    0.600    5.600    9.600 
#    0.000    6.000    0.000    0.000    0.000    0.000 
#    0.000    0.000    0.000    0.000    0.000    0.000 
#
# Total GULP energy -123892.953364 kJ/mol
# GULP energy per Si atom -12389.295336 kJ/mol
# Density = 2.425199 g / cm^3
# Si number density = 24.307315 Si / 1000 Ang^3
#
#
#
# Elastic Constant Matrix: (Units=GPa)
#
#
# Indices 1 2 3 4 5 6 
#
# 1 76.4043 69.7079 37.6759 -13.1862 14.9147 14.2712
# 2 69.7079 190.8835 62.2358 -7.1620 3.9740 27.5736
# 3 37.6759 62.2358 91.0424 2.3565 22.1934 16.9938
# 4 -13.1862 -7.1620 2.3565 43.3198 -6.1959 1.7096
# 5 14.9147 3.9740 22.1934 -6.1959 35.8677 4.4662
# 6 14.2712 27.5736 16.9938 1.7096 4.4662 41.7570
#
#
#
# Elastic Compliance Matrix: (Units=1/GPa)
#
#
# Indices 1 2 3 4 5 6 
#
# 1 0.023406 -0.006864 -0.003430 0.005427 -0.005703 -0.001683
# 2 -0.006864 0.009466 -0.004341 0.000521 0.004916 -0.002685
# 3 -0.003430 -0.004341 0.018282 -0.004077 -0.009837 -0.002182
# 4 0.005427 0.000521 -0.004077 0.025834 0.004936 -0.002125
# 5 -0.005703 0.004916 -0.009837 0.004936 0.036825 -0.001434
# 6 -0.001683 -0.002685 -0.002182 -0.002125 -0.001434 0.027425
#
#
# Mechanical properties :
#
#
# Convention : Reuss Voigt Hill
#
# Bulk Modulus (GPa) = 45.69544 77.50769 61.60157
# Shear Modulus (GPa) = 28.12122 36.76959 32.44541
#
# Velocity S-wave (km/s) = 3.40502 3.89356 3.65746
# Velocity P-wave (km/s) = 5.85651 7.22280 6.57524
#
# Compressibility (1/GPa) = 0.02188402
#
# Stress axis : x y z
#
# Youngs Moduli (GPa) = 42.72376 105.64477 54.69956
#
# Poissons Ratio (x) = 0.72511 0.18763
# Poissons Ratio (y) = 0.29324 0.23744
# Poissons Ratio (z) = 0.14655 0.45859
#
# Static dielectric constant tensor:
#      x y z
#    x 4.605000 0.527120 0.046280 
#    y 0.527120 4.476730 -0.184580 
#    z 0.046280 -0.184580 4.854870 
# 
# 
# High freq. dielectric constant tensor:
#      x y z
#    x 1.969950 0.015240 0.004310 
#    y 0.015240 1.967980 -0.003610 
#    z 0.004310 -0.003610 1.971770 
# 
# From -- ./inp_files/1439.got.cif
#   From: 2010.06.25/outbox.cif.g09.slc.cpg/sg2_1_cif.got.tgz:1439.got - 2010.06.27 13:26:56.
