data_PCOD8024657
_publ_section_title
;
Structure prediction by ZEFSAII (Michael W. Deem and Ramdas Pophale) SiO2 
 PCOD8024657
Probable space group: P -1
;
_chemical_formula_sum "Si O2"
_cell_formula_units_Z 16
_cell_length_a 12.529436
_cell_length_b 11.361969
_cell_length_c 11.503058
_cell_angle_alpha 99.093811
_cell_angle_beta 141.214360
_cell_angle_gamma 109.294065
_cell_volume 688.590215
_symmetry_space_group_name_H-M "P -1"
_symmetry_group_IT_number 2
_symmetry_cell_setting 'triclinic'
loop_
_space_group_symop_operation_xyz
x,y,z
-x,-y,-z
loop_
_atom_site_type_symbol
_atom_site_label
_atom_site_fract_x
_atom_site_fract_y
_atom_site_fract_z
Si Si1 0.656625 0.381673 0.481819
Si Si2 0.234579 0.229510 0.648662
Si Si3 0.591142 0.613530 0.934857
Si Si4 0.205427 0.847553 0.748547
Si Si5 0.244797 0.050455 0.218480
Si Si6 0.082367 0.719755 0.385023
Si Si7 0.619532 0.918490 0.404652
Si Si8 0.123242 0.758625 0.927426
O O1 0.854678 0.377977 0.624158
O O2 0.840690 0.585667 0.704435
O O3 0.483740 0.255513 0.423157
O O4 0.471487 0.324161 0.210296
O O5 0.346488 0.275001 0.880661
O O6 0.283563 0.142419 0.596156
O O7 0.931222 0.092284 0.372120
O O8 0.349882 0.406925 0.715391
O O9 0.823926 0.644858 0.105190
O O10 0.071750 0.699053 0.512472
O O11 0.136584 0.758653 0.799936
O O12 0.500000 0.000000 0.000000
O O13 0.265137 0.011423 0.359097
O O14 0.216084 0.932327 0.081370
O O15 0.000000 0.000000 0.000000
O O16 0.310297 0.925141 0.579510
O O17 0.318857 0.758729 0.137597
#
# Coordination Sequence:
#
# PCOD8024657 Si02
#       8
#     2   2   2   2   2   2   2   2
#     4  12  26  48  78 104 148 191 242 302 362 429
#     4  10  23  43  70 103 145 192 228 297 363 431
#     4  10  23  45  68 108 148 183 243 289 363 442
#     4  11  21  41  69 105 145 183 238 286 363 439
#     4  12  28  50  73 102 141 193 248 304 358 424
#     4  11  25  42  72 108 146 194 230 298 369 430
#     4  12  25  47  71 102 149 184 247 305 351 431
#     4  12  26  46  72 106 141 189 240 297 363 429
#
# _framework density 23.235882
#
# number of rings (size 3 to 8) (size 9 to 14) (size 15 to 20)
#    0.000    0.750    3.750    2.625    1.750    5.500 
#    2.250    0.000    0.000    0.000    0.000    0.000 
#    0.000    0.000    0.000    0.000    0.000    0.000 
#
# Total GULP energy -198360.687130 kJ/mol
# GULP energy per Si atom -12397.542946 kJ/mol
# Density = 2.318300 g / cm^3
# Si number density = 23.235882 Si / 1000 Ang^3
#
#
#
# Elastic Constant Matrix: (Units=GPa)
#
#
# Indices 1 2 3 4 5 6 
#
# 1 90.8135 31.6321 45.7607 -12.4125 12.1378 -0.5580
# 2 31.6321 72.1546 38.4578 -2.8307 -7.5784 2.6610
# 3 45.7607 38.4578 136.5106 -5.6414 22.8957 -2.5232
# 4 -12.4125 -2.8307 -5.6414 41.5017 1.5009 4.9430
# 5 12.1378 -7.5784 22.8957 1.5009 39.2917 -10.1604
# 6 -0.5580 2.6610 -2.5232 4.9430 -10.1604 22.0108
#
#
#
# Elastic Compliance Matrix: (Units=1/GPa)
#
#
# Indices 1 2 3 4 5 6 
#
# 1 0.015615 -0.005743 -0.002599 0.004429 -0.005267 -0.002634
# 2 -0.005743 0.020047 -0.005296 -0.001567 0.009148 0.001399
# 3 -0.002599 -0.005296 0.010863 0.000779 -0.006987 -0.001581
# 4 0.004429 -0.001567 0.000779 0.026557 -0.005201 -0.007974
# 5 -0.005267 0.009148 -0.006987 -0.005201 0.037345 0.016366
# 6 -0.002634 0.001399 -0.001581 -0.007974 0.016366 0.054361
#
#
# Mechanical properties :
#
#
# Convention : Reuss Voigt Hill
#
# Bulk Modulus (GPa) = 51.94600 59.01999 55.48299
# Shear Modulus (GPa) = 25.19161 32.80271 28.99716
#
# Velocity S-wave (km/s) = 3.29624 3.76137 3.53646
# Velocity P-wave (km/s) = 6.07383 6.65728 6.37224
#
# Compressibility (1/GPa) = 0.01925076
#
# Stress axis : x y z
#
# Youngs Moduli (GPa) = 64.04301 49.88263 92.05165
#
# Poissons Ratio (x) = 0.28645 0.23921
# Poissons Ratio (y) = 0.36777 0.48750
# Poissons Ratio (z) = 0.16643 0.26417
#
# Static dielectric constant tensor:
#      x y z
#    x 4.094910 0.071830 0.210700 
#    y 0.071830 4.184320 -0.068710 
#    z 0.210700 -0.068710 4.527600 
# 
# 
# High freq. dielectric constant tensor:
#      x y z
#    x 1.916180 0.003720 0.015700 
#    y 0.003720 1.908740 -0.010520 
#    z 0.015700 -0.010520 1.939360 
# 
# From -- ./inp_files/428488.got.cif
#   From: 2010.06.25/outbox.cif.g09.slc.cpg/sg2_215_cif.got.tgz:428488.got - 2010.06.27 13:26:56.
