data_PCOD8024622
_publ_section_title
;
Structure prediction by ZEFSAII (Michael W. Deem and Ramdas Pophale) SiO2 
 PCOD8024622
Probable space group: P -1
;
_chemical_formula_sum "Si O2"
_cell_formula_units_Z 14
_cell_length_a 10.057415
_cell_length_b 9.196762
_cell_length_c 18.665753
_cell_angle_alpha 67.268225
_cell_angle_beta 27.785895
_cell_angle_gamma 56.675777
_cell_volume 650.142545
_symmetry_space_group_name_H-M "P -1"
_symmetry_group_IT_number 2
_symmetry_cell_setting 'triclinic'
loop_
_space_group_symop_operation_xyz
x,y,z
-x,-y,-z
loop_
_atom_site_type_symbol
_atom_site_label
_atom_site_fract_x
_atom_site_fract_y
_atom_site_fract_z
Si Si1 0.946884 0.188711 0.458378
Si Si2 0.849034 0.354781 0.329834
Si Si3 0.148013 0.091354 0.114969
Si Si4 0.758458 0.683783 0.250673
Si Si5 0.654995 0.985326 0.352802
Si Si6 0.307591 0.326699 0.359490
Si Si7 0.050142 0.665442 0.968577
O O1 0.034807 0.199566 0.330473
O O2 0.560648 0.323118 0.627591
O O3 0.189980 0.245088 0.368164
O O4 0.000000 0.000000 0.500000
O O5 0.500000 0.500000 0.500000
O O6 0.996722 0.487704 0.210583
O O7 0.870283 0.246531 0.267817
O O8 0.031832 0.941163 0.188397
O O9 0.159936 0.172390 0.016615
O O10 0.500000 0.000000 0.000000
O O11 0.634830 0.837156 0.341100
O O12 0.925642 0.728700 0.096681
O O13 0.451623 0.182975 0.380551
O O14 0.500000 0.000000 0.500000
O O15 0.573487 0.384075 0.197402
O O16 0.000000 0.500000 0.500000
O O17 0.000000 0.500000 0.000000
#
# Coordination Sequence:
#
# PCOD8024622 Si02
#       7
#     2   2   2   2   2   2   2
#     4  11  23  42  68 100 132 173 233 278 333 410
#     4  10  23  43  69  96 134 184 229 274 343 414
#     4  11  26  43  68 100 137 180 229 289 345 408
#     4  11  23  44  71  97 138 184 219 284 349 402
#     4  11  25  44  68 100 138 179 228 283 342 408
#     4  11  26  42  68 101 133 182 231 279 338 415
#     4  11  24  47  69  96 142 177 227 283 349 401
#
# _framework density 21.533739000000001
#
# number of rings (size 3 to 8) (size 9 to 14) (size 15 to 20)
#    0.000    1.143    2.857    2.571   10.000    4.571 
#    0.000    1.429    0.000    0.000    0.000    0.000 
#    0.000    0.000    0.000    0.000    0.000    0.000 
#
# Total GULP energy -173444.535206 kJ/mol
# GULP energy per Si atom -12388.895372 kJ/mol
# Density = 2.148473 g / cm^3
# Si number density = 21.533739 Si / 1000 Ang^3
#
#
#
# Elastic Constant Matrix: (Units=GPa)
#
#
# Indices 1 2 3 4 5 6 
#
# 1 130.6732 55.1894 71.1300 -21.0037 10.5498 -5.2909
# 2 55.1894 109.5421 40.9209 -24.3350 4.1260 -9.1360
# 3 71.1300 40.9209 117.8899 -20.5452 -1.7399 -6.5326
# 4 -21.0037 -24.3350 -20.5452 39.6140 0.5874 6.1996
# 5 10.5498 4.1260 -1.7399 0.5874 57.9317 -9.6661
# 6 -5.2909 -9.1360 -6.5326 6.1996 -9.6661 42.8619
#
#
#
# Elastic Compliance Matrix: (Units=1/GPa)
#
#
# Indices 1 2 3 4 5 6 
#
# 1 0.013211 -0.003911 -0.006452 0.001443 -0.002495 -0.000958
# 2 -0.003911 0.012734 -0.001123 0.004959 -0.000057 0.001330
# 3 -0.006452 -0.001123 0.013302 0.002602 0.001798 0.001021
# 4 0.001443 0.004959 0.002602 0.030917 -0.001377 -0.003151
# 5 -0.002495 -0.000057 0.001798 -0.001377 0.018510 0.004328
# 6 -0.000958 0.001330 0.001021 -0.003151 0.004328 0.025083
#
#
# Mechanical properties :
#
#
# Convention : Reuss Voigt Hill
#
# Bulk Modulus (GPa) = 61.44756 76.95397 69.20076
# Shear Modulus (GPa) = 35.17300 40.80588 37.98944
#
# Velocity S-wave (km/s) = 4.04591 4.35785 4.20477
# Velocity P-wave (km/s) = 7.10093 7.81890 7.46855
#
# Compressibility (1/GPa) = 0.01627404
#
# Stress axis : x y z
#
# Youngs Moduli (GPa) = 75.69360 78.53207 75.17878
#
# Poissons Ratio (x) = 0.30716 0.48505
# Poissons Ratio (y) = 0.29605 0.08443
# Poissons Ratio (z) = 0.48837 0.08820
#
# Static dielectric constant tensor:
#      x y z
#    x 4.131340 -0.318700 0.088240 
#    y -0.318700 4.128790 -0.402430 
#    z 0.088240 -0.402430 3.987490 
# 
# 
# High freq. dielectric constant tensor:
#      x y z
#    x 1.856210 -0.006830 0.011260 
#    y -0.006830 1.853980 -0.021770 
#    z 0.011260 -0.021770 1.838830 
# 
# From -- ./inp_files/155021.got.cif
#   From: 2010.06.25/outbox.cif.g09.slc.cpg/sg2_78_cif.got.tgz:155021.got - 2010.06.27 13:26:56.
