data_PCOD8024221
_publ_section_title
;
Structure prediction by ZEFSAII (Michael W. Deem and Ramdas Pophale) SiO2 
 PCOD8024221
Probable space group: P -1
;
_chemical_formula_sum "Si O2"
_cell_formula_units_Z 14
_cell_length_a 12.756455
_cell_length_b 12.321138
_cell_length_c 13.123747
_cell_angle_alpha 136.714627
_cell_angle_beta 136.144638
_cell_angle_gamma 24.410125
_cell_volume 571.997648
_symmetry_space_group_name_H-M "P -1"
_symmetry_group_IT_number 2
_symmetry_cell_setting 'triclinic'
loop_
_space_group_symop_operation_xyz
x,y,z
-x,-y,-z
loop_
_atom_site_type_symbol
_atom_site_label
_atom_site_fract_x
_atom_site_fract_y
_atom_site_fract_z
Si Si1 0.222882 0.062572 0.040486
Si Si2 0.834253 0.168252 0.754819
Si Si3 0.857437 0.521215 0.773847
Si Si4 0.714342 0.683745 0.438286
Si Si5 0.714725 0.429589 0.432327
Si Si6 0.388400 0.752899 0.138376
Si Si7 0.658779 0.736977 0.991833
O O1 0.468350 0.784406 0.957656
O O2 0.951646 0.243815 0.917321
O O3 0.212702 0.995314 0.099405
O O4 0.279763 0.202319 0.176960
O O5 0.059883 0.879634 0.658201
O O6 0.572800 0.405878 0.665876
O O7 0.778975 0.124350 0.792221
O O8 0.783906 0.427361 0.593787
O O9 0.801648 0.520357 0.852149
O O10 0.157310 0.319195 0.841284
O O11 0.702041 0.602531 0.479909
O O12 0.650604 0.625133 0.258760
O O13 0.000000 0.500000 0.500000
O O14 0.500000 0.000000 0.500000
O O15 0.500000 0.500000 0.000000
O O16 0.500000 0.000000 0.000000
#
# Coordination Sequence:
#
# PCOD8024221 Si02
#       7
#     2   2   2   2   2   2   2
#     4  11  23  41  72  96 135 181 233 275 336 396
#     4  11  26  45  62 103 144 182 219 276 332 414
#     4  10  23  42  74  98 128 175 233 285 341 398
#     4  11  23  39  60  94 133 172 226 273 321 397
#     4  11  25  43  67  93 143 179 217 279 352 389
#     4  11  25  43  67  99 141 186 225 270 331 402
#     4   9  22  43  69 101 130 162 235 293 335 397
#
# _framework density 24.475625000000001
#
# number of rings (size 3 to 8) (size 9 to 14) (size 15 to 20)
#    0.000    1.429    0.000    4.714   10.000    1.143 
#    0.000    1.429    0.000    0.000    0.000    0.000 
#    0.000    0.000    0.000    0.000    0.000    0.000 
#
# Total GULP energy -173493.355487 kJ/mol
# GULP energy per Si atom -12392.382535 kJ/mol
# Density = 2.441992 g / cm^3
# Si number density = 24.475625 Si / 1000 Ang^3
#
#
#
# Elastic Constant Matrix: (Units=GPa)
#
#
# Indices 1 2 3 4 5 6 
#
# 1 58.6587 14.8506 38.7186 -11.3127 0.1921 -20.2187
# 2 14.8506 113.2260 50.7941 -13.2767 -2.3409 -34.5100
# 3 38.7186 50.7941 182.9412 -23.4405 3.5368 -28.1785
# 4 -11.3127 -13.2767 -23.4405 45.6616 -1.1113 9.1637
# 5 0.1921 -2.3409 3.5368 -1.1113 33.6954 -11.4354
# 6 -20.2187 -34.5100 -28.1785 9.1637 -11.4354 46.9448
#
#
#
# Elastic Compliance Matrix: (Units=1/GPa)
#
#
# Indices 1 2 3 4 5 6 
#
# 1 0.022664 0.001876 -0.003625 0.002510 0.003642 0.009362
# 2 0.001876 0.012838 -0.002415 0.001128 0.004450 0.009659
# 3 -0.003625 -0.002415 0.007245 0.002011 -0.000688 0.000452
# 4 0.002510 0.001128 0.002011 0.024202 0.000115 -0.001579
# 5 0.003642 0.004450 -0.000688 0.000115 0.034379 0.012779
# 6 0.009362 0.009659 0.000452 -0.001579 0.012779 0.036127
#
#
# Mechanical properties :
#
#
# Convention : Reuss Voigt Hill
#
# Bulk Modulus (GPa) = 29.05304 62.61694 45.83499
# Shear Modulus (GPa) = 31.79564 41.95787 36.87675
#
# Velocity S-wave (km/s) = 3.60818 4.14487 3.88580
# Velocity P-wave (km/s) = 5.40875 6.96746 6.23699
#
# Compressibility (1/GPa) = 0.03441981
#
# Stress axis : x y z
#
# Youngs Moduli (GPa) = 44.12232 77.89629 138.03468
#
# Poissons Ratio (x) = -0.14617 0.50031
# Poissons Ratio (y) = -0.08279 0.33339
# Poissons Ratio (z) = 0.15992 0.18814
#
# Static dielectric constant tensor:
#      x y z
#    x 5.163240 -0.902650 -0.917860 
#    y -0.902650 6.033600 1.780160 
#    z -0.917860 1.780160 7.668690 
# 
# 
# High freq. dielectric constant tensor:
#      x y z
#    x 1.972910 -0.004020 0.005370 
#    y -0.004020 1.985760 -0.011710 
#    z 0.005370 -0.011710 1.973290 
# 
# From -- ./inp_files/428980.got.cif
#   From: 2010.06.25/outbox.cif.g09.slc.cpg/sg2_215_cif.got.tgz:428980.got - 2010.06.27 13:26:56.
