data_PCOD8024822
_publ_section_title
;
Structure prediction by ZEFSAII (Michael W. Deem and Ramdas Pophale) SiO2 
 PCOD8024822
Probable space group: P -1
;
_chemical_formula_sum "Si O2"
_cell_formula_units_Z 14
_cell_length_a 16.711805
_cell_length_b 8.481487
_cell_length_c 14.421869
_cell_angle_alpha 54.721086
_cell_angle_beta 26.659991
_cell_angle_gamma 40.572162
_cell_volume 559.484071
_symmetry_space_group_name_H-M "P -1"
_symmetry_group_IT_number 2
_symmetry_cell_setting 'triclinic'
loop_
_space_group_symop_operation_xyz
x,y,z
-x,-y,-z
loop_
_atom_site_type_symbol
_atom_site_label
_atom_site_fract_x
_atom_site_fract_y
_atom_site_fract_z
Si Si1 0.480458 0.897865 0.723882
Si Si2 0.334329 0.432167 0.697376
Si Si3 0.191724 0.495384 0.618663
Si Si4 0.758469 0.114077 0.572422
Si Si5 0.121671 0.831306 0.142101
Si Si6 0.210395 0.489147 0.001712
Si Si7 0.852180 0.434995 0.632522
O O1 0.585569 0.797750 0.545086
O O2 0.852377 0.050042 0.388272
O O3 0.466627 0.132628 0.683877
O O4 0.228416 0.969032 0.971219
O O5 0.500000 0.500000 0.500000
O O6 0.184285 0.508799 0.733309
O O7 0.167659 0.593710 0.904663
O O8 0.235151 0.673282 0.467969
O O9 0.945561 0.591959 0.797880
O O10 0.662886 0.653261 0.684259
O O11 0.942479 0.850064 0.530988
O O12 0.487174 0.234560 0.818553
O O13 0.270770 0.597520 0.143788
O O14 0.114339 0.724546 0.088773
O O15 0.000000 0.500000 0.500000
#
# Coordination Sequence:
#
# PCOD8024822 Si02
#       7
#     2   2   2   2   2   2   2
#     4  12  24  49  75 109 151 196 249 308 373 440
#     4  12  26  47  76 105 151 195 253 312 362 442
#     4  12  26  46  74 114 145 201 249 302 374 440
#     4  10  24  47  72 108 153 182 254 293 374 439
#     4  10  24  47  75 110 151 193 244 305 374 444
#     4  12  24  47  76 107 154 193 246 305 368 443
#     4  10  23  43  74 109 149 192 243 306 371 444
#
# _framework density 25.023053999999998
#
# number of rings (size 3 to 8) (size 9 to 14) (size 15 to 20)
#    0.857    0.000    2.857    3.857    2.000    0.571 
#    0.000    5.714    0.000    0.000    0.000    0.000 
#    0.000    0.000    0.000    0.000    0.000    0.000 
#
# Total GULP energy -173447.675992 kJ/mol
# GULP energy per Si atom -12389.119714 kJ/mol
# Density = 2.496610 g / cm^3
# Si number density = 25.023054 Si / 1000 Ang^3
#
#
#
# Elastic Constant Matrix: (Units=GPa)
#
#
# Indices 1 2 3 4 5 6 
#
# 1 88.3391 37.4577 28.3633 -10.1815 -8.4786 18.4267
# 2 37.4577 122.1277 54.7646 -19.1175 -10.1719 16.1704
# 3 28.3633 54.7646 121.1600 -5.4765 -23.4763 3.9246
# 4 -10.1815 -19.1175 -5.4765 44.3770 8.2011 4.7913
# 5 -8.4786 -10.1719 -23.4763 8.2011 43.5017 2.8907
# 6 18.4267 16.1704 3.9246 4.7913 2.8907 33.8383
#
#
#
# Elastic Compliance Matrix: (Units=1/GPa)
#
#
# Indices 1 2 3 4 5 6 
#
# 1 0.014821 -0.002203 -0.001853 0.002764 0.001338 -0.007309
# 2 -0.002203 0.012371 -0.004847 0.004881 -0.000755 -0.004777
# 3 -0.001853 -0.004847 0.011710 -0.002213 0.005120 0.001843
# 4 0.002764 0.004881 -0.002213 0.026500 -0.004046 -0.006988
# 5 0.001338 -0.000755 0.005120 -0.004046 0.026775 -0.002676
# 6 -0.007309 -0.004777 0.001843 -0.006988 -0.002676 0.036819
#
#
# Mechanical properties :
#
#
# Convention : Reuss Voigt Hill
#
# Bulk Modulus (GPa) = 47.40090 63.64421 55.52255
# Shear Modulus (GPa) = 32.50255 38.41283 35.45769
#
# Velocity S-wave (km/s) = 3.60794 3.92228 3.76839
# Velocity P-wave (km/s) = 6.02829 6.78247 6.41647
#
# Compressibility (1/GPa) = 0.02109665
#
# Stress axis : x y z
#
# Youngs Moduli (GPa) = 67.47399 80.83504 85.39379
#
# Poissons Ratio (x) = 0.17807 0.15822
# Poissons Ratio (y) = 0.14864 0.41390
# Poissons Ratio (z) = 0.12501 0.39180
#
# Static dielectric constant tensor:
#      x y z
#    x 5.701680 -0.279370 -0.013070 
#    y -0.279370 4.975870 0.001290 
#    z -0.013070 0.001290 4.766590 
# 
# 
# High freq. dielectric constant tensor:
#      x y z
#    x 1.991680 0.019320 -0.003470 
#    y 0.019320 1.997740 -0.009950 
#    z -0.003470 -0.009950 2.002640 
# 
# From -- ./inp_files/577184.got.cif
#   From: 2010.06.25/outbox.cif.g09.slc.cpg/sg2_289_cif.got.tgz:577184.got - 2010.06.27 13:26:56.
