data_PCOD8024454
_publ_section_title
;
Structure prediction by ZEFSAII (Michael W. Deem and Ramdas Pophale) SiO2 
 PCOD8024454
Probable space group: P -1
;
_chemical_formula_sum "Si O2"
_cell_formula_units_Z 14
_cell_length_a 6.882924
_cell_length_b 10.283123
_cell_length_c 17.516597
_cell_angle_alpha 57.947372
_cell_angle_beta 51.152908
_cell_angle_gamma 43.408042
_cell_volume 656.982723
_symmetry_space_group_name_H-M "P -1"
_symmetry_group_IT_number 2
_symmetry_cell_setting 'triclinic'
loop_
_space_group_symop_operation_xyz
x,y,z
-x,-y,-z
loop_
_atom_site_type_symbol
_atom_site_label
_atom_site_fract_x
_atom_site_fract_y
_atom_site_fract_z
Si Si1 0.084964 0.124624 0.778172
Si Si2 0.178349 0.127299 0.585267
Si Si3 0.417427 0.941643 0.114461
Si Si4 0.438627 0.518155 0.420387
Si Si5 0.680717 0.810484 0.801928
Si Si6 0.069858 0.891738 0.595589
Si Si7 0.878045 0.610422 0.208706
O O1 0.245461 0.115988 0.661663
O O2 0.995185 0.317395 0.781278
O O3 0.788635 0.129971 0.833111
O O4 0.315683 0.939337 0.832031
O O5 0.929482 0.346985 0.550165
O O6 0.500000 0.000000 0.500000
O O7 0.009081 0.028727 0.638038
O O8 0.732772 0.762079 0.129085
O O9 0.253389 0.122576 0.156443
O O10 0.500000 0.000000 0.000000
O O11 0.500000 0.500000 0.500000
O O12 0.576684 0.303091 0.426405
O O13 0.615610 0.593851 0.312308
O O14 0.834028 0.838835 0.682343
O O15 0.827680 0.587272 0.838127
O O16 0.000000 0.000000 0.500000
#
# Coordination Sequence:
#
# PCOD8024454 Si02
#       7
#     2   2   2   2   2   2   2
#     4  11  23  43  66  95 134 169 223 273 325 395
#     4  12  24  37  59  96 131 174 221 267 323 392
#     4  11  24  46  72  97 131 172 217 276 336 389
#     4  11  23  39  61  89 132 178 217 263 323 387
#     4  10  23  43  67  96 132 173 216 272 329 386
#     4  11  21  39  62  87 131 177 217 264 325 382
#     4  10  24  44  66  95 136 173 217 275 327 388
#
# _framework density 21.309542
#
# number of rings (size 3 to 8) (size 9 to 14) (size 15 to 20)
#    0.000    1.143    4.286    1.714    4.000    5.714 
#    0.000    1.429    0.000    0.000    0.000    0.000 
#    0.000    0.000    0.000    0.000    0.000    0.000 
#
# Total GULP energy -173558.285705 kJ/mol
# GULP energy per Si atom -12397.020408 kJ/mol
# Density = 2.126104 g / cm^3
# Si number density = 21.309542 Si / 1000 Ang^3
#
#
#
# Elastic Constant Matrix: (Units=GPa)
#
#
# Indices 1 2 3 4 5 6 
#
# 1 100.9179 57.8975 26.1026 -1.5738 13.8958 7.2080
# 2 57.8975 184.0633 33.1049 -9.4161 12.2712 9.0361
# 3 26.1026 33.1049 100.3001 -6.1026 24.5601 3.1002
# 4 -1.5738 -9.4161 -6.1026 21.6318 -4.2167 1.3682
# 5 13.8958 12.2712 24.5601 -4.2167 26.0566 1.2691
# 6 7.2080 9.0361 3.1002 1.3682 1.2691 34.4448
#
#
#
# Elastic Compliance Matrix: (Units=1/GPa)
#
#
# Indices 1 2 3 4 5 6 
#
# 1 0.012943 -0.003587 -0.001192 -0.001703 -0.004295 -0.001434
# 2 -0.003587 0.006948 -0.001239 0.002535 0.000271 -0.001071
# 3 -0.001192 -0.001239 0.013542 0.000995 -0.011372 -0.000265
# 4 -0.001703 0.002535 0.000995 0.048984 0.006830 -0.002596
# 5 -0.004295 0.000271 -0.011372 0.006830 0.052382 -0.000350
# 6 -0.001434 -0.001071 -0.000265 -0.002596 -0.000350 0.029753
#
#
# Mechanical properties :
#
#
# Convention : Reuss Voigt Hill
#
# Bulk Modulus (GPa) = 46.73366 68.83237 57.78301
# Shear Modulus (GPa) = 27.21532 34.30505 30.76019
#
# Velocity S-wave (km/s) = 3.57759 4.01664 3.80346
# Velocity P-wave (km/s) = 6.24852 7.34047 6.81640
#
# Compressibility (1/GPa) = 0.02139785
#
# Stress axis : x y z
#
# Youngs Moduli (GPa) = 77.26455 143.92121 73.84224
#
# Poissons Ratio (x) = 0.51626 0.08801
# Poissons Ratio (y) = 0.27715 0.09147
# Poissons Ratio (z) = 0.09208 0.17828
#
# Static dielectric constant tensor:
#      x y z
#    x 4.009540 0.109130 0.144220 
#    y 0.109130 4.342630 -0.089160 
#    z 0.144220 -0.089160 3.702340 
# 
# 
# High freq. dielectric constant tensor:
#      x y z
#    x 1.836240 0.004790 0.010560 
#    y 0.004790 1.852280 -0.004930 
#    z 0.010560 -0.004930 1.814370 
# 
# From -- ./inp_files/314933.got.cif
#   From: 2010.06.25/outbox.cif.g09.slc.cpg/sg2_158_cif.got.tgz:314933.got - 2010.06.27 13:26:56.
