data_PCOD8024044
_publ_section_title
;
Structure prediction by ZEFSAII (Michael W. Deem and Ramdas Pophale) SiO2 
 PCOD8024044
Probable space group: P -1
;
_chemical_formula_sum "Si O2"
_cell_formula_units_Z 16
_cell_length_a 11.895879
_cell_length_b 17.715143
_cell_length_c 11.810385
_cell_angle_alpha 30.208919
_cell_angle_beta 110.203238
_cell_angle_gamma 130.984078
_cell_volume 768.082323
_symmetry_space_group_name_H-M "P -1"
_symmetry_group_IT_number 2
_symmetry_cell_setting 'triclinic'
loop_
_space_group_symop_operation_xyz
x,y,z
-x,-y,-z
loop_
_atom_site_type_symbol
_atom_site_label
_atom_site_fract_x
_atom_site_fract_y
_atom_site_fract_z
Si Si1 0.818165 0.681119 0.254927
Si Si2 0.461237 0.820821 0.145544
Si Si3 0.238046 0.810182 0.932376
Si Si4 0.791757 0.989110 0.131995
Si Si5 0.744881 0.614367 0.573573
Si Si6 0.044453 0.667096 0.641671
Si Si7 0.342351 0.964517 0.523675
Si Si8 0.343084 0.168535 0.066603
O O1 0.679166 0.414771 0.527662
O O2 0.824416 0.725141 0.333152
O O3 0.758564 0.769337 0.049070
O O4 0.010564 0.803513 0.120770
O O5 0.649703 0.904375 0.092623
O O6 0.367192 0.789555 0.037017
O O7 0.500000 0.000000 0.000000
O O8 0.226641 0.924496 0.876135
O O9 0.326980 0.970406 0.645116
O O10 0.034713 0.550421 0.172803
O O11 0.749899 0.777903 0.429186
O O12 0.534811 0.356292 0.820995
O O13 0.873597 0.615759 0.679278
O O14 0.146318 0.714229 0.732662
O O15 0.200598 0.904651 0.313564
O O16 0.500000 0.000000 0.500000
O O17 0.385896 0.165908 0.216992
#
# Coordination Sequence:
#
# PCOD8024044 Si02
#       8
#     2   2   2   2   2   2   2   2
#     4  12  23  42  65 100 130 175 224 266 336 386
#     4  10  24  42  65  97 139 168 216 269 334 395
#     4  11  23  46  63 100 134 179 211 276 334 379
#     4  11  25  41  67  97 139 171 214 273 331 394
#     4  12  22  41  68  96 133 173 218 274 325 390
#     4  10  23  42  69  96 130 164 232 267 323 392
#     4  10  23  43  70  96 131 170 229 268 323 391
#     4  10  24  39  67 100 124 168 228 273 320 380
#
# _framework density 20.831098000000001
#
# number of rings (size 3 to 8) (size 9 to 14) (size 15 to 20)
#    0.750    0.500    3.750    1.875    0.000    3.000 
#    6.750    3.125    0.000    0.000    0.000    0.000 
#    0.000    0.000    0.000    0.000    0.000    0.000 
#
# Total GULP energy -198282.256494 kJ/mol
# GULP energy per Si atom -12392.641031 kJ/mol
# Density = 2.078369 g / cm^3
# Si number density = 20.831098 Si / 1000 Ang^3
#
#
#
# Elastic Constant Matrix: (Units=GPa)
#
#
# Indices 1 2 3 4 5 6 
#
# 1 124.4057 58.2462 43.6955 -2.6322 -14.4652 16.8023
# 2 58.2462 107.7294 34.4083 6.0745 -5.4379 14.1002
# 3 43.6955 34.4083 88.2470 7.5472 -7.6714 -1.5718
# 4 -2.6322 6.0745 7.5472 39.4634 -0.3531 3.1254
# 5 -14.4652 -5.4379 -7.6714 -0.3531 37.8112 -5.8483
# 6 16.8023 14.1002 -1.5718 3.1254 -5.8483 40.1700
#
#
#
# Elastic Compliance Matrix: (Units=1/GPa)
#
#
# Indices 1 2 3 4 5 6 
#
# 1 0.012835 -0.005071 -0.004441 0.002794 0.002752 -0.003579
# 2 -0.005071 0.013262 -0.002651 -0.001672 -0.000996 -0.002653
# 3 -0.004441 -0.002651 0.015027 -0.003052 0.001533 0.003837
# 4 0.002794 -0.001672 -0.003052 0.026587 0.000030 -0.002766
# 5 0.002752 -0.000996 0.001533 0.000030 0.028188 0.003360
# 6 -0.003579 -0.002653 0.003837 -0.002766 0.003360 0.028177
#
#
# Mechanical properties :
#
#
# Convention : Reuss Voigt Hill
#
# Bulk Modulus (GPa) = 59.53292 65.89801 62.71547
# Shear Modulus (GPa) = 32.46704 35.75772 34.11238
#
# Velocity S-wave (km/s) = 3.95217 4.14763 4.05108
# Velocity P-wave (km/s) = 7.03329 7.39190 7.21482
#
# Compressibility (1/GPa) = 0.01679743
#
# Stress axis : x y z
#
# Youngs Moduli (GPa) = 77.91195 75.40212 66.54536
#
# Poissons Ratio (x) = 0.38237 0.29556
# Poissons Ratio (y) = 0.39510 0.17641
# Poissons Ratio (z) = 0.34604 0.19989
#
# Static dielectric constant tensor:
#      x y z
#    x 3.880820 0.496770 0.069080 
#    y 0.496770 3.990730 -0.106540 
#    z 0.069080 -0.106540 3.924410 
# 
# 
# High freq. dielectric constant tensor:
#      x y z
#    x 1.812350 0.031080 0.005070 
#    y 0.031080 1.806620 -0.012260 
#    z 0.005070 -0.012260 1.824560 
# 
# From -- ./inp_files/436396.got.cif
#   From: 2010.06.25/outbox.cif.g09.slc.cpg/sg2_219_cif.got.tgz:436396.got - 2010.06.27 13:26:56.
