data_PCOD8024992
_publ_section_title
;
Structure prediction by ZEFSAII (Michael W. Deem and Ramdas Pophale) SiO2 
 PCOD8024992
Probable space group: P -1
;
_chemical_formula_sum "Si O2"
_cell_formula_units_Z 14
_cell_length_a 19.196355
_cell_length_b 5.078778
_cell_length_c 12.237993
_cell_angle_alpha 83.199195
_cell_angle_beta 143.485997
_cell_angle_gamma 82.171257
_cell_volume 648.632769
_symmetry_space_group_name_H-M "P -1"
_symmetry_group_IT_number 2
_symmetry_cell_setting 'triclinic'
loop_
_space_group_symop_operation_xyz
x,y,z
-x,-y,-z
loop_
_atom_site_type_symbol
_atom_site_label
_atom_site_fract_x
_atom_site_fract_y
_atom_site_fract_z
Si Si1 0.518262 0.339411 0.209543
Si Si2 0.945875 0.965501 0.732121
Si Si3 0.808732 0.520453 0.885872
Si Si4 0.353011 0.998571 0.988410
Si Si5 0.736544 0.437099 0.566528
Si Si6 0.715811 0.907050 0.340262
Si Si7 0.188735 0.006407 0.980408
O O1 0.419674 0.665598 0.055341
O O2 0.619385 0.331716 0.432343
O O3 0.445738 0.129218 0.157329
O O4 0.601715 0.212169 0.211450
O O5 0.852288 0.925700 0.525778
O O6 0.037296 0.657183 0.914318
O O7 0.034678 0.108342 0.777522
O O8 0.866666 0.162290 0.722063
O O9 0.751346 0.588366 0.688863
O O10 0.746827 0.327369 0.883539
O O11 0.771252 0.819169 0.885868
O O12 0.236088 0.046748 0.919232
O O13 0.298232 0.172741 0.798864
O O14 0.705047 0.661061 0.416076
#
# Coordination Sequence:
#
# PCOD8024992 Si02
#       7
#     2   2   2   2   2   2   2
#     4  11  25  43  67  98 125 173 215 268 320 368
#     4   9  23  40  67 100 127 167 212 263 330 375
#     4  10  23  44  67  93 134 166 213 266 318 382
#     4  12  25  45  67  91 137 171 213 263 314 390
#     4  11  23  42  69 102 125 163 220 272 324 365
#     4  11  24  40  72 100 126 165 216 272 326 367
#     4  10  24  44  64  94 131 178 210 249 328 384
#
# _framework density 21.583860000000001
#
# number of rings (size 3 to 8) (size 9 to 14) (size 15 to 20)
#    0.857    0.571    1.429    3.000    8.000    1.714 
#    0.000    5.714    0.000    0.000    0.000    0.000 
#    0.000    0.000    0.000    0.000    0.000    0.000 
#
# Total GULP energy -173532.489311 kJ/mol
# GULP energy per Si atom -12395.177808 kJ/mol
# Density = 2.153473 g / cm^3
# Si number density = 21.583860 Si / 1000 Ang^3
#
#
#
# Elastic Constant Matrix: (Units=GPa)
#
#
# Indices 1 2 3 4 5 6 
#
# 1 77.8439 17.9382 39.7218 21.9331 1.8745 14.3530
# 2 17.9382 100.7403 15.5668 17.5723 10.1752 14.8830
# 3 39.7218 15.5668 62.2357 16.6402 4.7604 0.2018
# 4 21.9331 17.5723 16.6402 31.6790 7.4841 0.1539
# 5 1.8745 10.1752 4.7604 7.4841 20.2287 5.9192
# 6 14.3530 14.8830 0.2018 0.1539 5.9192 26.7987
#
#
#
# Elastic Compliance Matrix: (Units=1/GPa)
#
#
# Indices 1 2 3 4 5 6 
#
# 1 0.026798 0.001418 -0.014418 -0.014160 0.010488 -0.017266
# 2 0.001418 0.012320 -0.002169 -0.006320 -0.001359 -0.007249
# 3 -0.014418 -0.002169 0.026626 -0.001361 -0.006298 0.010125
# 4 -0.014160 -0.006320 -0.001361 0.049753 -0.017919 0.014776
# 5 0.010488 -0.001359 -0.006298 -0.017919 0.062688 -0.018559
# 6 -0.017266 -0.007249 0.010125 0.014776 -0.018559 0.054526
#
#
# Mechanical properties :
#
#
# Convention : Reuss Voigt Hill
#
# Bulk Modulus (GPa) = 28.24566 43.03040 35.63803
# Shear Modulus (GPa) = 18.19166 26.91418 22.55292
#
# Velocity S-wave (km/s) = 2.90631 3.53506 3.23599
# Velocity P-wave (km/s) = 4.93732 6.05325 5.52354
#
# Compressibility (1/GPa) = 0.03540367
#
# Stress axis : x y z
#
# Youngs Moduli (GPa) = 37.31683 81.17066 37.55743
#
# Poissons Ratio (x) = -0.11509 0.54152
# Poissons Ratio (y) = -0.05291 0.08147
# Poissons Ratio (z) = 0.53805 0.17608
#
# Static dielectric constant tensor:
#      x y z
#    x 3.668410 0.060690 0.242130 
#    y 0.060690 4.009110 0.140930 
#    z 0.242130 0.140930 3.677760 
# 
# 
# High freq. dielectric constant tensor:
#      x y z
#    x 1.823460 0.005250 0.015000 
#    y 0.005250 1.863390 0.011770 
#    z 0.015000 0.011770 1.833860 
# 
# From -- ./inp_files/364309.got.cif
#   From: 2010.06.25/outbox.cif.g09.slc.cpg/sg2_183_cif.got.tgz:364309.got - 2010.06.27 13:26:56.
