data_PCOD8024660
_publ_section_title
;
Structure prediction by ZEFSAII (Michael W. Deem and Ramdas Pophale) SiO2 
 PCOD8024660
Probable space group: P -1
;
_chemical_formula_sum "Si O2"
_cell_formula_units_Z 14
_cell_length_a 15.737965
_cell_length_b 9.430772
_cell_length_c 11.909177
_cell_angle_alpha 127.700812
_cell_angle_beta 28.873973
_cell_angle_gamma 135.294352
_cell_volume 600.125683
_symmetry_space_group_name_H-M "P -1"
_symmetry_group_IT_number 2
_symmetry_cell_setting 'triclinic'
loop_
_space_group_symop_operation_xyz
x,y,z
-x,-y,-z
loop_
_atom_site_type_symbol
_atom_site_label
_atom_site_fract_x
_atom_site_fract_y
_atom_site_fract_z
Si Si1 0.300532 0.843283 0.710652
Si Si2 0.571344 0.540074 0.809595
Si Si3 0.625339 0.893207 0.772335
Si Si4 0.981641 0.725337 0.505812
Si Si5 0.586297 0.346621 0.301142
Si Si6 0.048153 0.411657 0.160843
Si Si7 0.198599 0.185963 0.022364
O O1 0.359143 0.741004 0.694710
O O2 0.165632 0.678135 0.695793
O O3 0.500000 0.000000 0.500000
O O4 0.172088 0.959497 0.955469
O O5 0.528445 0.703970 0.875495
O O6 0.807805 0.633570 0.569181
O O7 0.500000 0.500000 0.000000
O O8 0.437539 0.327997 0.799414
O O9 0.588319 0.830594 0.653818
O O10 0.855015 0.048503 0.604107
O O11 0.500000 0.000000 0.000000
O O12 0.061081 0.556476 0.323006
O O13 0.886555 0.740228 0.739705
O O14 0.500000 0.500000 0.500000
O O15 0.788355 0.450561 0.049546
O O16 0.087850 0.224693 0.063284
#
# Coordination Sequence:
#
# PCOD8024660 Si02
#       7
#     2   2   2   2   2   2   2
#     4  12  29  48  73 105 143 192 242 291 353 429
#     4  10  23  43  70 104 148 176 231 290 360 416
#     4  12  25  46  73 104 142 184 243 292 354 421
#     4  11  25  41  77 110 143 181 236 293 362 412
#     4  12  29  49  73 100 147 192 239 294 355 420
#     4  12  25  49  73 103 148 186 238 292 362 421
#     4  11  24  47  74 109 141 186 237 297 355 424
#
# _framework density 23.328444999999999
#
# number of rings (size 3 to 8) (size 9 to 14) (size 15 to 20)
#    0.000    0.571    2.857    3.429   10.000    2.286 
#    0.000    0.000    0.000    0.000    0.000    0.000 
#    0.000    0.000    0.000    0.000    0.000    0.000 
#
# Total GULP energy -173458.633604 kJ/mol
# GULP energy per Si atom -12389.902400 kJ/mol
# Density = 2.327535 g / cm^3
# Si number density = 23.328445 Si / 1000 Ang^3
#
#
#
# Elastic Constant Matrix: (Units=GPa)
#
#
# Indices 1 2 3 4 5 6 
#
# 1 147.6272 60.0234 35.4277 4.7448 -6.8163 -10.8826
# 2 60.0234 130.2233 38.1349 12.1972 3.3646 1.6254
# 3 35.4277 38.1349 95.8027 -7.0553 1.6130 12.3534
# 4 4.7448 12.1972 -7.0553 49.2172 8.9798 -7.7409
# 5 -6.8163 3.3646 1.6130 8.9798 27.6459 -2.9352
# 6 -10.8826 1.6254 12.3534 -7.7409 -2.9352 51.5916
#
#
#
# Elastic Compliance Matrix: (Units=1/GPa)
#
#
# Indices 1 2 3 4 5 6 
#
# 1 0.009187 -0.003600 -0.002411 -0.000510 0.003301 0.002740
# 2 -0.003600 0.010470 -0.002894 -0.002569 -0.001249 -0.000853
# 3 -0.002411 -0.002894 0.013144 0.002727 -0.002243 -0.003283
# 4 -0.000510 -0.002569 0.002727 0.023085 -0.007219 0.002373
# 5 0.003301 -0.001249 -0.002243 -0.007219 0.039874 0.002458
# 6 0.002740 -0.000853 -0.003283 0.002373 0.002458 0.021270
#
#
# Mechanical properties :
#
#
# Convention : Reuss Voigt Hill
#
# Bulk Modulus (GPa) = 66.71229 71.20279 68.95754
# Shear Modulus (GPa) = 35.75612 41.69542 38.72577
#
# Velocity S-wave (km/s) = 3.91925 4.23226 4.07876
# Velocity P-wave (km/s) = 7.00998 7.38043 7.19759
#
# Compressibility (1/GPa) = 0.01498974
#
# Stress axis : x y z
#
# Youngs Moduli (GPa) = 108.85070 95.51409 76.08275
#
# Poissons Ratio (x) = 0.34387 0.18341
# Poissons Ratio (y) = 0.39189 0.22021
# Poissons Ratio (z) = 0.26240 0.27645
#
# Static dielectric constant tensor:
#      x y z
#    x 4.495660 0.541560 -0.432100 
#    y 0.541560 2.997890 1.124050 
#    z -0.432100 1.124050 3.594770 
# 
# 
# High freq. dielectric constant tensor:
#      x y z
#    x 1.924460 0.007530 -0.015680 
#    y 0.007530 1.935980 0.001690 
#    z -0.015680 0.001690 1.931250 
# 
# From -- ./inp_files/240848.got.cif
#   From: 2010.06.25/outbox.cif.g09.slc.cpg/sg2_121_cif.got.tgz:240848.got - 2010.06.27 13:26:56.
