data_PCOD8024003
_publ_section_title
;
Structure prediction by ZEFSAII (Michael W. Deem and Ramdas Pophale) SiO2 
 PCOD8024003
Probable space group: P -1
;
_chemical_formula_sum "Si O2"
_cell_formula_units_Z 10
_cell_length_a 8.974070
_cell_length_b 4.990933
_cell_length_c 12.688121
_cell_angle_alpha 65.244159
_cell_angle_beta 59.208073
_cell_angle_gamma 52.807438
_cell_volume 383.894059
_symmetry_space_group_name_H-M "P -1"
_symmetry_group_IT_number 2
_symmetry_cell_setting 'triclinic'
loop_
_space_group_symop_operation_xyz
x,y,z
-x,-y,-z
loop_
_atom_site_type_symbol
_atom_site_label
_atom_site_fract_x
_atom_site_fract_y
_atom_site_fract_z
Si Si1 0.507030 0.477877 0.752074
Si Si2 0.228064 0.265805 0.487897
Si Si3 0.248247 0.592994 0.635362
Si Si4 0.284881 0.707779 0.993151
Si Si5 0.838547 0.831183 0.854941
O O1 0.637811 0.654533 0.651409
O O2 0.414885 0.399727 0.695764
O O3 0.320411 0.739148 0.851148
O O4 0.639404 0.118339 0.821472
O O5 0.266037 0.321999 0.586630
O O6 0.000000 0.500000 0.500000
O O7 0.290258 0.871688 0.517291
O O8 0.027846 0.796475 0.730601
O O9 0.156443 0.523966 0.090517
O O10 0.161846 0.069613 0.037780
O O11 0.500000 0.500000 0.000000
#
# Coordination Sequence:
#
# PCOD8024003 Si02
#       5
#     2   2   2   2   2
#     4  11  25  44  72  98 139 175 225 278 328 396
#     4  12  26  47  70  97 137 179 222 278 338 395
#     4  12  27  44  70 104 131 178 226 275 333 399
#     4  10  23  42  69 100 132 181 218 269 335 397
#     4  11  24  44  69  98 139 173 223 269 337 394
#
# _framework density 26.048853999999999
#
# number of rings (size 3 to 8) (size 9 to 14) (size 15 to 20)
#    0.000    0.800    2.000    5.400    2.800    8.000 
#    0.000    0.000    0.000    0.000    0.000    0.000 
#    0.000    0.000    0.000    0.000    0.000    0.000 
#
# Total GULP energy -124060.336575 kJ/mol
# GULP energy per Si atom -12406.033658 kJ/mol
# Density = 2.598957 g / cm^3
# Si number density = 26.048854 Si / 1000 Ang^3
#
#
#
# Elastic Constant Matrix: (Units=GPa)
#
#
# Indices 1 2 3 4 5 6 
#
# 1 117.0134 16.7722 46.3232 -8.1974 -2.5831 16.0372
# 2 16.7722 53.5259 3.2780 12.1897 -4.4777 18.2834
# 3 46.3232 3.2780 114.5208 20.3218 -6.8598 0.0888
# 4 -8.1974 12.1897 20.3218 26.5400 -2.6900 1.2172
# 5 -2.5831 -4.4777 -6.8598 -2.6900 36.5510 -3.5106
# 6 16.0372 18.2834 0.0888 1.2172 -3.5106 37.8894
#
#
#
# Elastic Compliance Matrix: (Units=1/GPa)
#
#
# Indices 1 2 3 4 5 6 
#
# 1 0.013787 -0.005598 -0.007728 0.012854 -0.000560 -0.003581
# 2 -0.005598 0.027786 0.004666 -0.017426 0.001608 -0.010341
# 3 -0.007728 0.004666 0.014599 -0.015604 0.001775 0.001651
# 4 0.012854 -0.017426 -0.015604 0.061601 0.000481 0.001070
# 5 -0.000560 0.001608 0.001775 0.000481 0.028081 0.002043
# 6 -0.003581 -0.010341 0.001651 0.001070 0.002043 0.033049
#
#
# Mechanical properties :
#
#
# Convention : Reuss Voigt Hill
#
# Bulk Modulus (GPa) = 25.73961 46.42297 36.08129
# Shear Modulus (GPa) = 23.90354 34.77520 29.33937
#
# Velocity S-wave (km/s) = 3.03255 3.65773 3.35971
# Velocity P-wave (km/s) = 4.70792 5.97485 5.37882
#
# Compressibility (1/GPa) = 0.03885063
#
# Stress axis : x y z
#
# Youngs Moduli (GPa) = 72.53312 35.98911 68.49997
#
# Poissons Ratio (x) = 0.20146 0.52939
# Poissons Ratio (y) = 0.40603 -0.31959
# Poissons Ratio (z) = 0.56056 -0.16791
#
# Static dielectric constant tensor:
#      x y z
#    x 5.011850 0.043490 -0.020520 
#    y 0.043490 4.838170 0.597120 
#    z -0.020520 0.597120 5.188920 
# 
# 
# High freq. dielectric constant tensor:
#      x y z
#    x 2.060980 0.000780 -0.007720 
#    y 0.000780 2.039390 0.017950 
#    z -0.007720 0.017950 2.052440 
# 
# From -- ./inp_files/75100.got.cif
#   From: 2010.06.25/outbox.cif.g09.slc.cpg/sg2_38_cif.got.tgz:75100.got - 2010.06.27 13:26:56.
