data_PCOD8024586
_publ_section_title
;
Structure prediction by ZEFSAII (Michael W. Deem and Ramdas Pophale) SiO2 
 PCOD8024586
Probable space group: P -1
;
_chemical_formula_sum "Si O2"
_cell_formula_units_Z 12
_cell_length_a 6.989625
_cell_length_b 14.427168
_cell_length_c 16.300262
_cell_angle_alpha 150.200143
_cell_angle_beta 40.160341
_cell_angle_gamma 138.618248
_cell_volume 506.989488
_symmetry_space_group_name_H-M "P -1"
_symmetry_group_IT_number 2
_symmetry_cell_setting 'triclinic'
loop_
_space_group_symop_operation_xyz
x,y,z
-x,-y,-z
loop_
_atom_site_type_symbol
_atom_site_label
_atom_site_fract_x
_atom_site_fract_y
_atom_site_fract_z
Si Si1 0.018085 0.091972 0.817905
Si Si2 0.696693 0.491424 0.697236
Si Si3 0.737106 0.677707 0.654592
Si Si4 0.645538 0.319438 0.822820
Si Si5 0.931032 0.410854 0.206699
Si Si6 0.950313 0.828463 0.317551
O O1 0.385269 0.124100 0.735850
O O2 0.958742 0.077465 0.728926
O O3 0.838868 0.906336 0.784798
O O4 0.900592 0.265797 0.028222
O O5 0.663945 0.620165 0.729624
O O6 0.393524 0.316945 0.679448
O O7 0.996217 0.408590 0.531421
O O8 0.814301 0.632454 0.845692
O O9 0.408934 0.602292 0.656479
O O10 0.926811 0.366657 0.701008
O O11 0.801939 0.294069 0.839171
O O12 0.500000 0.500000 0.000000
O O13 0.000000 0.000000 0.500000
#
# Coordination Sequence:
#
# PCOD8024586 Si02
#       6
#     2   2   2   2   2   2
#     4  11  26  44  71 106 140 178 237 291 346 409
#     4  11  25  44  72 101 140 188 234 280 354 422
#     4  11  25  44  68 103 145 184 228 287 350 419
#     4  10  23  43  69 102 136 182 228 285 344 412
#     4  11  23  44  72 100 140 185 229 290 348 416
#     4  12  26  44  74 107 140 184 237 292 349 418
#
# _framework density 23.669129999999999
#
# number of rings (size 3 to 8) (size 9 to 14) (size 15 to 20)
#    0.000    1.000    3.333    2.000    2.333   11.333 
#    0.000    0.000    0.000    0.000    0.000    0.000 
#    0.000    0.000    0.000    0.000    0.000    0.000 
#
# Total GULP energy -148668.486573 kJ/mol
# GULP energy per Si atom -12389.040548 kJ/mol
# Density = 2.361526 g / cm^3
# Si number density = 23.669130 Si / 1000 Ang^3
#
#
#
# Elastic Constant Matrix: (Units=GPa)
#
#
# Indices 1 2 3 4 5 6 
#
# 1 163.0950 62.5338 42.9122 11.4556 -4.9255 14.0953
# 2 62.5338 159.7212 25.7092 5.5657 -10.5317 11.4545
# 3 42.9122 25.7092 67.8770 -5.5902 1.1196 2.6077
# 4 11.4556 5.5657 -5.5902 16.5916 -4.7255 -5.3846
# 5 -4.9255 -10.5317 1.1196 -4.7255 37.9451 -12.0019
# 6 14.0953 11.4545 2.6077 -5.3846 -12.0019 51.0028
#
#
#
# Elastic Compliance Matrix: (Units=1/GPa)
#
#
# Indices 1 2 3 4 5 6 
#
# 1 0.009351 -0.002313 -0.005633 -0.008944 -0.001336 -0.003035
# 2 -0.002313 0.007609 -0.001521 -0.001314 0.001443 -0.000791
# 3 -0.005633 -0.001521 0.019758 0.011920 0.000461 0.002255
# 4 -0.008944 -0.001314 0.011920 0.078682 0.012134 0.013320
# 5 -0.001336 0.001443 0.000461 0.012134 0.030781 0.008546
# 6 -0.003035 -0.000791 0.002255 0.013320 0.008546 0.023925
#
#
# Mechanical properties :
#
#
# Convention : Reuss Voigt Hill
#
# Bulk Modulus (GPa) = 56.23694 72.55596 64.39645
# Shear Modulus (GPa) = 25.64512 38.41046 32.02779
#
# Velocity S-wave (km/s) = 3.29520 4.03278 3.68250
# Velocity P-wave (km/s) = 6.18781 7.23914 6.73403
#
# Compressibility (1/GPa) = 0.01778191
#
# Stress axis : x y z
#
# Youngs Moduli (GPa) = 106.94503 131.42351 50.61322
#
# Poissons Ratio (x) = 0.30397 0.28512
# Poissons Ratio (y) = 0.24735 0.07700
# Poissons Ratio (z) = 0.60246 0.19994
#
# Static dielectric constant tensor:
#      x y z
#    x 4.841980 0.291750 -0.084820 
#    y 0.291750 4.784620 -0.245330 
#    z -0.084820 -0.245330 3.956630 
# 
# 
# High freq. dielectric constant tensor:
#      x y z
#    x 1.961570 0.009850 -0.006690 
#    y 0.009850 1.953870 -0.016290 
#    z -0.006690 -0.016290 1.915120 
# 
# From -- ./inp_files/95584.got.cif
#   From: 2010.06.25/outbox.cif.g09.slc.cpg/sg2_48_cif.got.tgz:95584.got - 2010.06.27 13:26:56.
