data_PCOD8024854
_publ_section_title
;
Structure prediction by ZEFSAII (Michael W. Deem and Ramdas Pophale) SiO2 
 PCOD8024854
Probable space group: P -1
;
_chemical_formula_sum "Si O2"
_cell_formula_units_Z 16
_cell_length_a 11.974465
_cell_length_b 17.264600
_cell_length_c 19.995692
_cell_angle_alpha 21.045688
_cell_angle_beta 139.587886
_cell_angle_gamma 149.339505
_cell_volume 737.399312
_symmetry_space_group_name_H-M "P -1"
_symmetry_group_IT_number 2
_symmetry_cell_setting 'triclinic'
loop_
_space_group_symop_operation_xyz
x,y,z
-x,-y,-z
loop_
_atom_site_type_symbol
_atom_site_label
_atom_site_fract_x
_atom_site_fract_y
_atom_site_fract_z
Si Si1 0.449425 0.058970 0.002319
Si Si2 0.597993 0.147825 0.354366
Si Si3 0.904131 0.612179 0.817693
Si Si4 0.915950 0.104430 0.467607
Si Si5 0.027307 0.254490 0.912605
Si Si6 0.136106 0.563695 0.419488
Si Si7 0.222014 0.956534 0.240526
Si Si8 0.687777 0.486786 0.578350
O O1 0.650313 0.368051 0.872590
O O2 0.500000 0.000000 0.000000
O O3 0.432220 0.840217 0.218156
O O4 0.205365 0.980330 0.962875
O O5 0.679464 0.995031 0.477670
O O6 0.801910 0.480799 0.175235
O O7 0.500000 0.000000 0.500000
O O8 0.408376 0.122202 0.248351
O O9 0.056592 0.766675 0.696884
O O10 0.908758 0.839192 0.677803
O O11 0.000000 0.500000 0.000000
O O12 0.114440 0.343118 0.414795
O O13 0.008870 0.400451 0.724005
O O14 0.145926 0.131529 0.040185
O O15 0.306075 0.871026 0.285963
O O16 0.234312 0.436584 0.524972
O O17 0.996643 0.334307 0.596862
O O18 0.500000 0.500000 0.500000
#
# Coordination Sequence:
#
# PCOD8024854 Si02
#       8
#     2   2   2   2   2   2   2   2
#     4  11  22  43  67 100 137 171 220 284 332 407
#     4  12  23  48  67  97 141 184 231 282 343 405
#     4  11  25  46  72 107 136 179 230 275 355 413
#     4  11  24  46  69  99 144 174 224 295 332 410
#     4  11  23  44  68  97 136 175 233 276 340 409
#     4  10  23  44  62 102 131 168 234 277 335 410
#     4  11  24  40  72  93 134 180 225 286 335 396
#     4  11  22  41  70  95 135 178 219 275 345 410
#
# _framework density 21.697877999999999
#
# number of rings (size 3 to 8) (size 9 to 14) (size 15 to 20)
#    0.000    1.000    5.000    1.500    1.750    6.000 
#   13.500    0.000    0.000    0.000    0.000    0.000 
#    0.000    0.000    0.000    0.000    0.000    0.000 
#
# Total GULP energy -198214.400716 kJ/mol
# GULP energy per Si atom -12388.400045 kJ/mol
# Density = 2.164849 g / cm^3
# Si number density = 21.697878 Si / 1000 Ang^3
#
#
#
# Elastic Constant Matrix: (Units=GPa)
#
#
# Indices 1 2 3 4 5 6 
#
# 1 134.4435 29.2509 39.5591 0.9516 23.7221 0.9656
# 2 29.2509 67.8946 24.2225 -11.1855 13.0300 4.0409
# 3 39.5591 24.2225 95.2202 -3.1284 17.2906 2.3103
# 4 0.9516 -11.1855 -3.1284 33.0296 2.6305 4.1275
# 5 23.7221 13.0300 17.2906 2.6305 29.6384 1.4690
# 6 0.9656 4.0409 2.3103 4.1275 1.4690 35.1830
#
#
#
# Elastic Compliance Matrix: (Units=1/GPa)
#
#
# Indices 1 2 3 4 5 6 
#
# 1 0.009609 -0.002473 -0.002484 -0.001009 -0.005090 0.000514
# 2 -0.002473 0.019050 -0.002543 0.007031 -0.005409 -0.002552
# 3 -0.002484 -0.002543 0.013047 0.000860 -0.004562 -0.000407
# 4 -0.001009 0.007031 0.000860 0.033781 -0.005558 -0.004567
# 5 -0.005090 -0.005409 -0.004562 -0.005558 0.043351 -0.000098
# 6 0.000514 -0.002552 -0.000407 -0.004567 -0.000098 0.029268
#
#
# Mechanical properties :
#
#
# Convention : Reuss Voigt Hill
#
# Bulk Modulus (GPa) = 37.44657 53.73591 45.59124
# Shear Modulus (GPa) = 29.06806 33.20524 31.13665
#
# Velocity S-wave (km/s) = 3.66413 3.91621 3.79226
# Velocity P-wave (km/s) = 5.93268 6.72816 6.34291
#
# Compressibility (1/GPa) = 0.02670471
#
# Stress axis : x y z
#
# Youngs Moduli (GPa) = 104.07248 52.49316 76.64369
#
# Poissons Ratio (x) = 0.12984 0.19039
# Poissons Ratio (y) = 0.25741 0.19493
# Poissons Ratio (z) = 0.25852 0.13351
#
# Static dielectric constant tensor:
#      x y z
#    x 4.796630 -0.760230 -0.070070 
#    y -0.760230 5.201910 0.300280 
#    z -0.070070 0.300280 4.122640 
# 
# 
# High freq. dielectric constant tensor:
#      x y z
#    x 1.868830 -0.007870 0.008160 
#    y -0.007870 1.848640 -0.005540 
#    z 0.008160 -0.005540 1.852550 
# 
# From -- ./inp_files/595956.got.cif
#   From: 2010.06.25/outbox.cif.g09.slc.cpg/sg2_298_cif.got.tgz:595956.got - 2010.06.27 13:26:56.
