data_PCOD8024280
_publ_section_title
;
Structure prediction by ZEFSAII (Michael W. Deem and Ramdas Pophale) SiO2 
 PCOD8024280
Probable space group: P -1
;
_chemical_formula_sum "Si O2"
_cell_formula_units_Z 14
_cell_length_a 14.784285
_cell_length_b 8.926069
_cell_length_c 14.251649
_cell_angle_alpha 78.331634
_cell_angle_beta 151.472693
_cell_angle_gamma 120.381235
_cell_volume 626.956435
_symmetry_space_group_name_H-M "P -1"
_symmetry_group_IT_number 2
_symmetry_cell_setting 'triclinic'
loop_
_space_group_symop_operation_xyz
x,y,z
-x,-y,-z
loop_
_atom_site_type_symbol
_atom_site_label
_atom_site_fract_x
_atom_site_fract_y
_atom_site_fract_z
Si Si1 0.128632 0.763577 0.727527
Si Si2 0.521539 0.459759 0.175231
Si Si3 0.239790 0.680310 0.029181
Si Si4 0.862427 0.643693 0.811910
Si Si5 0.474948 0.240236 0.977434
Si Si6 0.371382 0.202217 0.490957
Si Si7 0.066256 0.257243 0.923956
O O1 0.254529 0.800913 0.939805
O O2 0.253411 0.706308 0.779047
O O3 0.812133 0.576397 0.461083
O O4 0.225908 0.988247 0.760294
O O5 0.433140 0.300220 0.030260
O O6 0.512070 0.630463 0.111622
O O7 0.313302 0.316995 0.087810
O O8 0.055523 0.430947 0.867020
O O9 0.123250 0.702037 0.010640
O O10 0.529080 0.783988 0.314690
O O11 0.620430 0.385649 0.627781
O O12 0.808765 0.747008 0.673581
O O13 0.899998 0.747215 0.933496
O O14 0.212224 0.970219 0.333054
#
# Coordination Sequence:
#
# PCOD8024280 Si02
#       7
#     2   2   2   2   2   2   2
#     4  11  24  44  69  93 130 167 209 261 321 376
#     4  11  24  43  68  96 128 162 215 265 312 380
#     4  11  25  41  64  98 129 168 212 257 315 379
#     4  10  24  42  64  93 130 171 213 256 311 375
#     4  10  24  46  65  97 122 169 213 261 323 370
#     4  10  23  43  64  90 134 165 213 263 304 378
#     4  11  23  43  64  97 129 169 210 260 319 368
#
# _framework density 22.330102
#
# number of rings (size 3 to 8) (size 9 to 14) (size 15 to 20)
#    0.000    1.429    1.429    3.000    8.000    3.429 
#   10.286    0.000    0.000    0.000    0.000    0.000 
#    0.000    0.000    0.000    0.000    0.000    0.000 
#
# Total GULP energy -173608.483188 kJ/mol
# GULP energy per Si atom -12400.605942 kJ/mol
# Density = 2.227928 g / cm^3
# Si number density = 22.330102 Si / 1000 Ang^3
#
#
#
# Elastic Constant Matrix: (Units=GPa)
#
#
# Indices 1 2 3 4 5 6 
#
# 1 95.6364 25.3829 18.0045 3.2501 -0.5143 -6.3689
# 2 25.3829 97.3322 42.7164 -0.0462 -11.0663 -12.2384
# 3 18.0045 42.7164 92.4968 7.3003 -15.9514 -4.0607
# 4 3.2501 -0.0462 7.3003 35.4183 -4.2057 -3.4059
# 5 -0.5143 -11.0663 -15.9514 -4.2057 21.7565 -3.6073
# 6 -6.3689 -12.2384 -4.0607 -3.4059 -3.6073 25.8849
#
#
#
# Elastic Compliance Matrix: (Units=1/GPa)
#
#
# Indices 1 2 3 4 5 6 
#
# 1 0.011456 -0.002516 -0.001288 -0.000923 -0.001960 0.001033
# 2 -0.002516 0.014666 -0.005325 0.002578 0.005077 0.006527
# 3 -0.001288 -0.005325 0.015074 -0.002011 0.007987 0.000379
# 4 -0.000923 0.002578 -0.002011 0.030046 0.006542 0.005542
# 5 -0.001960 0.005077 0.007987 0.006542 0.057620 0.012062
# 6 0.001033 0.006527 0.000379 0.005542 0.012062 0.044442
#
#
# Mechanical properties :
#
#
# Convention : Reuss Voigt Hill
#
# Bulk Modulus (GPa) = 43.59439 50.85255 47.22347
# Shear Modulus (GPa) = 25.09951 29.90272 27.50111
#
# Velocity S-wave (km/s) = 3.35628 3.66337 3.51318
# Velocity P-wave (km/s) = 5.88086 6.38093 6.13599
#
# Compressibility (1/GPa) = 0.02293873
#
# Stress axis : x y z
#
# Youngs Moduli (GPa) = 87.29018 68.18414 66.34093
#
# Poissons Ratio (x) = 0.17154 0.08545
# Poissons Ratio (y) = 0.21960 0.35325
# Poissons Ratio (z) = 0.11243 0.36307
#
# Static dielectric constant tensor:
#      x y z
#    x 3.946350 -0.101590 0.083660 
#    y -0.101590 4.098560 -0.115140 
#    z 0.083660 -0.115140 3.845040 
# 
# 
# High freq. dielectric constant tensor:
#      x y z
#    x 1.878390 -0.007220 0.003480 
#    y -0.007220 1.887600 -0.007440 
#    z 0.003480 -0.007440 1.868500 
# 
# From -- ./inp_files/528523.got.cif
#   From: 2010.06.25/outbox.cif.g09.slc.cpg/sg2_265_cif.got.tgz:528523.got - 2010.06.27 13:26:56.
