data_PCOD8024807
_publ_section_title
;
Structure prediction by ZEFSAII (Michael W. Deem and Ramdas Pophale) SiO2 
 PCOD8024807
Probable space group: P -1
;
_chemical_formula_sum "Si O2"
_cell_formula_units_Z 14
_cell_length_a 11.560357
_cell_length_b 9.734745
_cell_length_c 7.728665
_cell_angle_alpha 76.857850
_cell_angle_beta 76.535858
_cell_angle_gamma 128.855536
_cell_volume 573.045293
_symmetry_space_group_name_H-M "P -1"
_symmetry_group_IT_number 2
_symmetry_cell_setting 'triclinic'
loop_
_space_group_symop_operation_xyz
x,y,z
-x,-y,-z
loop_
_atom_site_type_symbol
_atom_site_label
_atom_site_fract_x
_atom_site_fract_y
_atom_site_fract_z
Si Si1 0.446967 0.113124 0.783548
Si Si2 0.083400 0.855361 0.001267
Si Si3 0.011494 0.675104 0.420119
Si Si4 0.176412 0.232554 0.395802
Si Si5 0.519335 0.665452 0.602292
Si Si6 0.396016 0.054561 0.213544
Si Si7 0.778230 0.740883 0.004364
O O1 0.520625 0.299720 0.581678
O O2 0.553395 0.063211 0.736364
O O3 0.450728 0.157596 0.973919
O O4 0.249599 0.919301 0.844583
O O5 0.990970 0.675341 0.221851
O O6 0.940643 0.771883 0.934656
O O7 0.151896 0.048892 0.026461
O O8 0.000000 0.500000 0.500000
O O9 0.861380 0.636477 0.577645
O O10 0.193191 0.891479 0.357484
O O11 0.297299 0.259517 0.488817
O O12 0.285715 0.315347 0.155688
O O13 0.000000 0.000000 0.500000
O O14 0.510298 0.774317 0.724001
O O15 0.369249 0.426292 0.761626
#
# Coordination Sequence:
#
# PCOD8024807 Si02
#       7
#     2   2   2   2   2   2   2
#     4  10  23  43  73  95 143 192 218 296 360 403
#     4  10  23  46  64 101 141 180 233 286 352 416
#     4  11  25  43  72 101 138 185 232 289 352 422
#     4  12  22  45  72 100 140 188 228 291 357 406
#     4  12  25  43  72 107 135 185 245 287 347 424
#     4  10  23  46  68 102 146 178 241 291 345 421
#     4  11  25  42  68 104 142 177 237 296 341 419
#
# _framework density 24.430876999999999
#
# number of rings (size 3 to 8) (size 9 to 14) (size 15 to 20)
#    0.000    1.143    2.857    2.571    4.000    5.143 
#    0.000    1.429    0.000    0.000    0.000    0.000 
#    0.000    0.000    0.000    0.000    0.000    0.000 
#
# Total GULP energy -173587.092171 kJ/mol
# GULP energy per Si atom -12399.078012 kJ/mol
# Density = 2.437527 g / cm^3
# Si number density = 24.430877 Si / 1000 Ang^3
#
#
#
# Elastic Constant Matrix: (Units=GPa)
#
#
# Indices 1 2 3 4 5 6 
#
# 1 128.4836 2.8702 39.4426 5.6948 8.0760 -9.5062
# 2 2.8702 57.0224 21.1395 8.1379 13.2590 -17.0172
# 3 39.4426 21.1395 135.2156 -8.1818 24.4531 -11.0837
# 4 5.6948 8.1379 -8.1818 28.4591 -3.3450 -1.7494
# 5 8.0760 13.2590 24.4531 -3.3450 48.8870 -1.3419
# 6 -9.5062 -17.0172 -11.0837 -1.7494 -1.3419 28.9687
#
#
#
# Elastic Compliance Matrix: (Units=1/GPa)
#
#
# Indices 1 2 3 4 5 6 
#
# 1 0.008981 0.002052 -0.002747 -0.003091 -0.000798 0.002878
# 2 0.002052 0.025085 -0.002840 -0.008262 -0.005915 0.013549
# 3 -0.002747 -0.002840 0.009557 0.003797 -0.003264 0.001165
# 4 -0.003091 -0.008262 0.003797 0.039508 0.003504 -0.001867
# 5 -0.000798 -0.005915 -0.003264 0.003504 0.023964 -0.003664
# 6 0.002878 0.013549 0.001165 -0.001867 -0.003664 0.043587
#
#
# Mechanical properties :
#
#
# Convention : Reuss Voigt Hill
#
# Bulk Modulus (GPa) = 27.35853 49.73625 38.54739
# Shear Modulus (GPa) = 29.42311 38.41425 33.91868
#
# Velocity S-wave (km/s) = 3.47413 3.96961 3.73010
# Velocity P-wave (km/s) = 5.22641 6.43526 5.86208
#
# Compressibility (1/GPa) = 0.03655168
#
# Stress axis : x y z
#
# Youngs Moduli (GPa) = 111.34995 39.86506 104.64073
#
# Poissons Ratio (x) = -0.08180 0.28747
# Poissons Ratio (y) = -0.22848 0.29716
# Poissons Ratio (z) = 0.30590 0.11321
#
# Static dielectric constant tensor:
#      x y z
#    x 5.027260 0.030750 0.038610 
#    y 0.030750 3.943200 0.076860 
#    z 0.038610 0.076860 4.494670 
# 
# 
# High freq. dielectric constant tensor:
#      x y z
#    x 2.000070 -0.004420 0.004870 
#    y -0.004420 1.937980 0.002590 
#    z 0.004870 0.002590 1.974610 
# 
# From -- ./inp_files/242972.got.cif
#   From: 2010.06.25/outbox.cif.g09.slc.cpg/sg2_122_cif.got.tgz:242972.got - 2010.06.27 13:26:56.
