data_PCOD8024593
_publ_section_title
;
Structure prediction by ZEFSAII (Michael W. Deem and Ramdas Pophale) SiO2 
 PCOD8024593
Probable space group: P -1
;
_chemical_formula_sum "Si O2"
_cell_formula_units_Z 14
_cell_length_a 18.080758
_cell_length_b 7.800206
_cell_length_c 11.131243
_cell_angle_alpha 82.683315
_cell_angle_beta 27.512023
_cell_angle_gamma 65.637104
_cell_volume 544.240925
_symmetry_space_group_name_H-M "P -1"
_symmetry_group_IT_number 2
_symmetry_cell_setting 'triclinic'
loop_
_space_group_symop_operation_xyz
x,y,z
-x,-y,-z
loop_
_atom_site_type_symbol
_atom_site_label
_atom_site_fract_x
_atom_site_fract_y
_atom_site_fract_z
Si Si1 0.043181 0.668983 0.418443
Si Si2 0.462610 0.660765 0.264403
Si Si3 0.363108 0.941243 0.153406
Si Si4 0.673405 0.617822 0.549968
Si Si5 0.717138 0.565811 0.236884
Si Si6 0.266953 0.834014 0.770679
Si Si7 0.053391 0.277685 0.185473
O O1 0.000000 0.500000 0.500000
O O2 0.987326 0.782984 0.621280
O O3 0.287926 0.528918 0.047579
O O4 0.888706 0.855239 0.521060
O O5 0.405266 0.761292 0.204209
O O6 0.359681 0.550017 0.433829
O O7 0.341526 0.849042 0.528878
O O8 0.451055 0.843366 0.901468
O O9 0.500000 0.000000 0.000000
O O10 0.755223 0.639740 0.303906
O O11 0.840101 0.521213 0.425462
O O12 0.468946 0.699549 0.577971
O O13 0.828840 0.296787 0.080091
O O14 0.787485 0.668988 0.034273
O O15 0.103654 0.088388 0.036448
#
# Coordination Sequence:
#
# PCOD8024593 Si02
#       7
#     2   2   2   2   2   2   2
#     4  12  25  47  72 109 139 192 238 290 368 423
#     4  11  25  49  70 102 152 178 239 304 342 437
#     4  12  25  44  74 104 141 188 235 295 360 423
#     4  11  25  47  67 108 141 184 246 292 356 427
#     4  10  23  43  69 102 143 188 239 295 354 430
#     4  10  24  46  71 106 140 191 240 293 361 423
#     4  12  24  45  74 102 149 187 240 298 355 428
#
# _framework density 25.723904000000001
#
# number of rings (size 3 to 8) (size 9 to 14) (size 15 to 20)
#    0.000    0.857    2.857    3.000    2.000    2.857 
#   18.000    0.000    0.000    0.000    0.000    0.000 
#    0.000    0.000    0.000    0.000    0.000    0.000 
#
# Total GULP energy -173475.827538 kJ/mol
# GULP energy per Si atom -12391.130538 kJ/mol
# Density = 2.566536 g / cm^3
# Si number density = 25.723904 Si / 1000 Ang^3
#
#
#
# Elastic Constant Matrix: (Units=GPa)
#
#
# Indices 1 2 3 4 5 6 
#
# 1 108.0446 5.4921 23.4204 8.2275 7.3531 -4.5379
# 2 5.4921 55.7416 13.5417 7.4810 8.3701 6.8177
# 3 23.4204 13.5417 80.7587 12.2742 10.2145 0.0012
# 4 8.2275 7.4810 12.2742 32.7691 -5.9423 -3.4563
# 5 7.3531 8.3701 10.2145 -5.9423 54.8471 14.2196
# 6 -4.5379 6.8177 0.0012 -3.4563 14.2196 41.0721
#
#
#
# Elastic Compliance Matrix: (Units=1/GPa)
#
#
# Indices 1 2 3 4 5 6 
#
# 1 0.010085 -0.000136 -0.002464 -0.001682 -0.001442 0.001495
# 2 -0.000136 0.019797 -0.002332 -0.004331 -0.002293 -0.002871
# 3 -0.002464 -0.002332 0.014547 -0.004719 -0.002704 0.000653
# 4 -0.001682 -0.004331 -0.004719 0.034798 0.005095 0.001697
# 5 -0.001442 -0.002293 -0.002704 0.005095 0.021602 -0.006829
# 6 0.001495 -0.002871 0.000653 0.001697 -0.006829 0.027496
#
#
# Mechanical properties :
#
#
# Convention : Reuss Voigt Hill
#
# Bulk Modulus (GPa) = 28.92973 36.60593 32.76783
# Shear Modulus (GPa) = 33.39770 39.21036 36.30403
#
# Velocity S-wave (km/s) = 3.60712 3.90843 3.76080
# Velocity P-wave (km/s) = 5.34968 5.88464 5.62353
#
# Compressibility (1/GPa) = 0.03456651
#
# Stress axis : x y z
#
# Youngs Moduli (GPa) = 99.15247 50.51381 68.74078
#
# Poissons Ratio (x) = 0.00685 0.16938
# Poissons Ratio (y) = 0.01344 0.16029
# Poissons Ratio (z) = 0.24432 0.11779
#
# Static dielectric constant tensor:
#      x y z
#    x 4.138440 0.287700 -0.129850 
#    y 0.287700 4.590940 -0.258450 
#    z -0.129850 -0.258450 4.135420 
# 
# 
# High freq. dielectric constant tensor:
#      x y z
#    x 2.051940 0.001480 0.010530 
#    y 0.001480 2.011720 -0.007570 
#    z 0.010530 -0.007570 2.027850 
# 
# From -- ./inp_files/461296.got.cif
#   From: 2010.06.25/outbox.cif.g09.slc.cpg/sg2_231_cif.got.tgz:461296.got - 2010.06.27 13:26:56.
