data_PCOD8024485
_publ_section_title
;
Structure prediction by ZEFSAII (Michael W. Deem and Ramdas Pophale) SiO2 
 PCOD8024485
Probable space group: P -1
;
_chemical_formula_sum "Si O2"
_cell_formula_units_Z 16
_cell_length_a 18.688810
_cell_length_b 16.376261
_cell_length_c 10.507183
_cell_angle_alpha 34.863673
_cell_angle_beta 34.355462
_cell_angle_gamma 24.019008
_cell_volume 707.087715
_symmetry_space_group_name_H-M "P -1"
_symmetry_group_IT_number 2
_symmetry_cell_setting 'triclinic'
loop_
_space_group_symop_operation_xyz
x,y,z
-x,-y,-z
loop_
_atom_site_type_symbol
_atom_site_label
_atom_site_fract_x
_atom_site_fract_y
_atom_site_fract_z
Si Si1 0.028760 0.908149 0.435478
Si Si2 0.983248 0.908781 0.023890
Si Si3 0.144192 0.225742 0.059031
Si Si4 0.344560 0.460771 0.060109
Si Si5 0.433473 0.805563 0.688090
Si Si6 0.249168 0.360869 0.941507
Si Si7 0.470829 0.092100 0.195570
Si Si8 0.430400 0.466560 0.409806
O O1 0.915559 0.853480 0.659418
O O2 0.954253 0.072863 0.225123
O O3 0.000000 0.000000 0.500000
O O4 0.240254 0.701269 0.350724
O O5 0.126169 0.661095 0.149997
O O6 0.777803 0.017062 0.182676
O O7 0.000000 0.000000 0.000000
O O8 0.963578 0.417834 0.992246
O O9 0.226912 0.291156 0.932726
O O10 0.316337 0.027982 0.975475
O O11 0.444683 0.380828 0.151214
O O12 0.364190 0.291834 0.183297
O O13 0.428954 0.521340 0.771772
O O14 0.466617 0.700808 0.640472
O O15 0.489963 0.923796 0.448051
O O16 0.380095 0.392811 0.688013
O O17 0.351457 0.180061 0.127490
#
# Coordination Sequence:
#
# PCOD8024485 Si02
#       8
#     2   2   2   2   2   2   2   2
#     4  11  25  44  73 109 148 181 232 306 357 409
#     4  12  27  45  75 105 137 194 242 287 352 428
#     4  10  23  43  68 100 146 181 226 288 357 415
#     4  12  27  44  69 104 136 186 234 291 355 410
#     4  12  26  49  69 100 146 187 237 288 346 434
#     4  10  24  42  68 108 133 187 233 285 346 427
#     4  12  27  43  72 102 144 180 234 289 359 419
#     4  11  22  46  73  99 143 180 236 289 343 427
#
# _framework density 22.628026999999999
#
# number of rings (size 3 to 8) (size 9 to 14) (size 15 to 20)
#    0.000    0.750    3.750    2.625    7.000    2.000 
#    0.000    0.000    0.000    0.000    0.000    0.000 
#    0.000    0.000    0.000    0.000    0.000    0.000 
#
# Total GULP energy -198392.160989 kJ/mol
# GULP energy per Si atom -12399.510062 kJ/mol
# Density = 2.257652 g / cm^3
# Si number density = 22.628027 Si / 1000 Ang^3
#
#
#
# Elastic Constant Matrix: (Units=GPa)
#
#
# Indices 1 2 3 4 5 6 
#
# 1 58.0314 22.3374 21.7751 -2.1977 9.9174 3.6226
# 2 22.3374 176.4968 38.7409 3.9458 7.9744 -8.3764
# 3 21.7751 38.7409 81.7135 4.5107 -3.1570 -6.8456
# 4 -2.1977 3.9458 4.5107 24.4804 6.8400 -9.8424
# 5 9.9174 7.9744 -3.1570 6.8400 24.1510 -5.5911
# 6 3.6226 -8.3764 -6.8456 -9.8424 -5.5911 40.7428
#
#
#
# Elastic Compliance Matrix: (Units=1/GPa)
#
#
# Indices 1 2 3 4 5 6 
#
# 1 0.022655 -0.001176 -0.006556 0.005321 -0.012144 -0.003739
# 2 -0.001176 0.006551 -0.002814 0.000203 -0.001929 0.000763
# 3 -0.006556 -0.002814 0.016065 -0.004091 0.007516 0.002747
# 4 0.005321 0.000203 -0.004091 0.049755 -0.014826 0.008866
# 5 -0.012144 -0.001929 0.007516 -0.014826 0.053534 0.005711
# 6 -0.003739 0.000763 0.002747 0.008866 0.005711 0.028421
#
#
# Mechanical properties :
#
#
# Convention : Reuss Voigt Hill
#
# Bulk Modulus (GPa) = 41.35737 53.54983 47.45360
# Shear Modulus (GPa) = 24.25622 33.43405 28.84513
#
# Velocity S-wave (km/s) = 3.27762 3.84806 3.57424
# Velocity P-wave (km/s) = 5.71319 6.59243 6.16849
#
# Compressibility (1/GPa) = 0.02417949
#
# Stress axis : x y z
#
# Youngs Moduli (GPa) = 44.14045 152.64277 62.24519
#
# Poissons Ratio (x) = 0.17950 0.40806
# Poissons Ratio (y) = 0.05191 0.17519
# Poissons Ratio (z) = 0.28937 0.42960
#
# Static dielectric constant tensor:
#      x y z
#    x 3.761200 -0.084420 -0.040470 
#    y -0.084420 4.465910 0.014200 
#    z -0.040470 0.014200 4.178800 
# 
# 
# High freq. dielectric constant tensor:
#      x y z
#    x 1.868900 -0.002070 -0.010880 
#    y -0.002070 1.919390 -0.002230 
#    z -0.010880 -0.002230 1.894810 
# 
# From -- ./inp_files/405643.got.cif
#   From: 2010.06.25/outbox.cif.g09.slc.cpg/sg2_203_cif.got.tgz:405643.got - 2010.06.27 13:26:56.
