data_PCOD8024966
_publ_section_title
;
Structure prediction by ZEFSAII (Michael W. Deem and Ramdas Pophale) SiO2 
 PCOD8024966
Probable space group: P -1
;
_chemical_formula_sum "Si O2"
_cell_formula_units_Z 14
_cell_length_a 11.970048
_cell_length_b 8.873476
_cell_length_c 9.021998
_cell_angle_alpha 107.091727
_cell_angle_beta 109.272365
_cell_angle_gamma 120.156500
_cell_volume 646.288223
_symmetry_space_group_name_H-M "P -1"
_symmetry_group_IT_number 2
_symmetry_cell_setting 'triclinic'
loop_
_space_group_symop_operation_xyz
x,y,z
-x,-y,-z
loop_
_atom_site_type_symbol
_atom_site_label
_atom_site_fract_x
_atom_site_fract_y
_atom_site_fract_z
Si Si1 0.997629 0.991327 0.247056
Si Si2 0.743176 0.754220 0.314599
Si Si3 0.986015 0.241790 0.068534
Si Si4 0.447573 0.115944 0.658135
Si Si5 0.676133 0.132910 0.979979
Si Si6 0.389589 0.677874 0.768644
Si Si7 0.307497 0.671806 0.410554
O O1 0.839783 0.826150 0.225700
O O2 0.978148 0.129162 0.179552
O O3 0.146106 0.140327 0.462853
O O4 0.026245 0.867551 0.118829
O O5 0.635415 0.813427 0.275727
O O6 0.630025 0.502079 0.203362
O O7 0.840748 0.234345 0.006155
O O8 0.146059 0.484163 0.203884
O O9 0.540696 0.257769 0.594299
O O10 0.315876 0.869265 0.485101
O O11 0.575477 0.150603 0.830593
O O12 0.706004 0.263119 0.177834
O O13 0.576282 0.886680 0.904506
O O14 0.314757 0.592309 0.548840
#
# Coordination Sequence:
#
# PCOD8024966 Si02
#       7
#     2   2   2   2   2   2   2
#     4  10  26  42  66 106 130 174 220 276 330 390
#     4  11  24  46  68  96 138 173 220 275 327 398
#     4  11  24  46  68  96 138 173 220 275 327 398
#     4  10  25  44  68 102 132 170 226 273 323 394
#     4  10  25  44  68 102 132 170 226 273 323 394
#     4  10  23  44  67 100 128 179 222 260 339 384
#     4  10  23  44  67 100 128 179 222 260 339 384
#
# _framework density 21.662161999999999
#
# number of rings (size 3 to 8) (size 9 to 14) (size 15 to 20)
#    0.000    1.714    1.429    0.000   14.000    6.857 
#    0.000    0.000    0.000    0.000    0.000    0.000 
#    0.000    0.000    0.000    0.000    0.000    0.000 
#
# Total GULP energy -173658.235852 kJ/mol
# GULP energy per Si atom -12404.159704 kJ/mol
# Density = 2.161286 g / cm^3
# Si number density = 21.662162 Si / 1000 Ang^3
#
#
#
# Elastic Constant Matrix: (Units=GPa)
#
#
# Indices 1 2 3 4 5 6 
#
# 1 93.3864 30.1391 3.6646 -11.6938 1.0052 7.5596
# 2 30.1391 111.4107 21.2969 3.9676 -3.4822 8.4776
# 3 3.6646 21.2969 53.0398 -10.7544 -6.7372 7.7698
# 4 -11.6938 3.9676 -10.7544 34.6888 6.0530 -3.2369
# 5 1.0052 -3.4822 -6.7372 6.0530 24.0523 -9.7458
# 6 7.5596 8.4776 7.7698 -3.2369 -9.7458 24.2264
#
#
#
# Elastic Compliance Matrix: (Units=1/GPa)
#
#
# Indices 1 2 3 4 5 6 
#
# 1 0.012960 -0.003888 0.001943 0.005672 -0.003609 -0.004001
# 2 -0.003888 0.011237 -0.004807 -0.004387 0.000994 -0.001364
# 3 0.001943 -0.004807 0.023103 0.007605 0.001942 -0.004536
# 4 0.005672 -0.004387 0.007605 0.034884 -0.008024 -0.001241
# 5 -0.003609 0.000994 0.001942 -0.008024 0.052643 0.020261
# 6 -0.004001 -0.001364 -0.004536 -0.001241 0.020261 0.052443
#
#
# Mechanical properties :
#
#
# Convention : Reuss Voigt Hill
#
# Bulk Modulus (GPa) = 29.58808 40.89314 35.24061
# Shear Modulus (GPa) = 23.58066 30.10925 26.84495
#
# Velocity S-wave (km/s) = 3.30292 3.73224 3.52413
# Velocity P-wave (km/s) = 5.31359 6.12303 5.73261
#
# Compressibility (1/GPa) = 0.03379740
#
# Stress axis : x y z
#
# Youngs Moduli (GPa) = 77.16273 88.98781 43.28465
#
# Poissons Ratio (x) = 0.34596 -0.08412
# Poissons Ratio (y) = 0.29999 0.20807
# Poissons Ratio (z) = -0.14996 0.42776
#
# Static dielectric constant tensor:
#      x y z
#    x 3.818550 0.200380 -0.249630 
#    y 0.200380 3.997040 -0.005460 
#    z -0.249630 -0.005460 3.937000 
# 
# 
# High freq. dielectric constant tensor:
#      x y z
#    x 1.840540 0.011170 -0.014080 
#    y 0.011170 1.861560 -0.002270 
#    z -0.014080 -0.002270 1.859220 
# 
# From -- ./inp_files/185413.got.cif
#   From: 2010.06.25/outbox.cif.g09.slc.cpg/sg2_93_cif.got.tgz:185413.got - 2010.06.27 13:26:56.
