data_PCOD8024737
_publ_section_title
;
Structure prediction by ZEFSAII (Michael W. Deem and Ramdas Pophale) SiO2 
 PCOD8024737
Probable space group: P -1
;
_chemical_formula_sum "Si O2"
_cell_formula_units_Z 16
_cell_length_a 11.763723
_cell_length_b 9.277146
_cell_length_c 15.369012
_cell_angle_alpha 129.292914
_cell_angle_beta 51.192263
_cell_angle_gamma 144.032615
_cell_volume 737.956094
_symmetry_space_group_name_H-M "P -1"
_symmetry_group_IT_number 2
_symmetry_cell_setting 'triclinic'
loop_
_space_group_symop_operation_xyz
x,y,z
-x,-y,-z
loop_
_atom_site_type_symbol
_atom_site_label
_atom_site_fract_x
_atom_site_fract_y
_atom_site_fract_z
Si Si1 0.579871 0.005345 0.684106
Si Si2 0.768316 0.470872 0.428533
Si Si3 0.232802 0.294675 0.305071
Si Si4 0.939773 0.556825 0.964202
Si Si5 0.098096 0.828285 0.281335
Si Si6 0.416882 0.486204 0.897798
Si Si7 0.679759 0.909092 0.078373
Si Si8 0.937642 0.528882 0.631082
O O1 0.712517 0.987379 0.674445
O O2 0.432314 0.997473 0.810604
O O3 0.721561 0.262075 0.658659
O O4 0.454194 0.765295 0.587452
O O5 0.756722 0.579469 0.562969
O O6 0.892918 0.691826 0.379809
O O7 0.890424 0.380620 0.348441
O O8 0.458207 0.469129 0.229295
O O9 0.094632 0.277943 0.292189
O O10 0.123847 0.002893 0.260275
O O11 0.903415 0.379063 0.836621
O O12 0.738101 0.495212 0.054432
O O13 0.101512 0.847978 0.967067
O O14 0.000000 0.500000 0.000000
O O15 0.306557 0.213399 0.890786
O O16 0.569413 0.708713 0.977308
O O17 0.000000 0.500000 0.500000
#
# Coordination Sequence:
#
# PCOD8024737 Si02
#       8
#     2   2   2   2   2   2   2   2
#     4  11  21  43  68  95 125 180 214 266 330 383
#     4  10  23  43  71  94 132 174 221 266 323 392
#     4  11  23  42  66 101 133 173 214 270 332 381
#     4  12  26  44  67 100 130 174 219 268 331 387
#     4  11  24  42  67  93 138 172 218 267 323 392
#     4  11  25  45  68  97 134 167 218 279 319 389
#     4  11  23  44  71  94 128 172 223 263 330 384
#     4   9  21  42  64  96 130 168 217 271 321 376
#
# _framework density 21.681507
#
# number of rings (size 3 to 8) (size 9 to 14) (size 15 to 20)
#    0.000    1.250    3.750    1.500    1.750    3.500 
#    4.500    6.250    0.000    0.000    0.000    0.000 
#    0.000    0.000    0.000    0.000    0.000    0.000 
#
# Total GULP energy -198430.538985 kJ/mol
# GULP energy per Si atom -12401.908687 kJ/mol
# Density = 2.163216 g / cm^3
# Si number density = 21.681507 Si / 1000 Ang^3
#
#
#
# Elastic Constant Matrix: (Units=GPa)
#
#
# Indices 1 2 3 4 5 6 
#
# 1 106.5930 64.1867 17.1254 -10.0321 -10.8614 -11.0237
# 2 64.1867 117.4209 26.6173 -9.9808 -2.6483 -16.4180
# 3 17.1254 26.6173 86.0309 -23.1279 -9.6619 -2.4932
# 4 -10.0321 -9.9808 -23.1279 38.5975 0.5013 3.9837
# 5 -10.8614 -2.6483 -9.6619 0.5013 29.0719 2.3729
# 6 -11.0237 -16.4180 -2.4932 3.9837 2.3729 40.6670
#
#
#
# Elastic Compliance Matrix: (Units=1/GPa)
#
#
# Indices 1 2 3 4 5 6 
#
# 1 0.014755 -0.007867 0.000618 0.002069 0.004935 0.000371
# 2 -0.007867 0.013899 -0.003146 -0.000661 -0.002995 0.003525
# 3 0.000618 -0.003146 0.015305 0.008587 0.004989 -0.001297
# 4 0.002069 -0.000661 0.008587 0.031633 0.003222 -0.002466
# 5 0.004935 -0.002995 0.004989 0.003222 0.037741 -0.002083
# 6 0.000371 0.003525 -0.001297 -0.002466 -0.002083 0.026398
#
#
# Mechanical properties :
#
#
# Convention : Reuss Voigt Hill
#
# Bulk Modulus (GPa) = 43.15991 58.43373 50.79682
# Shear Modulus (GPa) = 29.71857 35.14163 32.43010
#
# Velocity S-wave (km/s) = 3.70630 4.03030 3.87169
# Velocity P-wave (km/s) = 6.18588 6.97619 6.59288
#
# Compressibility (1/GPa) = 0.02316965
#
# Stress axis : x y z
#
# Youngs Moduli (GPa) = 67.77214 71.94721 65.33686
#
# Poissons Ratio (x) = 0.56600 -0.04037
# Poissons Ratio (y) = 0.53315 0.20556
# Poissons Ratio (z) = -0.04188 0.22635
#
# Static dielectric constant tensor:
#      x y z
#    x 4.237680 -0.168000 -0.131940 
#    y -0.168000 3.901230 -0.122930 
#    z -0.131940 -0.122930 3.905480 
# 
# 
# High freq. dielectric constant tensor:
#      x y z
#    x 1.853520 -0.009030 -0.004090 
#    y -0.009030 1.852870 -0.015030 
#    z -0.004090 -0.015030 1.856760 
# 
# From -- ./inp_files/566940.got.cif
#   From: 2010.06.25/outbox.cif.g09.slc.cpg/sg2_284_cif.got.tgz:566940.got - 2010.06.27 13:26:56.
