data_PCOD8024023
_publ_section_title
;
Structure prediction by ZEFSAII (Michael W. Deem and Ramdas Pophale) SiO2 
 PCOD8024023
Probable space group: P -1
;
_chemical_formula_sum "Si O2"
_cell_formula_units_Z 16
_cell_length_a 9.488575
_cell_length_b 14.153038
_cell_length_c 14.159657
_cell_angle_alpha 39.012411
_cell_angle_beta 98.906840
_cell_angle_gamma 128.539271
_cell_volume 696.079096
_symmetry_space_group_name_H-M "P -1"
_symmetry_group_IT_number 2
_symmetry_cell_setting 'triclinic'
loop_
_space_group_symop_operation_xyz
x,y,z
-x,-y,-z
loop_
_atom_site_type_symbol
_atom_site_label
_atom_site_fract_x
_atom_site_fract_y
_atom_site_fract_z
Si Si1 0.229965 0.487339 0.665181
Si Si2 0.162074 0.975254 0.143672
Si Si3 0.560089 0.512926 0.721745
Si Si4 0.475755 0.985492 0.238247
Si Si5 0.962789 0.006894 0.257609
Si Si6 0.718671 0.199081 0.294910
Si Si7 0.921341 0.775829 0.707471
Si Si8 0.930287 0.294238 0.956371
O O1 0.415886 0.545878 0.701710
O O2 0.382929 0.737199 0.429635
O O3 0.043002 0.413628 0.771917
O O4 0.089430 0.260378 0.754015
O O5 0.247921 0.890470 0.259886
O O6 0.132498 0.058246 0.165971
O O7 0.358497 0.216003 0.904469
O O8 0.676502 0.534203 0.811229
O O9 0.753842 0.716354 0.501607
O O10 0.604979 0.146082 0.223819
O O11 0.676407 0.166835 0.035261
O O12 0.121793 0.222829 0.188251
O O13 0.860112 0.060654 0.147167
O O14 0.888420 0.483039 0.119282
O O15 0.873833 0.177079 0.323238
O O16 0.500000 0.000000 0.500000
O O17 0.000000 0.000000 0.500000
#
# Coordination Sequence:
#
# PCOD8024023 Si02
#       8
#     2   2   2   2   2   2   2   2
#     4  12  26  49  70 103 142 189 242 289 346 410
#     4  12  29  44  73 105 138 189 249 284 342 418
#     4  11  24  45  70 102 142 179 236 295 339 410
#     4  12  26  48  71 106 144 184 231 295 353 421
#     4  11  25  44  72 103 142 183 231 290 355 419
#     4  12  25  43  74 106 146 182 223 293 360 426
#     4  10  23  42  69 106 138 179 230 284 354 422
#     4  12  25  44  76 102 141 189 231 283 366 419
#
# _framework density 22.985892
#
# number of rings (size 3 to 8) (size 9 to 14) (size 15 to 20)
#    0.000    0.500    5.000    2.625    5.250    3.500 
#    0.000    0.000    0.000    0.000    0.000    0.000 
#    0.000    0.000    0.000    0.000    0.000    0.000 
#
# Total GULP energy -198316.956236 kJ/mol
# GULP energy per Si atom -12394.809765 kJ/mol
# Density = 2.293358 g / cm^3
# Si number density = 22.985892 Si / 1000 Ang^3
#
#
#
# Elastic Constant Matrix: (Units=GPa)
#
#
# Indices 1 2 3 4 5 6 
#
# 1 101.2498 34.7305 13.7050 1.0517 -2.6450 16.7989
# 2 34.7305 70.1952 19.1975 -11.9582 -5.6359 6.7296
# 3 13.7050 19.1975 104.3016 -12.1043 -5.6518 -3.6919
# 4 1.0517 -11.9582 -12.1043 27.3736 -1.4787 5.8686
# 5 -2.6450 -5.6359 -5.6518 -1.4787 33.3858 -3.5750
# 6 16.7989 6.7296 -3.6919 5.8686 -3.5750 27.2572
#
#
#
# Elastic Compliance Matrix: (Units=1/GPa)
#
#
# Indices 1 2 3 4 5 6 
#
# 1 0.013176 -0.006064 -0.001167 -0.002351 -0.000967 -0.006402
# 2 -0.006064 0.019728 -0.001770 0.008839 0.002628 -0.002931
# 3 -0.001167 -0.001770 0.010659 0.003642 0.001794 0.002051
# 4 -0.002351 0.008839 0.003642 0.044263 0.002877 -0.009393
# 5 -0.000967 0.002628 0.001794 0.002877 0.031142 0.003655
# 6 -0.006402 -0.002931 0.002051 -0.009393 0.003655 0.044136
#
#
# Mechanical properties :
#
#
# Convention : Reuss Voigt Hill
#
# Bulk Modulus (GPa) = 39.12196 45.66805 42.39501
# Shear Modulus (GPa) = 26.36737 31.47756 28.92247
#
# Velocity S-wave (km/s) = 3.39058 3.70460 3.55106
# Velocity P-wave (km/s) = 5.69078 6.18140 5.94116
#
# Compressibility (1/GPa) = 0.02556109
#
# Stress axis : x y z
#
# Youngs Moduli (GPa) = 75.89518 50.68843 93.81583
#
# Poissons Ratio (x) = 0.30740 0.10948
# Poissons Ratio (y) = 0.46026 0.16604
# Poissons Ratio (z) = 0.08857 0.08971
#
# Static dielectric constant tensor:
#      x y z
#    x 4.551220 1.029270 -0.111340 
#    y 1.029270 6.696110 -0.358730 
#    z -0.111340 -0.358730 4.325810 
# 
# 
# High freq. dielectric constant tensor:
#      x y z
#    x 1.911670 0.004140 0.006050 
#    y 0.004140 1.892360 -0.008430 
#    z 0.006050 -0.008430 1.923940 
# 
# From -- ./inp_files/206541.got.cif
#   From: 2010.06.25/outbox.cif.g09.slc.cpg/sg2_104_cif.got.tgz:206541.got - 2010.06.27 13:26:56.
