data_PCOD8024071
_publ_section_title
;
Structure prediction by ZEFSAII (Michael W. Deem and Ramdas Pophale) SiO2 
 PCOD8024071
Probable space group: P -1
;
_chemical_formula_sum "Si O2"
_cell_formula_units_Z 16
_cell_length_a 14.683039
_cell_length_b 8.310789
_cell_length_c 10.497760
_cell_angle_alpha 137.844287
_cell_angle_beta 94.013757
_cell_angle_gamma 64.106913
_cell_volume 701.827344
_symmetry_space_group_name_H-M "P -1"
_symmetry_group_IT_number 2
_symmetry_cell_setting 'triclinic'
loop_
_space_group_symop_operation_xyz
x,y,z
-x,-y,-z
loop_
_atom_site_type_symbol
_atom_site_label
_atom_site_fract_x
_atom_site_fract_y
_atom_site_fract_z
Si Si1 0.416128 0.162420 0.199060
Si Si2 0.092243 0.858510 0.574956
Si Si3 0.694220 0.269318 0.604426
Si Si4 0.805428 0.753704 0.846962
Si Si5 0.877804 0.150534 0.132462
Si Si6 0.732784 0.662453 0.254458
Si Si7 0.570021 0.630337 0.053381
Si Si8 0.097339 0.537978 0.064408
O O1 0.374417 0.503524 0.387850
O O2 0.314048 0.133644 0.153796
O O3 0.500000 0.000000 0.000000
O O4 0.482566 0.981815 0.225847
O O5 0.177199 0.860603 0.486405
O O6 0.100083 0.558724 0.391182
O O7 0.119636 0.896276 0.744462
O O8 0.966067 0.132514 0.690072
O O9 0.653902 0.453825 0.839983
O O10 0.677519 0.009383 0.458865
O O11 0.811520 0.700479 0.968483
O O12 0.830484 0.990240 0.958829
O O13 0.788434 0.498561 0.298019
O O14 0.000000 0.000000 0.000000
O O15 0.639777 0.611724 0.171423
O O16 0.838367 0.490938 0.072270
O O17 0.500000 0.500000 0.000000
O O18 0.000000 0.500000 0.000000
#
# Coordination Sequence:
#
# PCOD8024071 Si02
#       8
#     2   2   2   2   2   2   2   2
#     4   9  20  42  66  95 127 162 218 274 321 377
#     4  11  23  42  66  97 132 172 221 265 317 400
#     4  10  23  42  70 100 124 171 222 271 322 398
#     4  11  23  40  67  92 126 177 216 266 329 383
#     4  12  25  43  59  94 141 176 213 263 321 389
#     4  12  24  41  68  97 134 177 214 266 336 383
#     4  11  25  46  68  97 135 169 219 278 329 384
#     4  12  20  41  67  98 136 167 214 274 321 388
#
# _framework density 22.797630000000002
#
# number of rings (size 3 to 8) (size 9 to 14) (size 15 to 20)
#    0.000    1.000    3.750    3.375    0.000    4.500 
#    0.000    3.750    0.000    0.000    0.000    0.000 
#    0.000    0.000    0.000    0.000    0.000    0.000 
#
# Total GULP energy -198314.899407 kJ/mol
# GULP energy per Si atom -12394.681213 kJ/mol
# Density = 2.274574 g / cm^3
# Si number density = 22.797630 Si / 1000 Ang^3
#
#
#
# Elastic Constant Matrix: (Units=GPa)
#
#
# Indices 1 2 3 4 5 6 
#
# 1 96.4683 27.7003 22.9531 9.4442 9.2937 -1.0925
# 2 27.7003 101.6171 8.4536 24.8076 0.6393 -9.6547
# 3 22.9531 8.4536 83.3197 25.5314 9.8587 7.2652
# 4 9.4442 24.8076 25.5314 42.5785 5.8358 1.6354
# 5 9.2937 0.6393 9.8587 5.8358 37.7377 6.0103
# 6 -1.0925 -9.6547 7.2652 1.6354 6.0103 29.5930
#
#
#
# Elastic Compliance Matrix: (Units=1/GPa)
#
#
# Indices 1 2 3 4 5 6 
#
# 1 0.012192 -0.003352 -0.003242 0.001503 -0.002421 0.000561
# 2 -0.003352 0.012957 0.001634 -0.008046 0.000789 0.003987
# 3 -0.003242 0.001634 0.016073 -0.009559 -0.001521 -0.002696
# 4 0.001503 -0.008046 -0.009559 0.034009 -0.002750 -0.001544
# 5 -0.002421 0.000789 -0.001521 -0.002750 0.028723 -0.005140
# 6 0.000561 0.003987 -0.002696 -0.001544 -0.005140 0.036904
#
#
# Mechanical properties :
#
#
# Convention : Reuss Voigt Hill
#
# Bulk Modulus (GPa) = 31.94692 44.40211 38.17451
# Shear Modulus (GPa) = 31.01482 36.80171 33.90826
#
# Velocity S-wave (km/s) = 3.69242 4.02217 3.86081
# Velocity P-wave (km/s) = 5.67647 6.41010 6.05440
#
# Compressibility (1/GPa) = 0.03130192
#
# Stress axis : x y z
#
# Youngs Moduli (GPa) = 82.01809 77.17859 62.21485
#
# Poissons Ratio (x) = 0.25873 0.20168
# Poissons Ratio (y) = 0.27495 -0.10163
# Poissons Ratio (z) = 0.26587 -0.12608
#
# Static dielectric constant tensor:
#      x y z
#    x 4.016500 -0.172280 -0.113030 
#    y -0.172280 4.690400 0.521380 
#    z -0.113030 0.521380 4.505970 
# 
# 
# High freq. dielectric constant tensor:
#      x y z
#    x 1.894850 -0.003860 -0.003380 
#    y -0.003860 1.907160 0.019780 
#    z -0.003380 0.019780 1.896930 
# 
# From -- ./inp_files/446490.got.cif
#   From: 2010.06.25/outbox.cif.g09.slc.cpg/sg2_224_cif.got.tgz:446490.got - 2010.06.27 13:26:56.
