data_PCOD8024442
_publ_section_title
;
Structure prediction by ZEFSAII (Michael W. Deem and Ramdas Pophale) SiO2 
 PCOD8024442
Probable space group: P -1
;
_chemical_formula_sum "Si O2"
_cell_formula_units_Z 16
_cell_length_a 12.158166
_cell_length_b 7.933511
_cell_length_c 11.938304
_cell_angle_alpha 127.740105
_cell_angle_beta 69.122774
_cell_angle_gamma 125.827959
_cell_volume 738.312751
_symmetry_space_group_name_H-M "P -1"
_symmetry_group_IT_number 2
_symmetry_cell_setting 'triclinic'
loop_
_space_group_symop_operation_xyz
x,y,z
-x,-y,-z
loop_
_atom_site_type_symbol
_atom_site_label
_atom_site_fract_x
_atom_site_fract_y
_atom_site_fract_z
Si Si1 0.921513 0.121930 0.131687
Si Si2 0.816903 0.487771 0.691539
Si Si3 0.893223 0.852581 0.631894
Si Si4 0.691360 0.744307 0.226428
Si Si5 0.884930 0.223352 0.947127
Si Si6 0.817826 0.999993 0.502392
Si Si7 0.554028 0.355839 0.846503
Si Si8 0.380126 0.799300 0.033556
O O1 0.033053 0.370934 0.252051
O O2 0.810179 0.949206 0.190631
O O3 0.854019 0.181602 0.074344
O O4 0.000000 0.000000 0.000000
O O5 0.817218 0.580313 0.602502
O O6 0.769489 0.200971 0.594845
O O7 0.705913 0.532742 0.816133
O O8 0.025546 0.878247 0.536388
O O9 0.933313 0.045542 0.799650
O O10 0.798667 0.884512 0.586940
O O11 0.555682 0.764438 0.262163
O O12 0.667746 0.476583 0.099890
O O13 0.725937 0.787019 0.362129
O O14 0.748031 0.161851 0.908222
O O15 0.000000 0.500000 0.000000
O O16 0.500000 0.500000 0.000000
O O17 0.564160 0.157546 0.841711
O O18 0.500000 0.000000 0.000000
#
# Coordination Sequence:
#
# PCOD8024442 Si02
#       8
#     2   2   2   2   2   2   2   2
#     4  12  21  38  68  98 129 168 219 283 336 388
#     4  12  24  43  70  99 135 182 223 266 350 399
#     4  11  24  40  69  96 139 177 219 284 327 395
#     4  11  24  43  65  96 135 174 225 277 326 405
#     4  12  23  39  66 104 131 167 223 285 342 394
#     4  11  24  46  64 100 137 182 228 269 326 409
#     4  10  23  43  67  94 134 170 215 283 337 398
#     4  11  24  41  65  98 131 172 217 277 352 394
#
# _framework density 21.671035
#
# number of rings (size 3 to 8) (size 9 to 14) (size 15 to 20)
#    0.000    0.750    2.500    6.375    3.500    1.500 
#    2.250    0.625    0.000    0.000    0.000    0.000 
#    0.000    0.000    0.000    0.000    0.000    0.000 
#
# Total GULP energy -198377.656809 kJ/mol
# GULP energy per Si atom -12398.603551 kJ/mol
# Density = 2.162171 g / cm^3
# Si number density = 21.671035 Si / 1000 Ang^3
#
#
#
# Elastic Constant Matrix: (Units=GPa)
#
#
# Indices 1 2 3 4 5 6 
#
# 1 125.5742 45.3262 28.6932 -15.8759 11.7539 -9.8677
# 2 45.3262 87.8859 24.6370 -19.3469 10.8045 -6.2335
# 3 28.6932 24.6370 74.6869 -7.6693 13.8967 -9.0514
# 4 -15.8759 -19.3469 -7.6693 31.8706 -7.7058 2.8475
# 5 11.7539 10.8045 13.8967 -7.7058 42.2522 -9.8350
# 6 -9.8677 -6.2335 -9.0514 2.8475 -9.8350 43.8164
#
#
#
# Elastic Compliance Matrix: (Units=1/GPa)
#
#
# Indices 1 2 3 4 5 6 
#
# 1 0.010333 -0.004168 -0.002181 0.001876 -0.000505 0.001048
# 2 -0.004168 0.015889 -0.002798 0.006707 -0.000726 0.000145
# 3 -0.002181 -0.002798 0.016015 0.000064 -0.003557 0.001616
# 4 0.001876 0.006707 0.000064 0.037507 0.004578 -0.000020
# 5 -0.000505 -0.000726 -0.003557 0.004578 0.027125 0.004839
# 6 0.001048 0.000145 0.001616 -0.000020 0.004839 0.024501
#
#
# Mechanical properties :
#
#
# Convention : Reuss Voigt Hill
#
# Bulk Modulus (GPa) = 41.77002 53.93998 47.85500
# Shear Modulus (GPa) = 31.71692 36.22055 33.96874
#
# Velocity S-wave (km/s) = 3.82980 4.09269 3.96343
# Velocity P-wave (km/s) = 6.23482 6.87589 6.56319
#
# Compressibility (1/GPa) = 0.02394062
#
# Stress axis : x y z
#
# Youngs Moduli (GPa) = 96.77510 62.93823 62.44305
#
# Poissons Ratio (x) = 0.26235 0.13620
# Poissons Ratio (y) = 0.40339 0.17474
# Poissons Ratio (z) = 0.21108 0.17613
#
# Static dielectric constant tensor:
#      x y z
#    x 4.714630 -0.271810 0.465770 
#    y -0.271810 3.955900 -0.209440 
#    z 0.465770 -0.209440 3.731430 
# 
# 
# High freq. dielectric constant tensor:
#      x y z
#    x 1.870120 -0.014920 0.006510 
#    y -0.014920 1.843670 -0.015430 
#    z 0.006510 -0.015430 1.837820 
# 
# From -- ./inp_files/419962.got.cif
#   From: 2010.06.25/outbox.cif.g09.slc.cpg/sg2_210_cif.got.tgz:419962.got - 2010.06.27 13:26:56.
