data_PCOD8024383
_publ_section_title
;
Structure prediction by ZEFSAII (Michael W. Deem and Ramdas Pophale) SiO2 
 PCOD8024383
Probable space group: P -1
;
_chemical_formula_sum "Si O2"
_cell_formula_units_Z 16
_cell_length_a 8.972196
_cell_length_b 5.088932
_cell_length_c 20.204241
_cell_angle_alpha 94.845180
_cell_angle_beta 78.546674
_cell_angle_gamma 122.933342
_cell_volume 758.532883
_symmetry_space_group_name_H-M "P -1"
_symmetry_group_IT_number 2
_symmetry_cell_setting 'triclinic'
loop_
_space_group_symop_operation_xyz
x,y,z
-x,-y,-z
loop_
_atom_site_type_symbol
_atom_site_label
_atom_site_fract_x
_atom_site_fract_y
_atom_site_fract_z
Si Si1 0.668628 0.798828 0.651677
Si Si2 0.176953 0.329560 0.479048
Si Si3 0.660558 0.010326 0.521479
Si Si4 0.910824 0.062724 0.759728
Si Si5 0.680580 0.507362 0.242382
Si Si6 0.020582 0.754027 0.953180
Si Si7 0.780908 0.460241 0.843598
Si Si8 0.367419 0.071761 0.841885
O O1 0.641057 0.001647 0.603005
O O2 0.811083 0.026844 0.698828
O O3 0.755601 0.627213 0.602478
O O4 0.474873 0.548186 0.694435
O O5 0.172537 0.633093 0.505825
O O6 0.312877 0.268315 0.510531
O O7 0.000000 0.000000 0.500000
O O8 0.500000 0.000000 0.500000
O O9 0.126272 0.277249 0.734445
O O10 0.851371 0.232183 0.819398
O O11 0.851707 0.723812 0.786083
O O12 0.670133 0.683288 0.183363
O O13 0.648307 0.176178 0.215853
O O14 0.861680 0.615366 0.910191
O O15 0.217824 0.900357 0.907530
O O16 0.000000 0.500000 0.000000
O O17 0.000000 0.000000 0.000000
O O18 0.564227 0.258345 0.861942
#
# Coordination Sequence:
#
# PCOD8024383 Si02
#       8
#     2   2   2   2   2   2   2   2
#     4  10  26  38  72  99 136 166 240 266 340 408
#     4  10  23  43  66  91 134 173 220 272 334 385
#     4  10  23  43  66  91 134 173 220 272 334 385
#     4  12  23  42  67  99 134 176 219 279 341 396
#     4  12  23  42  67  99 134 176 219 279 341 396
#     4  12  26  44  70  99 138 176 230 266 322 410
#     4  12  24  44  71  97 138 176 218 279 338 382
#     4  12  24  44  71  97 138 176 218 279 338 382
#
# _framework density 21.093350999999998
#
# number of rings (size 3 to 8) (size 9 to 14) (size 15 to 20)
#    0.750    0.000    5.000    2.250    3.500    2.000 
#    0.000    0.000    0.000    0.000    0.000    0.000 
#    0.000    0.000    0.000    0.000    0.000    0.000 
#
# Total GULP energy -198242.386043 kJ/mol
# GULP energy per Si atom -12390.149128 kJ/mol
# Density = 2.104534 g / cm^3
# Si number density = 21.093351 Si / 1000 Ang^3
#
#
#
# Elastic Constant Matrix: (Units=GPa)
#
#
# Indices 1 2 3 4 5 6 
#
# 1 85.2322 26.2164 37.5953 -8.7790 13.5725 32.7944
# 2 26.2164 92.6448 22.3800 -17.1678 8.3293 15.7998
# 3 37.5953 22.3800 65.4243 -14.7184 11.4156 9.1388
# 4 -8.7790 -17.1678 -14.7184 27.6809 3.2726 -4.5302
# 5 13.5725 8.3293 11.4156 3.2726 46.3059 -1.4503
# 6 32.7944 15.7998 9.1388 -4.5302 -1.4503 62.7394
#
#
#
# Elastic Compliance Matrix: (Units=1/GPa)
#
#
# Indices 1 2 3 4 5 6 
#
# 1 0.020358 -0.001772 -0.009367 -0.000668 -0.003572 -0.008961
# 2 -0.001772 0.013418 -0.001384 0.006979 -0.002102 -0.001796
# 3 -0.009367 -0.001384 0.023528 0.009480 -0.003400 0.002424
# 4 -0.000668 0.006979 0.009480 0.046132 -0.006645 0.000388
# 5 -0.003572 -0.002102 -0.003400 -0.006645 0.024422 0.002977
# 6 -0.008961 -0.001796 0.002424 0.000388 0.002977 0.020819
#
#
# Mechanical properties :
#
#
# Convention : Reuss Voigt Hill
#
# Bulk Modulus (GPa) = 31.00054 46.18719 38.59387
# Shear Modulus (GPa) = 27.10374 37.81922 32.46148
#
# Velocity S-wave (km/s) = 3.58850 4.23891 3.92719
# Velocity P-wave (km/s) = 5.64788 6.77510 6.23700
#
# Compressibility (1/GPa) = 0.03225750
#
# Stress axis : x y z
#
# Youngs Moduli (GPa) = 49.12168 74.52540 42.50194
#
# Poissons Ratio (x) = 0.13208 0.39812
# Poissons Ratio (y) = 0.08705 0.05882
# Poissons Ratio (z) = 0.46013 0.10314
#
# Static dielectric constant tensor:
#      x y z
#    x 4.206580 -0.076040 0.177200 
#    y -0.076040 4.373670 -0.260390 
#    z 0.177200 -0.260390 3.585020 
# 
# 
# High freq. dielectric constant tensor:
#      x y z
#    x 1.846990 0.000990 0.004750 
#    y 0.000990 1.845310 -0.010110 
#    z 0.004750 -0.010110 1.805270 
# 
# From -- ./inp_files/585691.got.cif
#   From: 2010.06.25/outbox.cif.g09.slc.cpg/sg2_293_cif.got.tgz:585691.got - 2010.06.27 13:26:56.
