data_PCOD8024337
_publ_section_title
;
Structure prediction by ZEFSAII (Michael W. Deem and Ramdas Pophale) SiO2 
 PCOD8024337
Probable space group: P -1
;
_chemical_formula_sum "Si O2"
_cell_formula_units_Z 16
_cell_length_a 7.944563
_cell_length_b 16.155605
_cell_length_c 10.454927
_cell_angle_alpha 115.188568
_cell_angle_beta 137.344113
_cell_angle_gamma 88.807803
_cell_volume 723.361029
_symmetry_space_group_name_H-M "P -1"
_symmetry_group_IT_number 2
_symmetry_cell_setting 'triclinic'
loop_
_space_group_symop_operation_xyz
x,y,z
-x,-y,-z
loop_
_atom_site_type_symbol
_atom_site_label
_atom_site_fract_x
_atom_site_fract_y
_atom_site_fract_z
Si Si1 0.286479 0.997403 0.274520
Si Si2 0.966447 0.777309 0.829158
Si Si3 0.269158 0.853497 0.577064
Si Si4 0.895132 0.518037 0.087046
Si Si5 0.563779 0.312655 0.381515
Si Si6 0.274054 0.313185 0.962868
Si Si7 0.075557 0.134296 0.383789
Si Si8 0.379246 0.696135 0.073315
O O1 0.459809 0.058227 0.285054
O O2 0.084957 0.040830 0.249537
O O3 0.500000 0.000000 0.500000
O O4 0.077699 0.880365 0.043932
O O5 0.628129 0.713335 0.615502
O O6 0.025558 0.804085 0.729652
O O7 0.099385 0.706578 0.906419
O O8 0.352601 0.778174 0.654579
O O9 0.035210 0.785696 0.295070
O O10 0.140920 0.903952 0.641592
O O11 0.726638 0.581641 0.010412
O O12 0.155995 0.578308 0.369778
O O13 0.683205 0.409070 0.959386
O O14 0.000000 0.500000 0.000000
O O15 0.371006 0.319796 0.166449
O O16 0.503930 0.301757 0.000160
O O17 0.393207 0.207473 0.655601
#
# Coordination Sequence:
#
# PCOD8024337 Si02
#       8
#     2   2   2   2   2   2   2   2
#     4  12  24  44  67  95 133 174 216 266 324 383
#     4  12  24  41  67  95 130 172 218 266 320 384
#     4  10  24  44  66  96 134 171 215 267 322 381
#     4  11  24  40  67  95 127 170 215 264 327 386
#     4  11  23  42  67  96 131 168 217 268 317 388
#     4  10  23  43  65  95 129 169 213 269 322 385
#     4  11  24  44  66  95 133 171 216 271 319 381
#     4  11  24  43  64  95 130 169 215 267 325 383
#
# _framework density 22.118967000000001
#
# number of rings (size 3 to 8) (size 9 to 14) (size 15 to 20)
#    0.000    1.000    2.500    3.750    1.750    4.500 
#    2.250    0.000    0.000    0.000    0.000    0.000 
#    0.000    0.000    0.000    0.000    0.000    0.000 
#
# Total GULP energy -198451.625329 kJ/mol
# GULP energy per Si atom -12403.226583 kJ/mol
# Density = 2.206862 g / cm^3
# Si number density = 22.118967 Si / 1000 Ang^3
#
#
#
# Elastic Constant Matrix: (Units=GPa)
#
#
# Indices 1 2 3 4 5 6 
#
# 1 91.4853 29.2399 20.8324 5.2026 -4.4414 -16.6198
# 2 29.2399 93.9808 22.2608 -9.1882 -0.4647 -8.1110
# 3 20.8324 22.2608 41.0495 -19.0093 2.7594 -2.2783
# 4 5.2026 -9.1882 -19.0093 40.1502 7.2848 0.2159
# 5 -4.4414 -0.4647 2.7594 7.2848 25.4096 -9.0568
# 6 -16.6198 -8.1110 -2.2783 0.2159 -9.0568 29.8314
#
#
#
# Elastic Compliance Matrix: (Units=1/GPa)
#
#
# Indices 1 2 3 4 5 6 
#
# 1 0.018290 -0.002520 -0.013438 -0.011611 0.012325 0.012304
# 2 -0.002520 0.012942 -0.005449 0.000526 0.000943 0.001981
# 3 -0.013438 -0.005449 0.046948 0.026254 -0.019130 -0.011381
# 4 -0.011611 0.000526 0.026254 0.042847 -0.021088 -0.011033
# 5 0.012325 0.000943 -0.019130 -0.021088 0.057999 0.023423
# 6 0.012304 0.001981 -0.011381 -0.011033 0.023423 0.047237
#
#
# Mechanical properties :
#
#
# Convention : Reuss Voigt Hill
#
# Bulk Modulus (GPa) = 28.27615 41.24242 34.75928
# Shear Modulus (GPa) = 17.80203 29.35709 23.57956
#
# Velocity S-wave (km/s) = 2.84003 3.64708 3.26856
# Velocity P-wave (km/s) = 4.85446 6.03499 5.47663
#
# Compressibility (1/GPa) = 0.03536549
#
# Stress axis : x y z
#
# Youngs Moduli (GPa) = 54.67440 77.26563 21.30020
#
# Poissons Ratio (x) = 0.19470 0.28624
# Poissons Ratio (y) = 0.13777 0.11607
# Poissons Ratio (z) = 0.73473 0.42105
#
# Static dielectric constant tensor:
#      x y z
#    x 4.075990 -0.012600 0.063990 
#    y -0.012600 3.893210 -0.093690 
#    z 0.063990 -0.093690 4.043750 
# 
# 
# High freq. dielectric constant tensor:
#      x y z
#    x 1.877620 -0.004220 0.000270 
#    y -0.004220 1.873460 -0.009520 
#    z 0.000270 -0.009520 1.875160 
# 
# From -- ./inp_files/397703.got.cif
#   From: 2010.06.25/outbox.cif.g09.slc.cpg/sg2_199_cif.got.tgz:397703.got - 2010.06.27 13:26:56.
