data_PCOD8024547
_publ_section_title
;
Structure prediction by ZEFSAII (Michael W. Deem and Ramdas Pophale) SiO2 
 PCOD8024547
Probable space group: P -1
;
_chemical_formula_sum "Si O2"
_cell_formula_units_Z 16
_cell_length_a 10.134611
_cell_length_b 13.909641
_cell_length_c 8.683269
_cell_angle_alpha 138.514044
_cell_angle_beta 114.524383
_cell_angle_gamma 59.813821
_cell_volume 699.332538
_symmetry_space_group_name_H-M "P -1"
_symmetry_group_IT_number 2
_symmetry_cell_setting 'triclinic'
loop_
_space_group_symop_operation_xyz
x,y,z
-x,-y,-z
loop_
_atom_site_type_symbol
_atom_site_label
_atom_site_fract_x
_atom_site_fract_y
_atom_site_fract_z
Si Si1 0.888061 0.872253 0.525980
Si Si2 0.752914 0.462438 0.167020
Si Si3 0.772892 0.226597 0.314244
Si Si4 0.530342 0.145821 0.263279
Si Si5 0.276840 0.439985 0.395887
Si Si6 0.401443 0.211290 0.610968
Si Si7 0.960686 0.635490 0.020837
Si Si8 0.684711 0.174646 0.876174
O O1 0.755179 0.828214 0.500611
O O2 0.913583 0.797782 0.280188
O O3 0.044348 0.816947 0.632864
O O4 0.823166 0.056047 0.704239
O O5 0.800745 0.514431 0.418627
O O6 0.644718 0.605144 0.192276
O O7 0.660339 0.344633 0.007969
O O8 0.899402 0.375790 0.035009
O O9 0.704053 0.149551 0.326592
O O10 0.701529 0.411383 0.498251
O O11 0.729712 0.153665 0.051074
O O12 0.435491 0.304928 0.326731
O O13 0.493719 0.140812 0.418086
O O14 0.500000 0.000000 0.000000
O O15 0.177315 0.368063 0.156003
O O16 0.520631 0.146792 0.732917
O O17 0.000000 0.500000 0.000000
#
# Coordination Sequence:
#
# PCOD8024547 Si02
#       8
#     2   2   2   2   2   2   2   2
#     4  12  26  44  70 101 139 179 223 282 340 398
#     4  10  23  44  66 101 133 179 224 282 335 401
#     4  11  24  47  69  98 136 182 228 272 337 408
#     4  11  26  42  69 102 140 175 222 285 340 398
#     4  10  23  43  68  98 134 184 224 275 335 408
#     4  11  24  46  69  97 137 178 228 275 337 402
#     4  12  23  40  72 100 137 176 233 277 331 401
#     4  11  26  42  72  98 136 177 228 280 340 397
#
# _framework density 22.878957
#
# number of rings (size 3 to 8) (size 9 to 14) (size 15 to 20)
#    0.000    1.000    2.500    2.625    5.250    4.500 
#    0.000    0.000    0.000    0.000    0.000    0.000 
#    0.000    0.000    0.000    0.000    0.000    0.000 
#
# Total GULP energy -198397.856032 kJ/mol
# GULP energy per Si atom -12399.866002 kJ/mol
# Density = 2.282688 g / cm^3
# Si number density = 22.878957 Si / 1000 Ang^3
#
#
#
# Elastic Constant Matrix: (Units=GPa)
#
#
# Indices 1 2 3 4 5 6 
#
# 1 140.7417 36.3268 62.5398 -19.3577 8.3234 0.8094
# 2 36.3268 76.1426 44.2844 -5.3816 8.0350 -18.0581
# 3 62.5398 44.2844 150.6730 -9.4632 -6.1325 -16.4920
# 4 -19.3577 -5.3816 -9.4632 42.5446 -10.0674 2.3503
# 5 8.3234 8.0350 -6.1325 -10.0674 35.7116 -6.0951
# 6 0.8094 -18.0581 -16.4920 2.3503 -6.0951 30.1043
#
#
#
# Elastic Compliance Matrix: (Units=1/GPa)
#
#
# Indices 1 2 3 4 5 6 
#
# 1 0.010230 -0.003496 -0.003665 0.003156 -0.002203 -0.005073
# 2 -0.003496 0.019167 -0.003349 -0.001085 -0.002795 0.009276
# 3 -0.003665 -0.003349 0.009839 0.000872 0.004273 0.004277
# 4 0.003156 -0.001085 0.000872 0.026712 0.007032 -0.000920
# 5 -0.002203 -0.002795 0.004273 0.007032 0.033032 0.006862
# 6 -0.005073 0.009276 0.004277 -0.000920 0.006862 0.042722
#
#
# Mechanical properties :
#
#
# Convention : Reuss Voigt Hill
#
# Bulk Modulus (GPa) = 54.89842 72.65105 63.77474
# Shear Modulus (GPa) = 29.62165 36.63252 33.12708
#
# Velocity S-wave (km/s) = 3.60211 4.00577 3.80929
# Velocity P-wave (km/s) = 6.43021 7.29509 6.87626
#
# Compressibility (1/GPa) = 0.01821546
#
# Stress axis : x y z
#
# Youngs Moduli (GPa) = 97.75315 52.17267 101.63316
#
# Poissons Ratio (x) = 0.18242 0.37250
# Poissons Ratio (y) = 0.34178 0.34035
# Poissons Ratio (z) = 0.35828 0.17472
#
# Static dielectric constant tensor:
#      x y z
#    x 4.093560 -0.021790 -0.064740 
#    y -0.021790 4.141760 0.161580 
#    z -0.064740 0.161580 4.517330 
# 
# 
# High freq. dielectric constant tensor:
#      x y z
#    x 1.901090 -0.006200 -0.000910 
#    y -0.006200 1.900100 0.007970 
#    z -0.000910 0.007970 1.921360 
# 
# From -- ./inp_files/209513.got.cif
#   From: 2010.06.25/outbox.cif.g09.slc.cpg/sg2_105_cif.got.tgz:209513.got - 2010.06.27 13:26:56.
