data_PCOD8024152
_publ_section_title
;
Structure prediction by ZEFSAII (Michael W. Deem and Ramdas Pophale) SiO2 
 PCOD8024152
Probable space group: P -1
;
_chemical_formula_sum "Si O2"
_cell_formula_units_Z 16
_cell_length_a 9.424621
_cell_length_b 15.171397
_cell_length_c 9.606387
_cell_angle_alpha 117.802559
_cell_angle_beta 108.669713
_cell_angle_gamma 38.091241
_cell_volume 746.770738
_symmetry_space_group_name_H-M "P -1"
_symmetry_group_IT_number 2
_symmetry_cell_setting 'triclinic'
loop_
_space_group_symop_operation_xyz
x,y,z
-x,-y,-z
loop_
_atom_site_type_symbol
_atom_site_label
_atom_site_fract_x
_atom_site_fract_y
_atom_site_fract_z
Si Si1 0.090550 0.605583 0.663238
Si Si2 0.904225 0.101754 0.681860
Si Si3 0.633420 0.627069 0.876624
Si Si4 0.623535 0.090154 0.169302
Si Si5 0.450088 0.547121 0.180200
Si Si6 0.026308 0.440659 0.672785
Si Si7 0.352998 0.062170 0.197496
Si Si8 0.502854 0.181873 0.755251
O O1 0.343363 0.496583 0.719214
O O2 0.980765 0.572165 0.693126
O O3 0.093961 0.578606 0.480880
O O4 0.921913 0.784362 0.764669
O O5 0.778565 0.270401 0.735648
O O6 0.730758 0.114504 0.712487
O O7 0.000000 0.000000 0.500000
O O8 0.114810 0.019530 0.789346
O O9 0.494229 0.745639 0.789889
O O10 0.569524 0.544211 0.807876
O O11 0.904824 0.496357 0.826754
O O12 0.585085 0.705093 0.063407
O O13 0.489266 0.099176 0.257506
O O14 0.604443 0.028440 0.986825
O O15 0.500000 0.500000 0.000000
O O16 0.298694 0.279690 0.650326
O O17 0.443839 0.957733 0.284469
#
# Coordination Sequence:
#
# PCOD8024152 Si02
#       8
#     2   2   2   2   2   2   2   2
#     4  11  24  42  70  95 135 178 222 280 338 394
#     4  12  28  44  69  98 146 177 219 282 347 399
#     4  11  24  43  74  95 133 177 231 279 330 406
#     4  10  24  44  65 101 131 177 222 277 339 400
#     4  12  25  46  70 102 135 181 229 275 335 409
#     4  11  24  43  68  96 137 173 229 282 336 394
#     4  10  23  42  71  95 133 172 229 279 331 402
#     4  11  25  44  66 102 132 182 224 280 338 403
#
# _framework density 21.425584000000001
#
# number of rings (size 3 to 8) (size 9 to 14) (size 15 to 20)
#    0.000    1.000    3.750    1.125    7.000    3.000 
#    0.000    0.000    0.000    0.000    0.000    0.000 
#    0.000    0.000    0.000    0.000    0.000    0.000 
#
# Total GULP energy -198431.893492 kJ/mol
# GULP energy per Si atom -12401.993343 kJ/mol
# Density = 2.137682 g / cm^3
# Si number density = 21.425584 Si / 1000 Ang^3
#
#
#
# Elastic Constant Matrix: (Units=GPa)
#
#
# Indices 1 2 3 4 5 6 
#
# 1 129.7195 61.0308 47.4103 -7.4459 -9.4336 3.4247
# 2 61.0308 148.1910 31.8243 -1.8191 5.1764 5.7622
# 3 47.4103 31.8243 71.4943 -3.8867 -9.9633 -0.2655
# 4 -7.4459 -1.8191 -3.8867 34.3078 -8.2362 7.7428
# 5 -9.4336 5.1764 -9.9633 -8.2362 31.6357 -2.3010
# 6 3.4247 5.7622 -0.2655 7.7428 -2.3010 51.5181
#
#
#
# Elastic Compliance Matrix: (Units=1/GPa)
#
#
# Indices 1 2 3 4 5 6 
#
# 1 0.011936 -0.003741 -0.005690 0.002621 0.003013 -0.000664
# 2 -0.003741 0.008864 -0.002037 -0.001272 -0.003591 -0.000723
# 3 -0.005690 -0.002037 0.019525 0.002010 0.005356 0.000644
# 4 0.002621 -0.001272 0.002010 0.033302 0.009959 -0.004582
# 5 0.003013 -0.003591 0.005356 0.009959 0.037405 0.000403
# 6 -0.000664 -0.000723 0.000644 -0.004582 0.000403 0.020245
#
#
# Mechanical properties :
#
#
# Convention : Reuss Voigt Hill
#
# Bulk Modulus (GPa) = 57.50788 69.99286 63.75037
# Shear Modulus (GPa) = 31.24822 37.43496 34.34159
#
# Velocity S-wave (km/s) = 3.82311 4.18450 4.00788
# Velocity P-wave (km/s) = 6.81082 7.48902 7.15796
#
# Compressibility (1/GPa) = 0.01738892
#
# Stress axis : x y z
#
# Youngs Moduli (GPa) = 83.78308 112.81425 51.21628
#
# Poissons Ratio (x) = 0.42203 0.29141
# Poissons Ratio (y) = 0.31343 0.10434
# Poissons Ratio (z) = 0.47671 0.22983
#
# Static dielectric constant tensor:
#      x y z
#    x 4.015640 0.152730 -0.117180 
#    y 0.152730 4.091990 0.029310 
#    z -0.117180 0.029310 3.753090 
# 
# 
# High freq. dielectric constant tensor:
#      x y z
#    x 1.842510 0.003240 -0.004200 
#    y 0.003240 1.858190 0.004080 
#    z -0.004200 0.004080 1.835990 
# 
# From -- ./inp_files/208374.got.cif
#   From: 2010.06.25/outbox.cif.g09.slc.cpg/sg2_105_cif.got.tgz:208374.got - 2010.06.27 13:26:56.
