data_PCOD8024540
_publ_section_title
;
Structure prediction by ZEFSAII (Michael W. Deem and Ramdas Pophale) SiO2 
 PCOD8024540
Probable space group: P -1
;
_chemical_formula_sum "Si O2"
_cell_formula_units_Z 12
_cell_length_a 9.497821
_cell_length_b 8.568540
_cell_length_c 13.708234
_cell_angle_alpha 45.020047
_cell_angle_beta 125.134519
_cell_angle_gamma 94.614128
_cell_volume 532.847890
_symmetry_space_group_name_H-M "P -1"
_symmetry_group_IT_number 2
_symmetry_cell_setting 'triclinic'
loop_
_space_group_symop_operation_xyz
x,y,z
-x,-y,-z
loop_
_atom_site_type_symbol
_atom_site_label
_atom_site_fract_x
_atom_site_fract_y
_atom_site_fract_z
Si Si1 0.169176 0.681357 0.222630
Si Si2 0.398143 0.443798 0.611903
Si Si3 0.070828 0.483177 0.924898
Si Si4 0.179351 0.628872 0.640672
Si Si5 0.206801 0.851821 0.744147
Si Si6 0.590236 0.841611 0.932618
O O1 0.213634 0.613496 0.384940
O O2 0.392902 0.571364 0.314785
O O3 0.097970 0.507858 0.218022
O O4 0.000000 0.000000 0.000000
O O5 0.312628 0.582897 0.619308
O O6 0.459819 0.144979 0.775594
O O7 0.098262 0.724007 0.812047
O O8 0.295543 0.210354 0.104685
O O9 0.000000 0.500000 0.000000
O O10 0.223524 0.795222 0.660568
O O11 0.230067 0.351535 0.831016
O O12 0.932397 0.828356 0.430777
O O13 0.439962 0.736425 0.923707
#
# Coordination Sequence:
#
# PCOD8024540 Si02
#       6
#     2   2   2   2   2   2
#     4  11  26  47  65  99 145 171 235 273 329 416
#     4  11  26  43  71 101 131 189 219 280 340 394
#     4  11  25  45  73  97 135 186 219 280 341 392
#     4  10  23  43  68  97 134 178 220 277 339 388
#     4  10  25  44  66 103 137 170 231 278 329 407
#     4  11  24  45  68 104 136 169 233 278 330 405
#
# _framework density 22.520499000000001
#
# number of rings (size 3 to 8) (size 9 to 14) (size 15 to 20)
#    0.000    1.333    1.667    2.500   14.000    0.667 
#    0.000    1.667    0.000    0.000    0.000    0.000 
#    0.000    0.000    0.000    0.000    0.000    0.000 
#
# Total GULP energy -148696.335063 kJ/mol
# GULP energy per Si atom -12391.361255 kJ/mol
# Density = 2.246924 g / cm^3
# Si number density = 22.520499 Si / 1000 Ang^3
#
#
#
# Elastic Constant Matrix: (Units=GPa)
#
#
# Indices 1 2 3 4 5 6 
#
# 1 145.1413 75.8727 56.9270 26.0920 -6.6121 -14.1005
# 2 75.8727 91.2241 55.0150 -3.7417 -5.5920 -13.3753
# 3 56.9270 55.0150 122.8497 -5.2167 -0.0610 -11.9006
# 4 26.0920 -3.7417 -5.2167 30.4554 -2.4058 1.6780
# 5 -6.6121 -5.5920 -0.0610 -2.4058 35.7740 9.0711
# 6 -14.1005 -13.3753 -11.9006 1.6780 9.0711 55.3180
#
#
#
# Elastic Compliance Matrix: (Units=1/GPa)
#
#
# Indices 1 2 3 4 5 6 
#
# 1 0.019436 -0.014979 -0.002981 -0.019106 -0.000377 0.001333
# 2 -0.014979 0.026978 -0.004391 0.015523 0.002252 0.000920
# 3 -0.002981 -0.004391 0.011727 0.003890 -0.001152 0.000772
# 4 -0.019106 0.015523 0.003890 0.052144 0.003005 -0.002355
# 5 -0.000377 0.002252 -0.001152 0.003005 0.029640 -0.004751
# 6 0.001333 0.000920 0.000772 -0.002355 -0.004751 0.019656
#
#
# Mechanical properties :
#
#
# Convention : Reuss Voigt Hill
#
# Bulk Modulus (GPa) = 74.40711 81.64940 78.02826
# Shear Modulus (GPa) = 23.95052 35.73618 29.84335
#
# Velocity S-wave (km/s) = 3.26467 3.98782 3.64423
# Velocity P-wave (km/s) = 6.87911 7.58538 7.24086
#
# Compressibility (1/GPa) = 0.01343958
#
# Stress axis : x y z
#
# Youngs Moduli (GPa) = 51.45000 37.06704 85.27275
#
# Poissons Ratio (x) = 0.55524 0.25419
# Poissons Ratio (y) = 0.77068 0.37442
# Poissons Ratio (z) = 0.15337 0.16276
#
# Static dielectric constant tensor:
#      x y z
#    x 4.184780 -0.064530 0.201730 
#    y -0.064530 3.958910 -0.042500 
#    z 0.201730 -0.042500 4.296820 
# 
# 
# High freq. dielectric constant tensor:
#      x y z
#    x 1.898420 -0.005590 0.014530 
#    y -0.005590 1.881740 -0.009530 
#    z 0.014530 -0.009530 1.890360 
# 
# From -- ./inp_files/377796.got.cif
#   From: 2010.06.25/outbox.cif.g09.slc.cpg/sg2_189_cif.got.tgz:377796.got - 2010.06.27 13:26:56.
