data_PCOD8024746
_publ_section_title
;
Structure prediction by ZEFSAII (Michael W. Deem and Ramdas Pophale) SiO2 
 PCOD8024746
Probable space group: P -1
;
_chemical_formula_sum "Si O2"
_cell_formula_units_Z 16
_cell_length_a 11.301595
_cell_length_b 12.293330
_cell_length_c 8.041820
_cell_angle_alpha 77.479904
_cell_angle_beta 56.101307
_cell_angle_gamma 53.891736
_cell_volume 738.726047
_symmetry_space_group_name_H-M "P -1"
_symmetry_group_IT_number 2
_symmetry_cell_setting 'triclinic'
loop_
_space_group_symop_operation_xyz
x,y,z
-x,-y,-z
loop_
_atom_site_type_symbol
_atom_site_label
_atom_site_fract_x
_atom_site_fract_y
_atom_site_fract_z
Si Si1 0.373656 0.114269 0.193811
Si Si2 0.973918 0.371325 0.885355
Si Si3 0.343093 0.638935 0.780660
Si Si4 0.347987 0.874103 0.873032
Si Si5 0.799012 0.907552 0.362412
Si Si6 0.718382 0.372158 0.541803
Si Si7 0.961203 0.627811 0.785478
Si Si8 0.903764 0.102671 0.689874
O O1 0.463639 0.183798 0.176849
O O2 0.333088 0.044932 0.395556
O O3 0.190735 0.229089 0.218648
O O4 0.500000 0.000000 0.000000
O O5 0.935108 0.510757 0.794159
O O6 0.124340 0.247395 0.697498
O O7 0.798053 0.377342 0.016362
O O8 0.049746 0.351158 0.016304
O O9 0.344674 0.757423 0.825299
O O10 0.531214 0.499416 0.705116
O O11 0.296675 0.678291 0.610577
O O12 0.303929 0.993376 0.742937
O O13 0.209990 0.937756 0.111216
O O14 0.958284 0.915517 0.279786
O O15 0.779683 0.255839 0.667814
O O16 0.853137 0.414127 0.416425
O O17 0.000000 0.000000 0.500000
#
# Coordination Sequence:
#
# PCOD8024746 Si02
#       8
#     2   2   2   2   2   2   2   2
#     4  12  27  47  67  99 136 177 225 277 329 400
#     4  10  23  43  71  98 133 175 223 272 334 399
#     4  10  23  44  67 102 135 171 221 278 333 395
#     4  12  27  43  69 101 134 178 221 281 334 392
#     4  12  25  46  68  98 135 177 225 275 334 396
#     4  10  23  44  69  98 136 175 222 271 334 398
#     4  10  23  45  69  96 134 182 219 269 334 399
#     4  12  25  42  70  99 132 178 223 276 336 394
#
# _framework density 21.658909000000001
#
# number of rings (size 3 to 8) (size 9 to 14) (size 15 to 20)
#    0.000    1.000    2.500    3.000    7.000    2.000 
#    4.500    0.000    0.000    0.000    0.000    0.000 
#    0.000    0.000    0.000    0.000    0.000    0.000 
#
# Total GULP energy -198498.166676 kJ/mol
# GULP energy per Si atom -12406.135417 kJ/mol
# Density = 2.160961 g / cm^3
# Si number density = 21.658909 Si / 1000 Ang^3
#
#
#
# Elastic Constant Matrix: (Units=GPa)
#
#
# Indices 1 2 3 4 5 6 
#
# 1 104.5646 33.7995 24.3522 4.4305 -18.4148 0.3296
# 2 33.7995 87.3079 45.7281 4.8837 5.1929 9.9694
# 3 24.3522 45.7281 137.6984 -2.6882 -4.7473 -4.8841
# 4 4.4305 4.8837 -2.6882 36.4389 1.6960 -0.2390
# 5 -18.4148 5.1929 -4.7473 1.6960 29.4237 -1.2231
# 6 0.3296 9.9694 -4.8841 -0.2390 -1.2231 27.4807
#
#
#
# Elastic Compliance Matrix: (Units=1/GPa)
#
#
# Indices 1 2 3 4 5 6 
#
# 1 0.013166 -0.005864 0.000005 -0.001239 0.009446 0.002380
# 2 -0.005864 0.018114 -0.005568 -0.001805 -0.007988 -0.007862
# 3 0.000005 -0.005568 0.009361 0.001341 0.002577 0.003810
# 4 -0.001239 -0.001805 0.001341 0.028026 -0.001811 0.001071
# 5 0.009446 -0.007988 0.002577 -0.001811 0.042040 0.005098
# 6 0.002380 -0.007862 0.003810 0.001071 0.005098 0.040126
#
#
# Mechanical properties :
#
#
# Convention : Reuss Voigt Hill
#
# Bulk Modulus (GPa) = 56.22157 59.70340 57.96248
# Shear Modulus (GPa) = 27.83727 33.71475 30.77601
#
# Velocity S-wave (km/s) = 3.58894 3.94969 3.77363
# Velocity P-wave (km/s) = 6.57176 6.95882 6.76806
#
# Compressibility (1/GPa) = 0.01778677
#
# Stress axis : x y z
#
# Youngs Moduli (GPa) = 75.95135 55.20668 106.83092
#
# Poissons Ratio (x) = 0.32372 -0.00050
# Poissons Ratio (y) = 0.44537 0.59482
# Poissons Ratio (z) = -0.00036 0.30738
#
# Static dielectric constant tensor:
#      x y z
#    x 4.259680 0.060960 0.043750 
#    y 0.060960 3.928550 0.028410 
#    z 0.043750 0.028410 4.134930 
# 
# 
# High freq. dielectric constant tensor:
#      x y z
#    x 1.867220 -0.000860 -0.000440 
#    y -0.000860 1.846460 0.000040 
#    z -0.000440 0.000040 1.862780 
# 
# From -- ./inp_files/262269.got.cif
#   From: 2010.06.25/outbox.cif.g09.slc.cpg/sg2_132_cif.got.tgz:262269.got - 2010.06.27 13:26:56.
