data_PCOD8024147
_publ_section_title
;
Structure prediction by ZEFSAII (Michael W. Deem and Ramdas Pophale) SiO2 
 PCOD8024147
Probable space group: P -1
;
_chemical_formula_sum "Si O2"
_cell_formula_units_Z 16
_cell_length_a 11.720535
_cell_length_b 8.298718
_cell_length_c 11.917065
_cell_angle_alpha 60.703525
_cell_angle_beta 67.371965
_cell_angle_gamma 47.408295
_cell_volume 741.598409
_symmetry_space_group_name_H-M "P -1"
_symmetry_group_IT_number 2
_symmetry_cell_setting 'triclinic'
loop_
_space_group_symop_operation_xyz
x,y,z
-x,-y,-z
loop_
_atom_site_type_symbol
_atom_site_label
_atom_site_fract_x
_atom_site_fract_y
_atom_site_fract_z
Si Si1 0.882792 0.743594 0.402566
Si Si2 0.467257 0.616636 0.743130
Si Si3 0.416346 0.113713 0.108492
Si Si4 0.271183 0.861595 0.278070
Si Si5 0.234969 0.659535 0.984168
Si Si6 0.333331 0.846349 0.503089
Si Si7 0.046860 0.932580 0.170638
Si Si8 0.571664 0.948760 0.330796
O O1 0.000000 0.500000 0.500000
O O2 0.970078 0.803684 0.265476
O O3 0.813262 0.907609 0.481257
O O4 0.749981 0.767022 0.367700
O O5 0.615599 0.351588 0.776444
O O6 0.363135 0.674276 0.872598
O O7 0.375635 0.656549 0.647350
O O8 0.506981 0.799739 0.665717
O O9 0.554921 0.998354 0.186699
O O10 0.299564 0.053622 0.201251
O O11 0.306294 0.391396 0.054349
O O12 0.500000 0.000000 0.000000
O O13 0.287894 0.779475 0.428869
O O14 0.102003 0.970511 0.254936
O O15 0.192999 0.772476 0.085283
O O16 0.076446 0.809637 0.920748
O O17 0.480358 0.847606 0.431349
#
# Coordination Sequence:
#
# PCOD8024147 Si02
#       8
#     2   2   2   2   2   2   2   2
#     4  11  24  43  67  98 130 168 217 265 328 390
#     4  11  20  42  68  95 125 170 226 271 312 385
#     4  11  24  42  65  98 130 170 224 271 325 371
#     4  11  25  39  65  98 131 169 212 273 337 382
#     4  11  24  45  67  93 132 176 225 265 315 393
#     4  10  23  44  64  99 128 166 220 271 330 382
#     4  11  26  44  66  97 133 177 216 262 331 395
#     4  10  23  42  71  94 126 171 222 273 314 385
#
# _framework density 21.575018
#
# number of rings (size 3 to 8) (size 9 to 14) (size 15 to 20)
#    0.000    1.250    3.750    2.625    8.750    2.000 
#    2.250    0.000    0.000    0.000    0.000    0.000 
#    0.000    0.000    0.000    0.000    0.000    0.000 
#
# Total GULP energy -198333.660334 kJ/mol
# GULP energy per Si atom -12395.853771 kJ/mol
# Density = 2.152591 g / cm^3
# Si number density = 21.575018 Si / 1000 Ang^3
#
#
#
# Elastic Constant Matrix: (Units=GPa)
#
#
# Indices 1 2 3 4 5 6 
#
# 1 102.2761 25.6035 46.8240 -2.2502 32.0354 -4.8126
# 2 25.6035 95.8301 31.7688 -13.3292 19.6290 -18.7409
# 3 46.8240 31.7688 121.3375 4.5709 26.2192 -11.6160
# 4 -2.2502 -13.3292 4.5709 48.0517 0.6816 0.4615
# 5 32.0354 19.6290 26.2192 0.6816 32.1401 2.2884
# 6 -4.8126 -18.7409 -11.6160 0.4615 2.2884 18.5078
#
#
#
# Elastic Compliance Matrix: (Units=1/GPa)
#
#
# Indices 1 2 3 4 5 6 
#
# 1 0.015494 0.000773 -0.002736 0.001354 -0.014054 0.004798
# 2 0.000773 0.017279 -0.000550 0.004876 -0.012313 0.018753
# 3 -0.002736 -0.000550 0.011648 -0.001357 -0.006903 0.006929
# 4 0.001354 0.004876 -0.001357 0.022371 -0.004006 0.004375
# 5 -0.014054 -0.012313 -0.006903 -0.004006 0.060338 -0.027815
# 6 0.004798 0.018753 0.006929 0.004375 -0.027815 0.081947
#
#
# Mechanical properties :
#
#
# Convention : Reuss Voigt Hill
#
# Bulk Modulus (GPa) = 25.38510 58.64849 42.01680
# Shear Modulus (GPa) = 22.00363 34.08974 28.04669
#
# Velocity S-wave (km/s) = 3.19700 3.97930 3.60941
# Velocity P-wave (km/s) = 5.04175 6.95383 6.07351
#
# Compressibility (1/GPa) = 0.03939318
#
# Stress axis : x y z
#
# Youngs Moduli (GPa) = 64.53977 57.87489 85.85469
#
# Poissons Ratio (x) = -0.04472 0.23493
# Poissons Ratio (y) = -0.04987 0.04721
# Poissons Ratio (z) = 0.17661 0.03183
#
# Static dielectric constant tensor:
#      x y z
#    x 3.831530 -0.029620 0.256940 
#    y -0.029620 3.878200 0.022900 
#    z 0.256940 0.022900 4.371630 
# 
# 
# High freq. dielectric constant tensor:
#      x y z
#    x 1.835160 -0.004140 0.017030 
#    y -0.004140 1.837400 -0.002560 
#    z 0.017030 -0.002560 1.871350 
# 
# From -- ./inp_files/419141.got.cif
#   From: 2010.06.25/outbox.cif.g09.slc.cpg/sg2_210_cif.got.tgz:419141.got - 2010.06.27 13:26:56.
