data_PCOD8024552
_publ_section_title
;
Structure prediction by ZEFSAII (Michael W. Deem and Ramdas Pophale) SiO2 
 PCOD8024552
Probable space group: P -1
;
_chemical_formula_sum "Si O2"
_cell_formula_units_Z 16
_cell_length_a 11.855458
_cell_length_b 14.240012
_cell_length_c 5.859471
_cell_angle_alpha 73.860831
_cell_angle_beta 97.168737
_cell_angle_gamma 50.114966
_cell_volume 664.663277
_symmetry_space_group_name_H-M "P -1"
_symmetry_group_IT_number 2
_symmetry_cell_setting 'triclinic'
loop_
_space_group_symop_operation_xyz
x,y,z
-x,-y,-z
loop_
_atom_site_type_symbol
_atom_site_label
_atom_site_fract_x
_atom_site_fract_y
_atom_site_fract_z
Si Si1 0.236499 0.686400 0.285699
Si Si2 0.725797 0.009796 0.866233
Si Si3 0.987894 0.097119 0.262759
Si Si4 0.502673 0.578628 0.750311
Si Si5 0.943662 0.801311 0.416937
Si Si6 0.846302 0.646773 0.460260
Si Si7 0.612591 0.879154 0.916939
Si Si8 0.571523 0.751171 0.620160
O O1 0.327536 0.688083 0.510505
O O2 0.358650 0.532658 0.319027
O O3 0.080819 0.722083 0.309597
O O4 0.173618 0.804095 0.001802
O O5 0.718570 0.904251 0.824493
O O6 0.852518 0.003411 0.781188
O O7 0.549298 0.166023 0.685766
O O8 0.785289 0.958248 0.179498
O O9 0.984176 0.198767 0.335641
O O10 0.000000 0.000000 0.500000
O O11 0.542423 0.663812 0.793739
O O12 0.500000 0.500000 0.000000
O O13 0.897940 0.719662 0.521924
O O14 0.754899 0.645967 0.643777
O O15 0.000000 0.500000 0.500000
O O16 0.726128 0.730046 0.162088
O O17 0.527566 0.868680 0.700094
O O18 0.500000 0.000000 0.000000
#
# Coordination Sequence:
#
# PCOD8024552 Si02
#       8
#     2   2   2   2   2   2   2   2
#     4  10  24  46  66  99 141 182 243 291 354 421
#     4  10  24  40  67 104 139 179 232 292 352 432
#     4  11  25  40  69 101 140 186 233 290 360 424
#     4  11  26  46  70  98 142 190 239 300 349 422
#     4  10  23  43  68  98 145 179 227 298 359 421
#     4  11  25  45  72 104 140 185 238 297 362 433
#     4  11  24  45  70 106 145 181 237 301 360 434
#     4  12  26  42  76 103 140 189 246 289 367 432
#
# _framework density 24.072338999999999
#
# number of rings (size 3 to 8) (size 9 to 14) (size 15 to 20)
#    0.000    1.250    1.250    2.625    8.750    5.500 
#    0.000    0.000    0.000    0.000    0.000    0.000 
#    0.000    0.000    0.000    0.000    0.000    0.000 
#
# Total GULP energy -198315.237906 kJ/mol
# GULP energy per Si atom -12394.702369 kJ/mol
# Density = 2.401755 g / cm^3
# Si number density = 24.072339 Si / 1000 Ang^3
#
#
#
# Elastic Constant Matrix: (Units=GPa)
#
#
# Indices 1 2 3 4 5 6 
#
# 1 133.0649 31.5153 59.9065 -12.6647 -7.0615 5.3879
# 2 31.5153 90.8089 35.8639 -8.0468 8.1097 -12.8820
# 3 59.9065 35.8639 132.3297 -17.1675 10.3673 1.7187
# 4 -12.6647 -8.0468 -17.1675 31.8765 3.6595 2.6603
# 5 -7.0615 8.1097 10.3673 3.6595 40.5921 -7.0148
# 6 5.3879 -12.8820 1.7187 2.6603 -7.0148 36.6637
#
#
#
# Elastic Compliance Matrix: (Units=1/GPa)
#
#
# Indices 1 2 3 4 5 6 
#
# 1 0.010221 -0.002343 -0.004056 0.001091 0.002897 -0.001660
# 2 -0.002343 0.013734 -0.002455 0.001011 -0.001774 0.004872
# 3 -0.004056 -0.002455 0.010919 0.004223 -0.003694 -0.001791
# 4 0.001091 0.001011 0.004223 0.035184 -0.004865 -0.003487
# 5 0.002897 -0.001774 -0.003694 -0.004865 0.027701 0.004777
# 6 -0.001660 0.004872 -0.001791 -0.003487 0.004777 0.030482
#
#
# Mechanical properties :
#
#
# Convention : Reuss Voigt Hill
#
# Bulk Modulus (GPa) = 58.25255 67.86389 63.05822
# Shear Modulus (GPa) = 32.96650 37.08764 35.02707
#
# Velocity S-wave (km/s) = 3.70466 3.92940 3.81868
# Velocity P-wave (km/s) = 6.52310 6.98855 6.75983
#
# Compressibility (1/GPa) = 0.01716663
#
# Stress axis : x y z
#
# Youngs Moduli (GPa) = 97.84005 72.81313 91.58481
#
# Poissons Ratio (x) = 0.17059 0.37146
# Poissons Ratio (y) = 0.22922 0.22481
# Poissons Ratio (z) = 0.39683 0.17873
#
# Static dielectric constant tensor:
#      x y z
#    x 4.916750 0.041690 0.215550 
#    y 0.041690 4.210520 -0.043840 
#    z 0.215550 -0.043840 4.476970 
# 
# 
# High freq. dielectric constant tensor:
#      x y z
#    x 1.973040 -0.007130 0.002010 
#    y -0.007130 1.934020 -0.008460 
#    z 0.002010 -0.008460 1.954290 
# 
# From -- ./inp_files/77394.got.cif
#   From: 2010.06.25/outbox.cif.g09.slc.cpg/sg2_39_cif.got.tgz:77394.got - 2010.06.27 13:26:56.
