data_PCOD8024867
_publ_section_title
;
Structure prediction by ZEFSAII (Michael W. Deem and Ramdas Pophale) SiO2 
 PCOD8024867
Probable space group: P -1
;
_chemical_formula_sum "Si O2"
_cell_formula_units_Z 16
_cell_length_a 13.679396
_cell_length_b 19.339543
_cell_length_c 23.529415
_cell_angle_alpha 162.959769
_cell_angle_beta 155.623084
_cell_angle_gamma 32.514399
_cell_volume 733.012827
_symmetry_space_group_name_H-M "P -1"
_symmetry_group_IT_number 2
_symmetry_cell_setting 'triclinic'
loop_
_space_group_symop_operation_xyz
x,y,z
-x,-y,-z
loop_
_atom_site_type_symbol
_atom_site_label
_atom_site_fract_x
_atom_site_fract_y
_atom_site_fract_z
Si Si1 0.759584 0.179238 0.770033
Si Si2 0.605829 0.871585 0.087914
Si Si3 0.886955 0.105217 0.316053
Si Si4 0.072979 0.418912 0.913947
Si Si5 0.264662 0.568500 0.591148
Si Si6 0.437939 0.811858 0.592240
Si Si7 0.238931 0.563984 0.911809
Si Si8 0.831670 0.181753 0.037337
O O1 0.500000 0.000000 0.500000
O O2 0.767987 0.350828 0.854362
O O3 0.827633 0.346560 0.992273
O O4 0.956615 0.020327 0.741832
O O5 0.759120 0.770560 0.137479
O O6 0.743764 0.910255 0.131233
O O7 0.553610 0.119313 0.281684
O O8 0.362639 0.666773 0.782437
O O9 0.702098 0.207101 0.258389
O O10 0.049192 0.316221 0.604896
O O11 0.836583 0.285172 0.649196
O O12 0.000000 0.500000 0.000000
O O13 0.410047 0.385895 0.496216
O O14 0.976419 0.439400 0.343072
O O15 0.563926 0.071129 0.833509
O O16 0.212644 0.773343 0.017446
O O17 0.500000 0.500000 0.000000
O O18 0.000000 0.000000 0.000000
#
# Coordination Sequence:
#
# PCOD8024867 Si02
#       8
#     2   2   2   2   2   2   2   2
#     4  12  26  43  69 100 135 182 224 281 351 403
#     4  12  25  41  71  96 138 183 223 287 340 410
#     4  11  24  43  65 100 133 178 230 278 344 406
#     4  12  25  44  69 102 138 176 234 286 336 413
#     4  10  23  44  64 100 135 176 235 281 331 418
#     4  11  24  43  69  98 136 180 227 279 353 397
#     4  11  24  41  67  98 136 174 231 284 332 410
#     4   9  23  43  68  98 138 182 226 285 339 408
#
# _framework density 21.827722000000001
#
# number of rings (size 3 to 8) (size 9 to 14) (size 15 to 20)
#    0.000    1.000    3.750    1.500    5.250    4.000 
#    0.000    0.000    0.000    0.000    0.000    0.000 
#    0.000    0.000    0.000    0.000    0.000    0.000 
#
# Total GULP energy -198355.256981 kJ/mol
# GULP energy per Si atom -12397.203561 kJ/mol
# Density = 2.177804 g / cm^3
# Si number density = 21.827722 Si / 1000 Ang^3
#
#
#
# Elastic Constant Matrix: (Units=GPa)
#
#
# Indices 1 2 3 4 5 6 
#
# 1 125.5547 39.0236 56.9202 4.1615 -14.3081 1.1927
# 2 39.0236 118.5561 41.3417 4.7034 -5.1244 17.9928
# 3 56.9202 41.3417 122.9825 -3.0098 -6.0198 -3.9518
# 4 4.1615 4.7034 -3.0098 28.1770 -0.1639 0.2712
# 5 -14.3081 -5.1244 -6.0198 -0.1639 55.1078 15.9032
# 6 1.1927 17.9928 -3.9518 0.2712 15.9032 27.2510
#
#
#
# Elastic Compliance Matrix: (Units=1/GPa)
#
#
# Indices 1 2 3 4 5 6 
#
# 1 0.010854 -0.001594 -0.004453 -0.001782 0.002637 -0.001590
# 2 -0.001594 0.011948 -0.003497 -0.002015 0.003254 -0.010205
# 3 -0.004453 -0.003497 0.011509 0.002411 -0.001701 0.005141
# 4 -0.001782 -0.002015 0.002411 0.036324 -0.000820 0.001875
# 5 0.002637 0.003254 -0.001701 -0.000820 0.023650 -0.016305
# 6 -0.001590 -0.010205 0.005141 0.001875 -0.016305 0.053746
#
#
# Mechanical properties :
#
#
# Convention : Reuss Voigt Hill
#
# Bulk Modulus (GPa) = 65.69020 71.29605 68.49313
# Shear Modulus (GPa) = 29.03717 37.42768 33.23243
#
# Velocity S-wave (km/s) = 3.65127 4.14537 3.90614
# Velocity P-wave (km/s) = 6.92357 7.45963 7.19660
#
# Compressibility (1/GPa) = 0.01522297
#
# Stress axis : x y z
#
# Youngs Moduli (GPa) = 92.13608 83.69416 86.89007
#
# Poissons Ratio (x) = 0.13339 0.38694
# Poissons Ratio (y) = 0.14684 0.30384
# Poissons Ratio (z) = 0.41030 0.29267
#
# Static dielectric constant tensor:
#      x y z
#    x 3.951680 0.041950 0.164300 
#    y 0.041950 4.071580 -0.056500 
#    z 0.164300 -0.056500 4.440750 
# 
# 
# High freq. dielectric constant tensor:
#      x y z
#    x 1.850330 0.001620 0.001200 
#    y 0.001620 1.859710 -0.000910 
#    z 0.001200 -0.000910 1.881100 
# 
# From -- ./inp_files/428667.got.cif
#   From: 2010.06.25/outbox.cif.g09.slc.cpg/sg2_215_cif.got.tgz:428667.got - 2010.06.27 13:26:56.
