data_PCOD8024617
_publ_section_title
;
Structure prediction by ZEFSAII (Michael W. Deem and Ramdas Pophale) SiO2 
 PCOD8024617
Probable space group: P -1
;
_chemical_formula_sum "Si O2"
_cell_formula_units_Z 16
_cell_length_a 12.175169
_cell_length_b 8.709816
_cell_length_c 14.754034
_cell_angle_alpha 92.021729
_cell_angle_beta 150.693563
_cell_angle_gamma 79.302518
_cell_volume 725.985796
_symmetry_space_group_name_H-M "P -1"
_symmetry_group_IT_number 2
_symmetry_cell_setting 'triclinic'
loop_
_space_group_symop_operation_xyz
x,y,z
-x,-y,-z
loop_
_atom_site_type_symbol
_atom_site_label
_atom_site_fract_x
_atom_site_fract_y
_atom_site_fract_z
Si Si1 0.773652 0.521920 0.399396
Si Si2 0.698928 0.842239 0.459887
Si Si3 0.109064 0.947661 0.673890
Si Si4 0.651123 0.820490 0.797095
Si Si5 0.639555 0.688066 0.592350
Si Si6 0.952625 0.731011 0.271656
Si Si7 0.480091 0.324736 0.118797
Si Si8 0.143782 0.671678 0.224119
O O1 0.682376 0.699770 0.378769
O O2 0.561401 0.485017 0.190118
O O3 0.000000 0.500000 0.500000
O O4 0.842352 0.386239 0.523231
O O5 0.924986 0.897238 0.602850
O O6 0.733894 0.789302 0.589277
O O7 0.453786 0.985259 0.268376
O O8 0.343770 0.799706 0.825118
O O9 0.000000 0.000000 0.500000
O O10 0.174136 0.097944 0.767739
O O11 0.573059 0.774986 0.642490
O O12 0.537706 0.747112 0.795670
O O13 0.938012 0.754638 0.005321
O O14 0.398378 0.673675 0.372949
O O15 0.838130 0.515006 0.747303
O O16 0.073064 0.771224 0.268532
O O17 0.769148 0.635111 0.111302
#
# Coordination Sequence:
#
# PCOD8024617 Si02
#       8
#     2   2   2   2   2   2   2   2
#     4  12  23  43  64  94 145 172 220 279 339 394
#     4  12  24  41  70 105 136 178 219 289 342 386
#     4  12  21  43  70  96 136 179 217 273 342 402
#     4  11  24  43  69  98 130 179 231 269 337 401
#     4  11  23  43  69  96 137 173 225 280 338 397
#     4  11  23  43  68  96 128 177 232 267 331 413
#     4  11  24  42  70  95 128 183 225 270 328 414
#     4  10  23  43  69  96 129 184 222 274 334 410
#
# _framework density 22.038997999999999
#
# number of rings (size 3 to 8) (size 9 to 14) (size 15 to 20)
#    0.000    0.750    5.000    2.625    1.750    1.000 
#    0.000    2.500    0.000    0.000    0.000    0.000 
#    0.000    0.000    0.000    0.000    0.000    0.000 
#
# Total GULP energy -198405.433284 kJ/mol
# GULP energy per Si atom -12400.339580 kJ/mol
# Density = 2.198884 g / cm^3
# Si number density = 22.038998 Si / 1000 Ang^3
#
#
#
# Elastic Constant Matrix: (Units=GPa)
#
#
# Indices 1 2 3 4 5 6 
#
# 1 94.1803 31.5824 32.1584 4.5413 2.4181 2.5349
# 2 31.5824 128.4766 45.6362 6.7700 2.0000 -19.6761
# 3 32.1584 45.6362 100.3691 3.3173 13.3754 -0.6747
# 4 4.5413 6.7700 3.3173 42.0200 -4.4473 2.5701
# 5 2.4181 2.0000 13.3754 -4.4473 24.2422 -1.9904
# 6 2.5349 -19.6761 -0.6747 2.5701 -1.9904 38.7680
#
#
#
# Elastic Compliance Matrix: (Units=1/GPa)
#
#
# Indices 1 2 3 4 5 6 
#
# 1 0.012479 -0.002277 -0.003000 -0.000590 0.000329 -0.001968
# 2 -0.002277 0.010813 -0.004369 -0.001293 0.001981 0.005748
# 3 -0.003000 -0.004369 0.013895 -0.000714 -0.007311 -0.002108
# 4 -0.000590 -0.001293 -0.000714 0.024773 0.004938 -0.002019
# 5 0.000329 0.001981 -0.007311 0.004938 0.046232 0.002903
# 6 -0.001968 0.005748 -0.002108 -0.002019 0.002903 0.029087
#
#
# Mechanical properties :
#
#
# Convention : Reuss Voigt Hill
#
# Bulk Modulus (GPa) = 55.88859 60.19778 58.04318
# Shear Modulus (GPa) = 30.76223 35.24931 33.00577
#
# Velocity S-wave (km/s) = 3.74011 4.00360 3.87409
# Velocity P-wave (km/s) = 6.63816 6.98178 6.81214
#
# Compressibility (1/GPa) = 0.01789274
#
# Stress axis : x y z
#
# Youngs Moduli (GPa) = 80.13413 92.48092 71.96885
#
# Poissons Ratio (x) = 0.21061 0.21594
# Poissons Ratio (y) = 0.18249 0.31446
# Poissons Ratio (z) = 0.24044 0.40409
#
# Static dielectric constant tensor:
#      x y z
#    x 4.644420 -0.463680 0.314800 
#    y -0.463680 4.346470 -0.085950 
#    z 0.314800 -0.085950 3.908190 
# 
# 
# High freq. dielectric constant tensor:
#      x y z
#    x 1.877490 -0.014210 0.006520 
#    y -0.014210 1.865570 0.001080 
#    z 0.006520 0.001080 1.859330 
# 
# From -- ./inp_files/221650.got.cif
#   From: 2010.06.25/outbox.cif.g09.slc.cpg/sg2_111_cif.got.tgz:221650.got - 2010.06.27 13:26:56.
