data_PCOD8024495
_publ_section_title
;
Structure prediction by ZEFSAII (Michael W. Deem and Ramdas Pophale) SiO2 
 PCOD8024495
Probable space group: P -1
;
_chemical_formula_sum "Si O2"
_cell_formula_units_Z 16
_cell_length_a 10.254108
_cell_length_b 11.527502
_cell_length_c 9.065358
_cell_angle_alpha 86.793637
_cell_angle_beta 100.408932
_cell_angle_gamma 38.556283
_cell_volume 621.974302
_symmetry_space_group_name_H-M "P -1"
_symmetry_group_IT_number 2
_symmetry_cell_setting 'triclinic'
loop_
_space_group_symop_operation_xyz
x,y,z
-x,-y,-z
loop_
_atom_site_type_symbol
_atom_site_label
_atom_site_fract_x
_atom_site_fract_y
_atom_site_fract_z
Si Si1 0.685226 0.311109 0.350553
Si Si2 0.591993 0.560325 0.962179
Si Si3 0.427428 0.119086 0.331772
Si Si4 0.188859 0.444227 0.471835
Si Si5 0.913617 0.068899 0.693594
Si Si6 0.868778 0.845486 0.255103
Si Si7 0.932152 0.683073 0.977266
Si Si8 0.479703 0.706230 0.228513
O O1 0.521013 0.336661 0.227488
O O2 0.712950 0.246515 0.527194
O O3 0.582464 0.509873 0.307590
O O4 0.930572 0.138396 0.335213
O O5 0.500000 0.500000 0.000000
O O6 0.512031 0.709551 0.060365
O O7 0.859391 0.380511 0.016325
O O8 0.280908 0.332901 0.341772
O O9 0.266263 0.154699 0.192784
O O10 0.500000 0.000000 0.500000
O O11 0.642321 0.008006 0.291822
O O12 0.388012 0.296167 0.643638
O O13 0.000000 0.500000 0.500000
O O14 0.078573 0.648463 0.408246
O O15 0.786364 0.103700 0.805385
O O16 0.064270 0.070387 0.777060
O O17 0.835359 0.789175 0.108550
O O18 0.000000 0.500000 0.000000
#
# Coordination Sequence:
#
# PCOD8024495 Si02
#       8
#     2   2   2   2   2   2   2   2
#     4  10  23  43  68 102 143 181 239 289 360 426
#     4  10  24  45  72 100 143 192 235 293 366 431
#     4  12  28  48  74 105 146 195 247 298 362 440
#     4  12  25  45  70 104 144 191 242 295 363 430
#     4  11  25  41  72 108 138 182 241 297 357 427
#     4  12  26  46  75 106 146 187 240 304 366 431
#     4  12  27  48  78 107 149 194 243 306 372 435
#     4  11  24  43  71  98 144 187 233 292 360 426
#
# _framework density 25.724537000000002
#
# number of rings (size 3 to 8) (size 9 to 14) (size 15 to 20)
#    0.000    0.750    3.750    3.000    7.000    0.500 
#    2.250    0.000    0.000    0.000    0.000    0.000 
#    0.000    0.000    0.000    0.000    0.000    0.000 
#
# Total GULP energy -198396.815995 kJ/mol
# GULP energy per Si atom -12399.801000 kJ/mol
# Density = 2.566599 g / cm^3
# Si number density = 25.724537 Si / 1000 Ang^3
#
#
#
# Elastic Constant Matrix: (Units=GPa)
#
#
# Indices 1 2 3 4 5 6 
#
# 1 97.8105 35.6790 25.1236 7.2245 17.8830 -40.6945
# 2 35.6790 128.5148 16.7816 25.1950 2.3363 -33.5752
# 3 25.1236 16.7816 135.4193 11.5923 34.5574 -22.4169
# 4 7.2245 25.1950 11.5923 51.4610 -3.5436 1.2032
# 5 17.8830 2.3363 34.5574 -3.5436 35.1553 -3.0651
# 6 -40.6945 -33.5752 -22.4169 1.2032 -3.0651 42.2122
#
#
#
# Elastic Compliance Matrix: (Units=1/GPa)
#
#
# Indices 1 2 3 4 5 6 
#
# 1 0.020791 0.000727 0.003283 -0.005381 -0.012510 0.021611
# 2 0.000727 0.011450 0.001270 -0.006385 -0.002107 0.010512
# 3 0.003283 0.001270 0.012028 -0.004931 -0.013225 0.009743
# 4 -0.005381 -0.006385 -0.004931 0.025377 0.009440 -0.012923
# 5 -0.012510 -0.002107 -0.013225 0.009440 0.047367 -0.017589
# 6 0.021611 0.010512 0.009743 -0.012923 -0.017589 0.057150
#
#
# Mechanical properties :
#
#
# Convention : Reuss Voigt Hill
#
# Bulk Modulus (GPa) = 18.23812 57.43479 37.83645
# Shear Modulus (GPa) = 27.49114 44.70973 36.10043
#
# Velocity S-wave (km/s) = 3.27260 4.17348 3.75019
# Velocity P-wave (km/s) = 4.62440 6.75272 5.78724
#
# Compressibility (1/GPa) = 0.05483020
#
# Stress axis : x y z
#
# Youngs Moduli (GPa) = 48.09760 87.33867 83.14069
#
# Poissons Ratio (x) = -0.06353 -0.27294
# Poissons Ratio (y) = -0.03499 -0.10563
# Poissons Ratio (z) = -0.15790 -0.11096
#
# Static dielectric constant tensor:
#      x y z
#    x 4.365970 -0.170100 0.352620 
#    y -0.170100 5.314460 0.081120 
#    z 0.352620 0.081120 5.360320 
# 
# 
# High freq. dielectric constant tensor:
#      x y z
#    x 2.010170 -0.009820 0.015110 
#    y -0.009820 2.043270 0.009380 
#    z 0.015110 0.009380 2.041770 
# 
# From -- ./inp_files/273174.got.cif
#   From: 2010.06.25/outbox.cif.g09.slc.cpg/sg2_137_cif.got.tgz:273174.got - 2010.06.27 13:26:56.
