data_PCOD8024960
_publ_section_title
;
Structure prediction by ZEFSAII (Michael W. Deem and Ramdas Pophale) SiO2 
 PCOD8024960
Probable space group: P -1
;
_chemical_formula_sum "Si O2"
_cell_formula_units_Z 12
_cell_length_a 19.909596
_cell_length_b 11.488999
_cell_length_c 11.663938
_cell_angle_alpha 39.177379
_cell_angle_beta 20.559940
_cell_angle_gamma 38.464865
_cell_volume 571.917703
_symmetry_space_group_name_H-M "P -1"
_symmetry_group_IT_number 2
_symmetry_cell_setting 'triclinic'
loop_
_space_group_symop_operation_xyz
x,y,z
-x,-y,-z
loop_
_atom_site_type_symbol
_atom_site_label
_atom_site_fract_x
_atom_site_fract_y
_atom_site_fract_z
Si Si1 0.119841 0.174791 0.772299
Si Si2 0.776882 0.998649 0.832526
Si Si3 0.361410 0.355116 0.611072
Si Si4 0.784995 0.219236 0.431440
Si Si5 0.454456 0.301774 0.244766
Si Si6 0.720361 0.222746 0.285096
O O1 0.259073 0.312351 0.472487
O O2 0.261085 0.985605 0.637741
O O3 0.014485 0.131409 0.092374
O O4 0.938813 0.268593 0.901015
O O5 0.719098 0.086429 0.731568
O O6 0.635556 0.127048 0.053780
O O7 0.000000 0.000000 0.500000
O O8 0.752292 0.783434 0.037347
O O9 0.227317 0.570874 0.656831
O O10 0.415182 0.271801 0.462997
O O11 0.559309 0.366525 0.355803
O O12 0.647452 0.230209 0.528969
O O13 0.500000 0.500000 0.000000
#
# Coordination Sequence:
#
# PCOD8024960 Si02
#       6
#     2   2   2   2   2   2
#     4   9  21  43  68  92 136 176 213 273 326 387
#     4  12  27  40  66 102 130 174 220 272 332 391
#     4  12  24  43  71  96 136 173 221 273 329 397
#     4  10  23  44  66  98 137 165 225 270 328 386
#     4  12  25  44  66  97 134 176 218 273 335 385
#     4   9  21  42  71  94 131 183 213 268 335 385
#
# _framework density 20.982040000000001
#
# number of rings (size 3 to 8) (size 9 to 14) (size 15 to 20)
#    1.000    0.333    3.333    2.000    4.667    2.000 
#    0.000    0.833    0.000    0.000    0.000    0.000 
#    0.000    0.000    0.000    0.000    0.000    0.000 
#
# Total GULP energy -148718.714333 kJ/mol
# GULP energy per Si atom -12393.226194 kJ/mol
# Density = 2.093428 g / cm^3
# Si number density = 20.982040 Si / 1000 Ang^3
#
#
#
# Elastic Constant Matrix: (Units=GPa)
#
#
# Indices 1 2 3 4 5 6 
#
# 1 107.9083 35.1488 44.6223 -6.0687 -18.9488 14.4322
# 2 35.1488 76.3930 39.7888 -11.9410 17.9865 11.3923
# 3 44.6223 39.7888 93.1618 -16.1226 -10.6243 9.2896
# 4 -6.0687 -11.9410 -16.1226 36.7165 3.4139 6.1911
# 5 -18.9488 17.9865 -10.6243 3.4139 35.8568 9.9411
# 6 14.4322 11.3923 9.2896 6.1911 9.9411 30.9489
#
#
#
# Elastic Compliance Matrix: (Units=1/GPa)
#
#
# Indices 1 2 3 4 5 6 
#
# 1 0.016898 -0.009554 -0.001499 -0.000958 0.015809 -0.008800
# 2 -0.009554 0.028357 -0.009716 0.004978 -0.023601 0.003519
# 3 -0.001499 -0.009716 0.018123 0.004489 0.010534 -0.005446
# 4 -0.000958 0.004978 0.004489 0.032312 -0.002415 -0.008421
# 5 0.015809 -0.023601 0.010534 -0.002415 0.056876 -0.019632
# 6 -0.008800 0.003519 -0.005446 -0.008421 -0.019632 0.044745
#
#
# Mechanical properties :
#
#
# Convention : Reuss Voigt Hill
#
# Bulk Modulus (GPa) = 45.78702 57.39809 51.59256
# Shear Modulus (GPa) = 20.31466 31.23131 25.77298
#
# Velocity S-wave (km/s) = 3.11496 3.86227 3.50856
# Velocity P-wave (km/s) = 5.89972 6.87784 6.40747
#
# Compressibility (1/GPa) = 0.02184025
#
# Stress axis : x y z
#
# Youngs Moduli (GPa) = 59.17846 35.26503 55.17948
#
# Poissons Ratio (x) = 0.33692 0.08271
# Poissons Ratio (y) = 0.56539 0.53611
# Poissons Ratio (z) = 0.08870 0.34263
#
# Static dielectric constant tensor:
#      x y z
#    x 3.987360 0.174620 0.004670 
#    y 0.174620 3.652840 0.169110 
#    z 0.004670 0.169110 3.727930 
# 
# 
# High freq. dielectric constant tensor:
#      x y z
#    x 1.829430 0.018670 -0.006780 
#    y 0.018670 1.813900 0.016260 
#    z -0.006780 0.016260 1.810060 
# 
# From -- ./inp_files/204482.got.cif
#   From: 2010.06.25/outbox.cif.g09.slc.cpg/sg2_103_cif.got.tgz:204482.got - 2010.06.27 13:26:56.
