data_PCOD8024624
_publ_section_title
;
Structure prediction by ZEFSAII (Michael W. Deem and Ramdas Pophale) SiO2 
 PCOD8024624
Probable space group: P -1
;
_chemical_formula_sum "Si O2"
_cell_formula_units_Z 10
_cell_length_a 15.130375
_cell_length_b 14.819587
_cell_length_c 8.666535
_cell_angle_alpha 127.889934
_cell_angle_beta 139.268658
_cell_angle_gamma 20.729264
_cell_volume 409.459012
_symmetry_space_group_name_H-M "P -1"
_symmetry_group_IT_number 2
_symmetry_cell_setting 'triclinic'
loop_
_space_group_symop_operation_xyz
x,y,z
-x,-y,-z
loop_
_atom_site_type_symbol
_atom_site_label
_atom_site_fract_x
_atom_site_fract_y
_atom_site_fract_z
Si Si1 0.422282 0.092824 0.244656
Si Si2 0.889013 0.909788 0.804974
Si Si3 0.200574 0.799300 0.849350
Si Si4 0.314552 0.312909 0.021884
Si Si5 0.461842 0.625834 0.709825
O O1 0.388404 0.193692 0.153084
O O2 0.658391 0.976744 0.555302
O O3 0.068881 0.350246 0.132271
O O4 0.592275 0.841316 0.160735
O O5 0.890958 0.979540 0.717430
O O6 0.245142 0.596115 0.008632
O O7 0.742127 0.110972 0.945674
O O8 0.150716 0.834526 0.632505
O O9 0.500000 0.500000 0.000000
O O10 0.549634 0.242883 0.249767
O O11 0.500000 0.500000 0.500000
#
# Coordination Sequence:
#
# PCOD8024624 Si02
#       5
#     2   2   2   2   2
#     4  10  24  46  70  95 138 183 228 272 342 413
#     4  10  23  43  69  97 130 186 222 278 342 405
#     4   9  22  41  64 100 131 176 225 272 345 402
#     4  10  25  44  68 102 134 180 226 283 337 401
#     4  11  26  42  66 103 137 173 226 289 338 396
#
# _framework density 24.422467999999999
#
# number of rings (size 3 to 8) (size 9 to 14) (size 15 to 20)
#    0.000    2.000    0.000    0.000   16.800    5.600 
#    0.000    0.000    0.000    0.000    0.000    0.000 
#    0.000    0.000    0.000    0.000    0.000    0.000 
#
# Total GULP energy -123940.093661 kJ/mol
# GULP energy per Si atom -12394.009366 kJ/mol
# Density = 2.436688 g / cm^3
# Si number density = 24.422468 Si / 1000 Ang^3
#
#
#
# Elastic Constant Matrix: (Units=GPa)
#
#
# Indices 1 2 3 4 5 6 
#
# 1 111.3163 31.6516 24.1105 15.7530 5.7345 -16.4000
# 2 31.6516 131.8792 22.7360 40.4055 13.1733 -19.9302
# 3 24.1105 22.7360 91.4749 18.5246 13.5014 -9.9674
# 4 15.7530 40.4055 18.5246 38.5598 3.3564 1.9117
# 5 5.7345 13.1733 13.5014 3.3564 39.7338 6.7326
# 6 -16.4000 -19.9302 -9.9674 1.9117 6.7326 38.4736
#
#
#
# Elastic Compliance Matrix: (Units=1/GPa)
#
#
# Indices 1 2 3 4 5 6 
#
# 1 0.010581 -0.000548 -0.001341 -0.003199 -0.001343 0.004273
# 2 -0.000548 0.014011 0.001515 -0.015172 -0.005342 0.009106
# 3 -0.001341 0.001515 0.013733 -0.007435 -0.005203 0.005051
# 4 -0.003199 -0.015172 -0.007435 0.046867 0.006537 -0.014622
# 5 -0.001343 -0.005342 -0.005203 0.006537 0.030090 -0.010278
# 6 0.004273 0.009106 0.005051 -0.014622 -0.010278 0.036364
#
#
# Mechanical properties :
#
#
# Convention : Reuss Voigt Hill
#
# Bulk Modulus (GPa) = 26.61171 54.62961 40.62066
# Shear Modulus (GPa) = 30.31770 40.43159 35.37465
#
# Velocity S-wave (km/s) = 3.52715 4.07321 3.80998
# Velocity P-wave (km/s) = 5.24479 6.67372 6.00193
#
# Compressibility (1/GPa) = 0.03757745
#
# Stress axis : x y z
#
# Youngs Moduli (GPa) = 94.50719 71.37052 72.81865
#
# Poissons Ratio (x) = 0.03913 0.09765
# Poissons Ratio (y) = 0.05182 -0.11034
# Poissons Ratio (z) = 0.12673 -0.10815
#
# Static dielectric constant tensor:
#      x y z
#    x 4.981470 -0.556590 0.039070 
#    y -0.556590 4.141280 0.092980 
#    z 0.039070 0.092980 4.119270 
# 
# 
# High freq. dielectric constant tensor:
#      x y z
#    x 1.989050 -0.003290 -0.006510 
#    y -0.003290 1.978520 0.001930 
#    z -0.006510 0.001930 1.960090 
# 
# From -- ./inp_files/15430.got.cif
#   From: 2010.06.25/outbox.cif.g09.slc.cpg/sg2_8_cif.got.tgz:15430.got - 2010.06.27 13:26:56.
