data_PCOD8024987
_publ_section_title
;
Structure prediction by ZEFSAII (Michael W. Deem and Ramdas Pophale) SiO2 
 PCOD8024987
Probable space group: P -1
;
_chemical_formula_sum "Si O2"
_cell_formula_units_Z 14
_cell_length_a 15.066163
_cell_length_b 20.920666
_cell_length_c 8.982003
_cell_angle_alpha 148.441506
_cell_angle_beta 51.020253
_cell_angle_gamma 150.015657
_cell_volume 673.113387
_symmetry_space_group_name_H-M "P -1"
_symmetry_group_IT_number 2
_symmetry_cell_setting 'triclinic'
loop_
_space_group_symop_operation_xyz
x,y,z
-x,-y,-z
loop_
_atom_site_type_symbol
_atom_site_label
_atom_site_fract_x
_atom_site_fract_y
_atom_site_fract_z
Si Si1 0.142725 0.390268 0.435260
Si Si2 0.523364 0.378502 0.260119
Si Si3 0.729991 0.007058 0.616897
Si Si4 0.965911 0.828058 0.180227
Si Si5 0.110482 0.967656 0.796230
Si Si6 0.695749 0.432662 0.886044
Si Si7 0.041042 0.560986 0.749575
O O1 0.369230 0.565445 0.588476
O O2 0.020190 0.254388 0.442791
O O3 0.096620 0.486842 0.628429
O O4 0.090349 0.248797 0.081822
O O5 0.500000 0.500000 0.500000
O O6 0.646383 0.438686 0.110862
O O7 0.309828 0.135236 0.012329
O O8 0.840120 0.018357 0.399923
O O9 0.826525 0.053809 0.765226
O O10 0.498625 0.783970 0.422979
O O11 0.776490 0.191087 0.915016
O O12 0.796247 0.626320 0.066072
O O13 0.000000 0.000000 0.500000
O O14 0.000000 0.000000 0.000000
O O15 0.840171 0.445249 0.789933
O O16 0.000000 0.500000 0.500000
#
# Coordination Sequence:
#
# PCOD8024987 Si02
#       7
#     2   2   2   2   2   2   2
#     4  12  24  42  68 100 131 178 221 275 337 392
#     4  11  25  42  67  98 132 172 221 271 336 399
#     4  10  23  44  67  92 135 180 218 279 329 387
#     4  11  24  40  64 100 135 172 223 273 335 397
#     4  11  23  42  68  96 134 173 219 275 336 395
#     4  10  24  45  67  95 136 178 218 279 331 389
#     4  11  23  46  65  98 138 176 227 272 329 393
#
# _framework density 20.798871999999999
#
# number of rings (size 3 to 8) (size 9 to 14) (size 15 to 20)
#    0.000    1.143    4.286    2.571    4.000    5.714 
#    0.000    2.857    0.000    0.000    0.000    0.000 
#    0.000    0.000    0.000    0.000    0.000    0.000 
#
# Total GULP energy -173570.467258 kJ/mol
# GULP energy per Si atom -12397.890518 kJ/mol
# Density = 2.075153 g / cm^3
# Si number density = 20.798872 Si / 1000 Ang^3
#
#
#
# Elastic Constant Matrix: (Units=GPa)
#
#
# Indices 1 2 3 4 5 6 
#
# 1 150.7145 50.1300 61.0439 11.9171 -1.2195 16.4973
# 2 50.1300 76.1568 45.6319 13.7875 -1.4922 20.6021
# 3 61.0439 45.6319 136.9549 13.4710 1.3210 18.4211
# 4 11.9171 13.7875 13.4710 41.0486 3.3061 -1.4453
# 5 -1.2195 -1.4922 1.3210 3.3061 53.1874 3.4546
# 6 16.4973 20.6021 18.4211 -1.4453 3.4546 24.6388
#
#
#
# Elastic Compliance Matrix: (Units=1/GPa)
#
#
# Indices 1 2 3 4 5 6 
#
# 1 0.009195 -0.004232 -0.002541 -0.000461 0.000234 -0.000779
# 2 -0.004232 0.022920 -0.003212 -0.006085 0.001950 -0.014560
# 3 -0.002541 -0.003212 0.010100 -0.001605 -0.000089 -0.003245
# 4 -0.000461 -0.006085 -0.001605 0.027561 -0.002410 0.008551
# 5 0.000234 0.001950 -0.000089 -0.002410 0.019310 -0.004570
# 6 -0.000779 -0.014560 -0.003245 0.008551 -0.004570 0.056851
#
#
# Mechanical properties :
#
#
# Convention : Reuss Voigt Hill
#
# Bulk Modulus (GPa) = 44.95366 75.27088 60.11227
# Shear Modulus (GPa) = 28.84805 37.57631 33.21218
#
# Velocity S-wave (km/s) = 3.72829 4.25508 4.00037
# Velocity P-wave (km/s) = 6.33987 7.77235 7.09237
#
# Compressibility (1/GPa) = 0.02224513
#
# Stress axis : x y z
#
# Youngs Moduli (GPa) = 108.75181 43.63045 99.01253
#
# Poissons Ratio (x) = 0.18463 0.25157
# Poissons Ratio (y) = 0.46021 0.31806
# Poissons Ratio (z) = 0.27632 0.14015
#
# Static dielectric constant tensor:
#      x y z
#    x 3.770330 0.069870 0.599120 
#    y 0.069870 3.835190 0.045610 
#    z 0.599120 0.045610 4.235810 
# 
# 
# High freq. dielectric constant tensor:
#      x y z
#    x 1.816480 0.008960 0.011200 
#    y 0.008960 1.807400 0.003610 
#    z 0.011200 0.003610 1.837750 
# 
# From -- ./inp_files/281364.got.cif
#   From: 2010.06.25/outbox.cif.g09.slc.cpg/sg2_141_cif.got.tgz:281364.got - 2010.06.27 13:26:56.
