data_PCOD8024008
_publ_section_title
;
Structure prediction by ZEFSAII (Michael W. Deem and Ramdas Pophale) SiO2 
 PCOD8024008
Probable space group: P -1
;
_chemical_formula_sum "Si O2"
_cell_formula_units_Z 16
_cell_length_a 9.165276
_cell_length_b 14.872909
_cell_length_c 18.866741
_cell_angle_alpha 142.042354
_cell_angle_beta 150.955425
_cell_angle_gamma 37.299798
_cell_volume 717.803744
_symmetry_space_group_name_H-M "P -1"
_symmetry_group_IT_number 2
_symmetry_cell_setting 'triclinic'
loop_
_space_group_symop_operation_xyz
x,y,z
-x,-y,-z
loop_
_atom_site_type_symbol
_atom_site_label
_atom_site_fract_x
_atom_site_fract_y
_atom_site_fract_z
Si Si1 0.822590 0.288272 0.707501
Si Si2 0.867183 0.798125 0.072851
Si Si3 0.208745 0.664682 0.988155
Si Si4 0.497872 0.047764 0.446452
Si Si5 0.786802 0.464352 0.447207
Si Si6 0.276717 0.211121 0.725206
Si Si7 0.844519 0.517377 0.655908
Si Si8 0.180371 0.866563 0.771666
O O1 0.582332 0.201085 0.571381
O O2 0.596269 0.453554 0.681131
O O3 0.992886 0.307937 0.864824
O O4 0.097293 0.194789 0.710430
O O5 0.854327 0.977258 0.191892
O O6 0.499624 0.810899 0.919101
O O7 0.083215 0.710288 0.043554
O O8 0.896944 0.666063 0.810052
O O9 0.500000 0.500000 0.000000
O O10 0.359709 0.793706 0.106509
O O11 0.139317 0.085169 0.285724
O O12 0.500000 0.000000 0.500000
O O13 0.736618 0.918759 0.416812
O O14 0.909816 0.531687 0.609770
O O15 0.833606 0.283272 0.371694
O O16 0.000000 0.500000 0.500000
O O17 0.100352 0.371463 0.710607
O O18 0.500000 0.500000 0.500000
#
# Coordination Sequence:
#
# PCOD8024008 Si02
#       8
#     2   2   2   2   2   2   2   2
#     4  12  26  44  69 109 138 181 233 298 350 406
#     4  11  25  47  73 101 138 187 240 279 353 427
#     4  10  23  42  69 100 137 187 230 279 347 422
#     4  12  22  45  73  99 140 186 233 288 345 427
#     4  12  26  42  71 105 139 177 238 290 351 408
#     4  11  24  44  66 104 142 184 230 286 355 413
#     4  11  23  44  67 102 139 183 229 284 352 416
#     4  11  24  45  72 101 135 186 235 282 348 422
#
# _framework density 22.290216000000001
#
# number of rings (size 3 to 8) (size 9 to 14) (size 15 to 20)
#    0.000    0.750    5.000    1.875    5.250    1.500 
#    0.000    0.625    0.000    0.000    0.000    0.000 
#    0.000    0.000    0.000    0.000    0.000    0.000 
#
# Total GULP energy -198211.366255 kJ/mol
# GULP energy per Si atom -12388.210391 kJ/mol
# Density = 2.223948 g / cm^3
# Si number density = 22.290216 Si / 1000 Ang^3
#
#
#
# Elastic Constant Matrix: (Units=GPa)
#
#
# Indices 1 2 3 4 5 6 
#
# 1 153.6249 27.4000 56.0347 -6.1214 -14.5593 -14.3839
# 2 27.4000 73.7177 34.3844 4.8854 -12.4144 -8.8681
# 3 56.0347 34.3844 118.8417 -12.3054 -4.7296 -5.0321
# 4 -6.1214 4.8854 -12.3054 32.6147 -8.2461 -0.5193
# 5 -14.5593 -12.4144 -4.7296 -8.2461 44.2059 -1.8607
# 6 -14.3839 -8.8681 -5.0321 -0.5193 -1.8607 30.5868
#
#
#
# Elastic Compliance Matrix: (Units=1/GPa)
#
#
# Indices 1 2 3 4 5 6 
#
# 1 0.008502 -0.000805 -0.003414 0.001130 0.002562 0.003378
# 2 -0.000805 0.017391 -0.004704 -0.003550 0.003624 0.004050
# 3 -0.003414 -0.004704 0.011782 0.004391 -0.000407 -0.000981
# 4 0.001130 -0.003550 0.004391 0.034690 0.006366 0.001201
# 5 0.002562 0.003624 -0.000407 0.006366 0.025790 0.003865
# 6 0.003378 0.004050 -0.000981 0.001201 0.003865 0.035551
#
#
# Mechanical properties :
#
#
# Convention : Reuss Voigt Hill
#
# Bulk Modulus (GPa) = 50.42934 64.64695 57.53815
# Shear Modulus (GPa) = 31.61297 36.70582 34.15940
#
# Velocity S-wave (km/s) = 3.77004 4.06239 3.91894
# Velocity P-wave (km/s) = 6.45167 7.14628 6.80784
#
# Compressibility (1/GPa) = 0.01982973
#
# Stress axis : x y z
#
# Youngs Moduli (GPa) = 117.61510 57.49957 84.87328
#
# Poissons Ratio (x) = 0.04628 0.28976
# Poissons Ratio (y) = 0.09466 0.39927
# Poissons Ratio (z) = 0.40154 0.27049
#
# Static dielectric constant tensor:
#      x y z
#    x 4.049120 -0.194790 0.051350 
#    y -0.194790 4.119850 0.143240 
#    z 0.051350 0.143240 4.653590 
# 
# 
# High freq. dielectric constant tensor:
#      x y z
#    x 1.871400 -0.018590 0.015540 
#    y -0.018590 1.865020 0.003080 
#    z 0.015540 0.003080 1.897260 
# 
# From -- ./inp_files/466068.got.cif
#   From: 2010.06.25/outbox.cif.g09.slc.cpg/sg2_234_cif.got.tgz:466068.got - 2010.06.27 13:26:56.
