data_PCOD8024032
_publ_section_title
;
Structure prediction by ZEFSAII (Michael W. Deem and Ramdas Pophale) SiO2 
 PCOD8024032
Probable space group: P -1
;
_chemical_formula_sum "Si O2"
_cell_formula_units_Z 16
_cell_length_a 9.623231
_cell_length_b 23.627503
_cell_length_c 8.118799
_cell_angle_alpha 54.966849
_cell_angle_beta 99.007122
_cell_angle_gamma 52.846493
_cell_volume 767.012299
_symmetry_space_group_name_H-M "P -1"
_symmetry_group_IT_number 2
_symmetry_cell_setting 'triclinic'
loop_
_space_group_symop_operation_xyz
x,y,z
-x,-y,-z
loop_
_atom_site_type_symbol
_atom_site_label
_atom_site_fract_x
_atom_site_fract_y
_atom_site_fract_z
Si Si1 0.163031 0.871920 0.653542
Si Si2 0.137581 0.100407 0.685500
Si Si3 0.094137 0.581069 0.488133
Si Si4 0.544758 0.026960 0.732615
Si Si5 0.096032 0.729014 0.351033
Si Si6 0.975073 0.499491 0.805896
Si Si7 0.482383 0.641583 0.324696
Si Si8 0.348059 0.240483 0.150383
O O1 0.431881 0.791553 0.761018
O O2 0.985947 0.914245 0.401655
O O3 0.236261 0.781407 0.947498
O O4 0.000000 0.000000 0.500000
O O5 0.275016 0.093035 0.588415
O O6 0.901998 0.240919 0.511784
O O7 0.375397 0.975646 0.066900
O O8 0.124736 0.634131 0.523776
O O9 0.121117 0.500009 0.734186
O O10 0.332320 0.481199 0.561374
O O11 0.793136 0.712338 0.131061
O O12 0.483344 0.113117 0.449525
O O13 0.805506 0.873091 0.971130
O O14 0.351235 0.648466 0.427625
O O15 0.661942 0.624787 0.477517
O O16 0.118130 0.365560 0.022792
O O17 0.000000 0.500000 0.000000
#
# Coordination Sequence:
#
# PCOD8024032 Si02
#       8
#     2   2   2   2   2   2   2   2
#     4  12  25  40  68  97 131 173 210 280 327 383
#     4   9  24  44  62  98 137 167 221 268 326 391
#     4  11  23  45  67  96 132 175 217 268 323 392
#     4   9  22  43  66  95 130 173 219 267 325 386
#     4  10  23  42  69  93 134 174 214 273 323 385
#     4  11  25  42  70  93 131 177 218 265 327 394
#     4  11  23  45  60 103 131 165 226 265 328 386
#     4  11  23  42  67  95 132 171 220 268 324 389
#
# _framework density 20.860157999999998
#
# number of rings (size 3 to 8) (size 9 to 14) (size 15 to 20)
#    0.750    0.750    2.500    1.875    7.000    2.000 
#    0.000    1.250    0.000    0.000    0.000    0.000 
#    0.000    0.000    0.000    0.000    0.000    0.000 
#
# Total GULP energy -198369.310476 kJ/mol
# GULP energy per Si atom -12398.081905 kJ/mol
# Density = 2.081268 g / cm^3
# Si number density = 20.860158 Si / 1000 Ang^3
#
#
#
# Elastic Constant Matrix: (Units=GPa)
#
#
# Indices 1 2 3 4 5 6 
#
# 1 110.7420 47.5390 16.8931 -4.6686 8.9535 -1.6082
# 2 47.5390 115.9827 23.7070 -0.5182 10.7501 14.9780
# 3 16.8931 23.7070 68.8612 -5.4582 -1.3807 10.0835
# 4 -4.6686 -0.5182 -5.4582 28.2150 3.2018 0.3971
# 5 8.9535 10.7501 -1.3807 3.2018 30.1270 -2.1551
# 6 -1.6082 14.9780 10.0835 0.3971 -2.1551 38.6655
#
#
#
# Elastic Compliance Matrix: (Units=1/GPa)
#
#
# Indices 1 2 3 4 5 6 
#
# 1 0.011466 -0.004532 -0.001523 0.001695 -0.001861 0.002509
# 2 -0.004532 0.011832 -0.002441 -0.000577 -0.003234 -0.004310
# 3 -0.001523 -0.002441 0.016478 0.002763 0.001545 -0.003357
# 4 0.001695 -0.000577 0.002763 0.036732 -0.004149 -0.001035
# 5 -0.001861 -0.003234 0.001545 -0.004149 0.035612 0.002800
# 6 0.002509 -0.004310 -0.003357 -0.001035 0.002800 0.028679
#
#
# Mechanical properties :
#
#
# Convention : Reuss Voigt Hill
#
# Bulk Modulus (GPa) = 43.89165 52.42934 48.16049
# Shear Modulus (GPa) = 30.23225 33.23129 31.73177
#
# Velocity S-wave (km/s) = 3.81107 3.99563 3.90444
# Velocity P-wave (km/s) = 6.36021 6.81726 6.59270
#
# Compressibility (1/GPa) = 0.02278337
#
# Stress axis : x y z
#
# Youngs Moduli (GPa) = 87.21180 84.51322 60.68880
#
# Poissons Ratio (x) = 0.38305 0.09242
# Poissons Ratio (y) = 0.39529 0.14815
# Poissons Ratio (z) = 0.13281 0.20631
#
# Static dielectric constant tensor:
#      x y z
#    x 3.806640 -0.061140 0.166040 
#    y -0.061140 3.647570 -0.071450 
#    z 0.166040 -0.071450 3.699780 
# 
# 
# High freq. dielectric constant tensor:
#      x y z
#    x 1.819800 -0.003180 0.006390 
#    y -0.003180 1.813460 -0.005470 
#    z 0.006390 -0.005470 1.806670 
# 
# From -- ./inp_files/226141.got.cif
#   From: 2010.06.25/outbox.cif.g09.slc.cpg/sg2_114_cif.got.tgz:226141.got - 2010.06.27 13:26:56.
