data_PCOD8024222
_publ_section_title
;
Structure prediction by ZEFSAII (Michael W. Deem and Ramdas Pophale) SiO2 
 PCOD8024222
Probable space group: P -1
;
_chemical_formula_sum "Si O2"
_cell_formula_units_Z 16
_cell_length_a 11.623919
_cell_length_b 9.169849
_cell_length_c 12.987303
_cell_angle_alpha 127.738200
_cell_angle_beta 46.322637
_cell_angle_gamma 101.520506
_cell_volume 729.117210
_symmetry_space_group_name_H-M "P -1"
_symmetry_group_IT_number 2
_symmetry_cell_setting 'triclinic'
loop_
_space_group_symop_operation_xyz
x,y,z
-x,-y,-z
loop_
_atom_site_type_symbol
_atom_site_label
_atom_site_fract_x
_atom_site_fract_y
_atom_site_fract_z
Si Si1 0.618710 0.596555 0.247732
Si Si2 0.942612 0.219265 0.580266
Si Si3 0.235234 0.824910 0.526909
Si Si4 0.953769 0.882890 0.886474
Si Si5 0.099338 0.463929 0.109910
Si Si6 0.650005 0.157759 0.042852
Si Si7 0.686444 0.894493 0.714104
Si Si8 0.252654 0.199992 0.590665
O O1 0.433189 0.681877 0.349185
O O2 0.679822 0.360466 0.124270
O O3 0.607861 0.720646 0.413595
O O4 0.759229 0.638377 0.108990
O O5 0.823782 0.251266 0.570968
O O6 0.835969 0.388102 0.800959
O O7 0.114894 0.259512 0.459415
O O8 0.000000 0.000000 0.500000
O O9 0.128123 0.793156 0.674034
O O10 0.206977 0.057539 0.637049
O O11 0.910937 0.706077 0.883783
O O12 0.791402 0.006108 0.966490
O O13 0.000000 0.000000 0.000000
O O14 0.914499 0.597322 0.233919
O O15 0.453511 0.196919 0.211747
O O16 0.668501 0.083636 0.880027
O O17 0.670070 0.934739 0.617839
#
# Coordination Sequence:
#
# PCOD8024222 Si02
#       8
#     2   2   2   2   2   2   2   2
#     4  12  27  43  71 107 135 180 234 282 341 413
#     4  11  21  44  72  98 135 181 231 281 345 404
#     4  12  26  43  72 103 141 177 228 287 346 407
#     4  12  27  45  69 102 144 183 227 284 348 409
#     4  11  25  43  74  99 135 185 233 276 346 411
#     4  11  25  46  71  97 147 177 233 282 345 402
#     4  10  23  42  74  98 130 189 226 280 344 403
#     4  11  24  47  73  94 143 181 233 277 349 407
#
# _framework density 21.944347
#
# number of rings (size 3 to 8) (size 9 to 14) (size 15 to 20)
#    0.000    0.750    3.750    3.750    7.000    3.500 
#    0.000    0.000    0.000    0.000    0.000    0.000 
#    0.000    0.000    0.000    0.000    0.000    0.000 
#
# Total GULP energy -198328.339651 kJ/mol
# GULP energy per Si atom -12395.521228 kJ/mol
# Density = 2.189440 g / cm^3
# Si number density = 21.944347 Si / 1000 Ang^3
#
#
#
# Elastic Constant Matrix: (Units=GPa)
#
#
# Indices 1 2 3 4 5 6 
#
# 1 111.9436 33.4749 51.8196 3.1855 4.9203 5.9666
# 2 33.4749 137.3931 38.2090 5.1795 -1.8457 1.3007
# 3 51.8196 38.2090 85.1001 -8.1841 -1.3594 -7.6583
# 4 3.1855 5.1795 -8.1841 30.5688 8.4065 -1.9932
# 5 4.9203 -1.8457 -1.3594 8.4065 42.5822 7.8152
# 6 5.9666 1.3007 -7.6583 -1.9932 7.8152 30.8044
#
#
#
# Elastic Compliance Matrix: (Units=1/GPa)
#
#
# Indices 1 2 3 4 5 6 
#
# 1 0.013600 -0.000669 -0.008813 -0.003939 -0.000186 -0.005005
# 2 -0.000669 0.008665 -0.003894 -0.002884 0.001210 -0.001698
# 3 -0.008813 -0.003894 0.020308 0.007938 -0.001504 0.007815
# 4 -0.003939 -0.002884 0.007938 0.038535 -0.008397 0.007482
# 5 -0.000186 0.001210 -0.001504 -0.008397 0.026576 -0.007675
# 6 -0.005005 -0.001698 0.007815 0.007482 -0.007675 0.037878
#
#
# Mechanical properties :
#
#
# Convention : Reuss Voigt Hill
#
# Bulk Modulus (GPa) = 63.20608 64.60487 63.90547
# Shear Modulus (GPa) = 28.15494 34.85329 31.50412
#
# Velocity S-wave (km/s) = 3.58581 3.98962 3.79309
# Velocity P-wave (km/s) = 6.78303 7.12229 6.95473
#
# Compressibility (1/GPa) = 0.01582126
#
# Stress axis : x y z
#
# Youngs Moduli (GPa) = 73.53088 115.40093 49.24080
#
# Poissons Ratio (x) = 0.07723 0.43395
# Poissons Ratio (y) = 0.04921 0.19175
# Poissons Ratio (z) = 0.64802 0.44937
#
# Static dielectric constant tensor:
#      x y z
#    x 4.355330 0.108250 0.194230 
#    y 0.108250 3.788520 -0.148460 
#    z 0.194230 -0.148460 4.115090 
# 
# 
# High freq. dielectric constant tensor:
#      x y z
#    x 1.886350 0.009330 0.010670 
#    y 0.009330 1.852500 -0.010550 
#    z 0.010670 -0.010550 1.866660 
# 
# From -- ./inp_files/279108.got.cif
#   From: 2010.06.25/outbox.cif.g09.slc.cpg/sg2_140_cif.got.tgz:279108.got - 2010.06.27 13:26:56.
