data_PCOD8024845
_publ_section_title
;
Structure prediction by ZEFSAII (Michael W. Deem and Ramdas Pophale) SiO2 
 PCOD8024845
Probable space group: P -1
;
_chemical_formula_sum "Si O2"
_cell_formula_units_Z 16
_cell_length_a 14.287199
_cell_length_b 10.814059
_cell_length_c 11.878482
_cell_angle_alpha 96.568069
_cell_angle_beta 117.540421
_cell_angle_gamma 136.101926
_cell_volume 773.598116
_symmetry_space_group_name_H-M "P -1"
_symmetry_group_IT_number 2
_symmetry_cell_setting 'triclinic'
loop_
_space_group_symop_operation_xyz
x,y,z
-x,-y,-z
loop_
_atom_site_type_symbol
_atom_site_label
_atom_site_fract_x
_atom_site_fract_y
_atom_site_fract_z
Si Si1 0.489166 0.629391 0.871564
Si Si2 0.861688 0.552729 0.954427
Si Si3 0.530938 0.387664 0.882233
Si Si4 0.526712 0.019116 0.343913
Si Si5 0.771373 0.496562 0.463904
Si Si6 0.083385 0.651066 0.280107
Si Si7 0.153271 0.823440 0.564022
Si Si8 0.054919 0.768731 0.851327
O O1 0.551598 0.552016 0.874946
O O2 0.296243 0.466949 0.658436
O O3 0.406993 0.564517 0.946780
O O4 0.698851 0.932534 0.000435
O O5 0.706181 0.494740 0.916234
O O6 0.975667 0.727759 0.926700
O O7 0.724472 0.285292 0.816773
O O8 0.051597 0.702537 0.158707
O O9 0.279447 0.085263 0.683803
O O10 0.553194 0.191784 0.345421
O O11 0.657721 0.120581 0.543567
O O12 0.650400 0.076168 0.313808
O O13 0.886375 0.663957 0.660212
O O14 0.964838 0.608616 0.530621
O O15 0.027800 0.683069 0.359123
O O16 0.939072 0.375372 0.173157
#
# Coordination Sequence:
#
# PCOD8024845 Si02
#       8
#     2   2   2   2   2   2   2   2
#     4  11  24  42  62  85 115 158 201 254 280 343
#     4  11  21  40  61  88 120 164 186 238 299 346
#     4  10  23  44  61  84 117 152 213 242 283 347
#     4   8  20  33  56  90 119 147 189 236 283 362
#     4  11  20  37  61  89 121 155 188 242 310 328
#     4   9  20  35  62  89 120 155 188 236 295 354
#     4   9  18  38  60  88 120 149 192 249 285 351
#     4  11  24  38  60  93 125 146 199 240 290 362
#
# _framework density 20.682573000000001
#
# number of rings (size 3 to 8) (size 9 to 14) (size 15 to 20)
#    0.750    1.250    1.250    2.250    0.000    4.000 
#    2.250    3.750    0.000    0.000    0.000    0.000 
#    0.000    0.000    0.000    0.000    0.000    0.000 
#
# Total GULP energy -198273.711426 kJ/mol
# GULP energy per Si atom -12392.106964 kJ/mol
# Density = 2.063550 g / cm^3
# Si number density = 20.682573 Si / 1000 Ang^3
#
#
#
# Elastic Constant Matrix: (Units=GPa)
#
#
# Indices 1 2 3 4 5 6 
#
# 1 53.1900 12.8564 33.1864 -13.6126 -7.5166 1.1129
# 2 12.8564 60.4265 41.5920 -19.4836 2.8340 5.8731
# 3 33.1864 41.5920 79.5219 -36.0072 -7.6208 -5.1918
# 4 -13.6126 -19.4836 -36.0072 37.4401 -0.5893 -5.3580
# 5 -7.5166 2.8340 -7.6208 -0.5893 25.6809 0.4676
# 6 1.1129 5.8731 -5.1918 -5.3580 0.4676 22.9089
#
#
#
# Elastic Compliance Matrix: (Units=1/GPa)
#
#
# Indices 1 2 3 4 5 6 
#
# 1 0.026888 0.004015 -0.015061 -0.003522 0.002997 -0.006634
# 2 0.004015 0.031004 -0.022540 -0.006304 -0.008815 -0.014546
# 3 -0.015061 -0.022540 0.048602 0.033324 0.012810 0.025057
# 4 -0.003522 -0.006304 0.033324 0.057595 0.010464 0.022596
# 5 0.002997 -0.008815 0.012810 0.010464 0.044712 0.006552
# 6 -0.006634 -0.014546 0.025057 0.022596 0.006552 0.058532
#
#
# Mechanical properties :
#
#
# Convention : Reuss Voigt Hill
#
# Bulk Modulus (GPa) = 25.43194 40.93424 33.18309
# Shear Modulus (GPa) = 14.38375 24.23956 19.31165
#
# Velocity S-wave (km/s) = 2.64000 3.42713 3.05899
# Velocity P-wave (km/s) = 4.64928 5.95776 5.34372
#
# Compressibility (1/GPa) = 0.03932064
#
# Stress axis : x y z
#
# Youngs Moduli (GPa) = 37.19072 32.25383 20.57523
#
# Poissons Ratio (x) = -0.12949 0.30989
# Poissons Ratio (y) = -0.14931 0.46377
# Poissons Ratio (z) = 0.56015 0.72701
#
# Static dielectric constant tensor:
#      x y z
#    x 3.510470 0.065050 -0.265470 
#    y 0.065050 3.566950 -0.045020 
#    z -0.265470 -0.045020 3.831300 
# 
# 
# High freq. dielectric constant tensor:
#      x y z
#    x 1.787700 0.016150 -0.014220 
#    y 0.016150 1.801190 -0.001260 
#    z -0.014220 -0.001260 1.813670 
# 
# From -- ./inp_files/452393.got.cif
#   From: 2010.06.25/outbox.cif.g09.slc.cpg/sg2_227_cif.got.tgz:452393.got - 2010.06.27 13:26:56.
