data_PCOD8024790
_publ_section_title
;
Structure prediction by ZEFSAII (Michael W. Deem and Ramdas Pophale) SiO2 
 PCOD8024790
Probable space group: P -1
;
_chemical_formula_sum "Si O2"
_cell_formula_units_Z 16
_cell_length_a 5.800083
_cell_length_b 23.310798
_cell_length_c 14.274710
_cell_angle_alpha 21.070520
_cell_angle_beta 81.459223
_cell_angle_gamma 81.368991
_cell_volume 685.816464
_symmetry_space_group_name_H-M "P -1"
_symmetry_group_IT_number 2
_symmetry_cell_setting 'triclinic'
loop_
_space_group_symop_operation_xyz
x,y,z
-x,-y,-z
loop_
_atom_site_type_symbol
_atom_site_label
_atom_site_fract_x
_atom_site_fract_y
_atom_site_fract_z
Si Si1 0.121446 0.742122 0.734319
Si Si2 0.432810 0.723777 0.576048
Si Si3 0.238287 0.070094 0.634706
Si Si4 0.774127 0.539393 0.516721
Si Si5 0.528243 0.751928 0.064587
Si Si6 0.178680 0.434899 0.307168
Si Si7 0.063103 0.880528 0.259173
Si Si8 0.732549 0.985752 0.572874
O O1 0.222405 0.668277 0.741923
O O2 0.871962 0.837289 0.590107
O O3 0.305632 0.866275 0.577390
O O4 0.067934 0.603108 0.023134
O O5 0.602014 0.815565 0.491959
O O6 0.559859 0.577576 0.734941
O O7 0.337428 0.844446 0.315992
O O8 0.023991 0.033521 0.771686
O O9 0.349350 0.900788 0.858920
O O10 0.639273 0.693803 0.244840
O O11 0.604164 0.391754 0.756149
O O12 0.837428 0.579077 0.558656
O O13 0.000000 0.500000 0.500000
O O14 0.728641 0.814695 0.887237
O O15 0.040664 0.290838 0.492789
O O16 0.000000 0.000000 0.000000
O O17 0.500000 0.000000 0.500000
O O18 0.000000 0.000000 0.500000
#
# Coordination Sequence:
#
# PCOD8024790 Si02
#       8
#     2   2   2   2   2   2   2   2
#     4  11  24  44  71 107 146 192 241 316 386 448
#     4  10  23  44  70 103 138 191 241 309 382 448
#     4  10  23  43  73 103 139 191 243 306 377 449
#     4  11  29  47  74 103 151 204 248 316 384 454
#     4  11  26  49  73 107 145 199 256 311 381 462
#     4  11  26  44  68 104 146 186 251 308 376 463
#     4  10  25  40  69 103 139 190 245 307 371 450
#     4  12  27  46  78 115 151 203 259 321 385 467
#
# _framework density 23.329857000000001
#
# number of rings (size 3 to 8) (size 9 to 14) (size 15 to 20)
#    0.000    1.250    1.250    1.875   10.500    7.500 
#    0.000    0.000    0.000    0.000    0.000    0.000 
#    0.000    0.000    0.000    0.000    0.000    0.000 
#
# Total GULP energy -198269.424659 kJ/mol
# GULP energy per Si atom -12391.839041 kJ/mol
# Density = 2.327676 g / cm^3
# Si number density = 23.329857 Si / 1000 Ang^3
#
#
#
# Elastic Constant Matrix: (Units=GPa)
#
#
# Indices 1 2 3 4 5 6 
#
# 1 128.8741 53.1776 61.7144 10.1872 23.9293 6.6646
# 2 53.1776 118.0771 40.4322 8.3694 13.6066 -0.2221
# 3 61.7144 40.4322 170.2685 18.8799 17.0923 9.5124
# 4 10.1872 8.3694 18.8799 30.2273 2.7680 7.6255
# 5 23.9293 13.6066 17.0923 2.7680 47.6178 4.7322
# 6 6.6646 -0.2221 9.5124 7.6255 4.7322 44.8296
#
#
#
# Elastic Compliance Matrix: (Units=1/GPa)
#
#
# Indices 1 2 3 4 5 6 
#
# 1 0.011363 -0.003717 -0.002779 -0.000576 -0.003553 -0.000645
# 2 -0.003717 0.010685 -0.001026 -0.001272 -0.000855 0.001130
# 3 -0.002779 -0.001026 0.007602 -0.003314 -0.000791 -0.000558
# 4 -0.000576 -0.001272 -0.003314 0.037077 0.000239 -0.005549
# 5 -0.003553 -0.000855 -0.000791 0.000239 0.023482 -0.001828
# 6 -0.000645 0.001130 -0.000558 -0.005549 -0.001828 0.023663
#
#
# Mechanical properties :
#
#
# Convention : Reuss Voigt Hill
#
# Bulk Modulus (GPa) = 68.46811 80.87423 74.67117
# Shear Modulus (GPa) = 37.37322 41.99465 39.68393
#
# Velocity S-wave (km/s) = 4.00678 4.24729 4.12878
# Velocity P-wave (km/s) = 7.12862 7.66769 7.40306
#
# Compressibility (1/GPa) = 0.01460534
#
# Stress axis : x y z
#
# Youngs Moduli (GPa) = 88.00797 93.58768 131.54035
#
# Poissons Ratio (x) = 0.34782 0.36559
# Poissons Ratio (y) = 0.32709 0.13503
# Poissons Ratio (z) = 0.24460 0.09607
#
# Static dielectric constant tensor:
#      x y z
#    x 4.841120 -0.237060 0.202360 
#    y -0.237060 4.752040 0.020620 
#    z 0.202360 0.020620 4.302910 
# 
# 
# High freq. dielectric constant tensor:
#      x y z
#    x 1.933670 0.003610 0.013240 
#    y 0.003610 1.932470 0.004570 
#    z 0.013240 0.004570 1.920200 
# 
# From -- ./inp_files/482624.got.cif
#   From: 2010.06.25/outbox.cif.g09.slc.cpg/sg2_242_cif.got.tgz:482624.got - 2010.06.27 13:26:56.
