data_PCOD8024420
_publ_section_title
;
Structure prediction by ZEFSAII (Michael W. Deem and Ramdas Pophale) SiO2 
 PCOD8024420
Probable space group: P -1
;
_chemical_formula_sum "Si O2"
_cell_formula_units_Z 14
_cell_length_a 11.795315
_cell_length_b 5.212787
_cell_length_c 11.345844
_cell_angle_alpha 60.284206
_cell_angle_beta 88.157848
_cell_angle_gamma 90.560718
_cell_volume 605.296774
_symmetry_space_group_name_H-M "P -1"
_symmetry_group_IT_number 2
_symmetry_cell_setting 'triclinic'
loop_
_space_group_symop_operation_xyz
x,y,z
-x,-y,-z
loop_
_atom_site_type_symbol
_atom_site_label
_atom_site_fract_x
_atom_site_fract_y
_atom_site_fract_z
Si Si1 0.528293 0.244391 0.716069
Si Si2 0.755532 0.339769 0.086934
Si Si3 0.612659 0.633735 0.832868
Si Si4 0.704872 0.089303 0.574226
Si Si5 0.683465 0.914598 0.370173
Si Si6 0.896772 0.818056 0.101752
Si Si7 0.107413 0.467326 0.586763
O O1 0.541272 0.422480 0.795227
O O2 0.404678 0.297999 0.651326
O O3 0.531664 0.891167 0.823513
O O4 0.629641 0.322525 0.599111
O O5 0.848006 0.599920 0.051594
O O6 0.699917 0.234468 0.234956
O O7 0.805137 0.054669 0.086599
O O8 0.656978 0.454232 0.981459
O O9 0.718599 0.795657 0.721786
O O10 0.633628 0.982630 0.485517
O O11 0.825807 0.216429 0.496216
O O12 0.806471 0.771617 0.409802
O O13 0.932234 0.621839 0.259012
O O14 0.000000 0.000000 0.000000
O O15 0.000000 0.500000 0.500000
#
# Coordination Sequence:
#
# PCOD8024420 Si02
#       7
#     2   2   2   2   2   2   2
#     4  10  24  41  72 104 137 185 226 273 344 402
#     4  11  24  45  69  99 140 177 226 285 345 399
#     4  10  24  41  67 103 135 183 222 277 334 410
#     4  10  23  43  67 100 140 180 226 278 342 405
#     4  11  24  44  69 100 142 178 231 282 340 412
#     4  11  25  45  70  97 132 185 233 283 338 405
#     4  11  26  44  69 102 136 181 230 289 343 400
#
# _framework density 23.129149000000002
#
# number of rings (size 3 to 8) (size 9 to 14) (size 15 to 20)
#    0.857    0.571    1.429    2.571    4.000    4.000 
#    0.000    0.000    0.000    0.000    0.000    0.000 
#    0.000    0.000    0.000    0.000    0.000    0.000 
#
# Total GULP energy -173510.826431 kJ/mol
# GULP energy per Si atom -12393.630459 kJ/mol
# Density = 2.307651 g / cm^3
# Si number density = 23.129149 Si / 1000 Ang^3
#
#
#
# Elastic Constant Matrix: (Units=GPa)
#
#
# Indices 1 2 3 4 5 6 
#
# 1 88.8733 12.8421 34.3403 -3.5282 14.3311 17.2717
# 2 12.8421 117.8566 22.8176 1.3722 14.5317 14.5396
# 3 34.3403 22.8176 109.3667 -2.4086 15.8636 -0.6731
# 4 -3.5282 1.3722 -2.4086 24.8168 -1.7699 5.1504
# 5 14.3311 14.5317 15.8636 -1.7699 37.0307 1.3110
# 6 17.2717 14.5396 -0.6731 5.1504 1.3110 35.4727
#
#
#
# Elastic Compliance Matrix: (Units=1/GPa)
#
#
# Indices 1 2 3 4 5 6 
#
# 1 0.015119 0.000607 -0.004302 0.003086 -0.003816 -0.007999
# 2 0.000607 0.009663 -0.001780 0.000024 -0.003115 -0.004178
# 3 -0.004302 -0.001780 0.011254 -0.000263 -0.002583 0.003171
# 4 0.003086 0.000024 -0.000263 0.042395 0.001208 -0.007718
# 5 -0.003816 -0.003115 -0.002583 0.001208 0.030805 0.001772
# 6 -0.007999 -0.004178 0.003171 -0.007718 0.001772 0.034913
#
#
# Mechanical properties :
#
#
# Convention : Reuss Voigt Hill
#
# Bulk Modulus (GPa) = 39.86290 50.67740 45.27015
# Shear Modulus (GPa) = 30.58856 35.87046 33.22951
#
# Velocity S-wave (km/s) = 3.64058 3.94239 3.79449
# Velocity P-wave (km/s) = 5.91135 6.53310 6.22999
#
# Compressibility (1/GPa) = 0.02508598
#
# Stress axis : x y z
#
# Youngs Moduli (GPa) = 66.14328 103.49180 88.85832
#
# Poissons Ratio (x) = -0.06279 0.38223
# Poissons Ratio (y) = -0.04013 0.15815
# Poissons Ratio (z) = 0.28452 0.18419
#
# Static dielectric constant tensor:
#      x y z
#    x 3.795780 0.081710 -0.163890 
#    y 0.081710 4.150420 -0.100800 
#    z -0.163890 -0.100800 4.409030 
# 
# 
# High freq. dielectric constant tensor:
#      x y z
#    x 1.888240 0.009550 -0.007690 
#    y 0.009550 1.922370 -0.008320 
#    z -0.007690 -0.008320 1.930250 
# 
# From -- ./inp_files/68268.got.cif
#   From: 2010.06.25/outbox.cif.g09.slc.cpg/sg2_35_cif.got.tgz:68268.got - 2010.06.27 13:26:56.
