data_PCOD8024509
_publ_section_title
;
Structure prediction by ZEFSAII (Michael W. Deem and Ramdas Pophale) SiO2 
 PCOD8024509
Probable space group: P -1
;
_chemical_formula_sum "Si O2"
_cell_formula_units_Z 16
_cell_length_a 8.391944
_cell_length_b 11.640756
_cell_length_c 9.394718
_cell_angle_alpha 64.222601
_cell_angle_beta 63.202321
_cell_angle_gamma 70.175014
_cell_volume 725.892851
_symmetry_space_group_name_H-M "P -1"
_symmetry_group_IT_number 2
_symmetry_cell_setting 'triclinic'
loop_
_space_group_symop_operation_xyz
x,y,z
-x,-y,-z
loop_
_atom_site_type_symbol
_atom_site_label
_atom_site_fract_x
_atom_site_fract_y
_atom_site_fract_z
Si Si1 0.242725 0.822700 0.729834
Si Si2 0.086159 0.167797 0.952890
Si Si3 0.343614 0.360760 0.745798
Si Si4 0.793122 0.216310 0.807277
Si Si5 0.535441 0.453286 0.171480
Si Si6 0.341116 0.869479 0.352229
Si Si7 0.791613 0.496902 0.555554
Si Si8 0.394040 0.941842 0.849869
O O1 0.307737 0.671546 0.818860
O O2 0.242726 0.856983 0.546641
O O3 0.369479 0.910618 0.710860
O O4 0.039301 0.860136 0.851334
O O5 0.183097 0.285785 0.895994
O O6 0.223268 0.038269 0.931329
O O7 0.973166 0.204006 0.833933
O O8 0.402208 0.434291 0.818924
O O9 0.502894 0.255772 0.668371
O O10 0.263902 0.468107 0.602568
O O11 0.812020 0.120409 0.714207
O O12 0.745771 0.357233 0.682781
O O13 0.616346 0.189435 0.984655
O O14 0.348956 0.412444 0.330734
O O15 0.500000 0.500000 0.000000
O O16 0.421840 0.002636 0.237190
O O17 0.000000 0.500000 0.500000
#
# Coordination Sequence:
#
# PCOD8024509 Si02
#       8
#     2   2   2   2   2   2   2   2
#     4  11  22  40  65  96 133 169 217 271 327 371
#     4  10  23  44  66  92 133 178 217 268 329 384
#     4  11  23  44  65  95 133 178 217 263 331 393
#     4  11  20  39  66  96 124 171 217 264 323 388
#     4  12  25  42  64  98 135 172 219 270 323 397
#     4  11  22  40  69  96 127 169 225 273 319 386
#     4  12  23  42  68  96 133 170 217 260 328 399
#     4  10  23  43  68  90 130 179 221 263 329 385
#
# _framework density 22.041822
#
# number of rings (size 3 to 8) (size 9 to 14) (size 15 to 20)
#    0.000    1.000    3.750    4.875    0.000    0.500 
#    2.250    2.500    0.000    0.000    0.000    0.000 
#    0.000    0.000    0.000    0.000    0.000    0.000 
#
# Total GULP energy -198325.285619 kJ/mol
# GULP energy per Si atom -12395.330351 kJ/mol
# Density = 2.199165 g / cm^3
# Si number density = 22.041822 Si / 1000 Ang^3
#
#
#
# Elastic Constant Matrix: (Units=GPa)
#
#
# Indices 1 2 3 4 5 6 
#
# 1 113.0549 33.1260 44.7744 13.0372 -2.6930 33.1697
# 2 33.1260 67.6675 33.8654 0.9116 -7.9918 19.7460
# 3 44.7744 33.8654 109.2409 13.1400 10.4649 29.8689
# 4 13.0372 0.9116 13.1400 39.6094 7.0941 3.0085
# 5 -2.6930 -7.9918 10.4649 7.0941 31.0199 5.5844
# 6 33.1697 19.7460 29.8689 3.0085 5.5844 24.3056
#
#
#
# Elastic Compliance Matrix: (Units=1/GPa)
#
#
# Indices 1 2 3 4 5 6 
#
# 1 0.016449 -0.000395 -0.000574 -0.004702 0.006621 -0.022360
# 2 -0.000395 0.022415 -0.003454 0.000217 0.009678 -0.015678
# 3 -0.000574 -0.003454 0.014819 -0.003117 -0.002778 -0.013597
# 4 -0.004702 0.000217 -0.003117 0.028506 -0.007300 0.008219
# 5 0.006621 0.009678 -0.002778 -0.007300 0.041911 -0.022209
# 6 -0.022360 -0.015678 -0.013597 0.008219 -0.022209 0.105189
#
#
# Mechanical properties :
#
#
# Convention : Reuss Voigt Hill
#
# Bulk Modulus (GPa) = 22.30302 57.05500 39.67901
# Shear Modulus (GPa) = 19.75668 30.86680 25.31174
#
# Velocity S-wave (km/s) = 2.99712 3.74622 3.39241
# Velocity P-wave (km/s) = 4.70292 6.68231 5.77801
#
# Compressibility (1/GPa) = 0.04483697
#
# Stress axis : x y z
#
# Youngs Moduli (GPa) = 60.79562 44.61335 67.48091
#
# Poissons Ratio (x) = 0.01761 0.03876
# Poissons Ratio (y) = 0.02400 0.23305
# Poissons Ratio (z) = 0.03492 0.15408
#
# Static dielectric constant tensor:
#      x y z
#    x 4.130960 0.198320 -0.018420 
#    y 0.198320 4.135020 -0.064780 
#    z -0.018420 -0.064780 4.178990 
# 
# 
# High freq. dielectric constant tensor:
#      x y z
#    x 1.869520 0.012240 0.007860 
#    y 0.012240 1.865300 -0.010720 
#    z 0.007860 -0.010720 1.875340 
# 
# From -- ./inp_files/184815.got.cif
#   From: 2010.06.25/outbox.cif.g09.slc.cpg/sg2_93_cif.got.tgz:184815.got - 2010.06.27 13:26:56.
