data_PCOD8024738
_publ_section_title
;
Structure prediction by ZEFSAII (Michael W. Deem and Ramdas Pophale) SiO2 
 PCOD8024738
Probable space group: P -1
;
_chemical_formula_sum "Si O2"
_cell_formula_units_Z 16
_cell_length_a 19.551795
_cell_length_b 11.959329
_cell_length_c 17.394942
_cell_angle_alpha 146.969655
_cell_angle_beta 158.893778
_cell_angle_gamma 45.200214
_cell_volume 733.483822
_symmetry_space_group_name_H-M "P -1"
_symmetry_group_IT_number 2
_symmetry_cell_setting 'triclinic'
loop_
_space_group_symop_operation_xyz
x,y,z
-x,-y,-z
loop_
_atom_site_type_symbol
_atom_site_label
_atom_site_fract_x
_atom_site_fract_y
_atom_site_fract_z
Si Si1 0.582020 0.762958 0.877420
Si Si2 0.553962 0.195950 0.078400
Si Si3 0.798807 0.767255 0.338920
Si Si4 0.718918 0.668879 0.362574
Si Si5 0.978524 0.514019 0.665003
Si Si6 0.045371 0.253337 0.829423
Si Si7 0.840302 0.598503 0.796668
Si Si8 0.097617 0.909291 0.116831
O O1 0.588384 0.840893 0.016707
O O2 0.402480 0.520648 0.540970
O O3 0.792025 0.741010 0.061872
O O4 0.547226 0.957074 0.902733
O O5 0.794235 0.356729 0.437191
O O6 0.452912 0.313230 0.978475
O O7 0.859259 0.776816 0.496901
O O8 0.880108 0.605433 0.286531
O O9 0.874574 0.005493 0.514219
O O10 0.858078 0.569787 0.499819
O O11 0.706063 0.879914 0.519948
O O12 0.500000 0.500000 0.000000
O O13 0.138658 0.714980 0.001388
O O14 0.948339 0.424841 0.799891
O O15 0.150743 0.315146 0.058076
O O16 0.937780 0.801685 0.956686
O O17 0.000000 0.000000 0.000000
#
# Coordination Sequence:
#
# PCOD8024738 Si02
#       8
#     2   2   2   2   2   2   2   2
#     4  11  23  39  60  96 131 171 218 270 330 395
#     4  11  23  37  64  95 130 171 221 274 325 398
#     4  12  23  41  68  99 131 175 227 268 339 399
#     4  11  23  44  72  97 130 175 226 281 330 396
#     4  11  23  43  69  96 134 179 221 277 334 394
#     4  11  24  38  66  96 132 174 219 271 335 400
#     4  11  22  42  64  93 133 173 219 275 331 396
#     4  10  23  43  71  94 133 177 216 277 339 385
#
# _framework density 21.813704999999999
#
# number of rings (size 3 to 8) (size 9 to 14) (size 15 to 20)
#    0.000    1.000    6.250    0.750    1.750    0.500 
#    0.000    0.625    2.750    0.000    0.000    0.000 
#    0.000    0.000    0.000    0.000    0.000    0.000 
#
# Total GULP energy -198229.594192 kJ/mol
# GULP energy per Si atom -12389.349637 kJ/mol
# Density = 2.176406 g / cm^3
# Si number density = 21.813705 Si / 1000 Ang^3
#
#
#
# Elastic Constant Matrix: (Units=GPa)
#
#
# Indices 1 2 3 4 5 6 
#
# 1 91.0377 26.4085 17.3532 6.3230 -8.2567 -6.6433
# 2 26.4085 69.9348 25.6238 15.1080 -1.7893 -9.4327
# 3 17.3532 25.6238 120.9425 18.4682 -17.3469 -11.1577
# 4 6.3230 15.1080 18.4682 28.1343 -8.5499 0.2481
# 5 -8.2567 -1.7893 -17.3469 -8.5499 26.4977 7.3943
# 6 -6.6433 -9.4327 -11.1577 0.2481 7.3943 40.9014
#
#
#
# Elastic Compliance Matrix: (Units=1/GPa)
#
#
# Indices 1 2 3 4 5 6 
#
# 1 0.012718 -0.004760 -0.000443 0.001098 0.003656 0.000180
# 2 -0.004760 0.019497 -0.002453 -0.009671 -0.006068 0.004210
# 3 -0.000443 -0.002453 0.010251 -0.003868 0.004792 0.001316
# 4 0.001098 -0.009671 -0.003868 0.047366 0.014099 -0.005943
# 5 0.003656 -0.006068 0.004792 0.014099 0.048485 -0.008349
# 6 0.000180 0.004210 0.001316 -0.005943 -0.008349 0.027353
#
#
# Mechanical properties :
#
#
# Convention : Reuss Voigt Hill
#
# Bulk Modulus (GPa) = 36.82638 46.74289 41.78463
# Shear Modulus (GPa) = 26.31121 33.27532 29.79327
#
# Velocity S-wave (km/s) = 3.47678 3.90991 3.69969
# Velocity P-wave (km/s) = 5.74771 6.46977 6.11940
#
# Compressibility (1/GPa) = 0.02715445
#
# Stress axis : x y z
#
# Youngs Moduli (GPa) = 78.62864 51.29038 97.55162
#
# Poissons Ratio (x) = 0.24412 0.04323
# Poissons Ratio (y) = 0.37424 0.23929
# Poissons Ratio (z) = 0.03485 0.12581
#
# Static dielectric constant tensor:
#      x y z
#    x 4.103280 0.154220 -0.214110 
#    y 0.154220 4.041660 0.363630 
#    z -0.214110 0.363630 4.114740 
# 
# 
# High freq. dielectric constant tensor:
#      x y z
#    x 1.864940 0.016820 -0.013130 
#    y 0.016820 1.854450 0.017210 
#    z -0.013130 0.017210 1.857710 
# 
# From -- ./inp_files/124229.got.cif
#   From: 2010.06.25/outbox.cif.g09.slc.cpg/sg2_63_cif.got.tgz:124229.got - 2010.06.27 13:26:56.
