data_PCOD8024198
_publ_section_title
;
Structure prediction by ZEFSAII (Michael W. Deem and Ramdas Pophale) SiO2 
 PCOD8024198
Probable space group: P -1
;
_chemical_formula_sum "Si O2"
_cell_formula_units_Z 16
_cell_length_a 9.058819
_cell_length_b 14.948794
_cell_length_c 9.282567
_cell_angle_alpha 145.512561
_cell_angle_beta 80.492241
_cell_angle_gamma 104.167909
_cell_volume 688.580414
_symmetry_space_group_name_H-M "P -1"
_symmetry_group_IT_number 2
_symmetry_cell_setting 'triclinic'
loop_
_space_group_symop_operation_xyz
x,y,z
-x,-y,-z
loop_
_atom_site_type_symbol
_atom_site_label
_atom_site_fract_x
_atom_site_fract_y
_atom_site_fract_z
Si Si1 0.162330 0.015922 0.655884
Si Si2 0.669997 0.006943 0.926425
Si Si3 0.058191 0.491125 0.640221
Si Si4 0.196964 0.791492 0.593009
Si Si5 0.598336 0.467912 0.302715
Si Si6 0.517936 0.706099 0.411676
Si Si7 0.882428 0.153081 0.859775
Si Si8 0.528908 0.817570 0.234463
O O1 0.190801 0.856783 0.520890
O O2 0.157158 0.960187 0.419218
O O3 0.304020 0.165441 0.840842
O O4 0.015524 0.080157 0.822751
O O5 0.660592 0.833804 0.625230
O O6 0.734588 0.140545 0.971118
O O7 0.500000 0.000000 0.000000
O O8 0.791538 0.051022 0.095693
O O9 0.229300 0.459542 0.581966
O O10 0.000000 0.500000 0.500000
O O11 0.949911 0.346659 0.546568
O O12 0.053504 0.660992 0.944323
O O13 0.349762 0.724902 0.513906
O O14 0.500000 0.500000 0.500000
O O15 0.544647 0.542171 0.261695
O O16 0.580951 0.281531 0.002895
O O17 0.522966 0.718822 0.254676
O O18 0.500000 0.000000 0.500000
#
# Coordination Sequence:
#
# PCOD8024198 Si02
#       8
#     2   2   2   2   2   2   2   2
#     4  11  26  44  74 109 141 195 246 313 369 452
#     4  10  23  42  73 101 141 192 245 302 366 439
#     4  12  27  48  71 103 151 194 241 309 374 449
#     4  11  25  43  73 106 145 190 245 303 379 438
#     4  12  31  46  76 113 148 196 254 310 379 444
#     4  11  25  47  73 108 149 189 247 311 371 445
#     4  11  25  47  71 104 150 191 249 304 375 444
#     4  12  25  49  78 107 150 199 253 306 376 449
#
# _framework density 23.23621
#
# number of rings (size 3 to 8) (size 9 to 14) (size 15 to 20)
#    0.000    0.750    3.750    1.875    8.750    1.000 
#    0.000    0.000    0.000    0.000    0.000    0.000 
#    0.000    0.000    0.000    0.000    0.000    0.000 
#
# Total GULP energy -198240.095581 kJ/mol
# GULP energy per Si atom -12390.005974 kJ/mol
# Density = 2.318332 g / cm^3
# Si number density = 23.236210 Si / 1000 Ang^3
#
#
#
# Elastic Constant Matrix: (Units=GPa)
#
#
# Indices 1 2 3 4 5 6 
#
# 1 138.1126 64.6957 37.2738 3.8046 16.3240 8.0726
# 2 64.6957 136.8411 30.1968 -6.4589 7.3446 14.1173
# 3 37.2738 30.1968 100.5433 8.4891 12.7381 20.1852
# 4 3.8046 -6.4589 8.4891 25.1584 8.2100 4.3535
# 5 16.3240 7.3446 12.7381 8.2100 30.2065 9.8212
# 6 8.0726 14.1173 20.1852 4.3535 9.8212 46.5372
#
#
#
# Elastic Compliance Matrix: (Units=1/GPa)
#
#
# Indices 1 2 3 4 5 6 
#
# 1 0.010265 -0.004348 -0.002223 -0.000934 -0.003748 0.001381
# 2 -0.004348 0.010063 -0.001335 0.004039 0.000054 -0.002109
# 3 -0.002223 -0.001335 0.012426 -0.002986 -0.001608 -0.003980
# 4 -0.000934 0.004039 -0.002986 0.045861 -0.011127 -0.001710
# 5 -0.003748 0.000054 -0.001608 -0.011127 0.040852 -0.006249
# 6 0.001381 -0.002109 -0.003980 -0.001710 -0.006249 0.025094
#
#
# Mechanical properties :
#
#
# Convention : Reuss Voigt Hill
#
# Bulk Modulus (GPa) = 59.02424 71.09219 65.05821
# Shear Modulus (GPa) = 30.11675 36.60246 33.35961
#
# Velocity S-wave (km/s) = 3.60406 3.97323 3.79314
# Velocity P-wave (km/s) = 6.54034 7.19101 6.87337
#
# Compressibility (1/GPa) = 0.01694219
#
# Stress axis : x y z
#
# Youngs Moduli (GPa) = 97.41678 99.37125 80.47613
#
# Poissons Ratio (x) = 0.43207 0.17892
# Poissons Ratio (y) = 0.42357 0.10743
# Poissons Ratio (z) = 0.21658 0.13265
#
# Static dielectric constant tensor:
#      x y z
#    x 4.460150 0.188270 0.256350 
#    y 0.188270 4.276500 0.085420 
#    z 0.256350 0.085420 4.377520 
# 
# 
# High freq. dielectric constant tensor:
#      x y z
#    x 1.922040 0.006470 0.020450 
#    y 0.006470 1.921150 0.000410 
#    z 0.020450 0.000410 1.923200 
# 
# From -- ./inp_files/209308.got.cif
#   From: 2010.06.25/outbox.cif.g09.slc.cpg/sg2_105_cif.got.tgz:209308.got - 2010.06.27 13:26:56.
