data_PCOD8024327
_publ_section_title
;
Structure prediction by ZEFSAII (Michael W. Deem and Ramdas Pophale) SiO2 
 PCOD8024327
Probable space group: P -1
;
_chemical_formula_sum "Si O2"
_cell_formula_units_Z 14
_cell_length_a 14.441920
_cell_length_b 6.847804
_cell_length_c 19.961222
_cell_angle_alpha 95.401248
_cell_angle_beta 31.539142
_cell_angle_gamma 118.877808
_cell_volume 651.766229
_symmetry_space_group_name_H-M "P -1"
_symmetry_group_IT_number 2
_symmetry_cell_setting 'triclinic'
loop_
_space_group_symop_operation_xyz
x,y,z
-x,-y,-z
loop_
_atom_site_type_symbol
_atom_site_label
_atom_site_fract_x
_atom_site_fract_y
_atom_site_fract_z
Si Si1 0.368900 0.123011 0.437803
Si Si2 0.713118 0.548514 0.025522
Si Si3 0.449307 0.359539 0.738871
Si Si4 0.138844 0.720755 0.857141
Si Si5 0.826240 0.815264 0.829260
Si Si6 0.886009 0.420021 0.495838
Si Si7 0.695885 0.045424 0.834152
O O1 0.499188 0.439916 0.345313
O O2 0.611273 0.198609 0.326169
O O3 0.305246 0.935351 0.405859
O O4 0.078136 0.890374 0.650355
O O5 0.847981 0.813935 0.896245
O O6 0.927870 0.567054 0.920081
O O7 0.632249 0.608845 0.140693
O O8 0.457187 0.217263 0.136591
O O9 0.735283 0.497424 0.583217
O O10 0.224572 0.012053 0.838767
O O11 0.000000 0.500000 0.000000
O O12 0.890400 0.081361 0.765220
O O13 0.500000 0.500000 0.000000
O O14 0.000000 0.500000 0.500000
O O15 0.130747 0.634662 0.297581
O O16 0.500000 0.000000 0.000000
#
# Coordination Sequence:
#
# PCOD8024327 Si02
#       7
#     2   2   2   2   2   2   2
#     4  11  23  45  67  95 141 175 220 285 331 395
#     4  11  24  42  69  96 134 185 222 273 341 398
#     4  11  24  43  68 100 138 175 226 281 333 397
#     4  11  25  44  71 102 135 175 231 281 329 394
#     4  10  23  43  65  93 135 177 216 274 338 402
#     4  11  24  36  66 101 130 174 223 277 342 395
#     4  11  24  42  64  98 138 172 223 281 334 400
#
# _framework density 21.480094999999999
#
# number of rings (size 3 to 8) (size 9 to 14) (size 15 to 20)
#    0.000    1.143    2.857    3.000    8.000    1.714 
#    0.000    0.714    0.000    0.000    0.000    0.000 
#    0.000    0.000    0.000    0.000    0.000    0.000 
#
# Total GULP energy -173433.857397 kJ/mol
# GULP energy per Si atom -12388.132671 kJ/mol
# Density = 2.143121 g / cm^3
# Si number density = 21.480095 Si / 1000 Ang^3
#
#
#
# Elastic Constant Matrix: (Units=GPa)
#
#
# Indices 1 2 3 4 5 6 
#
# 1 121.4420 19.8171 35.9643 -7.3827 2.8354 -15.9975
# 2 19.8171 96.4897 30.2866 -6.7768 -3.0927 -15.5152
# 3 35.9643 30.2866 120.5799 13.6138 0.1298 -8.9279
# 4 -7.3827 -6.7768 13.6138 43.6886 -10.1164 3.8188
# 5 2.8354 -3.0927 0.1298 -10.1164 31.8011 -2.2967
# 6 -15.9975 -15.5152 -8.9279 3.8188 -2.2967 19.6634
#
#
#
# Elastic Compliance Matrix: (Units=1/GPa)
#
#
# Indices 1 2 3 4 5 6 
#
# 1 0.010024 0.000003 -0.002735 0.002029 0.000236 0.006550
# 2 0.000003 0.012968 -0.002936 0.002815 0.002796 0.008681
# 3 -0.002735 -0.002936 0.010434 -0.004591 -0.001479 0.000915
# 4 0.002029 0.002815 -0.004591 0.027315 0.008620 -0.002511
# 5 0.000236 0.002796 -0.001479 0.008620 0.034741 0.004110
# 6 0.006550 0.008681 0.000915 -0.002511 0.004110 0.064417
#
#
# Mechanical properties :
#
#
# Convention : Reuss Voigt Hill
#
# Bulk Modulus (GPa) = 45.26926 56.73862 51.00394
# Shear Modulus (GPa) = 27.99547 35.86019 31.92783
#
# Velocity S-wave (km/s) = 3.61407 4.09034 3.85956
# Velocity P-wave (km/s) = 6.20774 6.98424 6.60741
#
# Compressibility (1/GPa) = 0.02209005
#
# Stress axis : x y z
#
# Youngs Moduli (GPa) = 99.75584 77.11227 95.83877
#
# Poissons Ratio (x) = -0.00022 0.26212
# Poissons Ratio (y) = -0.00029 0.28140
# Poissons Ratio (z) = 0.27283 0.22642
#
# Static dielectric constant tensor:
#      x y z
#    x 4.252270 -0.551850 0.118730 
#    y -0.551850 2.200040 1.826380 
#    z 0.118730 1.826380 2.214130 
# 
# 
# High freq. dielectric constant tensor:
#      x y z
#    x 1.842970 -0.024290 -0.005120 
#    y -0.024290 1.841260 0.002880 
#    z -0.005120 0.002880 1.856590 
# 
# From -- ./inp_files/332088.got.cif
#   From: 2010.06.25/outbox.cif.g09.slc.cpg/sg2_167_cif.got.tgz:332088.got - 2010.06.27 13:26:56.
