data_PCOD8024674
_publ_section_title
;
Structure prediction by ZEFSAII (Michael W. Deem and Ramdas Pophale) SiO2 
 PCOD8024674
Probable space group: P -1
;
_chemical_formula_sum "Si O2"
_cell_formula_units_Z 16
_cell_length_a 13.512053
_cell_length_b 14.040373
_cell_length_c 10.711782
_cell_angle_alpha 145.744768
_cell_angle_beta 102.978098
_cell_angle_gamma 52.597891
_cell_volume 712.580058
_symmetry_space_group_name_H-M "P -1"
_symmetry_group_IT_number 2
_symmetry_cell_setting 'triclinic'
loop_
_space_group_symop_operation_xyz
x,y,z
-x,-y,-z
loop_
_atom_site_type_symbol
_atom_site_label
_atom_site_fract_x
_atom_site_fract_y
_atom_site_fract_z
Si Si1 0.681105 0.425574 0.804785
Si Si2 0.647432 0.777842 0.993221
Si Si3 0.207064 0.072814 0.698462
Si Si4 0.835623 0.433264 0.446728
Si Si5 0.291886 0.241769 0.462162
Si Si6 0.672191 0.109465 0.738325
Si Si7 0.886321 0.077177 0.895817
Si Si8 0.899872 0.288894 0.916378
O O1 0.689411 0.560552 0.851544
O O2 0.834753 0.250408 0.747275
O O3 0.697379 0.212263 0.526791
O O4 0.516391 0.645387 0.072668
O O5 0.685878 0.671429 0.748382
O O6 0.752986 0.805777 0.087250
O O7 0.465087 0.064228 0.264997
O O8 0.244578 0.053027 0.541678
O O9 0.020320 0.275264 0.882942
O O10 0.836774 0.569608 0.482238
O O11 0.816933 0.270902 0.203521
O O12 0.997749 0.220879 0.344537
O O13 0.283500 0.065829 0.322585
O O14 0.254632 0.417289 0.754584
O O15 0.737581 0.203426 0.908808
O O16 0.980818 0.076082 0.821629
#
# Coordination Sequence:
#
# PCOD8024674 Si02
#       8
#     2   2   2   2   2   2   2   2
#     4  11  24  43  66 101 139 170 213 274 332 400
#     4  11  25  44  68 101 136 170 222 271 328 398
#     4  12  25  39  71 104 133 175 214 267 343 395
#     4  10  23  45  67  90 132 179 219 278 322 372
#     4  10  24  44  65  95 133 176 222 271 326 384
#     4  11  24  42  68 100 129 177 219 265 338 395
#     4  10  23  43  70  94 132 173 224 271 328 387
#     4  11  23  42  67 100 135 171 216 272 332 399
#
# _framework density 22.453616
#
# number of rings (size 3 to 8) (size 9 to 14) (size 15 to 20)
#    0.000    1.250    1.250    3.375    7.000    3.500 
#    6.750    1.250    0.000    0.000    0.000    0.000 
#    0.000    0.000    0.000    0.000    0.000    0.000 
#
# Total GULP energy -198341.967626 kJ/mol
# GULP energy per Si atom -12396.372977 kJ/mol
# Density = 2.240251 g / cm^3
# Si number density = 22.453616 Si / 1000 Ang^3
#
#
#
# Elastic Constant Matrix: (Units=GPa)
#
#
# Indices 1 2 3 4 5 6 
#
# 1 109.0744 37.6542 26.8027 0.4775 -4.0646 9.3498
# 2 37.6542 85.0541 18.6450 6.3786 -4.5660 7.3482
# 3 26.8027 18.6450 85.9865 2.6491 -4.7697 11.6824
# 4 0.4775 6.3786 2.6491 37.4031 0.3908 3.3158
# 5 -4.0646 -4.5660 -4.7697 0.3908 30.2476 4.3809
# 6 9.3498 7.3482 11.6824 3.3158 4.3809 28.6448
#
#
#
# Elastic Compliance Matrix: (Units=1/GPa)
#
#
# Indices 1 2 3 4 5 6 
#
# 1 0.011456 -0.004425 -0.002344 0.000932 0.000761 -0.001873
# 2 -0.004425 0.014412 -0.001357 -0.002172 0.001641 -0.001699
# 3 -0.002344 -0.001357 0.013425 -0.000299 0.002278 -0.004676
# 4 0.000932 -0.002172 -0.000299 0.027362 -0.000203 -0.002762
# 5 0.000761 0.001641 0.002278 -0.000203 0.034771 -0.006893
# 6 -0.001873 -0.001699 -0.004676 -0.002762 -0.006893 0.039238
#
#
# Mechanical properties :
#
#
# Convention : Reuss Voigt Hill
#
# Bulk Modulus (GPa) = 43.39928 49.59097 46.49512
# Shear Modulus (GPa) = 30.37725 32.39332 31.38529
#
# Velocity S-wave (km/s) = 3.68215 3.80238 3.74275
# Velocity P-wave (km/s) = 6.11948 6.43517 6.27931
#
# Compressibility (1/GPa) = 0.02304186
#
# Stress axis : x y z
#
# Youngs Moduli (GPa) = 87.28695 69.38885 74.48589
#
# Poissons Ratio (x) = 0.30708 0.17456
# Poissons Ratio (y) = 0.38628 0.10106
# Poissons Ratio (z) = 0.20456 0.09415
#
# Static dielectric constant tensor:
#      x y z
#    x 3.987230 0.234930 -0.038580 
#    y 0.234930 4.063670 0.089670 
#    z -0.038580 0.089670 4.127580 
# 
# 
# High freq. dielectric constant tensor:
#      x y z
#    x 1.877060 0.018990 -0.000900 
#    y 0.018990 1.882160 0.005390 
#    z -0.000900 0.005390 1.896040 
# 
# From -- ./inp_files/239983.got.cif
#   From: 2010.06.25/outbox.cif.g09.slc.cpg/sg2_120_cif.got.tgz:239983.got - 2010.06.27 13:26:56.
