data_PCOD8024642
_publ_section_title
;
Structure prediction by ZEFSAII (Michael W. Deem and Ramdas Pophale) SiO2 
 PCOD8024642
Probable space group: P -1
;
_chemical_formula_sum "Si O2"
_cell_formula_units_Z 14
_cell_length_a 7.536378
_cell_length_b 9.500532
_cell_length_c 12.436936
_cell_angle_alpha 124.282130
_cell_angle_beta 113.868982
_cell_angle_gamma 98.363168
_cell_volume 584.966588
_symmetry_space_group_name_H-M "P -1"
_symmetry_group_IT_number 2
_symmetry_cell_setting 'triclinic'
loop_
_space_group_symop_operation_xyz
x,y,z
-x,-y,-z
loop_
_atom_site_type_symbol
_atom_site_label
_atom_site_fract_x
_atom_site_fract_y
_atom_site_fract_z
Si Si1 0.702535 0.856738 0.778440
Si Si2 0.924111 0.445318 0.182730
Si Si3 0.831209 0.090485 0.118781
Si Si4 0.629400 0.525146 0.767963
Si Si5 0.566789 0.742804 0.046243
Si Si6 0.946471 0.834236 0.330879
Si Si7 0.380193 0.097584 0.449826
O O1 0.596373 0.640350 0.709962
O O2 0.553621 0.859479 0.642213
O O3 0.946335 0.922500 0.817945
O O4 0.722887 0.009431 0.939794
O O5 0.882585 0.316695 0.227200
O O6 0.987744 0.666829 0.323086
O O7 0.120079 0.445307 0.159883
O O8 0.689386 0.346612 0.017724
O O9 0.659949 0.962766 0.115674
O O10 0.440869 0.299685 0.612250
O O11 0.593329 0.606928 0.905330
O O12 0.696523 0.742832 0.184971
O O13 0.000000 0.000000 0.500000
O O14 0.117811 0.941681 0.321909
O O15 0.500000 0.000000 0.500000
#
# Coordination Sequence:
#
# PCOD8024642 Si02
#       7
#     2   2   2   2   2   2   2
#     4   9  19  38  68  98 133 167 217 281 329 384
#     4  11  23  42  67 100 131 169 228 264 328 400
#     4   9  19  39  69 100 124 168 225 276 327 389
#     4  10  23  43  70 100 127 172 224 273 333 393
#     4  11  23  45  71  93 134 176 215 282 330 389
#     4  12  27  45  61  94 140 178 218 273 334 391
#     4  12  23  41  65  96 137 176 217 267 331 396
#
# _framework density 23.932991999999999
#
# number of rings (size 3 to 8) (size 9 to 14) (size 15 to 20)
#    0.000    1.429    2.857    3.000    0.000    2.857 
#    0.000    0.714    0.000    0.000    0.000    0.000 
#    0.000    0.000    0.000    0.000    0.000    0.000 
#
# Total GULP energy -173551.846453 kJ/mol
# GULP energy per Si atom -12396.560461 kJ/mol
# Density = 2.387852 g / cm^3
# Si number density = 23.932992 Si / 1000 Ang^3
#
#
#
# Elastic Constant Matrix: (Units=GPa)
#
#
# Indices 1 2 3 4 5 6 
#
# 1 55.9465 27.8197 1.1939 1.7328 16.7936 -13.0407
# 2 27.8197 158.8908 54.4693 12.1955 -17.5395 -21.4727
# 3 1.1939 54.4693 63.1683 2.0573 -3.4930 -10.0483
# 4 1.7328 12.1955 2.0573 55.4780 2.5043 4.4196
# 5 16.7936 -17.5395 -3.4930 2.5043 36.1187 5.7573
# 6 -13.0407 -21.4727 -10.0483 4.4196 5.7573 24.9779
#
#
#
# Elastic Compliance Matrix: (Units=1/GPa)
#
#
# Indices 1 2 3 4 5 6 
#
# 1 0.032479 -0.008492 0.008380 0.000075 -0.021276 0.017919
# 2 -0.008492 0.012465 -0.009896 -0.002572 0.009119 0.000654
# 3 0.008380 -0.009896 0.024961 0.000729 -0.007537 0.007518
# 4 0.000075 -0.002572 0.000729 0.019026 -0.001761 -0.004839
# 5 -0.021276 0.009119 -0.007537 -0.001761 0.043971 -0.016125
# 6 0.017919 0.000654 0.007518 -0.004839 -0.016125 0.057551
#
#
# Mechanical properties :
#
#
# Convention : Reuss Voigt Hill
#
# Bulk Modulus (GPa) = 20.04426 49.44126 34.74276
# Shear Modulus (GPa) = 22.01677 36.28311 29.14994
#
# Velocity S-wave (km/s) = 3.03633 3.89785 3.49375
# Velocity P-wave (km/s) = 4.54816 6.40005 5.55186
#
# Compressibility (1/GPa) = 0.04988958
#
# Stress axis : x y z
#
# Youngs Moduli (GPa) = 30.78881 80.22144 40.06243
#
# Poissons Ratio (x) = 0.68127 -0.33574
# Poissons Ratio (y) = 0.26147 0.39647
# Poissons Ratio (z) = -0.25803 0.79389
#
# Static dielectric constant tensor:
#      x y z
#    x 4.467580 0.173940 0.502950 
#    y 0.173940 4.775090 0.631500 
#    z 0.502950 0.631500 4.379340 
# 
# 
# High freq. dielectric constant tensor:
#      x y z
#    x 1.935970 -0.008170 0.019700 
#    y -0.008170 1.970620 0.025910 
#    z 0.019700 0.025910 1.928640 
# 
# From -- ./inp_files/495653.got.cif
#   From: 2010.06.25/outbox.cif.g09.slc.cpg/sg2_248_cif.got.tgz:495653.got - 2010.06.27 13:26:56.
