data_PCOD8024324
_publ_section_title
;
Structure prediction by ZEFSAII (Michael W. Deem and Ramdas Pophale) SiO2 
 PCOD8024324
Probable space group: P -1
;
_chemical_formula_sum "Si O2"
_cell_formula_units_Z 16
_cell_length_a 18.921656
_cell_length_b 8.649945
_cell_length_c 16.617106
_cell_angle_alpha 50.611132
_cell_angle_beta 158.630459
_cell_angle_gamma 118.943399
_cell_volume 708.473011
_symmetry_space_group_name_H-M "P -1"
_symmetry_group_IT_number 2
_symmetry_cell_setting 'triclinic'
loop_
_space_group_symop_operation_xyz
x,y,z
-x,-y,-z
loop_
_atom_site_type_symbol
_atom_site_label
_atom_site_fract_x
_atom_site_fract_y
_atom_site_fract_z
Si Si1 0.141229 0.357502 0.125577
Si Si2 0.164118 0.801386 0.785538
Si Si3 0.448916 0.553393 0.727142
Si Si4 0.547625 0.381423 0.473351
Si Si5 0.261919 0.962634 0.489469
Si Si6 0.015187 0.546630 0.241351
Si Si7 0.824667 0.975751 0.995804
Si Si8 0.455107 0.856813 0.210140
O O1 0.330998 0.425909 0.275983
O O2 0.243007 0.109423 0.342077
O O3 0.994165 0.377605 0.885784
O O4 0.000000 0.500000 0.000000
O O5 0.049051 0.659415 0.751570
O O6 0.339965 0.651223 0.959651
O O7 0.287362 0.891028 0.950964
O O8 0.000000 0.000000 0.500000
O O9 0.481145 0.648602 0.642677
O O10 0.256548 0.472999 0.547187
O O11 0.413787 0.722592 0.705178
O O12 0.582000 0.605255 0.449886
O O13 0.744120 0.177002 0.781509
O O14 0.363570 0.045499 0.645682
O O15 0.030901 0.974075 0.261931
O O16 0.867804 0.750061 0.071106
O O17 0.653929 0.005494 0.872736
#
# Coordination Sequence:
#
# PCOD8024324 Si02
#       8
#     2   2   2   2   2   2   2   2
#     4  12  24  35  62  99 139 177 213 250 306 379
#     4  11  26  47  71  93 118 165 223 283 335 375
#     4  10  23  43  65  93 131 172 220 256 326 385
#     4  11  22  37  60  95 137 182 212 252 303 384
#     4  11  24  36  61  97 137 177 203 260 308 389
#     4  11  24  44  66  93 135 175 211 268 313 388
#     4  11  23  39  62  96 137 175 214 244 320 384
#     4  11  23  38  61  93 126 169 214 272 312 376
#
# _framework density 22.583781999999999
#
# number of rings (size 3 to 8) (size 9 to 14) (size 15 to 20)
#    0.000    1.000    3.750    3.375    5.250    3.500 
#    0.000    2.500    0.000    3.000    0.000    0.000 
#    0.000    0.000    0.000    0.000    0.000    0.000 
#
# Total GULP energy -198355.109067 kJ/mol
# GULP energy per Si atom -12397.194317 kJ/mol
# Density = 2.253238 g / cm^3
# Si number density = 22.583782 Si / 1000 Ang^3
#
#
#
# Elastic Constant Matrix: (Units=GPa)
#
#
# Indices 1 2 3 4 5 6 
#
# 1 31.2694 8.4174 14.9752 -6.0980 5.5439 -3.6326
# 2 8.4174 102.9242 52.0837 17.6434 -10.2668 -5.7640
# 3 14.9752 52.0837 146.5055 -14.1558 -3.7275 -1.9472
# 4 -6.0980 17.6434 -14.1558 38.3590 -3.2440 4.0974
# 5 5.5439 -10.2668 -3.7275 -3.2440 31.0677 -0.9678
# 6 -3.6326 -5.7640 -1.9472 4.0974 -0.9678 14.4612
#
#
#
# Elastic Compliance Matrix: (Units=1/GPa)
#
#
# Indices 1 2 3 4 5 6 
#
# 1 0.036873 -0.003189 -0.002231 0.005288 -0.007171 0.005713
# 2 -0.003189 0.015685 -0.006048 -0.010441 0.004182 0.007875
# 3 -0.002231 -0.006048 0.009781 0.006418 0.000135 -0.003463
# 4 0.005288 -0.010441 0.006418 0.035337 -0.000308 -0.012002
# 5 -0.007171 0.004182 0.000135 -0.000308 0.034905 0.002307
# 6 0.005713 0.007875 -0.003463 -0.012002 0.002307 0.076813
#
#
# Mechanical properties :
#
#
# Convention : Reuss Voigt Hill
#
# Bulk Modulus (GPa) = 25.37774 47.96130 36.66952
# Shear Modulus (GPa) = 20.36954 30.45910 25.41432
#
# Velocity S-wave (km/s) = 3.00651 3.67647 3.35824
# Velocity P-wave (km/s) = 4.82843 6.26938 5.59548
#
# Compressibility (1/GPa) = 0.03940462
#
# Stress axis : x y z
#
# Youngs Moduli (GPa) = 27.11991 63.75498 102.23507
#
# Poissons Ratio (x) = 0.20328 0.22809
# Poissons Ratio (y) = 0.08647 0.61831
# Poissons Ratio (z) = 0.06051 0.38559
#
# Static dielectric constant tensor:
#      x y z
#    x 3.821000 -0.105180 0.407190 
#    y -0.105180 4.129790 0.192900 
#    z 0.407190 0.192900 4.219920 
# 
# 
# High freq. dielectric constant tensor:
#      x y z
#    x 1.855750 -0.016170 0.041970 
#    y -0.016170 1.897420 0.021450 
#    z 0.041970 0.021450 1.895920 
# 
# From -- ./inp_files/577265.got.cif
#   From: 2010.06.25/outbox.cif.g09.slc.cpg/sg2_289_cif.got.tgz:577265.got - 2010.06.27 13:26:56.
