data_PCOD8024837
_publ_section_title
;
Structure prediction by ZEFSAII (Michael W. Deem and Ramdas Pophale) SiO2 
 PCOD8024837
Probable space group: P -1
;
_chemical_formula_sum "Si O2"
_cell_formula_units_Z 12
_cell_length_a 13.718462
_cell_length_b 11.340991
_cell_length_c 9.011783
_cell_angle_alpha 38.332030
_cell_angle_beta 144.111414
_cell_angle_gamma 124.939058
_cell_volume 502.095647
_symmetry_space_group_name_H-M "P -1"
_symmetry_group_IT_number 2
_symmetry_cell_setting 'triclinic'
loop_
_space_group_symop_operation_xyz
x,y,z
-x,-y,-z
loop_
_atom_site_type_symbol
_atom_site_label
_atom_site_fract_x
_atom_site_fract_y
_atom_site_fract_z
Si Si1 0.927651 0.977872 0.736204
Si Si2 0.314395 0.074433 0.758527
Si Si3 0.602228 0.557814 0.430465
Si Si4 0.455602 0.302604 0.082663
Si Si5 0.906114 0.710378 0.225860
Si Si6 0.288353 0.823780 0.242899
O O1 0.821322 0.010798 0.422573
O O2 0.955617 0.189278 0.614965
O O3 0.105921 0.838128 0.073560
O O4 0.835873 0.855598 0.860730
O O5 0.271721 0.309506 0.474176
O O6 0.500000 0.000000 0.000000
O O7 0.299032 0.006455 0.974241
O O8 0.500000 0.500000 0.500000
O O9 0.687300 0.369142 0.635169
O O10 0.499347 0.702456 0.034498
O O11 0.578980 0.150084 0.487507
O O12 0.500000 0.500000 0.000000
O O13 0.256732 0.301648 0.862350
O O14 0.000000 0.500000 0.500000
#
# Coordination Sequence:
#
# PCOD8024837 Si02
#       6
#     2   2   2   2   2   2
#     4  11  27  43  68 108 143 184 235 295 357 418
#     4  12  25  43  70 100 143 187 236 293 350 419
#     4  11  24  43  70 105 136 187 237 286 350 415
#     4  10  23  43  76 101 138 185 239 288 350 420
#     4  11  24  46  71 104 143 184 236 291 357 424
#     4  11  24  46  68 105 143 182 240 290 357 414
#
# _framework density 23.899829
#
# number of rings (size 3 to 8) (size 9 to 14) (size 15 to 20)
#    0.000    1.000    1.667    4.500    2.333   10.000 
#    0.000    0.000    0.000    0.000    0.000    0.000 
#    0.000    0.000    0.000    0.000    0.000    0.000 
#
# Total GULP energy -148708.618652 kJ/mol
# GULP energy per Si atom -12392.384888 kJ/mol
# Density = 2.384543 g / cm^3
# Si number density = 23.899829 Si / 1000 Ang^3
#
#
#
# Elastic Constant Matrix: (Units=GPa)
#
#
# Indices 1 2 3 4 5 6 
#
# 1 134.8678 43.4046 56.5238 4.4654 -25.8250 3.2122
# 2 43.4046 164.2118 45.4708 -8.9265 -5.8814 -4.6681
# 3 56.5238 45.4708 120.2013 18.5169 -19.7006 3.0668
# 4 4.4654 -8.9265 18.5169 35.5462 -2.3495 0.6790
# 5 -25.8250 -5.8814 -19.7006 -2.3495 47.0837 -9.8568
# 6 3.2122 -4.6681 3.0668 0.6790 -9.8568 43.6485
#
#
#
# Elastic Compliance Matrix: (Units=1/GPa)
#
#
# Indices 1 2 3 4 5 6 
#
# 1 0.010157 -0.001500 -0.003648 0.000503 0.003930 0.000228
# 2 -0.001500 0.007443 -0.002777 0.003441 -0.000697 0.000891
# 3 -0.003648 -0.002777 0.012518 -0.006590 0.002511 -0.000238
# 4 0.000503 0.003441 -0.006590 0.032336 -0.000396 0.000202
# 5 0.003930 -0.000697 0.002511 -0.000396 0.025429 0.005208
# 6 0.000228 0.000891 -0.000238 0.000202 0.005208 0.024178
#
#
# Mechanical properties :
#
#
# Convention : Reuss Voigt Hill
#
# Bulk Modulus (GPa) = 70.08957 78.89770 74.49364
# Shear Modulus (GPa) = 37.68856 43.51448 40.60152
#
# Velocity S-wave (km/s) = 3.97538 4.27160 4.12615
# Velocity P-wave (km/s) = 7.10363 7.57709 7.34417
#
# Compressibility (1/GPa) = 0.01426746
#
# Stress axis : x y z
#
# Youngs Moduli (GPa) = 98.45729 134.36228 79.88409
#
# Poissons Ratio (x) = 0.20153 0.29141
# Poissons Ratio (y) = 0.14768 0.22185
# Poissons Ratio (z) = 0.35916 0.37314
#
# Static dielectric constant tensor:
#      x y z
#    x 4.068890 0.419430 0.950280 
#    y 0.419430 4.420950 -1.090880 
#    z 0.950280 -1.090880 1.017050 
# 
# 
# High freq. dielectric constant tensor:
#      x y z
#    x 1.959630 -0.001850 -0.024070 
#    y -0.001850 1.980030 -0.006430 
#    z -0.024070 -0.006430 1.926270 
# 
# From -- ./inp_files/306395.got.cif
#   From: 2010.06.25/outbox.cif.g09.slc.cpg/sg2_154_cif.got.tgz:306395.got - 2010.06.27 13:26:56.
