data_PCOD8024648
_publ_section_title
;
Structure prediction by ZEFSAII (Michael W. Deem and Ramdas Pophale) SiO2 
 PCOD8024648
Probable space group: P -1
;
_chemical_formula_sum "Si O2"
_cell_formula_units_Z 16
_cell_length_a 8.815916
_cell_length_b 8.616331
_cell_length_c 11.868268
_cell_angle_alpha 83.809960
_cell_angle_beta 70.690400
_cell_angle_gamma 57.661671
_cell_volume 716.151218
_symmetry_space_group_name_H-M "P -1"
_symmetry_group_IT_number 2
_symmetry_cell_setting 'triclinic'
loop_
_space_group_symop_operation_xyz
x,y,z
-x,-y,-z
loop_
_atom_site_type_symbol
_atom_site_label
_atom_site_fract_x
_atom_site_fract_y
_atom_site_fract_z
Si Si1 0.212719 0.979609 0.807413
Si Si2 0.848231 0.980781 0.855108
Si Si3 0.839075 0.713600 0.041506
Si Si4 0.573824 0.617891 0.829302
Si Si5 0.564515 0.138981 0.459609
Si Si6 0.479466 0.338908 0.915516
Si Si7 0.175854 0.000480 0.406829
Si Si8 0.199202 0.353598 0.412181
O O1 0.136417 0.181003 0.866310
O O2 0.402175 0.828201 0.837418
O O3 0.262534 0.960703 0.664644
O O4 0.044891 0.940505 0.861035
O O5 0.821140 0.015235 0.725716
O O6 0.678490 0.173264 0.928285
O O7 0.825660 0.816107 0.918766
O O8 0.640534 0.728841 0.116807
O O9 0.000000 0.500000 0.000000
O O10 0.506655 0.478021 0.819155
O O11 0.762737 0.580427 0.721602
O O12 0.636725 0.565416 0.948209
O O13 0.376273 0.326445 0.447353
O O14 0.500000 0.000000 0.500000
O O15 0.641906 0.168122 0.557678
O O16 0.184705 0.176796 0.420255
O O17 0.000000 0.000000 0.500000
O O18 0.000000 0.500000 0.500000
#
# Coordination Sequence:
#
# PCOD8024648 Si02
#       8
#     2   2   2   2   2   2   2   2
#     4  11  23  44  69  96 137 184 220 286 353 413
#     4  12  25  43  72  97 141 184 229 288 351 420
#     4  12  27  44  67 105 136 176 236 288 354 415
#     4  10  23  44  68  95 143 176 231 278 350 421
#     4   9  21  42  67  93 134 179 227 276 340 408
#     4  11  25  41  68 101 136 179 225 284 348 418
#     4  11  23  44  67 101 136 182 239 278 342 418
#     4  10  23  43  70 101 137 184 231 288 350 406
#
# _framework density 22.341652
#
# number of rings (size 3 to 8) (size 9 to 14) (size 15 to 20)
#    0.000    1.250    2.500    2.250   10.500    0.000 
#    4.500    1.875    0.000    0.000    0.000    0.000 
#    0.000    0.000    0.000    0.000    0.000    0.000 
#
# Total GULP energy -198220.500052 kJ/mol
# GULP energy per Si atom -12388.781253 kJ/mol
# Density = 2.229080 g / cm^3
# Si number density = 22.341652 Si / 1000 Ang^3
#
#
#
# Elastic Constant Matrix: (Units=GPa)
#
#
# Indices 1 2 3 4 5 6 
#
# 1 108.4975 24.3916 47.4042 2.3266 -14.8709 8.4088
# 2 24.3916 107.6143 43.0033 1.8485 -14.7068 5.2661
# 3 47.4042 43.0033 132.4188 -8.7917 -4.9540 -3.2328
# 4 2.3266 1.8485 -8.7917 34.8923 1.0198 -11.6652
# 5 -14.8709 -14.7068 -4.9540 1.0198 46.7854 -3.5914
# 6 8.4088 5.2661 -3.2328 -11.6652 -3.5914 33.5003
#
#
#
# Elastic Compliance Matrix: (Units=1/GPa)
#
#
# Indices 1 2 3 4 5 6 
#
# 1 0.012036 -0.000274 -0.004438 -0.003424 0.003016 -0.004275
# 2 -0.000274 0.011422 -0.003730 -0.002495 0.002960 -0.002638
# 3 -0.004438 -0.003730 0.010717 0.004640 -0.001226 0.004219
# 4 -0.003424 -0.002495 0.004640 0.034802 -0.001088 0.013701
# 5 0.003016 0.002960 -0.001226 -0.001088 0.023216 0.000769
# 6 -0.004275 -0.002638 0.004219 0.013701 0.000769 0.036599
#
#
# Mechanical properties :
#
#
# Convention : Reuss Voigt Hill
#
# Bulk Modulus (GPa) = 57.84083 64.23652 61.03868
# Shear Modulus (GPa) = 33.01615 38.61769 35.81692
#
# Velocity S-wave (km/s) = 3.84837 4.16204 4.00827
# Velocity P-wave (km/s) = 6.75959 7.20494 6.98581
#
# Compressibility (1/GPa) = 0.01728882
#
# Stress axis : x y z
#
# Youngs Moduli (GPa) = 83.08549 87.55194 93.30614
#
# Poissons Ratio (x) = 0.02401 0.41414
# Poissons Ratio (y) = 0.02278 0.34807
# Poissons Ratio (z) = 0.36877 0.32661
#
# Static dielectric constant tensor:
#      x y z
#    x 5.015330 -0.482760 0.227830 
#    y -0.482760 4.021250 -0.369650 
#    z 0.227830 -0.369650 4.400860 
# 
# 
# High freq. dielectric constant tensor:
#      x y z
#    x 1.889380 -0.000440 -0.013930 
#    y -0.000440 1.862610 -0.015830 
#    z -0.013930 -0.015830 1.891040 
# 
# From -- ./inp_files/306922.got.cif
#   From: 2010.06.25/outbox.cif.g09.slc.cpg/sg2_154_cif.got.tgz:306922.got - 2010.06.27 13:26:56.
