data_PCOD8024087
_publ_section_title
;
Structure prediction by ZEFSAII (Michael W. Deem and Ramdas Pophale) SiO2 
 PCOD8024087
Probable space group: P -1
;
_chemical_formula_sum "Si O2"
_cell_formula_units_Z 14
_cell_length_a 7.688086
_cell_length_b 9.347483
_cell_length_c 11.454448
_cell_angle_alpha 92.739659
_cell_angle_beta 85.880136
_cell_angle_gamma 50.584380
_cell_volume 629.623530
_symmetry_space_group_name_H-M "P -1"
_symmetry_group_IT_number 2
_symmetry_cell_setting 'triclinic'
loop_
_space_group_symop_operation_xyz
x,y,z
-x,-y,-z
loop_
_atom_site_type_symbol
_atom_site_label
_atom_site_fract_x
_atom_site_fract_y
_atom_site_fract_z
Si Si1 0.471179 0.178231 0.473396
Si Si2 0.138039 0.451373 0.670767
Si Si3 0.803307 0.407108 0.797158
Si Si4 0.927563 0.878540 0.030979
Si Si5 0.041236 0.168506 0.227123
Si Si6 0.387827 0.805730 0.783715
Si Si7 0.635028 0.217469 0.682121
O O1 0.218386 0.366135 0.531800
O O2 0.499287 0.186719 0.336084
O O3 0.656454 0.172093 0.540014
O O4 0.500000 0.000000 0.500000
O O5 0.987322 0.674768 0.686537
O O6 0.366382 0.360003 0.733928
O O7 0.006977 0.389297 0.732214
O O8 0.579530 0.619542 0.838474
O O9 0.750114 0.308751 0.704610
O O10 0.875203 0.305128 0.914267
O O11 0.894112 0.814116 0.907417
O O12 0.700566 0.014798 0.126073
O O13 0.000000 0.000000 0.000000
O O14 0.813978 0.193556 0.243075
O O15 0.249933 0.968510 0.257081
#
# Coordination Sequence:
#
# PCOD8024087 Si02
#       7
#     2   2   2   2   2   2   2
#     4  10  24  46  68 102 145 174 230 289 334 416
#     4  10  26  44  66 107 139 171 240 273 343 409
#     4  12  23  44  73 101 139 185 223 286 344 404
#     4  10  23  42  70 104 136 182 233 278 343 410
#     4  11  23  45  71 100 139 182 229 286 341 405
#     4  11  23  42  69 104 135 183 232 274 350 405
#     4  10  24  45  69 100 139 182 220 283 345 400
#
# _framework density 22.235507999999999
#
# number of rings (size 3 to 8) (size 9 to 14) (size 15 to 20)
#    0.857    0.571    4.286    0.857    2.000    7.429 
#    2.571    1.429    0.000    0.000    0.000    0.000 
#    0.000    0.000    0.000    0.000    0.000    0.000 
#
# Total GULP energy -173545.234012 kJ/mol
# GULP energy per Si atom -12396.088144 kJ/mol
# Density = 2.218490 g / cm^3
# Si number density = 22.235508 Si / 1000 Ang^3
#
#
#
# Elastic Constant Matrix: (Units=GPa)
#
#
# Indices 1 2 3 4 5 6 
#
# 1 75.9094 24.3226 -2.1824 1.9640 -13.9386 7.2249
# 2 24.3226 133.2486 27.6708 1.1288 3.2678 -9.0140
# 3 -2.1824 27.6708 86.6009 11.5885 -9.0774 -2.8191
# 4 1.9640 1.1288 11.5885 40.8454 6.4258 8.3252
# 5 -13.9386 3.2678 -9.0774 6.4258 14.2432 -1.9648
# 6 7.2249 -9.0140 -2.8191 8.3252 -1.9648 34.2807
#
#
#
# Elastic Compliance Matrix: (Units=1/GPa)
#
#
# Indices 1 2 3 4 5 6 
#
# 1 0.020814 -0.005871 0.006182 -0.006602 0.028332 -0.002195
# 2 -0.005871 0.010020 -0.004955 0.002917 -0.012235 0.002055
# 3 0.006182 -0.004955 0.016885 -0.008908 0.022274 0.002223
# 4 -0.006602 0.002917 -0.008908 0.033533 -0.029093 -0.008385
# 5 0.028332 -0.012235 0.022274 -0.029093 0.129043 0.007105
# 6 -0.002195 0.002055 0.002223 -0.008385 0.007105 0.032800
#
#
# Mechanical properties :
#
#
# Convention : Reuss Voigt Hill
#
# Bulk Modulus (GPa) = 26.01993 43.93119 34.97556
# Shear Modulus (GPa) = 18.85413 34.27038 26.56226
#
# Velocity S-wave (km/s) = 2.91508 3.93013 3.46003
# Velocity P-wave (km/s) = 4.80184 6.35568 5.63260
#
# Compressibility (1/GPa) = 0.03843207
#
# Stress axis : x y z
#
# Youngs Moduli (GPa) = 48.04352 99.80328 59.22263
#
# Poissons Ratio (x) = 0.58590 -0.36612
# Poissons Ratio (y) = 0.28204 0.29347
# Poissons Ratio (z) = -0.29701 0.49456
#
# Static dielectric constant tensor:
#      x y z
#    x 3.910640 -0.125930 0.074200 
#    y -0.125930 4.212280 0.257490 
#    z 0.074200 0.257490 4.312180 
# 
# 
# High freq. dielectric constant tensor:
#      x y z
#    x 1.866320 -0.005840 0.003920 
#    y -0.005840 1.892100 0.004530 
#    z 0.003920 0.004530 1.866430 
# 
# From -- ./inp_files/382255.got.cif
#   From: 2010.06.25/outbox.cif.g09.slc.cpg/sg2_192_cif.got.tgz:382255.got - 2010.06.27 13:26:56.
