data_PCOD8024092
_publ_section_title
;
Structure prediction by ZEFSAII (Michael W. Deem and Ramdas Pophale) SiO2 
 PCOD8024092
Probable space group: P -1
;
_chemical_formula_sum "Si O2"
_cell_formula_units_Z 16
_cell_length_a 28.567432
_cell_length_b 5.259396
_cell_length_c 7.034572
_cell_angle_alpha 71.959202
_cell_angle_beta 48.260765
_cell_angle_gamma 60.680283
_cell_volume 687.417209
_symmetry_space_group_name_H-M "P -1"
_symmetry_group_IT_number 2
_symmetry_cell_setting 'triclinic'
loop_
_space_group_symop_operation_xyz
x,y,z
-x,-y,-z
loop_
_atom_site_type_symbol
_atom_site_label
_atom_site_fract_x
_atom_site_fract_y
_atom_site_fract_z
Si Si1 0.684494 0.571517 0.588541
Si Si2 0.780569 0.619395 0.994852
Si Si3 0.923298 0.664302 0.094674
Si Si4 0.689191 0.981771 0.826202
Si Si5 0.543530 0.231554 0.319316
Si Si6 0.923179 0.095232 0.258751
Si Si7 0.129257 0.036868 0.201911
Si Si8 0.538373 0.814243 0.759508
O O1 0.729032 0.659615 0.297752
O O2 0.673654 0.794043 0.743195
O O3 0.613218 0.605983 0.674381
O O4 0.718427 0.224275 0.626604
O O5 0.743052 0.742607 0.870607
O O6 0.826035 0.797875 0.878688
O O7 0.824225 0.277301 0.932327
O O8 0.884053 0.446737 0.268795
O O9 0.884032 0.948318 0.265254
O O10 0.923300 0.762883 0.857612
O O11 0.000000 0.500000 0.000000
O O12 0.622403 0.172278 0.085838
O O13 0.500000 0.500000 0.500000
O O14 0.510840 0.323617 0.171264
O O15 0.544282 0.965189 0.507676
O O16 0.922783 0.991043 0.496629
O O17 0.000000 0.000000 0.000000
O O18 0.500000 0.000000 0.000000
#
# Coordination Sequence:
#
# PCOD8024092 Si02
#       8
#     2   2   2   2   2   2   2   2
#     4  12  27  46  74  99 142 188 244 298 371 419
#     4  12  28  48  69 102 143 191 246 290 347 435
#     4  10  23  42  70 106 144 178 230 283 348 414
#     4  12  27  47  70 102 139 188 240 304 355 430
#     4  11  25  40  70 101 143 180 238 305 374 440
#     4  10  23  42  70 106 144 179 225 285 344 418
#     4  12  26  45  74 102 142 192 233 287 357 423
#     4  11  23  43  67 103 137 182 238 301 370 434
#
# _framework density 23.275531000000001
#
# number of rings (size 3 to 8) (size 9 to 14) (size 15 to 20)
#    0.000    0.750    2.500    3.750    3.500   12.000 
#    0.000    0.000    0.000    0.000    0.000    0.000 
#    0.000    0.000    0.000    0.000    0.000    0.000 
#
# Total GULP energy -198228.343051 kJ/mol
# GULP energy per Si atom -12389.271441 kJ/mol
# Density = 2.322256 g / cm^3
# Si number density = 23.275531 Si / 1000 Ang^3
#
#
#
# Elastic Constant Matrix: (Units=GPa)
#
#
# Indices 1 2 3 4 5 6 
#
# 1 106.5508 72.8752 51.5507 4.5857 27.9348 -5.1032
# 2 72.8752 132.4589 37.1578 -15.7724 16.5212 24.1769
# 3 51.5507 37.1578 133.9881 -17.0520 16.2241 -6.0659
# 4 4.5857 -15.7724 -17.0520 35.7031 -5.1596 14.2696
# 5 27.9348 16.5212 16.2241 -5.1596 41.5128 2.1767
# 6 -5.1032 24.1769 -6.0659 14.2696 2.1767 50.4485
#
#
#
# Elastic Compliance Matrix: (Units=1/GPa)
#
#
# Indices 1 2 3 4 5 6 
#
# 1 0.036339 -0.023493 -0.008277 -0.030788 -0.016921 0.023378
# 2 -0.023493 0.025577 0.003186 0.025874 0.008752 -0.021947
# 3 -0.008277 0.003186 0.010588 0.009254 0.001512 -0.003773
# 4 -0.030788 0.025874 0.009254 0.063391 0.016415 -0.033040
# 5 -0.016921 0.008752 0.001512 0.016415 0.034062 -0.011837
# 6 0.023378 -0.021947 -0.003773 -0.033040 -0.011837 0.042108
#
#
# Mechanical properties :
#
#
# Convention : Reuss Voigt Hill
#
# Bulk Modulus (GPa) = 65.21395 77.35169 71.28282
# Shear Modulus (GPa) = 18.22522 39.62716 28.92619
#
# Velocity S-wave (km/s) = 2.80129 4.13064 3.52912
# Velocity P-wave (km/s) = 6.20822 7.48698 6.87738
#
# Compressibility (1/GPa) = 0.01533414
#
# Stress axis : x y z
#
# Youngs Moduli (GPa) = 27.51873 39.09830 94.44524
#
# Poissons Ratio (x) = 0.91856 0.78170
# Poissons Ratio (y) = 0.64651 -0.30086
# Poissons Ratio (z) = 0.22777 -0.12455
#
# Static dielectric constant tensor:
#      x y z
#    x 4.527690 -0.038220 -0.037150 
#    y -0.038220 4.704490 0.083560 
#    z -0.037150 0.083560 4.465080 
# 
# 
# High freq. dielectric constant tensor:
#      x y z
#    x 1.924910 0.007950 0.013960 
#    y 0.007950 1.934270 -0.012570 
#    z 0.013960 -0.012570 1.935250 
# 
# From -- ./inp_files/125770.got.cif
#   From: 2010.06.25/outbox.cif.g09.slc.cpg/sg2_63_cif.got.tgz:125770.got - 2010.06.27 13:26:56.
