data_PCOD8024732
_publ_section_title
;
Structure prediction by ZEFSAII (Michael W. Deem and Ramdas Pophale) SiO2 
 PCOD8024732
Probable space group: P -1
;
_chemical_formula_sum "Si O2"
_cell_formula_units_Z 16
_cell_length_a 23.266516
_cell_length_b 8.227703
_cell_length_c 19.321403
_cell_angle_alpha 31.257378
_cell_angle_beta 157.704372
_cell_angle_gamma 147.028754
_cell_volume 706.129786
_symmetry_space_group_name_H-M "P -1"
_symmetry_group_IT_number 2
_symmetry_cell_setting 'triclinic'
loop_
_space_group_symop_operation_xyz
x,y,z
-x,-y,-z
loop_
_atom_site_type_symbol
_atom_site_label
_atom_site_fract_x
_atom_site_fract_y
_atom_site_fract_z
Si Si1 0.302362 0.382490 0.010531
Si Si2 0.503480 0.622648 0.269057
Si Si3 0.890038 0.295417 0.008406
Si Si4 0.360546 0.347657 0.350950
Si Si5 0.141147 0.197993 0.431089
Si Si6 0.955708 0.286562 0.389690
Si Si7 0.484155 0.325499 0.973034
Si Si8 0.237118 0.613510 0.516619
O O1 0.449631 0.412652 0.215816
O O2 0.355078 0.555332 0.933112
O O3 0.185888 0.572120 0.848369
O O4 0.222415 0.009396 0.043475
O O5 0.421191 0.402123 0.320475
O O6 0.691322 0.723787 0.449573
O O7 0.441887 0.945984 0.078374
O O8 0.001415 0.195000 0.224885
O O9 0.787509 0.505106 0.856200
O O10 0.000000 0.500000 0.000000
O O11 0.500000 0.500000 0.500000
O O12 0.321674 0.976253 0.463197
O O13 0.150339 0.463801 0.404372
O O14 0.092204 0.839076 0.540491
O O15 0.108451 0.587922 0.444317
O O16 0.000000 0.000000 0.500000
O O17 0.353342 0.404743 0.748773
O O18 0.500000 0.500000 0.000000
#
# Coordination Sequence:
#
# PCOD8024732 Si02
#       8
#     2   2   2   2   2   2   2   2
#     4  12  25  46  75 110 145 200 247 307 371 448
#     4  12  25  46  80 108 148 190 253 302 375 448
#     4  12  29  48  71 106 155 194 254 305 376 443
#     4  12  28  49  73 109 149 196 251 309 372 444
#     4  11  25  46  73 109 143 193 243 313 370 444
#     4  10  23  43  71 107 147 182 244 305 371 437
#     4  12  25  45  77 113 149 196 250 310 367 443
#     4  11  25  46  75 105 149 193 250 303 376 441
#
# _framework density 22.658725
#
# number of rings (size 3 to 8) (size 9 to 14) (size 15 to 20)
#    0.000    0.500    2.500    5.625    8.750    2.500 
#    0.000    0.000    0.000    0.000    0.000    0.000 
#    0.000    0.000    0.000    0.000    0.000    0.000 
#
# Total GULP energy -198373.496978 kJ/mol
# GULP energy per Si atom -12398.343561 kJ/mol
# Density = 2.260715 g / cm^3
# Si number density = 22.658725 Si / 1000 Ang^3
#
#
#
# Elastic Constant Matrix: (Units=GPa)
#
#
# Indices 1 2 3 4 5 6 
#
# 1 102.6192 29.5476 21.3068 17.7531 1.4211 18.3862
# 2 29.5476 125.2076 16.3139 12.1470 -13.2220 19.2286
# 3 21.3068 16.3139 99.2291 8.5413 3.7029 6.3962
# 4 17.7531 12.1470 8.5413 29.0825 0.3719 -0.3229
# 5 1.4211 -13.2220 3.7029 0.3719 42.5132 9.0492
# 6 18.3862 19.2286 6.3962 -0.3229 9.0492 53.5982
#
#
#
# Elastic Compliance Matrix: (Units=1/GPa)
#
#
# Indices 1 2 3 4 5 6 
#
# 1 0.012253 -0.001513 -0.001606 -0.006416 0.000065 -0.003519
# 2 -0.001513 0.009709 -0.000937 -0.002946 0.003930 -0.003534
# 3 -0.001606 -0.000937 0.010786 -0.001785 -0.001114 -0.000223
# 4 -0.006416 -0.002946 -0.001785 0.040123 -0.001751 0.004008
# 5 0.000065 0.003930 -0.001114 -0.001751 0.026070 -0.005711
# 6 -0.003519 -0.003534 -0.000223 0.004008 -0.005711 0.022147
#
#
# Mechanical properties :
#
#
# Convention : Reuss Voigt Hill
#
# Bulk Modulus (GPa) = 40.58710 51.26583 45.92647
# Shear Modulus (GPa) = 36.38686 42.36462 39.37574
#
# Velocity S-wave (km/s) = 4.01167 4.32867 4.17318
# Velocity P-wave (km/s) = 6.27768 6.90344 6.59798
#
# Compressibility (1/GPa) = 0.02463837
#
# Stress axis : x y z
#
# Youngs Moduli (GPa) = 81.61078 102.99427 92.71265
#
# Poissons Ratio (x) = 0.15580 0.14887
# Poissons Ratio (y) = 0.12345 0.08684
# Poissons Ratio (z) = 0.13104 0.09648
#
# Static dielectric constant tensor:
#      x y z
#    x 4.793950 0.523100 0.160980 
#    y 0.523100 4.127530 0.134380 
#    z 0.160980 0.134380 4.334210 
# 
# 
# High freq. dielectric constant tensor:
#      x y z
#    x 1.900560 0.019140 0.009160 
#    y 0.019140 1.904080 0.005710 
#    z 0.009160 0.005710 1.901520 
# 
# From -- ./inp_files/601926.got.cif
#   From: 2010.06.25/outbox.cif.g09.slc.cpg/sg2_301_cif.got.tgz:601926.got - 2010.06.27 13:26:56.
