data_PCOD8024925
_publ_section_title
;
Structure prediction by ZEFSAII (Michael W. Deem and Ramdas Pophale) SiO2 
 PCOD8024925
Probable space group: P -1
;
_chemical_formula_sum "Si O2"
_cell_formula_units_Z 14
_cell_length_a 9.321518
_cell_length_b 8.799927
_cell_length_c 18.273831
_cell_angle_alpha 111.563714
_cell_angle_beta 148.969509
_cell_angle_gamma 56.521574
_cell_volume 624.947697
_symmetry_space_group_name_H-M "P -1"
_symmetry_group_IT_number 2
_symmetry_cell_setting 'triclinic'
loop_
_space_group_symop_operation_xyz
x,y,z
-x,-y,-z
loop_
_atom_site_type_symbol
_atom_site_label
_atom_site_fract_x
_atom_site_fract_y
_atom_site_fract_z
Si Si1 0.180028 0.272267 0.598096
Si Si2 0.801685 0.149104 0.139759
Si Si3 0.320713 0.079631 0.845622
Si Si4 0.207669 0.624181 0.686801
Si Si5 0.267035 0.306011 0.117188
Si Si6 0.272442 0.689928 0.475036
Si Si7 0.672076 0.863165 0.736928
O O1 0.331823 0.402934 0.709106
O O2 0.129680 0.278509 0.488427
O O3 0.834803 0.349505 0.500332
O O4 0.424154 0.065734 0.696923
O O5 0.795219 0.303109 0.219877
O O6 0.069553 0.111318 0.191117
O O7 0.870918 0.961814 0.181517
O O8 0.463290 0.211468 0.961075
O O9 0.063491 0.187474 0.690613
O O10 0.627033 0.881281 0.918316
O O11 0.426169 0.668231 0.736938
O O12 0.161709 0.278309 0.147346
O O13 0.000000 0.500000 0.000000
O O14 0.500000 0.500000 0.500000
O O15 0.471269 0.799060 0.586911
#
# Coordination Sequence:
#
# PCOD8024925 Si02
#       7
#     2   2   2   2   2   2   2
#     4  11  23  43  73 103 144 184 236 298 344 414
#     4  10  24  44  70 103 143 191 225 290 354 421
#     4  10  24  47  69 100 150 181 232 292 354 417
#     4  10  23  44  66 102 143 184 233 283 348 420
#     4  11  24  43  71 100 139 186 235 290 351 420
#     4  12  25  43  74 107 141 183 236 294 353 416
#     4  12  24  43  75 105 138 186 244 287 354 416
#
# _framework density 22.401876000000001
#
# number of rings (size 3 to 8) (size 9 to 14) (size 15 to 20)
#    0.000    1.143    2.857    3.000    2.000    9.714 
#    0.000    4.286    0.000    0.000    0.000    0.000 
#    0.000    0.000    0.000    0.000    0.000    0.000 
#
# Total GULP energy -173512.244852 kJ/mol
# GULP energy per Si atom -12393.731775 kJ/mol
# Density = 2.235089 g / cm^3
# Si number density = 22.401876 Si / 1000 Ang^3
#
#
#
# Elastic Constant Matrix: (Units=GPa)
#
#
# Indices 1 2 3 4 5 6 
#
# 1 138.8615 47.2801 41.5227 7.3492 8.7462 -4.9353
# 2 47.2801 137.8297 57.2019 7.6832 -5.5646 -8.7204
# 3 41.5227 57.2019 109.5811 13.9804 -21.4112 -8.9914
# 4 7.3492 7.6832 13.9804 46.2323 12.2388 5.3588
# 5 8.7462 -5.5646 -21.4112 12.2388 32.3270 3.4017
# 6 -4.9353 -8.7204 -8.9914 5.3588 3.4017 24.4513
#
#
#
# Elastic Compliance Matrix: (Units=1/GPa)
#
#
# Indices 1 2 3 4 5 6 
#
# 1 0.009323 -0.001891 -0.003913 0.001592 -0.006070 0.000264
# 2 -0.001891 0.009820 -0.004481 0.000096 -0.000969 0.001586
# 3 -0.003913 -0.004481 0.017039 -0.007970 0.014206 0.003648
# 4 0.001592 0.000096 -0.007970 0.028746 -0.015874 -0.006667
# 5 -0.006070 -0.000969 0.014206 -0.015874 0.047777 0.000485
# 6 0.000264 0.001586 0.003648 -0.006667 0.000485 0.044252
#
#
# Mechanical properties :
#
#
# Convention : Reuss Voigt Hill
#
# Bulk Modulus (GPa) = 64.05337 75.36463 69.70900
# Shear Modulus (GPa) = 27.36283 36.61995 31.99139
#
# Velocity S-wave (km/s) = 3.49872 4.04751 3.78308
# Velocity P-wave (km/s) = 6.70644 7.45374 7.08994
#
# Compressibility (1/GPa) = 0.01561198
#
# Stress axis : x y z
#
# Youngs Moduli (GPa) = 107.26369 101.83784 58.68846
#
# Poissons Ratio (x) = 0.19260 0.22964
# Poissons Ratio (y) = 0.20286 0.26297
# Poissons Ratio (z) = 0.41970 0.45631
#
# Static dielectric constant tensor:
#      x y z
#    x 4.016810 0.084340 -0.020650 
#    y 0.084340 4.042700 0.232080 
#    z -0.020650 0.232080 4.019740 
# 
# 
# High freq. dielectric constant tensor:
#      x y z
#    x 1.889210 0.011760 -0.011170 
#    y 0.011760 1.878100 0.022810 
#    z -0.011170 0.022810 1.881670 
# 
# From -- ./inp_files/184782.got.cif
#   From: 2010.06.25/outbox.cif.g09.slc.cpg/sg2_93_cif.got.tgz:184782.got - 2010.06.27 13:26:56.
