data_PCOD8024376
_publ_section_title
;
Structure prediction by ZEFSAII (Michael W. Deem and Ramdas Pophale) SiO2 
 PCOD8024376
Probable space group: P -1
;
_chemical_formula_sum "Si O2"
_cell_formula_units_Z 16
_cell_length_a 10.869216
_cell_length_b 14.514948
_cell_length_c 6.686974
_cell_angle_alpha 86.753929
_cell_angle_beta 103.595492
_cell_angle_gamma 46.574818
_cell_volume 708.259032
_symmetry_space_group_name_H-M "P -1"
_symmetry_group_IT_number 2
_symmetry_cell_setting 'triclinic'
loop_
_space_group_symop_operation_xyz
x,y,z
-x,-y,-z
loop_
_atom_site_type_symbol
_atom_site_label
_atom_site_fract_x
_atom_site_fract_y
_atom_site_fract_z
Si Si1 0.172010 0.358108 0.182053
Si Si2 0.518277 0.889197 0.922512
Si Si3 0.355680 0.508229 0.043723
Si Si4 0.955748 0.343352 0.373583
Si Si5 0.338817 0.435768 0.452714
Si Si6 0.054671 0.946572 0.810391
Si Si7 0.454344 0.734596 0.087538
Si Si8 0.146273 0.062166 0.558315
O O1 0.281793 0.233150 0.084648
O O2 0.309764 0.360477 0.320310
O O3 0.105071 0.335524 0.349815
O O4 0.000000 0.500000 0.000000
O O5 0.364175 0.955324 0.684165
O O6 0.477974 0.833371 0.085560
O O7 0.500000 0.000000 0.000000
O O8 0.367028 0.503858 0.291826
O O9 0.500000 0.500000 0.000000
O O10 0.155865 0.637689 0.863988
O O11 0.394317 0.384139 0.993690
O O12 0.831124 0.455609 0.481076
O O13 0.060795 0.206947 0.543114
O O14 0.517748 0.323437 0.672430
O O15 0.907949 0.947814 0.680110
O O16 0.044364 0.046140 0.669865
O O17 0.262210 0.799556 0.916798
O O18 0.000000 0.000000 0.000000
#
# Coordination Sequence:
#
# PCOD8024376 Si02
#       8
#     2   2   2   2   2   2   2   2
#     4  12  24  46  73  97 145 192 236 298 352 427
#     4  11  26  45  70 106 148 189 241 297 357 433
#     4  11  23  43  69 102 140 181 239 299 353 426
#     4  11  25  41  69 106 137 182 243 286 357 431
#     4  11  24  43  73 100 142 188 231 295 365 420
#     4  10  23  43  71  93 136 187 235 291 355 430
#     4  10  23  43  66 103 136 183 238 293 359 426
#     4  10  25  44  65 102 143 181 232 293 356 419
#
# _framework density 22.590606000000001
#
# number of rings (size 3 to 8) (size 9 to 14) (size 15 to 20)
#    0.000    1.250    2.500    1.875    5.250    8.500 
#    0.000    0.000    0.000    0.000    0.000    0.000 
#    0.000    0.000    0.000    0.000    0.000    0.000 
#
# Total GULP energy -198343.058432 kJ/mol
# GULP energy per Si atom -12396.441152 kJ/mol
# Density = 2.253919 g / cm^3
# Si number density = 22.590606 Si / 1000 Ang^3
#
#
#
# Elastic Constant Matrix: (Units=GPa)
#
#
# Indices 1 2 3 4 5 6 
#
# 1 100.4483 34.1656 41.0511 0.3778 -4.4445 -1.0883
# 2 34.1656 123.8500 41.9856 -5.1333 -2.9930 -0.6808
# 3 41.0511 41.9856 135.3503 -4.7281 -6.2476 -7.1444
# 4 0.3778 -5.1333 -4.7281 40.9773 -4.6688 0.8830
# 5 -4.4445 -2.9930 -6.2476 -4.6688 38.2028 1.2421
# 6 -1.0883 -0.6808 -7.1444 0.8830 1.2421 30.3240
#
#
#
# Elastic Compliance Matrix: (Units=1/GPa)
#
#
# Indices 1 2 3 4 5 6 
#
# 1 0.011967 -0.002325 -0.002917 -0.000656 0.000663 -0.000318
# 2 -0.002325 0.009514 -0.002223 0.000994 0.000247 -0.000433
# 3 -0.002917 -0.002223 0.009143 0.000879 0.001026 0.001932
# 4 -0.000656 0.000994 0.000879 0.025017 0.003224 -0.000655
# 5 0.000663 0.000247 0.001026 0.003224 0.026864 -0.000923
# 6 -0.000318 -0.000433 0.001932 -0.000655 -0.000923 0.033468
#
#
# Mechanical properties :
#
#
# Convention : Reuss Voigt Hill
#
# Bulk Modulus (GPa) = 63.72256 66.00591 64.86424
# Shear Modulus (GPa) = 36.72837 38.06389 37.39613
#
# Velocity S-wave (km/s) = 4.03653 4.10926 4.07306
# Velocity P-wave (km/s) = 7.07061 7.19697 7.13407
#
# Compressibility (1/GPa) = 0.01569303
#
# Stress axis : x y z
#
# Youngs Moduli (GPa) = 83.56439 105.10806 109.37844
#
# Poissons Ratio (x) = 0.24439 0.31909
# Poissons Ratio (y) = 0.19430 0.24312
# Poissons Ratio (z) = 0.24378 0.23363
#
# Static dielectric constant tensor:
#      x y z
#    x 3.908140 0.181510 0.010180 
#    y 0.181510 4.077390 -0.177440 
#    z 0.010180 -0.177440 4.649360 
# 
# 
# High freq. dielectric constant tensor:
#      x y z
#    x 1.888380 0.005480 -0.001440 
#    y 0.005480 1.888280 -0.015390 
#    z -0.001440 -0.015390 1.898780 
# 
# From -- ./inp_files/77903.got.cif
#   From: 2010.06.25/outbox.cif.g09.slc.cpg/sg2_39_cif.got.tgz:77903.got - 2010.06.27 13:26:56.
