data_PCOD8024214
_publ_section_title
;
Structure prediction by ZEFSAII (Michael W. Deem and Ramdas Pophale) SiO2 
 PCOD8024214
Probable space group: P -1
;
_chemical_formula_sum "Si O2"
_cell_formula_units_Z 14
_cell_length_a 23.162636
_cell_length_b 11.716392
_cell_length_c 5.294769
_cell_angle_alpha 90.455098
_cell_angle_beta 74.416474
_cell_angle_gamma 27.335453
_cell_volume 527.642403
_symmetry_space_group_name_H-M "P -1"
_symmetry_group_IT_number 2
_symmetry_cell_setting 'triclinic'
loop_
_space_group_symop_operation_xyz
x,y,z
-x,-y,-z
loop_
_atom_site_type_symbol
_atom_site_label
_atom_site_fract_x
_atom_site_fract_y
_atom_site_fract_z
Si Si1 0.929139 0.456022 0.208584
Si Si2 0.756122 0.707690 0.930948
Si Si3 0.764516 0.973253 0.076915
Si Si4 0.409080 0.770595 0.197727
Si Si5 0.418179 0.346002 0.215281
Si Si6 0.824801 0.336266 0.788767
Si Si7 0.223784 0.800373 0.850299
O O1 0.810788 0.642481 0.581471
O O2 0.831648 0.654703 0.065289
O O3 0.044801 0.358730 0.136438
O O4 0.038074 0.152257 0.024305
O O5 0.817029 0.473463 0.926257
O O6 0.567432 0.033811 0.184901
O O7 0.698305 0.052762 0.429240
O O8 0.705037 0.210410 0.096854
O O9 0.703913 0.001265 0.915364
O O10 0.500000 0.500000 0.000000
O O11 0.517475 0.692431 0.101783
O O12 0.300361 0.448838 0.292512
O O13 0.321160 0.615435 0.477282
O O14 0.759287 0.349941 0.036634
O O15 0.000000 0.000000 0.500000
#
# Coordination Sequence:
#
# PCOD8024214 Si02
#       7
#     2   2   2   2   2   2   2
#     4  10  24  48  73 101 144 193 240 277 347 437
#     4  12  27  47  70 106 154 182 231 305 357 409
#     4  10  23  42  74 101 137 185 240 284 337 419
#     4  12  22  42  70 106 144 182 232 298 352 408
#     4  12  29  42  71 112 142 184 237 303 360 418
#     4  12  25  47  76 100 140 194 242 288 356 430
#     4  10  24  42  78 100 141 177 258 275 349 425
#
# _framework density 26.53312
#
# number of rings (size 3 to 8) (size 9 to 14) (size 15 to 20)
#    0.857    0.000    2.857    3.429    6.000    1.714 
#    0.000    4.286    0.000    0.000    0.000    0.000 
#    0.000    0.000    0.000    0.000    0.000    0.000 
#
# Total GULP energy -173525.131652 kJ/mol
# GULP energy per Si atom -12394.652261 kJ/mol
# Density = 2.647273 g / cm^3
# Si number density = 26.533120 Si / 1000 Ang^3
#
#
#
# Elastic Constant Matrix: (Units=GPa)
#
#
# Indices 1 2 3 4 5 6 
#
# 1 104.5203 39.4825 53.2989 14.2225 -10.3740 -26.9162
# 2 39.4825 112.3894 57.1428 10.8934 13.3416 -22.1566
# 3 53.2989 57.1428 151.7114 0.7679 1.8130 -17.7168
# 4 14.2225 10.8934 0.7679 50.3525 12.8798 -12.5434
# 5 -10.3740 13.3416 1.8130 12.8798 37.6582 10.4209
# 6 -26.9162 -22.1566 -17.7168 -12.5434 10.4209 35.8850
#
#
#
# Elastic Compliance Matrix: (Units=1/GPa)
#
#
# Indices 1 2 3 4 5 6 
#
# 1 0.014640 -0.002570 -0.003645 -0.003581 0.004989 0.004894
# 2 -0.002570 0.013881 -0.003285 0.001944 -0.008384 0.008135
# 3 -0.003645 -0.003285 0.009220 0.002152 -0.001273 0.000911
# 4 -0.003581 0.001944 0.002152 0.027639 -0.014993 0.013592
# 5 0.004989 -0.008384 -0.001273 -0.014993 0.041440 -0.019337
# 6 0.004894 0.008135 0.000911 0.013592 -0.019337 0.047377
#
#
# Mechanical properties :
#
#
# Convention : Reuss Voigt Hill
#
# Bulk Modulus (GPa) = 53.36013 74.27440 63.81726
# Shear Modulus (GPa) = 27.86361 39.35894 33.61128
#
# Velocity S-wave (km/s) = 3.24411 3.85566 3.56303
# Velocity P-wave (km/s) = 5.84694 6.91920 6.40555
#
# Compressibility (1/GPa) = 0.01874058
#
# Stress axis : x y z
#
# Youngs Moduli (GPa) = 68.30626 72.03841 108.45714
#
# Poissons Ratio (x) = 0.18515 0.39535
# Poissons Ratio (y) = 0.17555 0.35630
# Poissons Ratio (z) = 0.24899 0.23666
#
# Static dielectric constant tensor:
#      x y z
#    x 5.035490 0.043640 -0.015660 
#    y 0.043640 5.250000 0.038810 
#    z -0.015660 0.038810 4.666010 
# 
# 
# High freq. dielectric constant tensor:
#      x y z
#    x 2.076950 0.014360 -0.008150 
#    y 0.014360 2.093080 0.015950 
#    z -0.008150 0.015950 2.057550 
# 
# From -- ./inp_files/128586.got.cif
#   From: 2010.06.25/outbox.cif.g09.slc.cpg/sg2_65_cif.got.tgz:128586.got - 2010.06.27 13:26:56.
