data_PCOD8024797
_publ_section_title
;
Structure prediction by ZEFSAII (Michael W. Deem and Ramdas Pophale) SiO2 
 PCOD8024797
Probable space group: P -1
;
_chemical_formula_sum "Si O2"
_cell_formula_units_Z 12
_cell_length_a 15.353120
_cell_length_b 9.866567
_cell_length_c 5.661517
_cell_angle_alpha 67.221240
_cell_angle_beta 104.126659
_cell_angle_gamma 54.909708
_cell_volume 508.397412
_symmetry_space_group_name_H-M "P -1"
_symmetry_group_IT_number 2
_symmetry_cell_setting 'triclinic'
loop_
_space_group_symop_operation_xyz
x,y,z
-x,-y,-z
loop_
_atom_site_type_symbol
_atom_site_label
_atom_site_fract_x
_atom_site_fract_y
_atom_site_fract_z
Si Si1 0.999616 0.616961 0.121617
Si Si2 0.036819 0.881289 0.853482
Si Si3 0.552838 0.208657 0.660348
Si Si4 0.396207 0.568295 0.697143
Si Si5 0.216978 0.296919 0.831521
Si Si6 0.286914 0.497319 0.023013
O O1 0.149771 0.449107 0.450460
O O2 0.884347 0.710786 0.163553
O O3 0.958740 0.822493 0.844493
O O4 0.000000 0.500000 0.000000
O O5 0.199811 0.657378 0.085078
O O6 0.000000 0.000000 0.500000
O O7 0.000000 0.000000 0.000000
O O8 0.471399 0.351811 0.742046
O O9 0.644350 0.237854 0.616579
O O10 0.444655 0.292688 0.332643
O O11 0.641089 0.957391 0.952322
O O12 0.500000 0.500000 0.000000
O O13 0.272364 0.637382 0.705374
O O14 0.231997 0.406167 0.962973
#
# Coordination Sequence:
#
# PCOD8024797 Si02
#       6
#     2   2   2   2   2   2
#     4  11  26  49  69 104 152 192 257 308 365 457
#     4  12  29  49  79 110 147 204 254 314 379 442
#     4  10  23  43  73 105 145 194 238 312 382 441
#     4   9  22  42  64 102 150 183 245 300 365 453
#     4  11  25  45  74 104 148 199 245 307 384 445
#     4  11  24  45  70 108 147 186 254 312 364 465
#
# _framework density 23.603581999999999
#
# number of rings (size 3 to 8) (size 9 to 14) (size 15 to 20)
#    0.000    1.333    1.667    1.500    9.333    6.000 
#    0.000    0.000    0.000    0.000    0.000    0.000 
#    0.000    0.000    0.000    0.000    0.000    0.000 
#
# Total GULP energy -148702.593043 kJ/mol
# GULP energy per Si atom -12391.882754 kJ/mol
# Density = 2.354986 g / cm^3
# Si number density = 23.603582 Si / 1000 Ang^3
#
#
#
# Elastic Constant Matrix: (Units=GPa)
#
#
# Indices 1 2 3 4 5 6 
#
# 1 134.5897 52.0247 36.0377 -2.2017 -18.4314 6.6716
# 2 52.0247 167.0510 54.5690 13.6157 -6.3959 8.5655
# 3 36.0377 54.5690 108.0544 6.9502 -3.4408 10.5563
# 4 -2.2017 13.6157 6.9502 33.2635 -2.1732 -4.1652
# 5 -18.4314 -6.3959 -3.4408 -2.1732 37.0876 1.8721
# 6 6.6716 8.5655 10.5563 -4.1652 1.8721 39.0988
#
#
#
# Elastic Compliance Matrix: (Units=1/GPa)
#
#
# Indices 1 2 3 4 5 6 
#
# 1 0.009496 -0.002305 -0.001952 0.002190 0.004297 -0.000561
# 2 -0.002305 0.007951 -0.002984 -0.002901 -0.000178 -0.000844
# 3 -0.001952 -0.002984 0.011737 -0.001678 -0.000376 -0.002343
# 4 0.002190 -0.002901 -0.001678 0.032394 0.002126 0.004064
# 5 0.004297 -0.000178 -0.000376 0.002126 0.029247 -0.001767
# 6 -0.000561 -0.000844 -0.002343 0.004064 -0.001767 0.027007
#
#
# Mechanical properties :
#
#
# Convention : Reuss Voigt Hill
#
# Bulk Modulus (GPa) = 68.01214 77.21754 72.61484
# Shear Modulus (GPa) = 36.43928 39.69423 38.06676
#
# Velocity S-wave (km/s) = 3.93339 4.10531 4.02027
# Velocity P-wave (km/s) = 7.03602 7.43349 7.23748
#
# Compressibility (1/GPa) = 0.01470326
#
# Stress axis : x y z
#
# Youngs Moduli (GPa) = 105.31059 125.76257 85.19806
#
# Poissons Ratio (x) = 0.28985 0.16633
# Poissons Ratio (y) = 0.24272 0.25420
# Poissons Ratio (z) = 0.20560 0.37522
#
# Static dielectric constant tensor:
#      x y z
#    x 5.659040 -0.006310 0.141580 
#    y -0.006310 4.138140 0.104050 
#    z 0.141580 0.104050 5.022150 
# 
# 
# High freq. dielectric constant tensor:
#      x y z
#    x 1.951700 0.003980 -0.010010 
#    y 0.003980 1.932940 0.008590 
#    z -0.010010 0.008590 1.927610 
# 
# From -- ./inp_files/22143.got.cif
#   From: 2010.06.25/outbox.cif.g09.slc.cpg/sg2_12_cif.got.tgz:22143.got - 2010.06.27 13:26:56.
