data_PCOD8024658
_publ_section_title
;
Structure prediction by ZEFSAII (Michael W. Deem and Ramdas Pophale) SiO2 
 PCOD8024658
Probable space group: P -1
;
_chemical_formula_sum "Si O2"
_cell_formula_units_Z 16
_cell_length_a 5.198169
_cell_length_b 15.959407
_cell_length_c 20.531694
_cell_angle_alpha 153.624529
_cell_angle_beta 121.118325
_cell_angle_gamma 67.756559
_cell_volume 631.630080
_symmetry_space_group_name_H-M "P -1"
_symmetry_group_IT_number 2
_symmetry_cell_setting 'triclinic'
loop_
_space_group_symop_operation_xyz
x,y,z
-x,-y,-z
loop_
_atom_site_type_symbol
_atom_site_label
_atom_site_fract_x
_atom_site_fract_y
_atom_site_fract_z
Si Si1 0.587735 0.380128 0.582315
Si Si2 0.748060 0.829918 0.377139
Si Si3 0.870495 0.206926 0.228971
Si Si4 0.871995 0.387869 0.487745
Si Si5 0.888481 0.786030 0.089860
Si Si6 0.705964 0.789274 0.929592
Si Si7 0.610311 0.433732 0.034858
Si Si8 0.344272 0.058432 0.417766
O O1 0.232988 0.393560 0.547167
O O2 0.798554 0.590331 0.778863
O O3 0.611354 0.204535 0.512857
O O4 0.687254 0.320412 0.482729
O O5 0.818609 0.623929 0.227199
O O6 0.730874 0.823767 0.448276
O O7 0.440908 0.866075 0.325223
O O8 0.000000 0.000000 0.500000
O O9 0.156665 0.388895 0.377208
O O10 0.617034 0.200657 0.136224
O O11 0.740012 0.246979 0.311903
O O12 0.954308 0.993676 0.088510
O O13 0.035679 0.991952 0.286810
O O14 0.186091 0.722038 0.054739
O O15 0.664546 0.794741 0.006150
O O16 0.697209 0.643333 0.017725
O O17 0.500000 0.500000 0.000000
#
# Coordination Sequence:
#
# PCOD8024658 Si02
#       8
#     2   2   2   2   2   2   2   2
#     4  11  25  43  68 103 139 180 233 291 344 411
#     4  11  26  44  73 101 136 190 233 287 355 418
#     4   9  21  45  71 101 140 184 234 287 355 418
#     4  10  23  44  72  99 136 186 231 283 351 418
#     4  12  27  46  72 104 141 185 235 291 348 417
#     4  10  23  43  70 104 140 182 232 292 349 413
#     4  12  26  48  73 101 142 183 234 288 352 418
#     4  11  26  44  68 102 141 182 237 289 349 419
#
# _framework density 25.331281000000001
#
# number of rings (size 3 to 8) (size 9 to 14) (size 15 to 20)
#    0.000    1.250    1.250    2.625    7.000    8.000 
#    0.000    6.250    0.000    0.000    0.000    0.000 
#    0.000    0.000    0.000    0.000    0.000    0.000 
#
# Total GULP energy -198290.045828 kJ/mol
# GULP energy per Si atom -12393.127864 kJ/mol
# Density = 2.527363 g / cm^3
# Si number density = 25.331281 Si / 1000 Ang^3
#
#
#
# Elastic Constant Matrix: (Units=GPa)
#
#
# Indices 1 2 3 4 5 6 
#
# 1 81.0419 30.4154 28.4802 -8.1290 -7.8625 32.0368
# 2 30.4154 136.4128 77.1988 -23.9861 -14.1512 37.8350
# 3 28.4802 77.1988 169.3161 -2.4585 2.6001 16.2150
# 4 -8.1290 -23.9861 -2.4585 51.2188 4.2915 -2.9582
# 5 -7.8625 -14.1512 2.6001 4.2915 26.9809 0.2578
# 6 32.0368 37.8350 16.2150 -2.9582 0.2578 40.4725
#
#
#
# Elastic Compliance Matrix: (Units=1/GPa)
#
#
# Indices 1 2 3 4 5 6 
#
# 1 0.020408 0.003882 -0.003538 0.003167 0.007994 -0.018185
# 2 0.003882 0.016860 -0.006896 0.006458 0.009761 -0.015661
# 3 -0.003538 -0.006896 0.009168 -0.002605 -0.005169 0.005417
# 4 0.003167 0.006458 -0.002605 0.022500 0.001038 -0.005862
# 5 0.007994 0.009761 -0.005169 0.001038 0.044975 -0.013592
# 6 -0.018185 -0.015661 0.005417 -0.005862 -0.013592 0.051231
#
#
# Mechanical properties :
#
#
# Convention : Reuss Voigt Hill
#
# Bulk Modulus (GPa) = 30.00226 73.21777 51.61002
# Shear Modulus (GPa) = 26.40505 40.44620 33.42562
#
# Velocity S-wave (km/s) = 3.23211 4.00020 3.63649
# Velocity P-wave (km/s) = 5.07921 7.09241 6.16849
#
# Compressibility (1/GPa) = 0.03333082
#
# Stress axis : x y z
#
# Youngs Moduli (GPa) = 49.00131 59.31253 109.07040
#
# Poissons Ratio (x) = -0.23023 0.38587
# Poissons Ratio (y) = -0.19021 0.75219
# Poissons Ratio (z) = 0.17336 0.40904
#
# Static dielectric constant tensor:
#      x y z
#    x 4.699060 -0.194000 -0.369750 
#    y -0.194000 5.371270 0.260810 
#    z -0.369750 0.260810 5.446890 
# 
# 
# High freq. dielectric constant tensor:
#      x y z
#    x 1.968450 0.006410 -0.001300 
#    y 0.006410 2.034890 -0.005200 
#    z -0.001300 -0.005200 2.032350 
# 
# From -- ./inp_files/550212.got.cif
#   From: 2010.06.25/outbox.cif.g09.slc.cpg/sg2_276_cif.got.tgz:550212.got - 2010.06.27 13:26:56.
