data_PCOD8024357
_publ_section_title
;
Structure prediction by ZEFSAII (Michael W. Deem and Ramdas Pophale) SiO2 
 PCOD8024357
Probable space group: P -1
;
_chemical_formula_sum "Si O2"
_cell_formula_units_Z 14
_cell_length_a 11.038798
_cell_length_b 5.336904
_cell_length_c 12.725659
_cell_angle_alpha 88.242244
_cell_angle_beta 101.830994
_cell_angle_gamma 123.263420
_cell_volume 610.485189
_symmetry_space_group_name_H-M "P -1"
_symmetry_group_IT_number 2
_symmetry_cell_setting 'triclinic'
loop_
_space_group_symop_operation_xyz
x,y,z
-x,-y,-z
loop_
_atom_site_type_symbol
_atom_site_label
_atom_site_fract_x
_atom_site_fract_y
_atom_site_fract_z
Si Si1 0.659329 0.744243 0.567203
Si Si2 0.266534 0.698392 0.307225
Si Si3 0.317600 0.600539 0.888874
Si Si4 0.133218 0.998255 0.973333
Si Si5 0.639444 0.060204 0.892735
Si Si6 0.086999 0.849458 0.546073
Si Si7 0.932041 0.356662 0.235213
O O1 0.500000 0.500000 0.500000
O O2 0.727655 0.564170 0.630608
O O3 0.637198 0.958209 0.637743
O O4 0.755456 0.958059 0.485397
O O5 0.328449 0.714179 0.200282
O O6 0.100254 0.627834 0.286860
O O7 0.259154 0.270776 0.921613
O O8 0.190806 0.561365 0.787849
O O9 0.475572 0.752546 0.855478
O O10 0.341897 0.798739 0.992027
O O11 0.055593 0.727530 0.880682
O O12 0.225271 0.987822 0.087334
O O13 0.000000 0.000000 0.000000
O O14 0.117050 0.885607 0.676740
O O15 0.000000 0.500000 0.500000
O O16 0.000000 0.000000 0.500000
#
# Coordination Sequence:
#
# PCOD8024357 Si02
#       7
#     2   2   2   2   2   2   2
#     4  12  28  49  71 105 144 185 241 301 363 426
#     4  12  26  46  74 104 139 187 238 295 360 429
#     4  10  23  43  65  98 145 176 239 285 356 430
#     4  11  23  40  70 103 143 179 235 290 349 438
#     4  10  24  42  65 101 140 187 226 294 356 427
#     4  12  25  47  73 102 142 185 239 302 350 423
#     4  11  25  41  70 102 134 187 237 284 365 410
#
# _framework density 22.932580000000002
#
# number of rings (size 3 to 8) (size 9 to 14) (size 15 to 20)
#    0.000    0.857    2.857    2.571   10.000    3.429 
#    0.000    0.000    0.000    0.000    0.000    0.000 
#    0.000    0.000    0.000    0.000    0.000    0.000 
#
# Total GULP energy -173480.615222 kJ/mol
# GULP energy per Si atom -12391.472516 kJ/mol
# Density = 2.288038 g / cm^3
# Si number density = 22.932580 Si / 1000 Ang^3
#
#
#
# Elastic Constant Matrix: (Units=GPa)
#
#
# Indices 1 2 3 4 5 6 
#
# 1 95.6488 35.4646 33.0229 -0.4701 6.5619 14.4011
# 2 35.4646 125.3693 33.7312 -7.6776 8.9392 13.4447
# 3 33.0229 33.7312 96.9565 -24.1196 11.3363 13.4512
# 4 -0.4701 -7.6776 -24.1196 34.3168 9.7625 -2.9275
# 5 6.5619 8.9392 11.3363 9.7625 26.0419 -3.2181
# 6 14.4011 13.4447 13.4512 -2.9275 -3.2181 51.3932
#
#
#
# Elastic Compliance Matrix: (Units=1/GPa)
#
#
# Indices 1 2 3 4 5 6 
#
# 1 0.013159 -0.002621 -0.004296 -0.003777 0.000616 -0.002053
# 2 -0.002621 0.009579 -0.001470 0.001753 -0.002826 -0.001464
# 3 -0.004296 -0.001470 0.018048 0.015591 -0.012488 -0.003029
# 4 -0.003777 0.001753 0.015591 0.047186 -0.024413 -0.002322
# 5 0.000616 -0.002826 -0.012488 -0.024413 0.054526 0.005859
# 6 -0.002053 -0.001464 -0.003029 -0.002322 0.005859 0.021444
#
#
# Mechanical properties :
#
#
# Convention : Reuss Voigt Hill
#
# Bulk Modulus (GPa) = 41.65036 58.04576 49.84806
# Shear Modulus (GPa) = 26.49412 36.73411 31.61411
#
# Velocity S-wave (km/s) = 3.40266 4.00663 3.71693
# Velocity P-wave (km/s) = 5.79992 6.83890 6.34072
#
# Compressibility (1/GPa) = 0.02400940
#
# Stress axis : x y z
#
# Youngs Moduli (GPa) = 75.99639 104.39113 55.40849
#
# Poissons Ratio (x) = 0.27364 0.23806
# Poissons Ratio (y) = 0.19921 0.08147
# Poissons Ratio (z) = 0.32651 0.15349
#
# Static dielectric constant tensor:
#      x y z
#    x 4.218490 0.160760 0.162300 
#    y 0.160760 4.436620 -0.181250 
#    z 0.162300 -0.181250 4.443160 
# 
# 
# High freq. dielectric constant tensor:
#      x y z
#    x 1.906230 0.016440 0.006010 
#    y 0.016440 1.908800 -0.010360 
#    z 0.006010 -0.010360 1.913480 
# 
# From -- ./inp_files/31172.got.cif
#   From: 2010.06.25/outbox.cif.g09.slc.cpg/sg2_16_cif.got.tgz:31172.got - 2010.06.27 13:26:56.
