data_PCOD8024688
_publ_section_title
;
Structure prediction by ZEFSAII (Michael W. Deem and Ramdas Pophale) SiO2 
 PCOD8024688
Probable space group: P -1
;
_chemical_formula_sum "Si O2"
_cell_formula_units_Z 16
_cell_length_a 18.145597
_cell_length_b 6.551075
_cell_length_c 12.169188
_cell_angle_alpha 44.565810
_cell_angle_beta 135.337281
_cell_angle_gamma 123.953435
_cell_volume 709.611732
_symmetry_space_group_name_H-M "P -1"
_symmetry_group_IT_number 2
_symmetry_cell_setting 'triclinic'
loop_
_space_group_symop_operation_xyz
x,y,z
-x,-y,-z
loop_
_atom_site_type_symbol
_atom_site_label
_atom_site_fract_x
_atom_site_fract_y
_atom_site_fract_z
Si Si1 0.536320 0.343028 0.916597
Si Si2 0.076564 0.250952 0.043640
Si Si3 0.712037 0.770480 0.859275
Si Si4 0.214731 0.180458 0.610390
Si Si5 0.349628 0.741382 0.532985
Si Si6 0.976503 0.845384 0.731447
Si Si7 0.315743 0.787196 0.714107
Si Si8 0.185716 0.216934 0.809288
O O1 0.636086 0.465353 0.897843
O O2 0.445175 0.543612 0.716652
O O3 0.584918 0.385013 0.075590
O O4 0.500000 0.000000 0.000000
O O5 0.191555 0.269153 0.104475
O O6 0.088164 0.192336 0.208618
O O7 0.031544 0.561204 0.863736
O O8 0.000000 0.000000 0.000000
O O9 0.642791 0.025405 0.646136
O O10 0.752224 0.882431 0.979815
O O11 0.240836 0.528912 0.488829
O O12 0.100350 0.083938 0.475684
O O13 0.221678 0.081669 0.783247
O O14 0.305432 0.041097 0.693209
O O15 0.342212 0.917641 0.571969
O O16 0.062251 0.124422 0.730409
O O17 0.207377 0.568009 0.685779
#
# Coordination Sequence:
#
# PCOD8024688 Si02
#       8
#     2   2   2   2   2   2   2   2
#     4  11  23  45  73  99 138 179 224 287 348 404
#     4  11  23  42  65  96 142 179 223 282 346 395
#     4  11  24  45  71 100 139 181 226 283 344 409
#     4  11  23  41  66  98 138 178 233 273 336 407
#     4  11  23  44  69 100 137 175 231 281 337 412
#     4  11  24  39  66  98 135 185 230 278 334 405
#     4  10  23  43  70  96 136 184 219 283 346 401
#     4  10  24  41  63 100 136 183 223 284 338 401
#
# _framework density 22.547542
#
# number of rings (size 3 to 8) (size 9 to 14) (size 15 to 20)
#    0.000    1.250    2.500    2.625    5.250    1.500 
#    0.000    0.625    0.000    0.000    0.000    0.000 
#    0.000    0.000    0.000    0.000    0.000    0.000 
#
# Total GULP energy -198267.328047 kJ/mol
# GULP energy per Si atom -12391.708003 kJ/mol
# Density = 2.249622 g / cm^3
# Si number density = 22.547542 Si / 1000 Ang^3
#
#
#
# Elastic Constant Matrix: (Units=GPa)
#
#
# Indices 1 2 3 4 5 6 
#
# 1 121.3929 63.8714 58.6227 6.8397 -11.0123 -3.4286
# 2 63.8714 108.3311 53.1486 9.9628 -7.7468 11.7771
# 3 58.6227 53.1486 131.7356 12.8154 -13.1711 -4.6927
# 4 6.8397 9.9628 12.8154 28.4035 -0.1992 -2.4518
# 5 -11.0123 -7.7468 -13.1711 -0.1992 35.6718 3.0882
# 6 -3.4286 11.7771 -4.6927 -2.4518 3.0882 48.7770
#
#
#
# Elastic Compliance Matrix: (Units=1/GPa)
#
#
# Indices 1 2 3 4 5 6 
#
# 1 0.013336 -0.006513 -0.003163 0.000696 0.001352 0.002155
# 2 -0.006513 0.015429 -0.003163 -0.002815 0.000560 -0.004664
# 3 -0.003163 -0.003163 0.010822 -0.002884 0.002204 0.001298
# 4 0.000696 -0.002815 -0.002884 0.037528 -0.001462 0.002430
# 5 0.001352 0.000560 0.002204 -0.001462 0.029531 -0.001771
# 6 0.002155 -0.004664 0.001298 0.002430 -0.001771 0.022138
#
#
# Mechanical properties :
#
#
# Convention : Reuss Voigt Hill
#
# Bulk Modulus (GPa) = 71.89187 79.19391 75.54289
# Shear Modulus (GPa) = 31.42747 34.95827 33.19287
#
# Velocity S-wave (km/s) = 3.73746 3.94182 3.84099
# Velocity P-wave (km/s) = 7.11186 7.47774 7.29709
#
# Compressibility (1/GPa) = 0.01390978
#
# Stress axis : x y z
#
# Youngs Moduli (GPa) = 74.98435 64.81494 92.40828
#
# Poissons Ratio (x) = 0.42212 0.29226
# Poissons Ratio (y) = 0.48836 0.29226
# Poissons Ratio (z) = 0.23716 0.20499
#
# Static dielectric constant tensor:
#      x y z
#    x 4.097380 0.133730 -0.132650 
#    y 0.133730 4.190260 0.166110 
#    z -0.132650 0.166110 4.086560 
# 
# 
# High freq. dielectric constant tensor:
#      x y z
#    x 1.886430 0.009290 -0.008020 
#    y 0.009290 1.892710 0.014790 
#    z -0.008020 0.014790 1.889380 
# 
# From -- ./inp_files/459407.got.cif
#   From: 2010.06.25/outbox.cif.g09.slc.cpg/sg2_230_cif.got.tgz:459407.got - 2010.06.27 13:26:56.
