data_PCOD8024676
_publ_section_title
;
Structure prediction by ZEFSAII (Michael W. Deem and Ramdas Pophale) SiO2 
 PCOD8024676
Probable space group: P -1
;
_chemical_formula_sum "Si O2"
_cell_formula_units_Z 16
_cell_length_a 9.167266
_cell_length_b 15.874013
_cell_length_c 18.491417
_cell_angle_alpha 149.293209
_cell_angle_beta 39.546477
_cell_angle_gamma 144.733734
_cell_volume 771.266909
_symmetry_space_group_name_H-M "P -1"
_symmetry_group_IT_number 2
_symmetry_cell_setting 'triclinic'
loop_
_space_group_symop_operation_xyz
x,y,z
-x,-y,-z
loop_
_atom_site_type_symbol
_atom_site_label
_atom_site_fract_x
_atom_site_fract_y
_atom_site_fract_z
Si Si1 0.976535 0.242841 0.354952
Si Si2 0.876762 0.474818 0.854481
Si Si3 0.467387 0.502953 0.119882
Si Si4 0.284685 0.290126 0.416066
Si Si5 0.074051 0.091337 0.962597
Si Si6 0.653977 0.173773 0.119924
Si Si7 0.091475 0.205583 0.585029
Si Si8 0.397186 0.591882 0.372219
O O1 0.092145 0.278535 0.417274
O O2 0.179826 0.385496 0.324932
O O3 0.716184 0.262601 0.471134
O O4 0.901670 0.035950 0.203585
O O5 0.699106 0.428281 0.815669
O O6 0.177712 0.630275 0.841874
O O7 0.888912 0.287740 0.738388
O O8 0.756917 0.563963 0.023970
O O9 0.492457 0.589936 0.253257
O O10 0.344259 0.278933 0.001679
O O11 0.500000 0.500000 0.500000
O O12 0.434120 0.174681 0.255235
O O13 0.115542 0.199944 0.485297
O O14 0.847935 0.142457 0.072652
O O15 0.000000 0.000000 0.000000
O O16 0.500000 0.000000 0.000000
O O17 0.365973 0.346142 0.618166
O O18 0.000000 0.000000 0.500000
#
# Coordination Sequence:
#
# PCOD8024676 Si02
#       8
#     2   2   2   2   2   2   2   2
#     4  11  23  41  67  99 132 171 227 277 326 398
#     4  10  23  45  68  91 139 176 227 268 344 406
#     4  10  23  43  70  95 133 184 213 278 343 397
#     4  12  23  44  71  93 135 181 220 273 333 401
#     4  11  23  37  65 101 133 167 220 278 330 394
#     4  11  23  40  68 100 125 173 232 272 328 403
#     4  12  28  45  66 102 137 179 223 282 340 399
#     4  11  24  41  66  98 133 173 223 277 338 385
#
# _framework density 20.745087000000002
#
# number of rings (size 3 to 8) (size 9 to 14) (size 15 to 20)
#    0.000    1.000    5.000    0.750    5.250    1.500 
#    2.250    1.250    0.000    0.000    0.000    0.000 
#    0.000    0.000    0.000    0.000    0.000    0.000 
#
# Total GULP energy -198418.056203 kJ/mol
# GULP energy per Si atom -12401.128513 kJ/mol
# Density = 2.069787 g / cm^3
# Si number density = 20.745087 Si / 1000 Ang^3
#
#
#
# Elastic Constant Matrix: (Units=GPa)
#
#
# Indices 1 2 3 4 5 6 
#
# 1 95.1645 20.3524 44.8526 -7.8721 -3.7499 -11.8268
# 2 20.3524 55.6375 19.1330 -1.8356 -9.2589 -13.4065
# 3 44.8526 19.1330 121.1589 -6.7636 -13.6752 -4.6029
# 4 -7.8721 -1.8356 -6.7636 42.7915 -4.9629 0.2829
# 5 -3.7499 -9.2589 -13.6752 -4.9629 39.8382 -2.1170
# 6 -11.8268 -13.4065 -4.6029 0.2829 -2.1170 34.6684
#
#
#
# Elastic Compliance Matrix: (Units=1/GPa)
#
#
# Indices 1 2 3 4 5 6 
#
# 1 0.013700 -0.002794 -0.004490 0.001608 -0.000544 0.002951
# 2 -0.002794 0.022237 -0.001597 0.000699 0.004855 0.007725
# 3 -0.004490 -0.001597 0.010539 0.001115 0.002932 -0.000580
# 4 0.001608 0.000699 0.001115 0.024303 0.003777 0.000999
# 5 -0.000544 0.004855 0.002932 0.003777 0.027855 0.003751
# 6 0.002951 0.007725 -0.000580 0.000999 0.003751 0.032982
#
#
# Mechanical properties :
#
#
# Convention : Reuss Voigt Hill
#
# Bulk Modulus (GPa) = 34.82538 48.95966 41.89252
# Shear Modulus (GPa) = 31.45647 35.96783 33.71215
#
# Velocity S-wave (km/s) = 3.89824 4.16841 4.03558
# Velocity P-wave (km/s) = 6.08978 6.84247 6.47707
#
# Compressibility (1/GPa) = 0.02871469
#
# Stress axis : x y z
#
# Youngs Moduli (GPa) = 72.99153 44.97008 94.88421
#
# Poissons Ratio (x) = 0.12564 0.42604
# Poissons Ratio (y) = 0.20394 0.15151
# Poissons Ratio (z) = 0.32774 0.07181
#
# Static dielectric constant tensor:
#      x y z
#    x 3.851030 -0.047020 -0.025510 
#    y -0.047020 3.850500 0.008230 
#    z -0.025510 0.008230 3.707150 
# 
# 
# High freq. dielectric constant tensor:
#      x y z
#    x 1.819240 -0.003730 -0.007720 
#    y -0.003730 1.802820 -0.003370 
#    z -0.007720 -0.003370 1.826850 
# 
# From -- ./inp_files/186067.got.cif
#   From: 2010.06.25/outbox.cif.g09.slc.cpg/sg2_94_cif.got.tgz:186067.got - 2010.06.27 13:26:56.
