data_PCOD8024130
_publ_section_title
;
Structure prediction by ZEFSAII (Michael W. Deem and Ramdas Pophale) SiO2 
 PCOD8024130
Probable space group: P -1
;
_chemical_formula_sum "Si O2"
_cell_formula_units_Z 14
_cell_length_a 11.326491
_cell_length_b 8.890082
_cell_length_c 8.550803
_cell_angle_alpha 77.776003
_cell_angle_beta 124.365158
_cell_angle_gamma 126.125692
_cell_volume 564.531194
_symmetry_space_group_name_H-M "P -1"
_symmetry_group_IT_number 2
_symmetry_cell_setting 'triclinic'
loop_
_space_group_symop_operation_xyz
x,y,z
-x,-y,-z
loop_
_atom_site_type_symbol
_atom_site_label
_atom_site_fract_x
_atom_site_fract_y
_atom_site_fract_z
Si Si1 0.065474 0.712532 0.472436
Si Si2 0.283008 0.803826 0.040161
Si Si3 0.399167 0.781286 0.805963
Si Si4 0.954483 0.762469 0.699869
Si Si5 0.548917 0.620839 0.768011
Si Si6 0.071867 0.122959 0.872150
Si Si7 0.396323 0.604758 0.356710
O O1 0.278034 0.829332 0.610562
O O2 0.000000 0.500000 0.500000
O O3 0.980844 0.759403 0.536501
O O4 0.006292 0.755728 0.255239
O O5 0.317405 0.721364 0.235543
O O6 0.402331 0.031057 0.088110
O O7 0.326072 0.725702 0.938918
O O8 0.081666 0.730275 0.902947
O O9 0.398446 0.607573 0.768001
O O10 0.757551 0.602889 0.644608
O O11 0.011306 0.974297 0.720238
O O12 0.544301 0.715405 0.579314
O O13 0.519309 0.425606 0.728717
O O14 0.721041 0.734533 0.977651
O O15 0.000000 0.000000 0.000000
#
# Coordination Sequence:
#
# PCOD8024130 Si02
#       7
#     2   2   2   2   2   2   2
#     4  11  27  47  73 106 142 185 234 289 354 414
#     4  10  23  42  71 101 139 182 237 288 350 412
#     4  10  23  45  67 101 138 184 232 288 351 421
#     4  11  23  47  70 104 138 185 234 286 350 419
#     4  11  25  45  63 104 136 182 232 288 350 409
#     4  12  26  46  74 104 142 186 238 284 350 422
#     4  11  25  43  68 102 145 182 234 293 348 411
#
# _framework density 24.799337000000001
#
# number of rings (size 3 to 8) (size 9 to 14) (size 15 to 20)
#    0.000    1.143    2.857    1.714    6.000    3.429 
#    5.143    0.000    0.000    0.000    0.000    0.000 
#    0.000    0.000    0.000    0.000    0.000    0.000 
#
# Total GULP energy -173457.048299 kJ/mol
# GULP energy per Si atom -12389.789164 kJ/mol
# Density = 2.474289 g / cm^3
# Si number density = 24.799337 Si / 1000 Ang^3
#
#
#
# Elastic Constant Matrix: (Units=GPa)
#
#
# Indices 1 2 3 4 5 6 
#
# 1 90.8058 13.8683 17.6604 6.1451 0.5745 -21.1066
# 2 13.8683 63.3177 35.9689 -13.9865 1.6111 -13.1732
# 3 17.6604 35.9689 139.0978 -21.5368 21.4175 -3.7725
# 4 6.1451 -13.9865 -21.5368 46.9789 -15.3154 0.0552
# 5 0.5745 1.6111 21.4175 -15.3154 33.5111 5.2238
# 6 -21.1066 -13.1732 -3.7725 0.0552 5.2238 26.4483
#
#
#
# Elastic Compliance Matrix: (Units=1/GPa)
#
#
# Indices 1 2 3 4 5 6 
#
# 1 0.014324 -0.000649 -0.001487 -0.003647 -0.002714 0.011439
# 2 -0.000649 0.021700 -0.004953 0.005294 0.003158 0.008949
# 3 -0.001487 -0.004953 0.009626 0.001505 -0.004999 -0.001297
# 4 -0.003647 0.005294 0.001505 0.027946 0.012006 -0.002489
# 5 -0.002714 0.003158 -0.004999 0.012006 0.039852 -0.009202
# 6 0.011439 0.008949 -0.001297 -0.002489 -0.009202 0.053033
#
#
# Mechanical properties :
#
#
# Convention : Reuss Voigt Hill
#
# Bulk Modulus (GPa) = 31.77467 47.57963 39.67715
# Shear Modulus (GPa) = 26.15749 36.43592 31.29670
#
# Velocity S-wave (km/s) = 3.25124 3.83721 3.55631
# Velocity P-wave (km/s) = 5.18986 6.23376 5.73561
#
# Compressibility (1/GPa) = 0.03147161
#
# Stress axis : x y z
#
# Youngs Moduli (GPa) = 69.81455 46.08318 103.88236
#
# Poissons Ratio (x) = 0.02991 0.15451
# Poissons Ratio (y) = 0.04531 0.51450
# Poissons Ratio (z) = 0.10384 0.22824
#
# Static dielectric constant tensor:
#      x y z
#    x 4.370300 0.153170 0.382950 
#    y 0.153170 3.348270 0.125700 
#    z 0.382950 0.125700 5.091560 
# 
# 
# High freq. dielectric constant tensor:
#      x y z
#    x 1.986920 -0.024640 0.013170 
#    y -0.024640 1.956620 0.005500 
#    z 0.013170 0.005500 2.010140 
# 
# From -- ./inp_files/224078.got.cif
#   From: 2010.06.25/outbox.cif.g09.slc.cpg/sg2_113_cif.got.tgz:224078.got - 2010.06.27 13:26:56.
