data_PCOD8024510
_publ_section_title
;
Structure prediction by ZEFSAII (Michael W. Deem and Ramdas Pophale) SiO2 
 PCOD8024510
Probable space group: P -1
;
_chemical_formula_sum "Si O2"
_cell_formula_units_Z 12
_cell_length_a 13.634375
_cell_length_b 9.249462
_cell_length_c 13.095225
_cell_angle_alpha 145.995708
_cell_angle_beta 147.499415
_cell_angle_gamma 47.281337
_cell_volume 495.060969
_symmetry_space_group_name_H-M "P -1"
_symmetry_group_IT_number 2
_symmetry_cell_setting 'triclinic'
loop_
_space_group_symop_operation_xyz
x,y,z
-x,-y,-z
loop_
_atom_site_type_symbol
_atom_site_label
_atom_site_fract_x
_atom_site_fract_y
_atom_site_fract_z
Si Si1 0.199916 0.970599 0.197818
Si Si2 0.502098 0.827390 0.802182
Si Si3 0.636752 0.147898 0.929078
Si Si4 0.885057 0.155337 0.628428
Si Si5 0.207671 0.507678 0.070920
Si Si6 0.756629 0.702979 0.371575
O O1 0.227202 0.674814 0.082856
O O2 0.241660 0.185151 0.446729
O O3 0.334608 0.013701 0.244127
O O4 0.000000 0.000000 0.000000
O O5 0.294935 0.778255 0.553266
O O6 0.590488 0.561211 0.755875
O O7 0.500000 0.000000 0.000000
O O8 0.644340 0.953651 0.917148
O O9 0.788422 0.394733 0.219494
O O10 0.439606 0.256889 0.825260
O O11 0.885669 0.310832 0.825274
O O12 0.892805 0.857188 0.499994
O O13 0.068926 0.247920 0.780506
#
# Coordination Sequence:
#
# PCOD8024510 Si02
#       6
#     2   2   2   2   2   2
#     4  11  25  42  66  99 130 172 220 265 334 390
#     4  11  25  42  66  99 130 172 220 265 334 390
#     4  10  23  43  68  92 134 169 218 274 321 389
#     4   9  21  43  67  95 128 173 220 267 326 386
#     4  10  23  43  68  92 134 169 218 274 321 389
#     4   9  21  43  67  95 128 173 220 267 326 386
#
# _framework density 24.239438
#
# number of rings (size 3 to 8) (size 9 to 14) (size 15 to 20)
#    0.000    2.000    0.000    1.000   14.000    2.667 
#    0.000    0.000    0.000    0.000    0.000    0.000 
#    0.000    0.000    0.000    0.000    0.000    0.000 
#
# Total GULP energy -148751.625834 kJ/mol
# GULP energy per Si atom -12395.968820 kJ/mol
# Density = 2.418427 g / cm^3
# Si number density = 24.239438 Si / 1000 Ang^3
#
#
#
# Elastic Constant Matrix: (Units=GPa)
#
#
# Indices 1 2 3 4 5 6 
#
# 1 93.3977 19.0842 7.8622 -1.3181 -6.6104 30.1405
# 2 19.0842 118.1840 17.1691 -8.7472 -1.5648 24.2140
# 3 7.8622 17.1691 90.3787 1.2099 0.5151 19.6832
# 4 -1.3181 -8.7472 1.2099 21.6644 -6.3994 -3.0858
# 5 -6.6104 -1.5648 0.5151 -6.3994 24.5038 -3.6411
# 6 30.1405 24.2140 19.6832 -3.0858 -3.6411 31.2714
#
#
#
# Elastic Compliance Matrix: (Units=1/GPa)
#
#
# Indices 1 2 3 4 5 6 
#
# 1 0.016065 0.000565 0.002258 -0.000931 0.001515 -0.017258
# 2 0.000565 0.010287 -0.000321 0.003216 0.000477 -0.007935
# 3 0.002258 -0.000321 0.013343 -0.002891 -0.002059 -0.010851
# 4 -0.000931 0.003216 -0.002891 0.052995 0.014924 0.007194
# 5 0.001515 0.000477 -0.002059 0.014924 0.046128 0.006311
# 6 -0.017258 -0.007935 -0.010851 0.007194 0.006311 0.063030
#
#
# Mechanical properties :
#
#
# Convention : Reuss Voigt Hill
#
# Bulk Modulus (GPa) = 22.37281 43.35458 32.86369
# Shear Modulus (GPa) = 23.61346 32.67759 28.14553
#
# Velocity S-wave (km/s) = 3.12456 3.67565 3.41126
# Velocity P-wave (km/s) = 4.71881 5.99489 5.39471
#
# Compressibility (1/GPa) = 0.04469712
#
# Stress axis : x y z
#
# Youngs Moduli (GPa) = 62.24815 97.21114 74.94714
#
# Poissons Ratio (x) = -0.05491 -0.16919
# Poissons Ratio (y) = -0.03516 0.02406
# Poissons Ratio (z) = -0.14053 0.03121
#
# Static dielectric constant tensor:
#      x y z
#    x 2.232210 -3.263930 6.324250 
#    y -3.263930 0.973990 7.671020 
#    z 6.324250 7.671020 -9.250510 
# 
# 
# High freq. dielectric constant tensor:
#      x y z
#    x 1.954850 0.014900 -0.000390 
#    y 0.014900 1.961750 -0.000190 
#    z -0.000390 -0.000190 1.963980 
# 
# From -- ./inp_files/149532.got.cif
#   From: 2010.06.25/outbox.cif.g09.slc.cpg/sg2_75_cif.got.tgz:149532.got - 2010.06.27 13:26:56.
