data_PCOD8024083
_publ_section_title
;
Structure prediction by ZEFSAII (Michael W. Deem and Ramdas Pophale) SiO2 
 PCOD8024083
Probable space group: P -1
;
_chemical_formula_sum "Si O2"
_cell_formula_units_Z 16
_cell_length_a 11.667401
_cell_length_b 11.937760
_cell_length_c 11.113230
_cell_angle_alpha 102.604751
_cell_angle_beta 116.445993
_cell_angle_gamma 130.870238
_cell_volume 689.941795
_symmetry_space_group_name_H-M "P -1"
_symmetry_group_IT_number 2
_symmetry_cell_setting 'triclinic'
loop_
_space_group_symop_operation_xyz
x,y,z
-x,-y,-z
loop_
_atom_site_type_symbol
_atom_site_label
_atom_site_fract_x
_atom_site_fract_y
_atom_site_fract_z
Si Si1 0.554469 0.778590 0.377714
Si Si2 0.338210 0.279721 0.806477
Si Si3 0.758339 0.738629 0.619435
Si Si4 0.421680 0.992257 0.087091
Si Si5 0.063392 0.506605 0.163776
Si Si6 0.809725 0.207110 0.513542
Si Si7 0.202722 0.363502 0.608873
Si Si8 0.282395 0.137022 0.991917
O O1 0.500478 0.671214 0.201665
O O2 0.726917 0.833857 0.556815
O O3 0.298375 0.602596 0.288569
O O4 0.683288 0.999214 0.464475
O O5 0.126759 0.192147 0.614715
O O6 0.236714 0.111317 0.818650
O O7 0.500000 0.500000 0.000000
O O8 0.500000 0.500000 0.500000
O O9 0.852586 0.705227 0.571717
O O10 0.000536 0.941899 0.869445
O O11 0.626982 0.130552 0.318550
O O12 0.161614 0.738728 0.945754
O O13 0.500000 0.000000 0.000000
O O14 0.394632 0.105702 0.083092
O O15 0.115981 0.653913 0.309981
O O16 0.000000 0.500000 0.000000
O O17 0.058365 0.363409 0.590763
O O18 0.507997 0.609002 0.813381
#
# Coordination Sequence:
#
# PCOD8024083 Si02
#       8
#     2   2   2   2   2   2   2   2
#     4  11  23  44  71 103 140 184 239 300 357 432
#     4   9  20  40  71 102 136 178 234 290 355 430
#     4  11  24  44  66 100 144 180 228 298 360 427
#     4  12  26  44  71 104 148 192 243 298 361 433
#     4  12  28  48  72 104 146 194 248 304 366 426
#     4  12  26  46  73 106 144 191 249 299 358 436
#     4  10  23  42  70 102 135 182 237 291 359 426
#     4  11  23  41  67 100 136 185 230 285 357 427
#
# _framework density 23.190362
#
# number of rings (size 3 to 8) (size 9 to 14) (size 15 to 20)
#    0.000    1.000    1.250    4.875    3.500    6.500 
#    2.250    0.000    0.000    0.000    0.000    0.000 
#    0.000    0.000    0.000    0.000    0.000    0.000 
#
# Total GULP energy -198313.197119 kJ/mol
# GULP energy per Si atom -12394.574820 kJ/mol
# Density = 2.313758 g / cm^3
# Si number density = 23.190362 Si / 1000 Ang^3
#
#
#
# Elastic Constant Matrix: (Units=GPa)
#
#
# Indices 1 2 3 4 5 6 
#
# 1 136.8260 26.4483 49.3819 0.3286 -3.4600 3.0412
# 2 26.4483 118.6830 40.1961 2.9062 4.2828 -9.3100
# 3 49.3819 40.1961 108.9478 3.9287 12.8710 1.0541
# 4 0.3286 2.9062 3.9287 40.5200 4.7723 12.4483
# 5 -3.4600 4.2828 12.8710 4.7723 45.2555 -0.6630
# 6 3.0412 -9.3100 1.0541 12.4483 -0.6630 37.3478
#
#
#
# Elastic Compliance Matrix: (Units=1/GPa)
#
#
# Indices 1 2 3 4 5 6 
#
# 1 0.008971 -0.000796 -0.003997 0.000441 0.001838 -0.000930
# 2 -0.000796 0.010002 -0.003326 -0.001358 0.000127 0.003107
# 3 -0.003997 -0.003326 0.012657 -0.000280 -0.003573 -0.000831
# 4 0.000441 -0.001358 -0.000280 0.028149 -0.002870 -0.009800
# 5 0.001838 0.000127 -0.003573 -0.002870 0.023564 0.001358
# 6 -0.000930 0.003107 -0.000831 -0.009800 0.001358 0.030939
#
#
# Mechanical properties :
#
#
# Convention : Reuss Voigt Hill
#
# Bulk Modulus (GPa) = 64.95871 66.27882 65.61876
# Shear Modulus (GPa) = 36.85967 41.18669 39.02318
#
# Velocity S-wave (km/s) = 3.99110 4.21886 4.10656
# Velocity P-wave (km/s) = 7.02214 7.23700 7.13038
#
# Compressibility (1/GPa) = 0.01539439
#
# Stress axis : x y z
#
# Youngs Moduli (GPa) = 111.47208 99.98178 79.00462
#
# Poissons Ratio (x) = 0.07955 0.31575
# Poissons Ratio (y) = 0.08869 0.26274
# Poissons Ratio (z) = 0.44551 0.33250
#
# Static dielectric constant tensor:
#      x y z
#    x 4.283150 0.029130 0.100850 
#    y 0.029130 4.618990 -0.139740 
#    z 0.100850 -0.139740 4.361460 
# 
# 
# High freq. dielectric constant tensor:
#      x y z
#    x 1.914800 -0.003670 0.005580 
#    y -0.003670 1.933040 0.006320 
#    z 0.005580 0.006320 1.930100 
# 
# From -- ./inp_files/428438.got.cif
#   From: 2010.06.25/outbox.cif.g09.slc.cpg/sg2_215_cif.got.tgz:428438.got - 2010.06.27 13:26:56.
