data_PCOD8024929
_publ_section_title
;
Structure prediction by ZEFSAII (Michael W. Deem and Ramdas Pophale) SiO2 
 PCOD8024929
Probable space group: P -1
;
_chemical_formula_sum "Si O2"
_cell_formula_units_Z 16
_cell_length_a 12.123363
_cell_length_b 22.300036
_cell_length_c 5.171253
_cell_angle_alpha 69.381304
_cell_angle_beta 60.647602
_cell_angle_gamma 34.260821
_cell_volume 682.000213
_symmetry_space_group_name_H-M "P -1"
_symmetry_group_IT_number 2
_symmetry_cell_setting 'triclinic'
loop_
_space_group_symop_operation_xyz
x,y,z
-x,-y,-z
loop_
_atom_site_type_symbol
_atom_site_label
_atom_site_fract_x
_atom_site_fract_y
_atom_site_fract_z
Si Si1 0.931261 0.456847 0.717016
Si Si2 0.828862 0.836488 0.756668
Si Si3 0.795221 0.247456 0.309561
Si Si4 0.544842 0.325779 0.007830
Si Si5 0.456083 0.818209 0.794756
Si Si6 0.892201 0.987457 0.793709
Si Si7 0.431289 0.945924 0.300645
Si Si8 0.866032 0.681705 0.793622
O O1 0.970005 0.401511 0.495272
O O2 0.000000 0.500000 0.500000
O O3 0.689689 0.551881 0.942672
O O4 0.064329 0.373575 0.925637
O O5 0.857165 0.762485 0.664017
O O6 0.048205 0.759545 0.773229
O O7 0.746881 0.933886 0.543181
O O8 0.639323 0.903308 0.075093
O O9 0.646761 0.328239 0.116373
O O10 0.925646 0.137978 0.184956
O O11 0.663607 0.279841 0.665222
O O12 0.542044 0.253258 0.222987
O O13 0.530525 0.845243 0.485554
O O14 0.631909 0.746244 0.929528
O O15 0.210591 0.936373 0.954908
O O16 0.686984 0.036303 0.835326
O O17 0.000000 0.000000 0.500000
#
# Coordination Sequence:
#
# PCOD8024929 Si02
#       8
#     2   2   2   2   2   2   2   2
#     4  12  27  47  77 108 140 178 246 309 371 418
#     4  10  24  48  70 100 151 196 246 281 348 431
#     4  11  27  45  69 103 150 198 231 290 356 430
#     4  12  27  47  72 106 146 185 243 306 366 418
#     4  12  25  39  76 107 150 182 241 294 372 424
#     4  11  22  39  65 107 150 184 232 288 362 438
#     4  10  23  44  66 106 146 198 239 287 343 438
#     4  12  26  47  75 110 138 189 239 305 358 417
#
# _framework density 23.460405000000002
#
# number of rings (size 3 to 8) (size 9 to 14) (size 15 to 20)
#    0.000    0.750    3.750    2.625    5.250    3.500 
#    2.250    3.750    0.000    0.000    0.000    0.000 
#    0.000    0.000    0.000    0.000    0.000    0.000 
#
# Total GULP energy -198215.011048 kJ/mol
# GULP energy per Si atom -12388.438190 kJ/mol
# Density = 2.340701 g / cm^3
# Si number density = 23.460405 Si / 1000 Ang^3
#
#
#
# Elastic Constant Matrix: (Units=GPa)
#
#
# Indices 1 2 3 4 5 6 
#
# 1 99.9774 37.4101 9.1077 8.2983 -2.6518 -1.3974
# 2 37.4101 104.2412 40.8218 18.1148 4.4540 -1.2517
# 3 9.1077 40.8218 72.9765 13.1177 10.4624 -4.9616
# 4 8.2983 18.1148 13.1177 43.7571 -4.1874 3.5070
# 5 -2.6518 4.4540 10.4624 -4.1874 35.1249 9.3368
# 6 -1.3974 -1.2517 -4.9616 3.5070 9.3368 49.1954
#
#
#
# Elastic Compliance Matrix: (Units=1/GPa)
#
#
# Indices 1 2 3 4 5 6 
#
# 1 0.011685 -0.004550 0.001050 -0.000562 0.001035 0.000166
# 2 -0.004550 0.014494 -0.006932 -0.003090 -0.000444 -0.000155
# 3 0.001050 -0.006932 0.019254 -0.003945 -0.006107 0.003236
# 4 -0.000562 -0.003090 -0.003945 0.026228 0.005560 -0.003417
# 5 0.001035 -0.000444 -0.006107 0.005560 0.033016 -0.007260
# 6 0.000166 -0.000155 0.003236 -0.003417 -0.007260 0.022276
#
#
# Mechanical properties :
#
#
# Convention : Reuss Voigt Hill
#
# Bulk Modulus (GPa) = 40.69628 50.20825 45.45227
# Shear Modulus (GPa) = 32.05004 38.27253 35.16128
#
# Velocity S-wave (km/s) = 3.70013 4.04340 3.87557
# Velocity P-wave (km/s) = 5.96985 6.57621 6.28035
#
# Compressibility (1/GPa) = 0.02457227
#
# Stress axis : x y z
#
# Youngs Moduli (GPa) = 85.57704 68.99202 51.93686
#
# Poissons Ratio (x) = 0.31389 -0.05456
# Poissons Ratio (y) = 0.38934 0.36001
# Poissons Ratio (z) = -0.08989 0.47823
#
# Static dielectric constant tensor:
#      x y z
#    x 4.211070 0.056560 -0.332390 
#    y 0.056560 4.707790 0.217660 
#    z -0.332390 0.217660 3.488650 
# 
# 
# High freq. dielectric constant tensor:
#      x y z
#    x 1.936310 -0.003230 -0.008450 
#    y -0.003230 1.941440 0.015320 
#    z -0.008450 0.015320 1.911410 
# 
# From -- ./inp_files/84281.got.cif
#   From: 2010.06.25/outbox.cif.g09.slc.cpg/sg2_43_cif.got.tgz:84281.got - 2010.06.27 13:26:56.
