data_PCOD8024591
_publ_section_title
;
Structure prediction by ZEFSAII (Michael W. Deem and Ramdas Pophale) SiO2 
 PCOD8024591
Probable space group: P -1
;
_chemical_formula_sum "Si O2"
_cell_formula_units_Z 16
_cell_length_a 9.379883
_cell_length_b 7.388041
_cell_length_c 10.796170
_cell_angle_alpha 121.253795
_cell_angle_beta 85.248354
_cell_angle_gamma 93.247409
_cell_volume 637.307788
_symmetry_space_group_name_H-M "P -1"
_symmetry_group_IT_number 2
_symmetry_cell_setting 'triclinic'
loop_
_space_group_symop_operation_xyz
x,y,z
-x,-y,-z
loop_
_atom_site_type_symbol
_atom_site_label
_atom_site_fract_x
_atom_site_fract_y
_atom_site_fract_z
Si Si1 0.991597 0.308707 0.027399
Si Si2 0.330694 0.983269 0.515967
Si Si3 0.705760 0.972185 0.738961
Si Si4 0.225108 0.613630 0.533788
Si Si5 0.569573 0.244223 0.236466
Si Si6 0.052115 0.262234 0.282063
Si Si7 0.257794 0.153898 0.840192
Si Si8 0.319814 0.635619 0.977852
O O1 0.050092 0.360793 0.179680
O O2 0.823350 0.266690 0.038581
O O3 0.094440 0.126209 0.897432
O O4 0.000000 0.500000 0.000000
O O5 0.290666 0.738331 0.456838
O O6 0.500000 0.000000 0.500000
O O7 0.260345 0.051384 0.416986
O O8 0.266028 0.125926 0.681204
O O9 0.594817 0.785145 0.720548
O O10 0.857303 0.954214 0.796321
O O11 0.640501 0.204126 0.855266
O O12 0.349786 0.586634 0.618560
O O13 0.150822 0.399461 0.419234
O O14 0.106380 0.763978 0.660738
O O15 0.565188 0.338333 0.131679
O O16 0.641974 0.012444 0.157200
O O17 0.310768 0.397596 0.948221
#
# Coordination Sequence:
#
# PCOD8024591 Si02
#       8
#     2   2   2   2   2   2   2   2
#     4  10  23  43  69 102 140 181 238 291 358 423
#     4  11  24  48  68  99 146 190 237 291 359 432
#     4  12  27  42  70 111 140 185 242 295 358 430
#     4  10  24  44  73 101 145 193 238 294 362 428
#     4  11  23  48  68 104 147 187 235 294 362 435
#     4  11  25  44  72 110 140 184 248 301 355 428
#     4  10  24  43  72  98 138 195 234 289 359 428
#     4  11  25  43  72 104 142 188 236 298 364 425
#
# _framework density 25.105611
#
# number of rings (size 3 to 8) (size 9 to 14) (size 15 to 20)
#    0.000    1.250    3.750    1.125    8.750    4.500 
#    0.000    0.000    0.000    0.000    0.000    0.000 
#    0.000    0.000    0.000    0.000    0.000    0.000 
#
# Total GULP energy -198321.416951 kJ/mol
# GULP energy per Si atom -12395.088559 kJ/mol
# Density = 2.504847 g / cm^3
# Si number density = 25.105611 Si / 1000 Ang^3
#
#
#
# Elastic Constant Matrix: (Units=GPa)
#
#
# Indices 1 2 3 4 5 6 
#
# 1 80.8667 -2.1769 0.4378 -27.8216 -6.7094 5.3860
# 2 -2.1769 57.9365 -2.3274 -28.9340 0.0752 -3.0809
# 3 0.4378 -2.3274 85.2863 -21.5697 -0.8179 4.1154
# 4 -27.8216 -28.9340 -21.5697 40.9674 7.8005 -3.9937
# 5 -6.7094 0.0752 -0.8179 7.8005 32.4443 -3.9767
# 6 5.3860 -3.0809 4.1154 -3.9937 -3.9767 38.9781
#
#
#
# Elastic Compliance Matrix: (Units=1/GPa)
#
#
# Indices 1 2 3 4 5 6 
#
# 1 0.025239 0.019814 0.009696 0.036935 -0.003402 0.000492
# 2 0.019814 0.047376 0.015337 0.057094 -0.008821 0.004337
# 3 0.009696 0.015337 0.019218 0.028390 -0.004334 0.000310
# 4 0.036935 0.057094 0.028390 0.108600 -0.017180 0.005786
# 5 -0.003402 -0.008821 -0.004334 -0.017180 0.034403 0.001980
# 6 0.000492 0.004337 0.000310 0.005786 0.001980 0.026692
#
#
# Mechanical properties :
#
#
# Convention : Reuss Voigt Hill
#
# Bulk Modulus (GPa) = 5.50882 23.99518 14.75200
# Shear Modulus (GPa) = 21.51994 37.68833 29.60414
#
# Velocity S-wave (km/s) = 2.93093 3.87872 3.43765
# Velocity P-wave (km/s) = 3.69498 5.44406 4.65245
#
# Compressibility (1/GPa) = 0.18152720
#
# Stress axis : x y z
#
# Youngs Moduli (GPa) = 39.62089 21.10768 52.03558
#
# Poissons Ratio (x) = -0.41823 -0.50454
# Poissons Ratio (y) = -0.78506 -0.79806
# Poissons Ratio (z) = -0.38417 -0.32372
#
# Static dielectric constant tensor:
#      x y z
#    x 6.055500 -0.352130 0.223250 
#    y -0.352130 4.552340 -0.358320 
#    z 0.223250 -0.358320 4.884470 
# 
# 
# High freq. dielectric constant tensor:
#      x y z
#    x 2.009660 0.013920 -0.008230 
#    y 0.013920 1.993790 0.000610 
#    z -0.008230 0.000610 2.008860 
# 
# From -- ./inp_files/383511.got.cif
#   From: 2010.06.25/outbox.cif.g09.slc.cpg/sg2_192_cif.got.tgz:383511.got - 2010.06.27 13:26:56.
