data_PCOD8024396
_publ_section_title
;
Structure prediction by ZEFSAII (Michael W. Deem and Ramdas Pophale) SiO2 
 PCOD8024396
Probable space group: P -1
;
_chemical_formula_sum "Si O2"
_cell_formula_units_Z 12
_cell_length_a 11.858817
_cell_length_b 4.734661
_cell_length_c 11.127912
_cell_angle_alpha 102.368313
_cell_angle_beta 49.510471
_cell_angle_gamma 89.243708
_cell_volume 454.294281
_symmetry_space_group_name_H-M "P -1"
_symmetry_group_IT_number 2
_symmetry_cell_setting 'triclinic'
loop_
_space_group_symop_operation_xyz
x,y,z
-x,-y,-z
loop_
_atom_site_type_symbol
_atom_site_label
_atom_site_fract_x
_atom_site_fract_y
_atom_site_fract_z
Si Si1 0.486982 0.051376 0.874208
Si Si2 0.651472 0.748642 0.378299
Si Si3 0.786421 0.255791 0.405177
Si Si4 0.201272 0.304039 0.382664
Si Si5 0.057861 0.496742 0.261567
Si Si6 0.307329 0.578766 0.926308
O O1 0.654986 0.938765 0.694490
O O2 0.362353 0.881156 0.886546
O O3 0.435786 0.393207 0.907682
O O4 0.500000 0.000000 0.000000
O O5 0.650682 0.471387 0.442220
O O6 0.703999 0.615414 0.200698
O O7 0.500000 0.000000 0.500000
O O8 0.778699 0.915507 0.360551
O O9 0.768323 0.372455 0.566702
O O10 0.954166 0.295057 0.248285
O O11 0.177284 0.299658 0.254792
O O12 0.051808 0.253955 0.556600
O O13 0.147262 0.645424 0.113665
#
# Coordination Sequence:
#
# PCOD8024396 Si02
#       6
#     2   2   2   2   2   2
#     4  12  24  43  70 100 135 173 221 276 334 392
#     4  12  24  43  68  94 136 175 222 271 324 398
#     4  10  23  43  66  95 129 180 217 263 338 387
#     4   9  20  46  66 100 135 175 220 275 334 395
#     4   9  22  44  68 101 136 174 219 282 332 395
#     4  12  26  44  68 105 132 174 229 272 329 395
#
# _framework density 26.414594999999998
#
# number of rings (size 3 to 8) (size 9 to 14) (size 15 to 20)
#    1.000    0.333    1.667    4.000    0.000    2.667 
#    0.000    2.500    0.000    0.000    0.000    0.000 
#    0.000    0.000    0.000    0.000    0.000    0.000 
#
# Total GULP energy -148704.376895 kJ/mol
# GULP energy per Si atom -12392.031408 kJ/mol
# Density = 2.635447 g / cm^3
# Si number density = 26.414595 Si / 1000 Ang^3
#
#
#
# Elastic Constant Matrix: (Units=GPa)
#
#
# Indices 1 2 3 4 5 6 
#
# 1 61.5465 -5.6743 2.2397 6.8561 10.9899 17.8157
# 2 -5.6743 70.7627 1.1105 7.8935 2.9138 8.1314
# 3 2.2397 1.1105 105.8722 -2.7524 -2.8652 9.3429
# 4 6.8561 7.8935 -2.7524 18.6511 9.3783 4.7316
# 5 10.9899 2.9138 -2.8652 9.3783 48.6698 -2.8505
# 6 17.8157 8.1314 9.3429 4.7316 -2.8505 20.1839
#
#
#
# Elastic Compliance Matrix: (Units=1/GPa)
#
#
# Indices 1 2 3 4 5 6 
#
# 1 0.025820 0.005525 0.001502 -0.001170 -0.007398 -0.026482
# 2 0.005525 0.016467 0.000472 -0.005292 -0.001815 -0.010745
# 3 0.001502 0.000472 0.010077 0.002870 -0.000735 -0.006957
# 4 -0.001170 -0.005292 0.002870 0.067331 -0.013150 -0.015805
# 5 -0.007398 -0.001815 -0.000735 -0.013150 0.025654 0.014307
# 6 -0.026482 -0.010745 -0.006957 -0.015805 0.014307 0.086194
#
#
# Mechanical properties :
#
#
# Convention : Reuss Voigt Hill
#
# Bulk Modulus (GPa) = 14.84509 25.94811 20.39660
# Shear Modulus (GPa) = 20.92058 33.53467 27.22762
#
# Velocity S-wave (km/s) = 2.81732 3.56694 3.21406
# Velocity P-wave (km/s) = 4.02682 5.17772 4.63811
#
# Compressibility (1/GPa) = 0.06736234
#
# Stress axis : x y z
#
# Youngs Moduli (GPa) = 38.73030 60.72689 99.23301
#
# Poissons Ratio (x) = -0.33552 -0.14907
# Poissons Ratio (y) = -0.21399 -0.04683
# Poissons Ratio (z) = -0.05818 -0.02866
#
# Static dielectric constant tensor:
#      x y z
#    x 5.055470 0.132030 -0.229670 
#    y 0.132030 4.769320 0.116200 
#    z -0.229670 0.116200 4.723850 
# 
# 
# High freq. dielectric constant tensor:
#      x y z
#    x 2.071090 0.003890 -0.007100 
#    y 0.003890 2.042840 0.004590 
#    z -0.007100 0.004590 2.045540 
# 
# From -- ./inp_files/410962.got.cif
#   From: 2010.06.25/outbox.cif.g09.slc.cpg/sg2_206_cif.got.tgz:410962.got - 2010.06.27 13:26:56.
