data_PCOD8024623
_publ_section_title
;
Structure prediction by ZEFSAII (Michael W. Deem and Ramdas Pophale) SiO2 
 PCOD8024623
Probable space group: P -1
;
_chemical_formula_sum "Si O2"
_cell_formula_units_Z 14
_cell_length_a 19.290416
_cell_length_b 16.742115
_cell_length_c 8.727154
_cell_angle_alpha 126.213790
_cell_angle_beta 139.141235
_cell_angle_gamma 22.790858
_cell_volume 648.156999
_symmetry_space_group_name_H-M "P -1"
_symmetry_group_IT_number 2
_symmetry_cell_setting 'triclinic'
loop_
_space_group_symop_operation_xyz
x,y,z
-x,-y,-z
loop_
_atom_site_type_symbol
_atom_site_label
_atom_site_fract_x
_atom_site_fract_y
_atom_site_fract_z
Si Si1 0.266530 0.874117 0.414664
Si Si2 0.264783 0.304002 0.778574
Si Si3 0.785346 0.307436 0.915120
Si Si4 0.463697 0.967614 0.554529
Si Si5 0.075137 0.166007 0.982570
Si Si6 0.282750 0.385567 0.225518
Si Si7 0.570026 0.225495 0.096900
O O1 0.320097 0.712301 0.314252
O O2 0.472460 0.755590 0.527392
O O3 0.269986 0.908589 0.633833
O O4 0.004909 0.120256 0.189389
O O5 0.000000 0.500000 0.500000
O O6 0.430017 0.068684 0.757300
O O7 0.261841 0.332515 0.983588
O O8 0.370973 0.305655 0.858610
O O9 0.570596 0.552885 0.908823
O O10 0.864495 0.286848 0.860428
O O11 0.694634 0.703099 0.685522
O O12 0.500000 0.000000 0.500000
O O13 0.224116 0.103126 0.284986
O O14 0.950402 0.345786 0.854391
O O15 0.247751 0.943239 0.931733
#
# Coordination Sequence:
#
# PCOD8024623 Si02
#       7
#     2   2   2   2   2   2   2
#     4  10  23  43  69  97 126 174 218 266 333 387
#     4  11  21  42  65  92 129 175 220 264 321 383
#     4  11  22  46  70  92 134 170 215 275 325 388
#     4  12  24  43  62  94 132 172 219 269 323 383
#     4  12  24  42  67  98 133 172 216 272 325 389
#     4  11  24  42  67  95 131 173 222 267 324 395
#     4  11  24  42  65  99 132 170 219 266 325 393
#
# _framework density 21.599703000000002
#
# number of rings (size 3 to 8) (size 9 to 14) (size 15 to 20)
#    0.000    0.857    7.143    0.857    0.000    2.286 
#    0.000    1.429    0.000    0.000    0.000    0.000 
#    0.000    0.000    0.000    0.000    0.000    0.000 
#
# Total GULP energy -173614.743197 kJ/mol
# GULP energy per Si atom -12401.053086 kJ/mol
# Density = 2.155054 g / cm^3
# Si number density = 21.599703 Si / 1000 Ang^3
#
#
#
# Elastic Constant Matrix: (Units=GPa)
#
#
# Indices 1 2 3 4 5 6 
#
# 1 86.2840 57.0494 38.6816 1.9166 -10.7031 21.5067
# 2 57.0494 152.9127 34.9785 6.9776 -7.7971 11.2224
# 3 38.6816 34.9785 95.5195 7.0133 13.2825 9.5678
# 4 1.9166 6.9776 7.0133 31.8957 7.5685 -7.8280
# 5 -10.7031 -7.7971 13.2825 7.5685 19.8838 -5.7534
# 6 21.5067 11.2224 9.5678 -7.8280 -5.7534 35.9640
#
#
#
# Elastic Compliance Matrix: (Units=1/GPa)
#
#
# Indices 1 2 3 4 5 6 
#
# 1 0.022577 -0.004989 -0.008263 -0.003995 0.014853 -0.008240
# 2 -0.004989 0.008932 -0.001565 -0.001798 0.002738 0.000659
# 3 -0.008263 -0.001565 0.016871 0.000789 -0.017101 -0.001623
# 4 -0.003995 -0.001798 0.000789 0.037499 -0.015205 0.008470
# 5 0.014853 0.002738 -0.017101 -0.015205 0.077711 0.003936
# 6 -0.008240 0.000659 -0.001623 0.008470 0.003936 0.035432
#
#
# Mechanical properties :
#
#
# Convention : Reuss Voigt Hill
#
# Bulk Modulus (GPa) = 53.34249 66.23724 59.78987
# Shear Modulus (GPa) = 21.28509 31.14915 26.21712
#
# Velocity S-wave (km/s) = 3.14257 3.80163 3.48770
# Velocity P-wave (km/s) = 6.15769 7.07123 6.63021
#
# Compressibility (1/GPa) = 0.01874678
#
# Stress axis : x y z
#
# Youngs Moduli (GPa) = 44.29210 111.95323 59.27306
#
# Poissons Ratio (x) = 0.55851 0.48976
# Poissons Ratio (y) = 0.22096 0.09279
# Poissons Ratio (z) = 0.36597 0.17526
#
# Static dielectric constant tensor:
#      x y z
#    x 3.761090 0.281960 0.097310 
#    y 0.281960 4.083510 0.147740 
#    z 0.097310 0.147740 4.202820 
# 
# 
# High freq. dielectric constant tensor:
#      x y z
#    x 1.832270 0.021010 0.006720 
#    y 0.021010 1.849420 -0.002120 
#    z 0.006720 -0.002120 1.865060 
# 
# From -- ./inp_files/348619.got.cif
#   From: 2010.06.25/outbox.cif.g09.slc.cpg/sg2_175_cif.got.tgz:348619.got - 2010.06.27 13:26:56.
