data_PCOD8024161
_publ_section_title
;
Structure prediction by ZEFSAII (Michael W. Deem and Ramdas Pophale) SiO2 
 PCOD8024161
Probable space group: P -1
;
_chemical_formula_sum "Si O2"
_cell_formula_units_Z 16
_cell_length_a 5.339291
_cell_length_b 14.545936
_cell_length_c 14.548772
_cell_angle_alpha 136.576646
_cell_angle_beta 61.897999
_cell_angle_gamma 109.432346
_cell_volume 685.048443
_symmetry_space_group_name_H-M "P -1"
_symmetry_group_IT_number 2
_symmetry_cell_setting 'triclinic'
loop_
_space_group_symop_operation_xyz
x,y,z
-x,-y,-z
loop_
_atom_site_type_symbol
_atom_site_label
_atom_site_fract_x
_atom_site_fract_y
_atom_site_fract_z
Si Si1 0.718959 0.648702 0.231733
Si Si2 0.524348 0.772698 0.945808
Si Si3 0.314594 0.057170 0.488663
Si Si4 0.291440 0.131618 0.206414
Si Si5 0.219225 0.482201 0.238611
Si Si6 0.974051 0.630707 0.984178
Si Si7 0.797424 0.566952 0.508987
Si Si8 0.674921 0.003166 0.203625
O O1 0.753274 0.784163 0.380803
O O2 0.395912 0.611188 0.276917
O O3 0.910509 0.522440 0.137746
O O4 0.777471 0.677943 0.136097
O O5 0.546178 0.865480 0.918241
O O6 0.651166 0.625412 0.788237
O O7 0.202777 0.746224 0.014089
O O8 0.680454 0.847862 0.058170
O O9 0.494555 0.022183 0.341345
O O10 0.500000 0.000000 0.500000
O O11 0.000000 0.000000 0.500000
O O12 0.208329 0.278221 0.359489
O O13 0.513177 0.078838 0.204250
O O14 0.999570 0.049265 0.192468
O O15 0.219906 0.380260 0.079053
O O16 0.923035 0.540853 0.366699
O O17 0.500000 0.500000 0.500000
O O18 0.000000 0.500000 0.500000
#
# Coordination Sequence:
#
# PCOD8024161 Si02
#       8
#     2   2   2   2   2   2   2   2
#     4  10  24  44  66 106 135 179 236 292 351 405
#     4  11  25  43  68 104 137 190 235 278 355 412
#     4  12  28  48  75 101 139 186 233 286 349 420
#     4  12  26  46  70 103 143 184 234 286 347 413
#     4  11  24  40  73  98 139 181 230 292 346 416
#     4  10  23  42  71  98 141 178 233 293 347 412
#     4  12  25  44  69 101 138 178 232 283 344 412
#     4  12  28  46  72 102 143 186 232 290 341 418
#
# _framework density 23.356013000000001
#
# number of rings (size 3 to 8) (size 9 to 14) (size 15 to 20)
#    0.000    0.750    1.250    4.875   10.500    0.000 
#    0.000    0.000    0.000    0.000    0.000    0.000 
#    0.000    0.000    0.000    0.000    0.000    0.000 
#
# Total GULP energy -198295.590635 kJ/mol
# GULP energy per Si atom -12393.474415 kJ/mol
# Density = 2.330285 g / cm^3
# Si number density = 23.356013 Si / 1000 Ang^3
#
#
#
# Elastic Constant Matrix: (Units=GPa)
#
#
# Indices 1 2 3 4 5 6 
#
# 1 85.0778 36.1463 -1.0024 6.3560 8.1686 14.5467
# 2 36.1463 144.4429 54.9954 -6.0178 2.9089 29.4318
# 3 -1.0024 54.9954 115.4387 -0.1808 7.2909 4.6586
# 4 6.3560 -6.0178 -0.1808 55.7374 7.5650 7.7128
# 5 8.1686 2.9089 7.2909 7.5650 34.2005 -0.6649
# 6 14.5467 29.4318 4.6586 7.7128 -0.6649 40.2673
#
#
#
# Elastic Compliance Matrix: (Units=1/GPa)
#
#
# Indices 1 2 3 4 5 6 
#
# 1 0.014281 -0.003964 0.002315 -0.001273 -0.003331 -0.002340
# 2 -0.003964 0.011370 -0.005199 0.002544 0.000394 -0.006757
# 3 0.002315 -0.005199 0.011233 -0.000719 -0.002312 0.001764
# 4 -0.001273 0.002544 -0.000719 0.019642 -0.004204 -0.005148
# 5 -0.003331 0.000394 -0.002312 -0.004204 0.031473 0.002508
# 6 -0.002340 -0.006757 0.001764 -0.005148 0.002508 0.031442
#
#
# Mechanical properties :
#
#
# Convention : Reuss Voigt Hill
#
# Bulk Modulus (GPa) = 43.12647 58.35977 50.74312
# Shear Modulus (GPa) = 35.49471 43.02904 39.26188
#
# Velocity S-wave (km/s) = 3.90259 4.29687 4.10447
# Velocity P-wave (km/s) = 6.22992 7.04690 6.65096
#
# Compressibility (1/GPa) = 0.02318761
#
# Stress axis : x y z
#
# Youngs Moduli (GPa) = 70.02488 87.95265 89.02046
#
# Poissons Ratio (x) = 0.34867 -0.20613
# Poissons Ratio (y) = 0.27760 0.46284
# Poissons Ratio (z) = -0.16214 0.45728
#
# Static dielectric constant tensor:
#      x y z
#    x 4.553430 0.108450 -0.133360 
#    y 0.108450 4.560660 -0.040110 
#    z -0.133360 -0.040110 4.668480 
# 
# 
# High freq. dielectric constant tensor:
#      x y z
#    x 1.922070 0.000590 -0.000450 
#    y 0.000590 1.946280 0.003060 
#    z -0.000450 0.003060 1.947550 
# 
# From -- ./inp_files/123771.got.cif
#   From: 2010.06.25/outbox.cif.g09.slc.cpg/sg2_62_cif.got.tgz:123771.got - 2010.06.27 13:26:56.
