data_PCOD8024366
_publ_section_title
;
Structure prediction by ZEFSAII (Michael W. Deem and Ramdas Pophale) SiO2 
 PCOD8024366
Probable space group: P -1
;
_chemical_formula_sum "Si O2"
_cell_formula_units_Z 16
_cell_length_a 11.160778
_cell_length_b 12.509873
_cell_length_c 14.236115
_cell_angle_alpha 30.647691
_cell_angle_beta 119.439854
_cell_angle_gamma 97.856972
_cell_volume 674.608973
_symmetry_space_group_name_H-M "P -1"
_symmetry_group_IT_number 2
_symmetry_cell_setting 'triclinic'
loop_
_space_group_symop_operation_xyz
x,y,z
-x,-y,-z
loop_
_atom_site_type_symbol
_atom_site_label
_atom_site_fract_x
_atom_site_fract_y
_atom_site_fract_z
Si Si1 0.177213 0.294295 0.163047
Si Si2 0.621292 0.138361 0.723697
Si Si3 0.683149 0.521347 0.512484
Si Si4 0.133188 0.285313 0.637719
Si Si5 0.614160 0.572776 0.753671
Si Si6 0.268563 0.751809 0.572104
Si Si7 0.111971 0.855203 0.958267
Si Si8 0.147242 0.441829 0.825354
O O1 0.330992 0.309495 0.236938
O O2 0.251157 0.987787 0.444040
O O3 0.130113 0.366912 0.979876
O O4 0.000000 0.500000 0.000000
O O5 0.698164 0.299962 0.619607
O O6 0.515788 0.246290 0.699719
O O7 0.486277 0.210103 0.533442
O O8 0.769191 0.811119 0.023929
O O9 0.711687 0.695626 0.326929
O O10 0.834256 0.359430 0.776304
O O11 0.000000 0.500000 0.500000
O O12 0.046957 0.325368 0.470972
O O13 0.199425 0.992348 0.920686
O O14 0.469065 0.549293 0.757280
O O15 0.796116 0.289621 0.997265
O O16 0.254364 0.559475 0.777598
O O17 0.104454 0.918017 0.306858
#
# Coordination Sequence:
#
# PCOD8024366 Si02
#       8
#     2   2   2   2   2   2   2   2
#     4  12  25  48  71  99 138 180 229 286 341 408
#     4  10  23  43  66 100 135 179 230 278 338 404
#     4  10  23  43  68  96 138 183 224 280 338 400
#     4  11  25  41  69 103 135 178 225 278 341 410
#     4  11  24  44  71  97 137 180 224 286 342 398
#     4  11  24  44  70 100 137 173 226 285 337 409
#     4  10  23  45  65 105 135 181 228 275 346 401
#     4  11  26  43  68 105 132 180 231 275 347 407
#
# _framework density 23.71744
#
# number of rings (size 3 to 8) (size 9 to 14) (size 15 to 20)
#    0.000    1.250    2.500    1.875    7.000    2.000 
#    0.000    2.500    0.000    0.000    0.000    0.000 
#    0.000    0.000    0.000    0.000    0.000    0.000 
#
# Total GULP energy -198320.394008 kJ/mol
# GULP energy per Si atom -12395.024626 kJ/mol
# Density = 2.366346 g / cm^3
# Si number density = 23.717440 Si / 1000 Ang^3
#
#
#
# Elastic Constant Matrix: (Units=GPa)
#
#
# Indices 1 2 3 4 5 6 
#
# 1 114.8352 23.6472 14.1233 -12.1391 -6.9448 9.8841
# 2 23.6472 86.8227 15.2568 -8.9024 0.5548 5.3867
# 3 14.1233 15.2568 40.7573 -10.4524 -2.3657 -2.4414
# 4 -12.1391 -8.9024 -10.4524 40.5081 10.0559 3.4397
# 5 -6.9448 0.5548 -2.3657 10.0559 35.7118 -4.3040
# 6 9.8841 5.3867 -2.4414 3.4397 -4.3040 39.7317
#
#
#
# Elastic Compliance Matrix: (Units=1/GPa)
#
#
# Indices 1 2 3 4 5 6 
#
# 1 0.009855 -0.001946 -0.002287 0.001897 0.000973 -0.002387
# 2 -0.001946 0.013053 -0.003949 0.001816 -0.001578 -0.001856
# 3 -0.002287 -0.003949 0.028376 0.005507 0.000235 0.002396
# 4 0.001897 0.001816 0.005507 0.029390 -0.008027 -0.003794
# 5 0.000973 -0.001578 0.000235 -0.008027 0.030978 0.004037
# 6 -0.002387 -0.001856 0.002396 -0.003794 0.004037 0.026927
#
#
# Mechanical properties :
#
#
# Convention : Reuss Voigt Hill
#
# Bulk Modulus (GPa) = 28.63650 38.71889 33.67769
# Shear Modulus (GPa) = 30.01522 35.81617 32.91570
#
# Velocity S-wave (km/s) = 3.56129 3.89024 3.72940
# Velocity P-wave (km/s) = 5.38615 6.04476 5.72494
#
# Compressibility (1/GPa) = 0.03492047
#
# Stress axis : x y z
#
# Youngs Moduli (GPa) = 101.47249 76.61015 35.24158
#
# Poissons Ratio (x) = 0.14908 0.08058
# Poissons Ratio (y) = 0.19746 0.13917
# Poissons Ratio (z) = 0.23203 0.30253
#
# Static dielectric constant tensor:
#      x y z
#    x 2.475630 -0.159770 0.809540 
#    y -0.159770 4.343110 0.022670 
#    z 0.809540 0.022670 3.896350 
# 
# 
# High freq. dielectric constant tensor:
#      x y z
#    x 1.943580 0.012620 0.004430 
#    y 0.012620 1.942760 -0.008960 
#    z 0.004430 -0.008960 1.930180 
# 
# From -- ./inp_files/470214.got.cif
#   From: 2010.06.25/outbox.cif.g09.slc.cpg/sg2_236_cif.got.tgz:470214.got - 2010.06.27 13:26:56.
