data_PCOD8024486
_publ_section_title
;
Structure prediction by ZEFSAII (Michael W. Deem and Ramdas Pophale) SiO2 
 PCOD8024486
Probable space group: P -1
;
_chemical_formula_sum "Si O2"
_cell_formula_units_Z 16
_cell_length_a 19.917252
_cell_length_b 8.359019
_cell_length_c 8.485206
_cell_angle_alpha 75.781877
_cell_angle_beta 31.608612
_cell_angle_gamma 73.782513
_cell_volume 710.864284
_symmetry_space_group_name_H-M "P -1"
_symmetry_group_IT_number 2
_symmetry_cell_setting 'triclinic'
loop_
_space_group_symop_operation_xyz
x,y,z
-x,-y,-z
loop_
_atom_site_type_symbol
_atom_site_label
_atom_site_fract_x
_atom_site_fract_y
_atom_site_fract_z
Si Si1 0.749958 0.704965 0.751602
Si Si2 0.790212 0.544168 0.041151
Si Si3 0.474872 0.241188 0.376442
Si Si4 0.995252 0.639244 0.840349
Si Si5 0.295177 0.749087 0.565781
Si Si6 0.880581 0.914717 0.216755
Si Si7 0.289650 0.599428 0.274505
Si Si8 0.497985 0.893495 0.308303
O O1 0.863488 0.790503 0.425747
O O2 0.692611 0.596956 0.754839
O O3 0.799092 0.585747 0.828721
O O4 0.649374 0.858390 0.976531
O O5 0.659598 0.639000 0.361068
O O6 0.782280 0.346823 0.127023
O O7 0.922521 0.584677 0.845035
O O8 0.530904 0.160117 0.445444
O O9 0.452357 0.092523 0.335164
O O10 0.593516 0.331363 0.062005
O O11 0.142125 0.672132 0.497981
O O12 0.910592 0.809905 0.023063
O O13 0.000000 0.500000 0.000000
O O14 0.304316 0.632379 0.422094
O O15 0.435140 0.772853 0.344639
O O16 0.236402 0.939820 0.609420
O O17 0.000000 0.000000 0.000000
#
# Coordination Sequence:
#
# PCOD8024486 Si02
#       8
#     2   2   2   2   2   2   2   2
#     4  11  25  44  70  97 136 177 227 276 334 401
#     4  11  24  46  72  99 133 183 226 272 338 404
#     4  10  23  45  68  98 141 174 224 284 335 399
#     4  12  23  47  67 100 137 177 221 282 332 403
#     4  12  24  41  71 101 134 176 226 275 339 394
#     4  12  24  44  66  95 137 176 218 279 331 395
#     4  12  24  41  67 101 135 177 221 281 330 399
#     4  10  23  43  68 101 135 174 226 282 337 396
#
# _framework density 22.507812000000001
#
# number of rings (size 3 to 8) (size 9 to 14) (size 15 to 20)
#    0.000    0.750    3.750    3.000    0.000    7.500 
#    2.250    1.875    0.000    0.000    0.000    0.000 
#    0.000    0.000    0.000    0.000    0.000    0.000 
#
# Total GULP energy -198316.614705 kJ/mol
# GULP energy per Si atom -12394.788419 kJ/mol
# Density = 2.245658 g / cm^3
# Si number density = 22.507812 Si / 1000 Ang^3
#
#
#
# Elastic Constant Matrix: (Units=GPa)
#
#
# Indices 1 2 3 4 5 6 
#
# 1 93.1918 41.1687 31.0462 -9.4819 -16.1201 18.4339
# 2 41.1687 111.9043 33.9757 -13.3961 18.2535 12.4868
# 3 31.0462 33.9757 112.0521 -22.7298 -4.7850 3.6842
# 4 -9.4819 -13.3961 -22.7298 41.5768 11.1505 -2.8575
# 5 -16.1201 18.2535 -4.7850 11.1505 23.2999 -5.4227
# 6 18.4339 12.4868 3.6842 -2.8575 -5.4227 36.4431
#
#
#
# Elastic Compliance Matrix: (Units=1/GPa)
#
#
# Indices 1 2 3 4 5 6 
#
# 1 0.021300 -0.011965 -0.002613 -0.007764 0.026576 -0.003065
# 2 -0.011965 0.020919 -0.001975 0.011043 -0.031458 -0.004731
# 3 -0.002613 -0.001975 0.011219 0.005003 -0.000060 0.001248
# 4 -0.007764 0.011043 0.005003 0.036765 -0.031079 -0.002104
# 5 0.026576 -0.031458 -0.000060 -0.031079 0.103199 0.010261
# 6 -0.003065 -0.004731 0.001248 -0.002104 0.010261 0.031847
#
#
# Mechanical properties :
#
#
# Convention : Reuss Voigt Hill
#
# Bulk Modulus (GPa) = 49.18745 58.83661 54.01203
# Shear Modulus (GPa) = 18.85848 34.32782 26.59315
#
# Velocity S-wave (km/s) = 2.89773 3.90956 3.44104
# Velocity P-wave (km/s) = 5.75297 6.82472 6.31164
#
# Compressibility (1/GPa) = 0.02033039
#
# Stress axis : x y z
#
# Youngs Moduli (GPa) = 46.94792 47.80315 89.13821
#
# Poissons Ratio (x) = 0.57198 0.23291
# Poissons Ratio (y) = 0.56175 0.17609
# Poissons Ratio (z) = 0.12267 0.09443
#
# Static dielectric constant tensor:
#      x y z
#    x 4.388740 -0.110160 0.028130 
#    y -0.110160 4.430920 -0.028720 
#    z 0.028130 -0.028720 4.113080 
# 
# 
# High freq. dielectric constant tensor:
#      x y z
#    x 1.879660 0.012310 -0.004680 
#    y 0.012310 1.898720 0.000580 
#    z -0.004680 0.000580 1.894770 
# 
# From -- ./inp_files/342658.got.cif
#   From: 2010.06.25/outbox.cif.g09.slc.cpg/sg2_172_cif.got.tgz:342658.got - 2010.06.27 13:26:56.
