data_PCOD8024183
_publ_section_title
;
Structure prediction by ZEFSAII (Michael W. Deem and Ramdas Pophale) SiO2 
 PCOD8024183
Probable space group: P -1
;
_chemical_formula_sum "Si O2"
_cell_formula_units_Z 12
_cell_length_a 15.825282
_cell_length_b 9.526477
_cell_length_c 9.014125
_cell_angle_alpha 65.093010
_cell_angle_beta 67.282662
_cell_angle_gamma 28.521864
_cell_volume 588.134823
_symmetry_space_group_name_H-M "P -1"
_symmetry_group_IT_number 2
_symmetry_cell_setting 'triclinic'
loop_
_space_group_symop_operation_xyz
x,y,z
-x,-y,-z
loop_
_atom_site_type_symbol
_atom_site_label
_atom_site_fract_x
_atom_site_fract_y
_atom_site_fract_z
Si Si1 0.816008 0.843178 0.287957
Si Si2 0.849037 0.132783 0.636307
Si Si3 0.983659 0.864286 0.987832
Si Si4 0.174945 0.150696 0.374199
Si Si5 0.453162 0.213776 0.339407
Si Si6 0.660198 0.785781 0.876457
O O1 0.801150 0.904964 0.442692
O O2 0.975766 0.490161 0.314665
O O3 0.635212 0.037423 0.257652
O O4 0.844500 0.959704 0.127405
O O5 0.680511 0.487331 0.609579
O O6 0.782058 0.076033 0.625288
O O7 0.000000 0.000000 0.500000
O O8 0.923217 0.976906 0.812912
O O9 0.170349 0.508426 0.013724
O O10 0.000000 0.000000 0.000000
O O11 0.318108 0.068823 0.257020
O O12 0.359572 0.298341 0.213367
O O13 0.500000 0.000000 0.500000
O O14 0.500000 0.000000 0.000000
#
# Coordination Sequence:
#
# PCOD8024183 Si02
#       6
#     2   2   2   2   2   2
#     4  10  23  42  72  92 140 174 223 271 333 398
#     4  12  27  42  71 100 134 174 230 274 333 396
#     4  11  24  45  66  99 135 180 218 273 334 394
#     4  10  23  45  67 100 131 181 219 271 337 394
#     4  12  25  46  69 100 132 181 220 279 333 392
#     4  11  26  43  71 100 138 174 222 272 335 396
#
# _framework density 20.403485
#
# number of rings (size 3 to 8) (size 9 to 14) (size 15 to 20)
#    0.000    1.000    3.333    2.000    9.333    4.000 
#    0.000    0.000    0.000    0.000    0.000    0.000 
#    0.000    0.000    0.000    0.000    0.000    0.000 
#
# Total GULP energy -148864.900141 kJ/mol
# GULP energy per Si atom -12405.408345 kJ/mol
# Density = 2.035705 g / cm^3
# Si number density = 20.403485 Si / 1000 Ang^3
#
#
#
# Elastic Constant Matrix: (Units=GPa)
#
#
# Indices 1 2 3 4 5 6 
#
# 1 150.4149 64.3042 55.6999 10.0065 -24.5204 8.2232
# 2 64.3042 114.5930 56.8380 10.6226 -15.3866 4.8709
# 3 55.6999 56.8380 152.8446 1.6802 -25.1570 0.0963
# 4 10.0065 10.6226 1.6802 36.8695 -7.5861 -0.2468
# 5 -24.5204 -15.3866 -25.1570 -7.5861 41.0283 7.6399
# 6 8.2232 4.8709 0.0963 -0.2468 7.6399 44.8623
#
#
#
# Elastic Compliance Matrix: (Units=1/GPa)
#
#
# Indices 1 2 3 4 5 6 
#
# 1 0.009655 -0.004100 -0.001389 -0.000643 0.003624 -0.001942
# 2 -0.004100 0.012913 -0.003271 -0.002451 0.000057 -0.000667
# 3 -0.001389 -0.003271 0.008854 0.001674 0.003687 -0.000028
# 4 -0.000643 -0.002451 0.001674 0.028983 0.005145 -0.000336
# 5 0.003624 0.000057 0.003687 0.005145 0.030872 -0.005908
# 6 -0.001942 -0.000667 -0.000028 -0.000336 -0.005908 0.023723
#
#
# Mechanical properties :
#
#
# Convention : Reuss Voigt Hill
#
# Bulk Modulus (GPa) = 71.93578 85.72629 78.83104
# Shear Modulus (GPa) = 36.45502 40.61939 38.53720
#
# Velocity S-wave (km/s) = 4.23153 4.46669 4.35070
# Velocity P-wave (km/s) = 7.69465 8.28906 7.99738
#
# Compressibility (1/GPa) = 0.01390129
#
# Stress axis : x y z
#
# Youngs Moduli (GPa) = 103.56958 77.44068 112.94933
#
# Poissons Ratio (x) = 0.31754 0.15690
# Poissons Ratio (y) = 0.42468 0.36944
# Poissons Ratio (z) = 0.14387 0.25330
#
# Static dielectric constant tensor:
#      x y z
#    x 4.152760 -0.068090 0.293530 
#    y -0.068090 3.722990 -0.105490 
#    z 0.293530 -0.105490 4.170160 
# 
# 
# High freq. dielectric constant tensor:
#      x y z
#    x 1.813330 -0.001500 -0.005400 
#    y -0.001500 1.797690 -0.001150 
#    z -0.005400 -0.001150 1.812130 
# 
# From -- ./inp_files/144359.got.cif
#   From: 2010.06.25/outbox.cif.g09.slc.cpg/sg2_73_cif.got.tgz:144359.got - 2010.06.27 13:26:56.
