data_PCOD8024968
_publ_section_title
;
Structure prediction by ZEFSAII (Michael W. Deem and Ramdas Pophale) SiO2 
 PCOD8024968
Probable space group: P -1
;
_chemical_formula_sum "Si O2"
_cell_formula_units_Z 14
_cell_length_a 11.133882
_cell_length_b 11.753536
_cell_length_c 8.603781
_cell_angle_alpha 143.031959
_cell_angle_beta 86.978591
_cell_angle_gamma 78.955305
_cell_volume 622.854896
_symmetry_space_group_name_H-M "P -1"
_symmetry_group_IT_number 2
_symmetry_cell_setting 'triclinic'
loop_
_space_group_symop_operation_xyz
x,y,z
-x,-y,-z
loop_
_atom_site_type_symbol
_atom_site_label
_atom_site_fract_x
_atom_site_fract_y
_atom_site_fract_z
Si Si1 0.671105 0.634590 0.781090
Si Si2 0.203623 0.570487 0.745730
Si Si3 0.778519 0.825645 0.520440
Si Si4 0.279764 0.764788 0.521945
Si Si5 0.380979 0.783324 0.875772
Si Si6 0.991146 0.998731 0.684425
Si Si7 0.637042 0.968564 0.382804
O O1 0.787762 0.536877 0.541421
O O2 0.690967 0.476630 0.750522
O O3 0.536888 0.669488 0.737218
O O4 0.669285 0.841417 0.081252
O O5 0.209028 0.403470 0.692202
O O6 0.321600 0.650688 0.842282
O O7 0.070300 0.768530 0.992502
O O8 0.907775 0.865824 0.596815
O O9 0.753162 0.857076 0.372632
O O10 0.655355 0.991275 0.801201
O O11 0.320115 0.813282 0.742064
O O12 0.128638 0.898708 0.649930
O O13 0.363531 0.812221 0.430962
O O14 0.000000 0.000000 0.500000
O O15 0.500000 0.000000 0.500000
#
# Coordination Sequence:
#
# PCOD8024968 Si02
#       7
#     2   2   2   2   2   2   2
#     4  11  25  43  68 101 136 174 221 268 334 399
#     4  10  24  42  70  95 128 178 223 269 328 383
#     4  11  24  43  69  98 137 173 217 279 326 389
#     4  11  25  45  69  94 136 178 219 274 330 390
#     4  10  23  44  67 100 135 174 218 273 331 397
#     4  11  25  47  66  96 136 175 224 272 329 390
#     4  12  26  40  67 106 134 174 218 268 340 391
#
# _framework density 22.477145
#
# number of rings (size 3 to 8) (size 9 to 14) (size 15 to 20)
#    0.000    1.143    2.857    2.571    6.000    8.571 
#    0.000    4.286    0.000    0.000    0.000    0.000 
#    0.000    0.000    0.000    0.000    0.000    0.000 
#
# Total GULP energy -173604.866861 kJ/mol
# GULP energy per Si atom -12400.347633 kJ/mol
# Density = 2.242599 g / cm^3
# Si number density = 22.477145 Si / 1000 Ang^3
#
#
#
# Elastic Constant Matrix: (Units=GPa)
#
#
# Indices 1 2 3 4 5 6 
#
# 1 80.9500 60.7929 28.0226 10.4211 -14.7635 2.4893
# 2 60.7929 145.5349 19.3204 16.7264 0.9901 0.1330
# 3 28.0226 19.3204 86.1143 -0.0270 -12.5246 -11.0830
# 4 10.4211 16.7264 -0.0270 39.6206 1.9346 4.4982
# 5 -14.7635 0.9901 -12.5246 1.9346 32.5224 3.4500
# 6 2.4893 0.1330 -11.0830 4.4982 3.4500 38.3477
#
#
#
# Elastic Compliance Matrix: (Units=1/GPa)
#
#
# Indices 1 2 3 4 5 6 
#
# 1 0.022402 -0.008555 -0.004453 -0.002363 0.009201 -0.003262
# 2 -0.008555 0.010739 -0.000097 -0.002205 -0.004236 0.001130
# 3 -0.004453 -0.000097 0.014024 0.000624 0.002920 0.004006
# 4 -0.002363 -0.002205 0.000624 0.027197 -0.002101 -0.002660
# 5 0.009201 -0.004236 0.002920 -0.002101 0.036599 -0.002785
# 6 -0.003262 0.001130 0.004006 -0.002660 -0.002785 0.028005
#
#
# Mechanical properties :
#
#
# Convention : Reuss Voigt Hill
#
# Bulk Modulus (GPa) = 47.72017 58.76343 53.24180
# Shear Modulus (GPa) = 29.04285 35.72904 32.38594
#
# Velocity S-wave (km/s) = 3.59849 3.99127 3.79996
# Velocity P-wave (km/s) = 6.20823 6.88772 6.55678
#
# Compressibility (1/GPa) = 0.02095550
#
# Stress axis : x y z
#
# Youngs Moduli (GPa) = 44.63918 93.12088 71.30750
#
# Poissons Ratio (x) = 0.79662 0.31752
# Poissons Ratio (y) = 0.38187 0.00691
# Poissons Ratio (z) = 0.19877 0.00903
#
# Static dielectric constant tensor:
#      x y z
#    x 4.061980 0.120500 0.065420 
#    y 0.120500 4.101100 0.119070 
#    z 0.065420 0.119070 4.122350 
# 
# 
# High freq. dielectric constant tensor:
#      x y z
#    x 1.880410 0.008330 0.003310 
#    y 0.008330 1.890280 0.005300 
#    z 0.003310 0.005300 1.890190 
# 
# From -- ./inp_files/260999.got.cif
#   From: 2010.06.25/outbox.cif.g09.slc.cpg/sg2_131_cif.got.tgz:260999.got - 2010.06.27 13:26:56.
