data_PCOD8024739
_publ_section_title
;
Structure prediction by ZEFSAII (Michael W. Deem and Ramdas Pophale) SiO2 
 PCOD8024739
Probable space group: P -1
;
_chemical_formula_sum "Si O2"
_cell_formula_units_Z 16
_cell_length_a 8.251425
_cell_length_b 15.986226
_cell_length_c 9.204218
_cell_angle_alpha 57.117418
_cell_angle_beta 83.350179
_cell_angle_gamma 46.970538
_cell_volume 678.167170
_symmetry_space_group_name_H-M "P -1"
_symmetry_group_IT_number 2
_symmetry_cell_setting 'triclinic'
loop_
_space_group_symop_operation_xyz
x,y,z
-x,-y,-z
loop_
_atom_site_type_symbol
_atom_site_label
_atom_site_fract_x
_atom_site_fract_y
_atom_site_fract_z
Si Si1 0.436118 0.116317 0.609021
Si Si2 0.570553 0.376677 0.318457
Si Si3 0.839760 0.959346 0.928836
Si Si4 0.213579 0.686108 0.941389
Si Si5 0.040061 0.880096 0.283844
Si Si6 0.374898 0.932703 0.658082
Si Si7 0.901921 0.634121 0.977861
Si Si8 0.130816 0.437022 0.394559
O O1 0.628096 0.075208 0.509117
O O2 0.197079 0.292996 0.485694
O O3 0.584195 0.032405 0.823352
O O4 0.334481 0.063637 0.595974
O O5 0.437138 0.543411 0.152329
O O6 0.382356 0.381610 0.395683
O O7 0.785374 0.281598 0.506346
O O8 0.680827 0.298034 0.221237
O O9 0.894545 0.895559 0.147801
O O10 0.807990 0.093533 0.813443
O O11 0.058064 0.826641 0.927829
O O12 0.055579 0.665971 0.910928
O O13 0.857808 0.013456 0.295633
O O14 0.621977 0.776820 0.840903
O O15 0.921059 0.584538 0.184465
O O16 0.000000 0.500000 0.000000
O O17 0.000000 0.500000 0.500000
#
# Coordination Sequence:
#
# PCOD8024739 Si02
#       8
#     2   2   2   2   2   2   2   2
#     4  11  23  44  66  96 135 175 228 275 336 407
#     4  10  23  44  66  99 129 177 227 278 340 400
#     4  11  24  43  64  98 138 179 223 275 341 404
#     4  10  23  43  71  95 133 181 229 281 335 410
#     4  11  26  40  67 101 138 177 223 281 338 406
#     4  11  25  40  69 103 130 176 229 282 336 396
#     4  11  23  43  67 100 135 175 231 280 339 400
#     4  11  25  42  69  97 134 180 222 278 344 407
#
# _framework density 23.593001999999998
#
# number of rings (size 3 to 8) (size 9 to 14) (size 15 to 20)
#    0.000    1.250    3.750    0.750    5.250    5.000 
#    0.000    0.000    0.000    0.000    0.000    0.000 
#    0.000    0.000    0.000    0.000    0.000    0.000 
#
# Total GULP energy -198291.375840 kJ/mol
# GULP energy per Si atom -12393.210990 kJ/mol
# Density = 2.353930 g / cm^3
# Si number density = 23.593002 Si / 1000 Ang^3
#
#
#
# Elastic Constant Matrix: (Units=GPa)
#
#
# Indices 1 2 3 4 5 6 
#
# 1 28.1093 13.8521 25.9083 -2.1670 3.8012 7.1317
# 2 13.8521 97.4599 26.0898 5.0640 -12.4128 5.5981
# 3 25.9083 26.0898 161.2564 -5.0323 16.6414 -6.2853
# 4 -2.1670 5.0640 -5.0323 46.8613 -5.4635 2.3912
# 5 3.8012 -12.4128 16.6414 -5.4635 31.1070 0.0515
# 6 7.1317 5.5981 -6.2853 2.3912 0.0515 28.3651
#
#
#
# Elastic Compliance Matrix: (Units=1/GPa)
#
#
# Indices 1 2 3 4 5 6 
#
# 1 0.048415 -0.004829 -0.007056 0.002239 -0.003654 -0.012965
# 2 -0.004829 0.012447 -0.001997 -0.000947 0.006462 -0.001617
# 3 -0.007056 -0.001997 0.008265 0.000066 -0.004352 0.004002
# 4 0.002239 -0.000947 0.000066 0.022038 0.003188 -0.002225
# 5 -0.003654 0.006462 -0.004352 0.003188 0.038063 -0.001659
# 6 -0.012965 -0.001617 0.004002 -0.002225 -0.001659 0.039911
#
#
# Mechanical properties :
#
#
# Convention : Reuss Voigt Hill
#
# Bulk Modulus (GPa) = 24.17685 46.50289 35.33987
# Shear Modulus (GPa) = 23.73165 35.99839 29.86502
#
# Velocity S-wave (km/s) = 3.17500 3.91040 3.56173
# Velocity P-wave (km/s) = 4.86934 6.33573 5.65031
#
# Compressibility (1/GPa) = 0.04136188
#
# Stress axis : x y z
#
# Youngs Moduli (GPa) = 20.65494 80.34234 120.99044
#
# Poissons Ratio (x) = 0.38801 0.85366
# Poissons Ratio (y) = 0.09975 0.24165
# Poissons Ratio (z) = 0.14573 0.16046
#
# Static dielectric constant tensor:
#      x y z
#    x 3.991920 -0.072810 -0.002140 
#    y -0.072810 4.187520 0.166730 
#    z -0.002140 0.166730 4.550550 
# 
# 
# High freq. dielectric constant tensor:
#      x y z
#    x 1.910010 -0.005740 -0.003090 
#    y -0.005740 1.935590 -0.006580 
#    z -0.003090 -0.006580 1.954920 
# 
# From -- ./inp_files/217010.got.cif
#   From: 2010.06.25/outbox.cif.g09.slc.cpg/sg2_109_cif.got.tgz:217010.got - 2010.06.27 13:26:56.
