data_PCOD8024904
_publ_section_title
;
Structure prediction by ZEFSAII (Michael W. Deem and Ramdas Pophale) SiO2 
 PCOD8024904
Probable space group: P -1
;
_chemical_formula_sum "Si O2"
_cell_formula_units_Z 14
_cell_length_a 11.190932
_cell_length_b 11.578738
_cell_length_c 9.862123
_cell_angle_alpha 61.522390
_cell_angle_beta 142.117870
_cell_angle_gamma 107.743407
_cell_volume 683.645500
_symmetry_space_group_name_H-M "P -1"
_symmetry_group_IT_number 2
_symmetry_cell_setting 'triclinic'
loop_
_space_group_symop_operation_xyz
x,y,z
-x,-y,-z
loop_
_atom_site_type_symbol
_atom_site_label
_atom_site_fract_x
_atom_site_fract_y
_atom_site_fract_z
Si Si1 0.615061 0.640144 0.805088
Si Si2 0.852068 0.630209 0.767109
Si Si3 0.411237 0.894656 0.570028
Si Si4 0.469340 0.370079 0.739468
Si Si5 0.029463 0.911816 0.370800
Si Si6 0.141678 0.819826 0.815564
Si Si7 0.708729 0.746735 0.096436
O O1 0.763967 0.683273 0.801954
O O2 0.426681 0.755012 0.578651
O O3 0.552338 0.499024 0.796116
O O4 0.725634 0.635870 0.053315
O O5 0.672934 0.593868 0.534961
O O6 0.959066 0.742067 0.729326
O O7 0.000000 0.500000 0.000000
O O8 0.188529 0.944965 0.384050
O O9 0.500000 0.000000 0.500000
O O10 0.543394 0.868923 0.838911
O O11 0.344610 0.314349 0.776103
O O12 0.651172 0.263879 0.913560
O O13 0.140991 0.852309 0.637898
O O14 0.915524 0.800270 0.266748
O O15 0.881434 0.044316 0.195772
#
# Coordination Sequence:
#
# PCOD8024904 Si02
#       7
#     2   2   2   2   2   2   2
#     4  10  24  43  67 100 138 175 223 283 339 391
#     4  12  25  44  67 103 136 172 227 277 345 402
#     4  10  23  44  65  95 142 168 229 276 336 396
#     4  12  23  47  69  99 137 180 226 281 336 394
#     4  11  23  44  69 102 130 185 226 275 334 400
#     4  11  24  41  71  98 139 173 231 278 332 405
#     4  10  24  43  68  99 131 182 225 275 333 398
#
# _framework density 20.478449999999999
#
# number of rings (size 3 to 8) (size 9 to 14) (size 15 to 20)
#    0.857    0.286    4.286    1.714    0.000    4.571 
#    0.000    2.143    0.000    0.000    0.000    0.000 
#    0.000    0.000    0.000    0.000    0.000    0.000 
#
# Total GULP energy -173582.254795 kJ/mol
# GULP energy per Si atom -12398.732485 kJ/mol
# Density = 2.043184 g / cm^3
# Si number density = 20.478450 Si / 1000 Ang^3
#
#
#
# Elastic Constant Matrix: (Units=GPa)
#
#
# Indices 1 2 3 4 5 6 
#
# 1 115.3988 36.1680 45.8490 9.1962 24.1125 7.0461
# 2 36.1680 89.0312 49.7096 0.8015 7.9738 3.9707
# 3 45.8490 49.7096 116.6558 -2.9764 8.9737 -14.3300
# 4 9.1962 0.8015 -2.9764 31.4772 4.5094 0.5177
# 5 24.1125 7.9738 8.9737 4.5094 23.5351 1.7479
# 6 7.0461 3.9707 -14.3300 0.5177 1.7479 38.8509
#
#
#
# Elastic Compliance Matrix: (Units=1/GPa)
#
#
# Indices 1 2 3 4 5 6 
#
# 1 0.013656 -0.002113 -0.004091 -0.002700 -0.010957 -0.003241
# 2 -0.002113 0.015819 -0.006315 -0.000256 -0.000475 -0.003538
# 3 -0.004091 -0.006315 0.013711 0.002527 0.000143 0.006404
# 4 -0.002700 -0.000256 0.002527 0.033443 -0.004608 0.001209
# 5 -0.010957 -0.000475 0.000143 -0.004608 0.054728 -0.000312
# 6 -0.003241 -0.003538 0.006404 0.001209 -0.000312 0.029049
#
#
# Mechanical properties :
#
#
# Convention : Reuss Voigt Hill
#
# Bulk Modulus (GPa) = 55.10210 64.94878 60.02544
# Shear Modulus (GPa) = 26.11058 31.39658 28.75358
#
# Velocity S-wave (km/s) = 3.57463 3.91980 3.75118
# Velocity P-wave (km/s) = 6.63348 7.22986 6.93808
#
# Compressibility (1/GPa) = 0.01814813
#
# Stress axis : x y z
#
# Youngs Moduli (GPa) = 73.22970 63.21516 72.93394
#
# Poissons Ratio (x) = 0.13360 0.29834
# Poissons Ratio (y) = 0.15476 0.46057
# Poissons Ratio (z) = 0.29955 0.39919
#
# Static dielectric constant tensor:
#      x y z
#    x 3.923880 0.038740 0.024390 
#    y 0.038740 3.621360 -0.052320 
#    z 0.024390 -0.052320 3.617360 
# 
# 
# High freq. dielectric constant tensor:
#      x y z
#    x 1.818450 0.006760 0.000970 
#    y 0.006760 1.799810 -0.003030 
#    z 0.000970 -0.003030 1.789610 
# 
# From -- ./inp_files/118234.got.cif
#   From: 2010.06.25/outbox.cif.g09.slc.cpg/sg2_60_cif.got.tgz:118234.got - 2010.06.27 13:26:56.
