data_PCOD8024548
_publ_section_title
;
Structure prediction by ZEFSAII (Michael W. Deem and Ramdas Pophale) SiO2 
 PCOD8024548
Probable space group: P -1
;
_chemical_formula_sum "Si O2"
_cell_formula_units_Z 16
_cell_length_a 11.452297
_cell_length_b 8.850053
_cell_length_c 19.192724
_cell_angle_alpha 148.612580
_cell_angle_beta 43.712574
_cell_angle_gamma 124.188837
_cell_volume 691.854192
_symmetry_space_group_name_H-M "P -1"
_symmetry_group_IT_number 2
_symmetry_cell_setting 'triclinic'
loop_
_space_group_symop_operation_xyz
x,y,z
-x,-y,-z
loop_
_atom_site_type_symbol
_atom_site_label
_atom_site_fract_x
_atom_site_fract_y
_atom_site_fract_z
Si Si1 0.072328 0.574153 0.663945
Si Si2 0.479624 0.842923 0.020184
Si Si3 0.621805 0.856749 0.678492
Si Si4 0.254092 0.688728 0.300808
Si Si5 0.713572 0.342839 0.265507
Si Si6 0.453777 0.006556 0.441719
Si Si7 0.753117 0.593013 0.092725
Si Si8 0.917429 0.197946 0.987869
O O1 0.242087 0.444006 0.496406
O O2 0.132308 0.647057 0.743956
O O3 0.948200 0.325389 0.618052
O O4 0.973006 0.885760 0.800765
O O5 0.422085 0.081167 0.197602
O O6 0.658588 0.644596 0.883664
O O7 0.338295 0.628825 0.999593
O O8 0.500000 0.000000 0.000000
O O9 0.443013 0.815966 0.701804
O O10 0.700345 0.102655 0.698920
O O11 0.316959 0.796147 0.391485
O O12 0.627631 0.669899 0.415025
O O13 0.797500 0.166694 0.092991
O O14 0.629335 0.896008 0.281660
O O15 0.500000 0.000000 0.500000
O O16 0.911112 0.676289 0.012933
O O17 0.811764 0.433966 0.076577
#
# Coordination Sequence:
#
# PCOD8024548 Si02
#       8
#     2   2   2   2   2   2   2   2
#     4  12  26  45  69 105 147 175 239 287 352 419
#     4  11  25  45  72  99 143 186 240 282 355 415
#     4  12  26  44  72 102 141 189 234 291 349 421
#     4  11  26  46  72 103 143 183 234 292 353 418
#     4  12  25  43  72 101 142 184 237 282 359 411
#     4  11  23  44  74 101 138 182 234 290 350 417
#     4  10  23  43  68  98 137 180 238 281 350 419
#     4  11  24  43  66 101 139 185 227 293 345 414
#
# _framework density 23.126261
#
# number of rings (size 3 to 8) (size 9 to 14) (size 15 to 20)
#    0.000    0.750    2.500    4.500    7.000    0.000 
#    0.000    1.250    0.000    0.000    0.000    0.000 
#    0.000    0.000    0.000    0.000    0.000    0.000 
#
# Total GULP energy -198351.883081 kJ/mol
# GULP energy per Si atom -12396.992693 kJ/mol
# Density = 2.307362 g / cm^3
# Si number density = 23.126261 Si / 1000 Ang^3
#
#
#
# Elastic Constant Matrix: (Units=GPa)
#
#
# Indices 1 2 3 4 5 6 
#
# 1 90.4714 34.8673 30.0827 -15.5682 6.0396 21.4097
# 2 34.8673 90.2865 30.2594 -8.3016 -1.6130 16.3026
# 3 30.0827 30.2594 147.4668 -2.3695 1.6135 -2.0451
# 4 -15.5682 -8.3016 -2.3695 34.5905 -1.9991 -10.5726
# 5 6.0396 -1.6130 1.6135 -1.9991 37.5241 -6.2116
# 6 21.4097 16.3026 -2.0451 -10.5726 -6.2116 37.6021
#
#
#
# Elastic Compliance Matrix: (Units=1/GPa)
#
#
# Indices 1 2 3 4 5 6 
#
# 1 0.015874 -0.003744 -0.002470 0.003699 -0.003588 -0.007102
# 2 -0.003744 0.013985 -0.002160 0.000394 0.000684 -0.003825
# 3 -0.002470 -0.002160 0.007758 -0.000228 0.000417 0.002770
# 4 0.003699 0.000394 -0.000228 0.033056 0.002418 0.007405
# 5 -0.003588 0.000684 0.000417 0.002418 0.028554 0.007166
# 6 -0.007102 -0.003825 0.002770 0.007405 0.007166 0.035713
#
#
# Mechanical properties :
#
#
# Convention : Reuss Voigt Hill
#
# Bulk Modulus (GPa) = 47.91721 57.62705 52.77213
# Shear Modulus (GPa) = 31.51696 37.47768 34.49732
#
# Velocity S-wave (km/s) = 3.69565 4.03000 3.86644
# Velocity P-wave (km/s) = 6.24301 6.82840 6.54226
#
# Compressibility (1/GPa) = 0.02086933
#
# Stress axis : x y z
#
# Youngs Moduli (GPa) = 62.99543 71.50595 128.89222
#
# Poissons Ratio (x) = 0.26774 0.31834
# Poissons Ratio (y) = 0.23587 0.27841
# Poissons Ratio (z) = 0.15559 0.15445
#
# Static dielectric constant tensor:
#      x y z
#    x 3.683030 1.036020 0.012760 
#    y 1.036020 3.385040 -0.189220 
#    z 0.012760 -0.189220 4.388140 
# 
# 
# High freq. dielectric constant tensor:
#      x y z
#    x 1.916640 0.020110 -0.016210 
#    y 0.020110 1.909590 0.009520 
#    z -0.016210 0.009520 1.929720 
# 
# From -- ./inp_files/594301.got.cif
#   From: 2010.06.25/outbox.cif.g09.slc.cpg/sg2_298_cif.got.tgz:594301.got - 2010.06.27 13:26:56.
