data_PCOD8024315
_publ_section_title
;
Structure prediction by ZEFSAII (Michael W. Deem and Ramdas Pophale) SiO2 
 PCOD8024315
Probable space group: P -1
;
_chemical_formula_sum "Si O2"
_cell_formula_units_Z 16
_cell_length_a 11.078581
_cell_length_b 8.612988
_cell_length_c 17.850307
_cell_angle_alpha 111.677101
_cell_angle_beta 35.686627
_cell_angle_gamma 126.483764
_cell_volume 775.112406
_symmetry_space_group_name_H-M "P -1"
_symmetry_group_IT_number 2
_symmetry_cell_setting 'triclinic'
loop_
_space_group_symop_operation_xyz
x,y,z
-x,-y,-z
loop_
_atom_site_type_symbol
_atom_site_label
_atom_site_fract_x
_atom_site_fract_y
_atom_site_fract_z
Si Si1 0.114121 0.526080 0.189123
Si Si2 0.601925 0.046491 0.641471
Si Si3 0.207088 0.428324 0.960644
Si Si4 0.727895 0.100585 0.348252
Si Si5 0.336894 0.954556 0.146218
Si Si6 0.352291 0.597406 0.234831
Si Si7 0.671999 0.213022 0.139785
Si Si8 0.970471 0.852735 0.664690
O O1 0.107572 0.725164 0.223211
O O2 0.322631 0.578277 0.156043
O O3 0.847349 0.336754 0.313805
O O4 0.198344 0.500097 0.060988
O O5 0.707004 0.247205 0.672421
O O6 0.808037 0.042841 0.487989
O O7 0.376368 0.018722 0.698192
O O8 0.491399 0.848894 0.713330
O O9 0.373966 0.336851 0.866138
O O10 0.320401 0.608542 0.875975
O O11 0.940198 0.259966 0.034415
O O12 0.936000 0.085523 0.284665
O O13 0.500000 0.000000 0.500000
O O14 0.534787 0.012757 0.123348
O O15 0.227944 0.090688 0.236456
O O16 0.500000 0.000000 0.000000
O O17 0.155816 0.380616 0.328490
#
# Coordination Sequence:
#
# PCOD8024315 Si02
#       8
#     2   2   2   2   2   2   2   2
#     4  11  21  40  65  90 126 166 211 262 308 375
#     4  11  22  42  63  92 127 164 211 255 312 373
#     4  11  23  41  62  91 130 168 206 260 317 369
#     4   9  21  43  64  88 125 163 209 261 311 370
#     4  12  23  42  64  95 128 166 211 255 314 376
#     4  11  22  39  64  97 119 166 211 259 313 368
#     4  11  23  41  60  93 133 164 206 260 312 369
#     4  10  23  43  65  91 127 167 204 262 310 370
#
# _framework density 20.642167000000001
#
# number of rings (size 3 to 8) (size 9 to 14) (size 15 to 20)
#    0.000    1.250    5.000    0.750    0.000    3.000 
#    0.000    2.500    0.000    0.000    0.000    0.000 
#    0.000    0.000    0.000    0.000    0.000    0.000 
#
# Total GULP energy -198217.400785 kJ/mol
# GULP energy per Si atom -12388.587549 kJ/mol
# Density = 2.059518 g / cm^3
# Si number density = 20.642167 Si / 1000 Ang^3
#
#
#
# Elastic Constant Matrix: (Units=GPa)
#
#
# Indices 1 2 3 4 5 6 
#
# 1 122.1300 31.9377 57.9633 -3.8809 11.8051 16.9995
# 2 31.9377 93.0273 50.4089 -19.1357 8.9272 1.5675
# 3 57.9633 50.4089 107.9249 -11.1010 11.9992 -5.2478
# 4 -3.8809 -19.1357 -11.1010 32.4064 -3.4645 5.8172
# 5 11.8051 8.9272 11.9992 -3.4645 35.1202 -5.8558
# 6 16.9995 1.5675 -5.2478 5.8172 -5.8558 35.8475
#
#
#
# Elastic Compliance Matrix: (Units=1/GPa)
#
#
# Indices 1 2 3 4 5 6 
#
# 1 0.012847 -0.000293 -0.006771 0.000070 -0.003191 -0.007603
# 2 -0.000293 0.016196 -0.006599 0.007649 -0.001513 -0.003024
# 3 -0.006771 -0.006599 0.016318 -0.000234 -0.000675 0.005816
# 4 0.000070 0.007649 -0.000234 0.036490 0.000676 -0.006213
# 5 -0.003191 -0.001513 -0.000675 0.000676 0.031310 0.006486
# 6 -0.007603 -0.003024 0.005816 -0.006213 0.006486 0.034553
#
#
# Mechanical properties :
#
#
# Convention : Reuss Voigt Hill
#
# Bulk Modulus (GPa) = 55.44762 67.07801 61.26282
# Shear Modulus (GPa) = 27.61655 32.85964 30.23810
#
# Velocity S-wave (km/s) = 3.66166 3.99415 3.83151
# Velocity P-wave (km/s) = 6.69303 7.33738 7.02260
#
# Compressibility (1/GPa) = 0.01803504
#
# Stress axis : x y z
#
# Youngs Moduli (GPa) = 77.83928 61.74540 61.28170
#
# Poissons Ratio (x) = 0.01809 0.41491
# Poissons Ratio (y) = 0.02281 0.40441
# Poissons Ratio (z) = 0.52702 0.40747
#
# Static dielectric constant tensor:
#      x y z
#    x 4.413790 0.244560 0.204600 
#    y 0.244560 3.834430 -0.401910 
#    z 0.204600 -0.401910 3.485410 
# 
# 
# High freq. dielectric constant tensor:
#      x y z
#    x 1.829710 0.013600 0.019720 
#    y 0.013600 1.805210 -0.034640 
#    z 0.019720 -0.034640 1.784610 
# 
# From -- ./inp_files/206891.got.cif
#   From: 2010.06.25/outbox.cif.g09.slc.cpg/sg2_104_cif.got.tgz:206891.got - 2010.06.27 13:26:56.
