data_PCOD8024125
_publ_section_title
;
Structure prediction by ZEFSAII (Michael W. Deem and Ramdas Pophale) SiO2 
 PCOD8024125
Probable space group: P -1
;
_chemical_formula_sum "Si O2"
_cell_formula_units_Z 16
_cell_length_a 13.351344
_cell_length_b 6.558882
_cell_length_c 12.027622
_cell_angle_alpha 87.951741
_cell_angle_beta 130.359394
_cell_angle_gamma 69.306112
_cell_volume 697.166416
_symmetry_space_group_name_H-M "P -1"
_symmetry_group_IT_number 2
_symmetry_cell_setting 'triclinic'
loop_
_space_group_symop_operation_xyz
x,y,z
-x,-y,-z
loop_
_atom_site_type_symbol
_atom_site_label
_atom_site_fract_x
_atom_site_fract_y
_atom_site_fract_z
Si Si1 0.269197 0.622632 0.299301
Si Si2 0.907002 0.649985 0.533753
Si Si3 0.029937 0.245084 0.803161
Si Si4 0.580443 0.644528 0.032339
Si Si5 0.482969 0.823623 0.406835
Si Si6 0.895664 0.227322 0.204191
Si Si7 0.439721 0.068243 0.773487
Si Si8 0.130187 0.491925 0.018786
O O1 0.094493 0.774356 0.208863
O O2 0.330899 0.804655 0.316782
O O3 0.374454 0.436692 0.471255
O O4 0.270079 0.470261 0.193752
O O5 0.929091 0.468529 0.650049
O O6 0.734733 0.827580 0.381312
O O7 0.000000 0.500000 0.500000
O O8 0.966399 0.824066 0.614405
O O9 0.122732 0.003940 0.804751
O O10 0.160273 0.276084 0.960781
O O11 0.516248 0.795889 0.870075
O O12 0.500000 0.500000 0.000000
O O13 0.755618 0.462641 0.145799
O O14 0.546095 0.797799 0.113999
O O15 0.474774 0.909907 0.273265
O O16 0.500000 0.000000 0.500000
O O17 0.928936 0.272449 0.100968
O O18 0.000000 0.500000 0.000000
#
# Coordination Sequence:
#
# PCOD8024125 Si02
#       8
#     2   2   2   2   2   2   2   2
#     4  10  23  44  65 104 138 187 238 283 364 421
#     4  11  23  45  70 100 136 180 237 288 351 415
#     4  10  23  42  71 100 140 176 237 298 349 421
#     4  11  28  47  72 103 141 189 240 288 359 431
#     4  11  26  42  71 102 143 189 236 294 352 428
#     4  11  25  42  69 105 135 183 234 290 354 421
#     4  11  26  50  71 100 144 192 231 298 352 424
#     4   9  22  42  65  95 138 180 228 288 347 417
#
# _framework density 22.950046
#
# number of rings (size 3 to 8) (size 9 to 14) (size 15 to 20)
#    0.000    1.500    2.500    0.000    7.000    6.500 
#    0.000    0.000    0.000    0.000    0.000    0.000 
#    0.000    0.000    0.000    0.000    0.000    0.000 
#
# Total GULP energy -198296.986078 kJ/mol
# GULP energy per Si atom -12393.561630 kJ/mol
# Density = 2.289781 g / cm^3
# Si number density = 22.950046 Si / 1000 Ang^3
#
#
#
# Elastic Constant Matrix: (Units=GPa)
#
#
# Indices 1 2 3 4 5 6 
#
# 1 94.9079 31.2496 35.4506 8.0488 -7.0200 19.8196
# 2 31.2496 130.8457 42.7191 14.4519 -4.1972 22.5664
# 3 35.4506 42.7191 118.9930 12.4085 -8.9010 20.7211
# 4 8.0488 14.4519 12.4085 38.6004 0.8230 6.6652
# 5 -7.0200 -4.1972 -8.9010 0.8230 35.8359 5.2312
# 6 19.8196 22.5664 20.7211 6.6652 5.2312 34.9079
#
#
#
# Elastic Compliance Matrix: (Units=1/GPa)
#
#
# Indices 1 2 3 4 5 6 
#
# 1 0.013228 -0.001304 -0.002221 -0.000641 0.002724 -0.005635
# 2 -0.001304 0.009568 -0.002074 -0.001977 0.000977 -0.003983
# 3 -0.002221 -0.002074 0.010861 -0.001630 0.002631 -0.003929
# 4 -0.000641 -0.001977 -0.001630 0.027764 -0.001029 -0.002538
# 5 0.002724 0.000977 0.002631 -0.001029 0.030413 -0.008101
# 6 -0.005635 -0.003983 -0.003929 -0.002538 -0.008101 0.038451
#
#
# Mechanical properties :
#
#
# Convention : Reuss Voigt Hill
#
# Bulk Modulus (GPa) = 44.52486 62.62060 53.57273
# Shear Modulus (GPa) = 33.56426 37.55732 35.56079
#
# Velocity S-wave (km/s) = 3.82840 4.04973 3.94062
# Velocity P-wave (km/s) = 6.24381 7.01512 6.64067
#
# Compressibility (1/GPa) = 0.02245936
#
# Stress axis : x y z
#
# Youngs Moduli (GPa) = 75.59661 104.51968 92.07494
#
# Poissons Ratio (x) = 0.13631 0.20449
# Poissons Ratio (y) = 0.09859 0.19092
# Poissons Ratio (z) = 0.16789 0.21673
#
# Static dielectric constant tensor:
#      x y z
#    x 4.064890 0.312990 -0.252580 
#    y 0.312990 4.067510 0.267130 
#    z -0.252580 0.267130 4.437210 
# 
# 
# High freq. dielectric constant tensor:
#      x y z
#    x 1.906780 0.011120 -0.004690 
#    y 0.011120 1.907930 0.009610 
#    z -0.004690 0.009610 1.915750 
# 
# From -- ./inp_files/441998.got.cif
#   From: 2010.06.25/outbox.cif.g09.slc.cpg/sg2_221_cif.got.tgz:441998.got - 2010.06.27 13:26:56.
