data_PCOD8024406
_publ_section_title
;
Structure prediction by ZEFSAII (Michael W. Deem and Ramdas Pophale) SiO2 
 PCOD8024406
Probable space group: P -1
;
_chemical_formula_sum "Si O2"
_cell_formula_units_Z 16
_cell_length_a 4.894091
_cell_length_b 18.883274
_cell_length_c 14.665075
_cell_angle_alpha 150.007614
_cell_angle_beta 80.766448
_cell_angle_gamma 110.953091
_cell_volume 599.480790
_symmetry_space_group_name_H-M "P -1"
_symmetry_group_IT_number 2
_symmetry_cell_setting 'triclinic'
loop_
_space_group_symop_operation_xyz
x,y,z
-x,-y,-z
loop_
_atom_site_type_symbol
_atom_site_label
_atom_site_fract_x
_atom_site_fract_y
_atom_site_fract_z
Si Si1 0.146061 0.729766 0.088190
Si Si2 0.006552 0.999427 0.626827
Si Si3 0.710228 0.650875 0.536693
Si Si4 0.367369 0.820334 0.370625
Si Si5 0.125315 0.340592 0.265029
Si Si6 0.479779 0.826280 0.994411
Si Si7 0.651771 0.889635 0.697698
Si Si8 0.884286 0.379626 0.672106
O O1 0.307971 0.734573 0.181124
O O2 0.941210 0.825652 0.207408
O O3 0.419440 0.807299 0.084919
O O4 0.906966 0.552543 0.878733
O O5 0.711908 0.870617 0.443840
O O6 0.956750 0.976410 0.713881
O O7 0.304549 0.978211 0.551446
O O8 0.363916 0.515676 0.418108
O O9 0.918779 0.663640 0.628196
O O10 0.727410 0.826879 0.718550
O O11 0.831761 0.604087 0.387063
O O12 0.111505 0.699363 0.318956
O O13 0.223652 0.202644 0.076872
O O14 0.805492 0.306595 0.194990
O O15 0.521133 0.999503 0.154026
O O16 0.433279 0.726938 0.478919
#
# Coordination Sequence:
#
# PCOD8024406 Si02
#       8
#     2   2   2   2   2   2   2   2
#     4  11  23  42  70  96 136 176 220 271 326 394
#     4  10  23  43  66  98 133 175 221 268 324 391
#     4  11  24  44  71  94 138 173 219 275 340 384
#     4  11  23  44  67  99 133 175 220 268 330 391
#     4  11  27  45  71  98 129 178 225 274 327 400
#     4  11  26  46  68 101 133 172 231 269 327 391
#     4  10  24  42  69  95 139 177 213 279 330 391
#     4  11  23  45  64 102 136 175 219 273 334 393
#
# _framework density 26.689764
#
# number of rings (size 3 to 8) (size 9 to 14) (size 15 to 20)
#    0.000    1.250    2.500    1.875    3.500    6.000 
#    4.500    1.875    0.000    0.000    0.000    0.000 
#    0.000    0.000    0.000    0.000    0.000    0.000 
#
# Total GULP energy -198495.630133 kJ/mol
# GULP energy per Si atom -12405.976883 kJ/mol
# Density = 2.662902 g / cm^3
# Si number density = 26.689764 Si / 1000 Ang^3
#
#
#
# Elastic Constant Matrix: (Units=GPa)
#
#
# Indices 1 2 3 4 5 6 
#
# 1 57.9653 6.0747 -1.6628 -1.1947 -15.3309 4.0733
# 2 6.0747 149.6179 37.1360 -14.2718 2.6027 -9.8104
# 3 -1.6628 37.1360 111.7956 1.8645 -12.9119 11.2200
# 4 -1.1947 -14.2718 1.8645 28.7464 -7.5396 5.1544
# 5 -15.3309 2.6027 -12.9119 -7.5396 31.4519 1.1555
# 6 4.0733 -9.8104 11.2200 5.1544 1.1555 18.3407
#
#
#
# Elastic Compliance Matrix: (Units=1/GPa)
#
#
# Indices 1 2 3 4 5 6 
#
# 1 0.022217 -0.002285 0.003725 0.005205 0.014192 -0.010792
# 2 -0.002285 0.008495 -0.003964 0.002292 -0.003153 0.007030
# 3 0.003725 -0.003964 0.012365 0.001538 0.008009 -0.011449
# 4 0.005205 0.002292 0.001538 0.042022 0.013549 -0.013534
# 5 0.014192 -0.003153 0.008009 0.013549 0.046113 -0.016451
# 6 -0.010792 0.007030 -0.011449 -0.013534 -0.016451 0.072525
#
#
# Mechanical properties :
#
#
# Convention : Reuss Voigt Hill
#
# Bulk Modulus (GPa) = 26.29504 44.71940 35.50722
# Shear Modulus (GPa) = 22.57736 34.22986 28.40361
#
# Velocity S-wave (km/s) = 2.91162 3.58510 3.26577
# Velocity P-wave (km/s) = 4.60184 5.82485 5.24908
#
# Compressibility (1/GPa) = 0.03802998
#
# Stress axis : x y z
#
# Youngs Moduli (GPa) = 45.01053 117.72028 80.87132
#
# Poissons Ratio (x) = 0.26894 -0.30122
# Poissons Ratio (y) = 0.10283 0.32055
# Poissons Ratio (z) = -0.16765 0.46660
#
# Static dielectric constant tensor:
#      x y z
#    x 4.349920 -0.079550 -0.008200 
#    y -0.079550 5.454620 0.055810 
#    z -0.008200 0.055810 4.879330 
# 
# 
# High freq. dielectric constant tensor:
#      x y z
#    x 2.058200 -0.005260 0.003400 
#    y -0.005260 2.090680 0.000750 
#    z 0.003400 0.000750 2.075040 
# 
# From -- ./inp_files/123521.got.cif
#   From: 2010.06.25/outbox.cif.g09.slc.cpg/sg2_62_cif.got.tgz:123521.got - 2010.06.27 13:26:56.
