data_PCOD8024307
_publ_section_title
;
Structure prediction by ZEFSAII (Michael W. Deem and Ramdas Pophale) SiO2 
 PCOD8024307
Probable space group: P -1
;
_chemical_formula_sum "Si O2"
_cell_formula_units_Z 14
_cell_length_a 17.711918
_cell_length_b 9.778027
_cell_length_c 5.394128
_cell_angle_alpha 81.199154
_cell_angle_beta 103.904267
_cell_angle_gamma 135.783651
_cell_volume 632.135649
_symmetry_space_group_name_H-M "P -1"
_symmetry_group_IT_number 2
_symmetry_cell_setting 'triclinic'
loop_
_space_group_symop_operation_xyz
x,y,z
-x,-y,-z
loop_
_atom_site_type_symbol
_atom_site_label
_atom_site_fract_x
_atom_site_fract_y
_atom_site_fract_z
Si Si1 0.045817 0.227129 0.728570
Si Si2 0.913869 0.029050 0.181532
Si Si3 0.670874 0.128022 0.652407
Si Si4 0.126448 0.611856 0.582914
Si Si5 0.521524 0.612529 0.236774
Si Si6 0.269349 0.004656 0.879213
Si Si7 0.476113 0.851892 0.217437
O O1 0.110484 0.165072 0.763051
O O2 0.131709 0.462112 0.732658
O O3 0.962996 0.143320 0.452543
O O4 0.989977 0.159368 0.971913
O O5 0.800079 0.962392 0.051821
O O6 0.801399 0.298793 0.638376
O O7 0.627243 0.223868 0.680589
O O8 0.593486 0.983447 0.408399
O O9 0.653409 0.983558 0.876331
O O10 0.184258 0.788654 0.762957
O O11 0.000000 0.500000 0.500000
O O12 0.500000 0.500000 0.500000
O O13 0.447361 0.660645 0.152458
O O14 0.650242 0.817247 0.298180
O O15 0.500000 0.500000 0.000000
O O16 0.500000 0.000000 0.000000
#
# Coordination Sequence:
#
# PCOD8024307 Si02
#       7
#     2   2   2   2   2   2   2
#     4  10  23  43  65 101 138 199 242 295 356 443
#     4  10  23  44  68  93 149 189 241 297 367 437
#     4  11  24  42  77 104 148 192 256 309 383 433
#     4  12  24  41  73 108 147 191 253 299 372 440
#     4  12  28  48  75 109 147 193 251 314 390 451
#     4  12  25  45  70 107 146 195 244 312 374 445
#     4  11  23  49  76 102 144 197 251 321 372 450
#
# _framework density 22.147147
#
# number of rings (size 3 to 8) (size 9 to 14) (size 15 to 20)
#    0.000    0.857    4.286    1.714    4.000    2.286 
#    2.571    0.000    0.000    0.000    0.000    0.000 
#    0.000    0.000    0.000    0.000    0.000    0.000 
#
# Total GULP energy -173496.375563 kJ/mol
# GULP energy per Si atom -12392.598255 kJ/mol
# Density = 2.209674 g / cm^3
# Si number density = 22.147147 Si / 1000 Ang^3
#
#
#
# Elastic Constant Matrix: (Units=GPa)
#
#
# Indices 1 2 3 4 5 6 
#
# 1 160.4319 70.2411 37.6273 -2.8109 -2.6872 -16.1535
# 2 70.2411 132.3382 59.4066 -20.6705 2.7345 -14.2604
# 3 37.6273 59.4066 134.0248 -8.9461 3.4555 -13.5472
# 4 -2.8109 -20.6705 -8.9461 35.7545 -1.0931 3.1024
# 5 -2.6872 2.7345 3.4555 -1.0931 33.6360 -1.8882
# 6 -16.1535 -14.2604 -13.5472 3.1024 -1.8882 45.9981
#
#
#
# Elastic Compliance Matrix: (Units=1/GPa)
#
#
# Indices 1 2 3 4 5 6 
#
# 1 0.008432 -0.004481 -0.000385 -0.002133 0.001101 0.001648
# 2 -0.004481 0.012702 -0.003877 0.005929 -0.000755 0.000792
# 3 -0.000385 -0.003877 0.009444 -0.000051 -0.000608 0.001423
# 4 -0.002133 0.005929 -0.000051 0.031315 0.000313 -0.001025
# 5 0.001101 -0.000755 -0.000608 0.000313 0.030018 0.001185
# 6 0.001648 0.000792 0.001423 -0.001025 0.001185 0.023101
#
#
# Mechanical properties :
#
#
# Convention : Reuss Voigt Hill
#
# Bulk Modulus (GPa) = 76.38351 84.59388 80.48870
# Shear Modulus (GPa) = 36.53277 40.37904 38.45591
#
# Velocity S-wave (km/s) = 4.06587 4.27455 4.17151
# Velocity P-wave (km/s) = 7.52368 7.91464 7.72163
#
# Compressibility (1/GPa) = 0.01309183
#
# Stress axis : x y z
#
# Youngs Moduli (GPa) = 118.58921 78.72623 105.88684
#
# Poissons Ratio (x) = 0.35278 0.04081
# Poissons Ratio (y) = 0.53141 0.41052
# Poissons Ratio (z) = 0.04570 0.30522
#
# Static dielectric constant tensor:
#      x y z
#    x 4.595230 -0.276110 -0.118070 
#    y -0.276110 4.233620 -0.015750 
#    z -0.118070 -0.015750 3.865020 
# 
# 
# High freq. dielectric constant tensor:
#      x y z
#    x 1.895830 -0.020160 -0.009410 
#    y -0.020160 1.862160 -0.012660 
#    z -0.009410 -0.012660 1.871230 
# 
# From -- ./inp_files/106756.got.cif
#   From: 2010.06.25/outbox.cif.g09.slc.cpg/sg2_54_cif.got.tgz:106756.got - 2010.06.27 13:26:56.
