data_PCOD8024833
_publ_section_title
;
Structure prediction by ZEFSAII (Michael W. Deem and Ramdas Pophale) SiO2 
 PCOD8024833
Probable space group: P -1
;
_chemical_formula_sum "Si O2"
_cell_formula_units_Z 14
_cell_length_a 9.422567
_cell_length_b 16.361645
_cell_length_c 12.844002
_cell_angle_alpha 140.193435
_cell_angle_beta 34.262140
_cell_angle_gamma 146.989790
_cell_volume 588.805023
_symmetry_space_group_name_H-M "P -1"
_symmetry_group_IT_number 2
_symmetry_cell_setting 'triclinic'
loop_
_space_group_symop_operation_xyz
x,y,z
-x,-y,-z
loop_
_atom_site_type_symbol
_atom_site_label
_atom_site_fract_x
_atom_site_fract_y
_atom_site_fract_z
Si Si1 0.121978 0.739917 0.927240
Si Si2 0.003742 0.017744 0.754554
Si Si3 0.702589 0.784758 0.542993
Si Si4 0.443232 0.725153 0.425284
Si Si5 0.744882 0.848925 0.943450
Si Si6 0.061830 0.667697 0.125499
Si Si7 0.191303 0.388328 0.220485
O O1 0.402548 0.719842 0.733785
O O2 0.881897 0.631747 0.877466
O O3 0.986315 0.694034 0.080381
O O4 0.200794 0.913215 0.030897
O O5 0.364308 0.161680 0.678064
O O6 0.956743 0.947205 0.599206
O O7 0.911124 0.883660 0.764045
O O8 0.617496 0.815574 0.512645
O O9 0.823924 0.673265 0.351974
O O10 0.433199 0.569159 0.269239
O O11 0.101915 0.680609 0.593287
O O12 0.662603 0.698870 0.910568
O O13 0.405133 0.808756 0.090685
O O14 0.000000 0.000000 0.000000
O O15 0.000000 0.500000 0.000000
#
# Coordination Sequence:
#
# PCOD8024833 Si02
#       7
#     2   2   2   2   2   2   2
#     4  11  24  46  77 104 142 192 249 295 363 437
#     4  12  24  42  73 108 142 195 240 302 368 433
#     4  11  24  45  74 105 142 188 249 301 356 441
#     4  10  23  43  75 105 138 199 248 294 367 443
#     4  12  27  46  68 108 155 186 242 315 365 428
#     4  12  28  49  75 110 148 196 247 304 371 440
#     4  10  24  48  70 103 152 191 244 303 364 440
#
# _framework density 23.776972000000001
#
# number of rings (size 3 to 8) (size 9 to 14) (size 15 to 20)
#    0.000    0.857    4.286    1.714    2.000    2.857 
#    7.714    0.000    0.000    0.000    0.000    0.000 
#    0.000    0.000    0.000    0.000    0.000    0.000 
#
# Total GULP energy -173445.246625 kJ/mol
# GULP energy per Si atom -12388.946188 kJ/mol
# Density = 2.372285 g / cm^3
# Si number density = 23.776972 Si / 1000 Ang^3
#
#
#
# Elastic Constant Matrix: (Units=GPa)
#
#
# Indices 1 2 3 4 5 6 
#
# 1 99.9252 41.8192 28.8984 -2.8076 10.1599 8.0738
# 2 41.8192 70.9961 24.1219 0.5447 14.5064 12.1383
# 3 28.8984 24.1219 133.0452 10.7795 0.6921 16.5809
# 4 -2.8076 0.5447 10.7795 33.4101 5.5359 -3.9057
# 5 10.1599 14.5064 0.6921 5.5359 27.8677 -0.1347
# 6 8.0738 12.1383 16.5809 -3.9057 -0.1347 29.1703
#
#
#
# Elastic Compliance Matrix: (Units=1/GPa)
#
#
# Indices 1 2 3 4 5 6 
#
# 1 0.013778 -0.007243 -0.001926 0.002239 -0.001647 0.000587
# 2 -0.007243 0.021713 -0.001575 0.000270 -0.008706 -0.006139
# 3 -0.001926 -0.001575 0.009088 -0.003935 0.002056 -0.004495
# 4 0.002239 0.000270 -0.003935 0.033312 -0.007448 0.005930
# 5 -0.001647 -0.008706 0.002056 -0.007448 0.042455 0.002109
# 6 0.000587 -0.006139 -0.004495 0.005930 0.002109 0.040032
#
#
# Mechanical properties :
#
#
# Convention : Reuss Voigt Hill
#
# Bulk Modulus (GPa) = 43.30270 54.84951 49.07610
# Shear Modulus (GPa) = 26.37638 32.03141 29.20390
#
# Velocity S-wave (km/s) = 3.33427 3.67435 3.50843
# Velocity P-wave (km/s) = 5.75106 6.41245 6.09074
#
# Compressibility (1/GPa) = 0.02309325
#
# Stress axis : x y z
#
# Youngs Moduli (GPa) = 72.57717 46.05500 110.03124
#
# Poissons Ratio (x) = 0.33356 0.21188
# Poissons Ratio (y) = 0.52565 0.17331
# Poissons Ratio (z) = 0.13975 0.07254
#
# Static dielectric constant tensor:
#      x y z
#    x 4.329030 0.186770 0.034430 
#    y 0.186770 4.223520 -0.027320 
#    z 0.034430 -0.027320 4.515160 
# 
# 
# High freq. dielectric constant tensor:
#      x y z
#    x 1.938380 0.020960 0.004380 
#    y 0.020960 1.936430 -0.004690 
#    z 0.004380 -0.004690 1.946960 
# 
# From -- ./inp_files/396305.got.cif
#   From: 2010.06.25/outbox.cif.g09.slc.cpg/sg2_199_cif.got.tgz:396305.got - 2010.06.27 13:26:56.
