data_PCOD8024972
_publ_section_title
;
Structure prediction by ZEFSAII (Michael W. Deem and Ramdas Pophale) SiO2 
 PCOD8024972
Probable space group: P -1
;
_chemical_formula_sum "Si O2"
_cell_formula_units_Z 14
_cell_length_a 13.610444
_cell_length_b 12.407514
_cell_length_c 13.671054
_cell_angle_alpha 147.109096
_cell_angle_beta 31.309043
_cell_angle_gamma 128.566069
_cell_volume 614.273736
_symmetry_space_group_name_H-M "P -1"
_symmetry_group_IT_number 2
_symmetry_cell_setting 'triclinic'
loop_
_space_group_symop_operation_xyz
x,y,z
-x,-y,-z
loop_
_atom_site_type_symbol
_atom_site_label
_atom_site_fract_x
_atom_site_fract_y
_atom_site_fract_z
Si Si1 0.907126 0.924815 0.814215
Si Si2 0.145984 0.776252 0.675299
Si Si3 0.463173 0.827298 0.556725
Si Si4 0.261433 0.965086 0.431807
Si Si5 0.782489 0.622520 0.554220
Si Si6 0.953801 0.688880 0.257006
Si Si7 0.644932 0.354665 0.048204
O O1 0.066822 0.747527 0.612571
O O2 0.795294 0.811965 0.753714
O O3 0.045410 0.028746 0.715509
O O4 0.732568 0.111404 0.158682
O O5 0.368590 0.802694 0.511387
O O6 0.137483 0.591483 0.614112
O O7 0.000000 0.000000 0.000000
O O8 0.574949 0.999518 0.604706
O O9 0.625016 0.599284 0.264315
O O10 0.232821 0.117672 0.477534
O O11 0.339486 0.726641 0.140859
O O12 0.549979 0.678308 0.763293
O O13 0.909928 0.605396 0.335392
O O14 0.148524 0.766127 0.162737
O O15 0.000000 0.500000 0.000000
#
# Coordination Sequence:
#
# PCOD8024972 Si02
#       7
#     2   2   2   2   2   2   2
#     4  11  23  44  73  98 137 181 222 284 332 400
#     4   9  22  42  69 100 133 180 224 275 343 394
#     4  10  23  44  67 101 136 178 227 273 338 398
#     4  12  25  44  68 101 140 177 228 275 337 402
#     4  11  24  44  70  99 139 177 229 277 335 408
#     4  12  27  43  68 103 138 180 224 280 339 403
#     4  11  24  44  67  99 137 178 227 274 336 401
#
# _framework density 22.791143000000002
#
# number of rings (size 3 to 8) (size 9 to 14) (size 15 to 20)
#    0.000    1.143    4.286    0.857    6.000    2.857 
#    0.000    7.143    0.000    0.000    0.000    0.000 
#    0.000    0.000    0.000    0.000    0.000    0.000 
#
# Total GULP energy -173452.614260 kJ/mol
# GULP energy per Si atom -12389.472447 kJ/mol
# Density = 2.273927 g / cm^3
# Si number density = 22.791143 Si / 1000 Ang^3
#
#
#
# Elastic Constant Matrix: (Units=GPa)
#
#
# Indices 1 2 3 4 5 6 
#
# 1 104.5472 40.3048 20.5616 -5.6843 -2.3704 14.1405
# 2 40.3048 86.0037 29.1075 -4.5427 -0.6393 17.0371
# 3 20.5616 29.1075 101.1434 -2.0010 5.8514 5.7414
# 4 -5.6843 -4.5427 -2.0010 26.4935 8.5711 -5.8456
# 5 -2.3704 -0.6393 5.8514 8.5711 37.7710 1.0341
# 6 14.1405 17.0371 5.7414 -5.8456 1.0341 48.0465
#
#
#
# Elastic Compliance Matrix: (Units=1/GPa)
#
#
# Indices 1 2 3 4 5 6 
#
# 1 0.011921 -0.004902 -0.000938 0.001113 0.000600 -0.001536
# 2 -0.004902 0.015828 -0.003367 0.000428 0.000487 -0.003726
# 3 -0.000938 -0.003367 0.011164 0.000782 -0.002030 0.000275
# 4 0.001113 0.000428 0.000782 0.042338 -0.009782 0.004788
# 5 0.000600 0.000487 -0.002030 -0.009782 0.029108 -0.001923
# 6 -0.001536 -0.003726 0.000275 0.004788 -0.001923 0.023178
#
#
# Mechanical properties :
#
#
# Convention : Reuss Voigt Hill
#
# Bulk Modulus (GPa) = 48.78106 52.40468 50.59287
# Shear Modulus (GPa) = 31.48928 35.91023 33.69975
#
# Velocity S-wave (km/s) = 3.72108 3.97372 3.84947
# Velocity P-wave (km/s) = 6.31759 6.64058 6.48109
#
# Compressibility (1/GPa) = 0.02049976
#
# Stress axis : x y z
#
# Youngs Moduli (GPa) = 83.88462 63.17757 89.57381
#
# Poissons Ratio (x) = 0.30967 0.08405
# Poissons Ratio (y) = 0.41117 0.30158
# Poissons Ratio (z) = 0.07871 0.21271
#
# Static dielectric constant tensor:
#      x y z
#    x 5.118480 0.178740 -0.144780 
#    y 0.178740 4.014200 0.048990 
#    z -0.144780 0.048990 4.114540 
# 
# 
# High freq. dielectric constant tensor:
#      x y z
#    x 1.913910 0.037750 -0.002640 
#    y 0.037750 1.877700 0.007240 
#    z -0.002640 0.007240 1.902930 
# 
# From -- ./inp_files/534488.got.cif
#   From: 2010.06.25/outbox.cif.g09.slc.cpg/sg2_268_cif.got.tgz:534488.got - 2010.06.27 13:26:56.
