data_PCOD8024055
_publ_section_title
;
Structure prediction by ZEFSAII (Michael W. Deem and Ramdas Pophale) SiO2 
 PCOD8024055
Probable space group: P -1
;
_chemical_formula_sum "Si O2"
_cell_formula_units_Z 16
_cell_length_a 15.187638
_cell_length_b 8.953598
_cell_length_c 12.343023
_cell_angle_alpha 137.878906
_cell_angle_beta 107.512970
_cell_angle_gamma 47.958563
_cell_volume 768.746584
_symmetry_space_group_name_H-M "P -1"
_symmetry_group_IT_number 2
_symmetry_cell_setting 'triclinic'
loop_
_space_group_symop_operation_xyz
x,y,z
-x,-y,-z
loop_
_atom_site_type_symbol
_atom_site_label
_atom_site_fract_x
_atom_site_fract_y
_atom_site_fract_z
Si Si1 0.485651 0.801996 0.456811
Si Si2 0.198967 0.252972 0.647311
Si Si3 0.287924 0.401188 0.451546
Si Si4 0.827154 0.095531 0.716830
Si Si5 0.007153 0.435385 0.093384
Si Si6 0.869763 0.337822 0.672667
Si Si7 0.407805 0.720260 0.181032
Si Si8 0.075635 0.820990 0.772464
O O1 0.602611 0.599759 0.477538
O O2 0.489465 0.600266 0.259184
O O3 0.500000 0.000000 0.500000
O O4 0.352724 0.010998 0.587522
O O5 0.134987 0.294436 0.760409
O O6 0.145740 0.582981 0.769805
O O7 0.157887 0.147314 0.482888
O O8 0.250040 0.496154 0.363519
O O9 0.159652 0.670638 0.614640
O O10 0.335545 0.072744 0.318431
O O11 0.824708 0.319524 0.762030
O O12 0.697437 0.296557 0.848759
O O13 0.942421 0.920400 0.750789
O O14 0.105596 0.440326 0.189004
O O15 0.000000 0.500000 0.000000
O O16 0.058016 0.103396 0.955575
O O17 0.000000 0.000000 0.500000
O O18 0.500000 0.500000 0.000000
#
# Coordination Sequence:
#
# PCOD8024055 Si02
#       8
#     2   2   2   2   2   2   2   2
#     4   9  19  41  64  90 129 166 215 263 319 386
#     4  11  22  40  67  95 130 173 216 267 326 391
#     4  11  22  42  67  93 131 173 222 262 328 392
#     4  11  22  41  69  94 135 168 221 260 336 390
#     4  12  25  41  61 100 137 169 213 271 338 383
#     4  12  23  43  67  92 134 179 208 268 334 397
#     4  10  23  42  69  98 130 171 217 278 320 380
#     4  12  22  38  67 102 130 162 216 284 322 390
#
# _framework density 20.813101
#
# number of rings (size 3 to 8) (size 9 to 14) (size 15 to 20)
#    0.000    1.000    7.500    0.750    1.750    3.000 
#    0.000    3.125    0.000    0.000    0.000    0.000 
#    0.000    0.000    0.000    0.000    0.000    0.000 
#
# Total GULP energy -198399.713375 kJ/mol
# GULP energy per Si atom -12399.982086 kJ/mol
# Density = 2.076573 g / cm^3
# Si number density = 20.813101 Si / 1000 Ang^3
#
#
#
# Elastic Constant Matrix: (Units=GPa)
#
#
# Indices 1 2 3 4 5 6 
#
# 1 149.9998 41.8869 66.2198 -4.1721 -17.6117 -20.7383
# 2 41.8869 84.1278 24.9644 -21.3543 -1.0737 -26.6679
# 3 66.2198 24.9644 112.3736 -1.1653 -10.7107 -14.7852
# 4 -4.1721 -21.3543 -1.1653 22.8511 8.9453 6.2578
# 5 -17.6117 -1.0737 -10.7107 8.9453 44.9369 -7.9697
# 6 -20.7383 -26.6679 -14.7852 6.2578 -7.9697 37.1163
#
#
#
# Elastic Compliance Matrix: (Units=1/GPa)
#
#
# Indices 1 2 3 4 5 6 
#
# 1 0.010643 -0.004162 -0.004598 -0.004695 0.004419 0.002865
# 2 -0.004162 0.021863 -0.001372 0.018534 -0.003537 0.008952
# 3 -0.004598 -0.001372 0.012392 -0.002960 0.002123 0.002337
# 4 -0.004695 0.018534 -0.002960 0.068106 -0.016643 -0.005542
# 5 0.004419 -0.003537 0.002123 -0.016643 0.029477 0.009908
# 6 0.002865 0.008952 0.002337 -0.005542 0.009908 0.038968
#
#
# Mechanical properties :
#
#
# Convention : Reuss Voigt Hill
#
# Bulk Modulus (GPa) = 40.59119 68.07149 54.33134
# Shear Modulus (GPa) = 23.81820 35.20956 29.51388
#
# Velocity S-wave (km/s) = 3.38655 4.11749 3.76978
# Velocity P-wave (km/s) = 5.90226 7.44191 6.71635
#
# Compressibility (1/GPa) = 0.02463589
#
# Stress axis : x y z
#
# Youngs Moduli (GPa) = 93.95957 45.73911 80.69727
#
# Poissons Ratio (x) = 0.19036 0.37102
# Poissons Ratio (y) = 0.39104 0.11069
# Poissons Ratio (z) = 0.43199 0.06274
#
# Static dielectric constant tensor:
#      x y z
#    x 4.290280 -0.220050 0.169290 
#    y -0.220050 3.805770 -0.294950 
#    z 0.169290 -0.294950 4.109170 
# 
# 
# High freq. dielectric constant tensor:
#      x y z
#    x 1.828700 -0.005020 0.002710 
#    y -0.005020 1.795590 -0.015220 
#    z 0.002710 -0.015220 1.809280 
# 
# From -- ./inp_files/271747.got.cif
#   From: 2010.06.25/outbox.cif.g09.slc.cpg/sg2_136_cif.got.tgz:271747.got - 2010.06.27 13:26:56.
