data_PCOD8024316
_publ_section_title
;
Structure prediction by ZEFSAII (Michael W. Deem and Ramdas Pophale) SiO2 
 PCOD8024316
Probable space group: P -1
;
_chemical_formula_sum "Si O2"
_cell_formula_units_Z 10
_cell_length_a 11.508035
_cell_length_b 12.551054
_cell_length_c 8.100231
_cell_angle_alpha 49.336061
_cell_angle_beta 65.672604
_cell_angle_gamma 31.953505
_cell_volume 439.787309
_symmetry_space_group_name_H-M "P -1"
_symmetry_group_IT_number 2
_symmetry_cell_setting 'triclinic'
loop_
_space_group_symop_operation_xyz
x,y,z
-x,-y,-z
loop_
_atom_site_type_symbol
_atom_site_label
_atom_site_fract_x
_atom_site_fract_y
_atom_site_fract_z
Si Si1 0.606381 0.612608 0.481614
Si Si2 0.417955 0.316071 0.958021
Si Si3 0.867778 0.917241 0.304682
Si Si4 0.363671 0.075824 0.344010
Si Si5 0.228209 0.769821 0.707145
O O1 0.449771 0.634775 0.625170
O O2 0.871831 0.336200 0.662304
O O3 0.532543 0.832937 0.369043
O O4 0.582382 0.629137 0.282566
O O5 0.280996 0.293165 0.077045
O O6 0.686205 0.048875 0.132319
O O7 0.284747 0.552137 0.913944
O O8 0.846515 0.829870 0.563368
O O9 0.815548 0.122749 0.195376
O O10 0.500000 0.000000 0.500000
O O11 0.000000 0.000000 0.500000
#
# Coordination Sequence:
#
# PCOD8024316 Si02
#       5
#     2   2   2   2   2
#     4  11  23  43  63  92 127 160 210 255 303 367
#     4  11  22  41  66  94 123 166 205 250 314 360
#     4  10  23  43  65  91 128 162 203 257 304 370
#     4   9  22  43  62  94 127 159 206 254 307 370
#     4  11  23  44  62  90 131 162 205 259 303 366
#
# _framework density 22.738265999999999
#
# number of rings (size 3 to 8) (size 9 to 14) (size 15 to 20)
#    0.000    1.600    2.000    1.800    0.000    4.800 
#   14.400    0.000    0.000    0.000    0.000    0.000 
#    0.000    0.000    0.000    0.000    0.000    0.000 
#
# Total GULP energy -124015.153865 kJ/mol
# GULP energy per Si atom -12401.515386 kJ/mol
# Density = 2.268651 g / cm^3
# Si number density = 22.738266 Si / 1000 Ang^3
#
#
#
# Elastic Constant Matrix: (Units=GPa)
#
#
# Indices 1 2 3 4 5 6 
#
# 1 88.0471 37.6357 25.4213 -25.4849 -16.0731 6.5368
# 2 37.6357 76.3225 16.7908 -28.3825 -18.9212 -8.9162
# 3 25.4213 16.7908 81.8077 -25.9418 -14.4620 -8.8747
# 4 -25.4849 -28.3825 -25.9418 26.0412 12.5002 8.7850
# 5 -16.0731 -18.9212 -14.4620 12.5002 52.2127 -14.3471
# 6 6.5368 -8.9162 -8.8747 8.7850 -14.3471 43.3894
#
#
#
# Elastic Compliance Matrix: (Units=1/GPa)
#
#
# Indices 1 2 3 4 5 6 
#
# 1 0.018255 -0.004355 -0.000998 0.015764 -0.002138 -0.007748
# 2 -0.004355 0.024713 0.005221 0.024964 0.003921 0.003044
# 3 -0.000998 0.005221 0.019008 0.022378 0.001816 0.001181
# 4 0.015764 0.024964 0.022378 0.116893 -0.013613 -0.020836
# 5 -0.002138 0.003921 0.001816 -0.013613 0.027330 0.013292
# 6 -0.007748 0.003044 0.001181 -0.020836 0.013292 0.033695
#
#
# Mechanical properties :
#
#
# Convention : Reuss Voigt Hill
#
# Bulk Modulus (GPa) = 16.20481 45.09698 30.65089
# Shear Modulus (GPa) = 19.17696 35.41728 27.29712
#
# Velocity S-wave (km/s) = 2.90725 3.95093 3.46857
# Velocity P-wave (km/s) = 4.29087 6.37882 5.43603
#
# Compressibility (1/GPa) = 0.06171009
#
# Stress axis : x y z
#
# Youngs Moduli (GPa) = 54.77878 40.46534 52.60939
#
# Poissons Ratio (x) = 0.17624 0.05253
# Poissons Ratio (y) = 0.23857 -0.27467
# Poissons Ratio (z) = 0.05470 -0.21126
#
# Static dielectric constant tensor:
#      x y z
#    x 4.752790 0.096220 -0.671170 
#    y 0.096220 4.100110 -0.066400 
#    z -0.671170 -0.066400 4.409950 
# 
# 
# High freq. dielectric constant tensor:
#      x y z
#    x 1.911750 0.009070 -0.009420 
#    y 0.009070 1.888150 -0.004760 
#    z -0.009420 -0.004760 1.894200 
# 
# From -- ./inp_files/15108.got.cif
#   From: 2010.06.25/outbox.cif.g09.slc.cpg/sg2_8_cif.got.tgz:15108.got - 2010.06.27 13:26:56.
