data_PCOD8024176
_publ_section_title
;
Structure prediction by ZEFSAII (Michael W. Deem and Ramdas Pophale) SiO2 
 PCOD8024176
Probable space group: P -1
;
_chemical_formula_sum "Si O2"
_cell_formula_units_Z 14
_cell_length_a 14.734675
_cell_length_b 8.630473
_cell_length_c 7.622631
_cell_angle_alpha 97.129189
_cell_angle_beta 132.917171
_cell_angle_gamma 61.120769
_cell_volume 589.067975
_symmetry_space_group_name_H-M "P -1"
_symmetry_group_IT_number 2
_symmetry_cell_setting 'triclinic'
loop_
_space_group_symop_operation_xyz
x,y,z
-x,-y,-z
loop_
_atom_site_type_symbol
_atom_site_label
_atom_site_fract_x
_atom_site_fract_y
_atom_site_fract_z
Si Si1 0.525349 0.551947 0.734414
Si Si2 0.112935 0.196860 0.491158
Si Si3 0.770394 0.363927 0.599926
Si Si4 0.418805 0.953448 0.739788
Si Si5 0.074014 0.193548 0.823471
Si Si6 0.787612 0.706392 0.679407
Si Si7 0.176841 0.790986 0.974333
O O1 0.500000 0.500000 0.500000
O O2 0.390987 0.575412 0.681302
O O3 0.521098 0.743458 0.771290
O O4 0.689354 0.384066 0.982584
O O5 0.106855 0.257400 0.692559
O O6 0.117483 0.344164 0.386554
O O7 0.977486 0.177303 0.276244
O O8 0.265031 0.993271 0.627564
O O9 0.756570 0.551978 0.671500
O O10 0.901926 0.257370 0.617012
O O11 0.804866 0.232119 0.795039
O O12 0.370714 0.096722 0.531028
O O13 0.500000 0.000000 0.000000
O O14 0.178353 0.970625 0.947969
O O15 0.109979 0.289021 0.037166
#
# Coordination Sequence:
#
# PCOD8024176 Si02
#       7
#     2   2   2   2   2   2   2
#     4  10  23  42  72 103 139 189 238 284 356 422
#     4  10  25  43  70 102 139 177 246 281 358 410
#     4  11  22  43  70 101 141 186 235 287 356 416
#     4  10  23  48  70 100 147 182 229 297 352 416
#     4  12  23  43  74 100 139 192 232 292 356 418
#     4  10  24  44  70 100 142 182 236 293 347 422
#     4  11  23  43  68 105 138 180 243 293 342 427
#
# _framework density 23.766358
#
# number of rings (size 3 to 8) (size 9 to 14) (size 15 to 20)
#    0.857    0.571    1.429    3.857    0.000    5.143 
#    0.000    6.429    0.000    0.000    0.000    0.000 
#    0.000    0.000    0.000    0.000    0.000    0.000 
#
# Total GULP energy -173510.922002 kJ/mol
# GULP energy per Si atom -12393.637286 kJ/mol
# Density = 2.371226 g / cm^3
# Si number density = 23.766358 Si / 1000 Ang^3
#
#
#
# Elastic Constant Matrix: (Units=GPa)
#
#
# Indices 1 2 3 4 5 6 
#
# 1 68.6712 12.5934 38.6072 -7.4931 -7.5286 -11.3904
# 2 12.5934 103.8740 25.9314 1.6682 18.6312 -21.4055
# 3 38.6072 25.9314 93.0082 -3.2338 11.2795 -5.8980
# 4 -7.4931 1.6682 -3.2338 26.2731 -8.5154 9.6318
# 5 -7.5286 18.6312 11.2795 -8.5154 40.5164 -1.4364
# 6 -11.3904 -21.4055 -5.8980 9.6318 -1.4364 37.8084
#
#
#
# Elastic Compliance Matrix: (Units=1/GPa)
#
#
# Indices 1 2 3 4 5 6 
#
# 1 0.022517 -0.001482 -0.009606 0.007220 0.009162 0.002955
# 2 -0.001482 0.013377 -0.001975 -0.006830 -0.007018 0.008292
# 3 -0.009606 -0.001975 0.015839 -0.002083 -0.005768 -0.001230
# 4 0.007220 -0.006830 -0.002083 0.050451 0.015159 -0.014293
# 5 0.009162 -0.007018 -0.005768 0.015159 0.034237 -0.004674
# 6 0.002955 0.008292 -0.001230 -0.014293 -0.004674 0.035306
#
#
# Mechanical properties :
#
#
# Convention : Reuss Voigt Hill
#
# Bulk Modulus (GPa) = 39.05256 46.64638 42.84947
# Shear Modulus (GPa) = 24.22608 33.48100 28.85354
#
# Velocity S-wave (km/s) = 3.19618 3.75741 3.48810
# Velocity P-wave (km/s) = 5.48528 6.20434 5.85586
#
# Compressibility (1/GPa) = 0.02560652
#
# Stress axis : x y z
#
# Youngs Moduli (GPa) = 44.41101 74.75467 63.13579
#
# Poissons Ratio (x) = 0.11080 0.60649
# Poissons Ratio (y) = 0.06583 0.12468
# Poissons Ratio (z) = 0.42662 0.14763
#
# Static dielectric constant tensor:
#      x y z
#    x 4.351170 -0.211710 0.248750 
#    y -0.211710 4.287320 -0.365480 
#    z 0.248750 -0.365480 4.356110 
# 
# 
# High freq. dielectric constant tensor:
#      x y z
#    x 1.930460 -0.006070 0.014360 
#    y -0.006070 1.942490 -0.010520 
#    z 0.014360 -0.010520 1.937610 
# 
# From -- ./inp_files/293088.got.cif
#   From: 2010.06.25/outbox.cif.g09.slc.cpg/sg2_147_cif.got.tgz:293088.got - 2010.06.27 13:26:56.
