data_PCOD8024824
_publ_section_title
;
Structure prediction by ZEFSAII (Michael W. Deem and Ramdas Pophale) SiO2 
 PCOD8024824
Probable space group: P -1
;
_chemical_formula_sum "Si O2"
_cell_formula_units_Z 14
_cell_length_a 23.431078
_cell_length_b 14.023358
_cell_length_c 5.388680
_cell_angle_alpha 82.034344
_cell_angle_beta 89.990924
_cell_angle_gamma 19.704459
_cell_volume 544.361912
_symmetry_space_group_name_H-M "P -1"
_symmetry_group_IT_number 2
_symmetry_cell_setting 'triclinic'
loop_
_space_group_symop_operation_xyz
x,y,z
-x,-y,-z
loop_
_atom_site_type_symbol
_atom_site_label
_atom_site_fract_x
_atom_site_fract_y
_atom_site_fract_z
Si Si1 0.125105 0.845894 0.257693
Si Si2 0.101982 0.639476 0.673756
Si Si3 0.579555 0.572733 0.919654
Si Si4 0.984247 0.722738 0.140505
Si Si5 0.601460 0.702379 0.246462
Si Si6 0.394948 0.734369 0.214537
Si Si7 0.707160 0.909763 0.646416
O O1 0.260939 0.708928 0.179087
O O2 0.260181 0.544397 0.442240
O O3 0.012283 0.077074 0.397407
O O4 0.000000 0.000000 0.000000
O O5 0.042790 0.691104 0.391375
O O6 0.325098 0.306001 0.809501
O O7 0.053499 0.652424 0.903400
O O8 0.388478 0.915100 0.677867
O O9 0.650953 0.548374 0.086021
O O10 0.547148 0.527427 0.093400
O O11 0.084772 0.457882 0.268199
O O12 0.764785 0.064053 0.007965
O O13 0.394851 0.015523 0.232292
O O14 0.500000 0.500000 0.500000
O O15 0.297968 0.982928 0.242954
#
# Coordination Sequence:
#
# PCOD8024824 Si02
#       7
#     2   2   2   2   2   2   2
#     4  11  22  42  73 110 155 201 252 317 389 447
#     4  12  28  45  74 118 161 200 259 312 381 467
#     4  10  24  45  79 105 153 200 261 313 394 445
#     4  12  31  49  77 114 161 208 256 314 387 465
#     4  10  23  43  74 111 151 203 254 317 384 453
#     4  11  28  50  80 115 149 198 267 330 384 456
#     4  10  26  51  77 108 151 212 255 316 388 464
#
# _framework density 25.718184000000001
#
# number of rings (size 3 to 8) (size 9 to 14) (size 15 to 20)
#    0.000    1.143    1.429    1.714   16.000    2.286 
#    0.000    0.714    0.000    0.000    0.000    0.000 
#    0.000    0.000    0.000    0.000    0.000    0.000 
#
# Total GULP energy -173502.009222 kJ/mol
# GULP energy per Si atom -12393.000659 kJ/mol
# Density = 2.565965 g / cm^3
# Si number density = 25.718184 Si / 1000 Ang^3
#
#
#
# Elastic Constant Matrix: (Units=GPa)
#
#
# Indices 1 2 3 4 5 6 
#
# 1 106.6581 21.3803 33.0590 3.2728 15.9352 -17.0774
# 2 21.3803 87.4198 35.0702 -3.5810 15.4382 -0.3303
# 3 33.0590 35.0702 108.9919 2.2745 17.8664 -18.8264
# 4 3.2728 -3.5810 2.2745 33.2030 -13.1610 -7.9513
# 5 15.9352 15.4382 17.8664 -13.1610 33.0366 0.2713
# 6 -17.0774 -0.3303 -18.8264 -7.9513 0.2713 35.1333
#
#
#
# Elastic Compliance Matrix: (Units=1/GPa)
#
#
# Indices 1 2 3 4 5 6 
#
# 1 0.011640 -0.001454 -0.001423 -0.002150 -0.005059 0.004434
# 2 -0.001454 0.014013 -0.003904 -0.000230 -0.003806 -0.002690
# 3 -0.001423 -0.003904 0.012733 -0.001824 -0.005149 0.005722
# 4 -0.002150 -0.000230 -0.001824 0.039009 0.017617 0.006668
# 5 -0.005059 -0.003806 -0.005149 0.017617 0.044304 -0.001609
# 6 0.004434 -0.002690 0.005722 0.006668 -0.001609 0.035181
#
#
# Mechanical properties :
#
#
# Convention : Reuss Voigt Hill
#
# Bulk Modulus (GPa) = 40.28197 53.56542 46.92370
# Shear Modulus (GPa) = 27.97721 34.51193 31.24457
#
# Velocity S-wave (km/s) = 3.30182 3.66721 3.48930
# Velocity P-wave (km/s) = 5.49844 6.22931 5.87525
#
# Compressibility (1/GPa) = 0.02482500
#
# Stress axis : x y z
#
# Youngs Moduli (GPa) = 85.91124 71.36080 78.53496
#
# Poissons Ratio (x) = 0.10376 0.11173
# Poissons Ratio (y) = 0.12492 0.30660
# Poissons Ratio (z) = 0.12222 0.27859
#
# Static dielectric constant tensor:
#      x y z
#    x 4.897490 -0.321600 -0.100020 
#    y -0.321600 4.767700 0.037120 
#    z -0.100020 0.037120 4.797280 
# 
# 
# High freq. dielectric constant tensor:
#      x y z
#    x 2.031740 -0.013910 0.001250 
#    y -0.013910 2.028910 0.002280 
#    z 0.001250 0.002280 2.041550 
# 
# From -- ./inp_files/124185.got.cif
#   From: 2010.06.25/outbox.cif.g09.slc.cpg/sg2_63_cif.got.tgz:124185.got - 2010.06.27 13:26:56.
