data_PCOD8024638
_publ_section_title
;
Structure prediction by ZEFSAII (Michael W. Deem and Ramdas Pophale) SiO2 
 PCOD8024638
Probable space group: P -1
;
_chemical_formula_sum "Si O2"
_cell_formula_units_Z 16
_cell_length_a 17.485173
_cell_length_b 11.768746
_cell_length_c 9.474662
_cell_angle_alpha 84.364922
_cell_angle_beta 136.249571
_cell_angle_gamma 130.767395
_cell_volume 715.811231
_symmetry_space_group_name_H-M "P -1"
_symmetry_group_IT_number 2
_symmetry_cell_setting 'triclinic'
loop_
_space_group_symop_operation_xyz
x,y,z
-x,-y,-z
loop_
_atom_site_type_symbol
_atom_site_label
_atom_site_fract_x
_atom_site_fract_y
_atom_site_fract_z
Si Si1 0.141717 0.189678 0.275288
Si Si2 0.167938 0.818986 0.726656
Si Si3 0.295665 0.547803 0.284032
Si Si4 0.413205 0.817244 0.646318
Si Si5 0.012634 0.123583 0.411846
Si Si6 0.721692 0.443386 0.241175
Si Si7 0.420832 0.230189 0.622453
Si Si8 0.143821 0.788933 0.368311
O O1 0.225006 0.383331 0.309776
O O2 0.994721 0.078846 0.228551
O O3 0.338663 0.280670 0.562054
O O4 0.000000 0.000000 0.000000
O O5 0.207413 0.845519 0.609833
O O6 0.357705 0.926396 0.053386
O O7 0.170975 0.954231 0.767720
O O8 0.941718 0.567632 0.493539
O O9 0.395285 0.737161 0.484023
O O10 0.468301 0.653682 0.393419
O O11 0.102613 0.428913 0.952872
O O12 0.387420 0.704412 0.751508
O O13 0.240935 0.764260 0.424575
O O14 0.231501 0.380984 0.694959
O O15 0.000000 0.000000 0.500000
O O16 0.576658 0.305654 0.929543
O O17 0.227484 0.975288 0.378899
#
# Coordination Sequence:
#
# PCOD8024638 Si02
#       8
#     2   2   2   2   2   2   2   2
#     4  12  26  44  71  99 142 179 225 288 345 414
#     4  10  23  44  68 103 138 171 235 284 335 403
#     4  12  26  49  67 104 142 182 230 282 350 414
#     4  12  26  44  74 101 137 187 232 287 340 403
#     4  10  23  43  69  99 138 174 223 289 335 400
#     4  10  24  44  67 102 133 180 228 282 341 406
#     4  12  26  43  73 100 137 188 228 276 357 409
#     4  12  25  46  71 103 142 179 235 288 336 408
#
# _framework density 22.352262
#
# number of rings (size 3 to 8) (size 9 to 14) (size 15 to 20)
#    0.750    0.000    5.000    1.875    3.500    4.500 
#    0.000    0.000    0.000    0.000    0.000    0.000 
#    0.000    0.000    0.000    0.000    0.000    0.000 
#
# Total GULP energy -198393.995603 kJ/mol
# GULP energy per Si atom -12399.624725 kJ/mol
# Density = 2.230139 g / cm^3
# Si number density = 22.352262 Si / 1000 Ang^3
#
#
#
# Elastic Constant Matrix: (Units=GPa)
#
#
# Indices 1 2 3 4 5 6 
#
# 1 93.1738 -3.1498 15.4071 -4.8861 -7.5397 -3.9149
# 2 -3.1498 24.5758 1.7457 -1.4620 -8.9227 3.4263
# 3 15.4071 1.7457 98.1217 14.8026 0.6734 1.4271
# 4 -4.8861 -1.4620 14.8026 23.9407 3.2787 5.3163
# 5 -7.5397 -8.9227 0.6734 3.2787 37.3723 -5.2895
# 6 -3.9149 3.4263 1.4271 5.3163 -5.2895 29.3066
#
#
#
# Elastic Compliance Matrix: (Units=1/GPa)
#
#
# Indices 1 2 3 4 5 6 
#
# 1 0.011698 0.002765 -0.002434 0.003373 0.002949 0.001278
# 2 0.002765 0.045790 -0.001851 0.003859 0.010666 -0.003669
# 3 -0.002434 -0.001851 0.011809 -0.008022 -0.000341 0.000710
# 4 0.003373 0.003859 -0.008022 0.050303 -0.004005 -0.009458
# 5 0.002949 0.010666 -0.000341 -0.004005 0.031034 0.005491
# 6 0.001278 -0.003669 0.000710 -0.009458 0.005491 0.037394
#
#
# Mechanical properties :
#
#
# Convention : Reuss Voigt Hill
#
# Bulk Modulus (GPa) = 15.09255 27.09747 21.09501
# Shear Modulus (GPa) = 23.45749 31.58181 27.51965
#
# Velocity S-wave (km/s) = 3.24303 3.76295 3.51262
# Velocity P-wave (km/s) = 4.55958 5.57037 5.09013
#
# Compressibility (1/GPa) = 0.06625784
#
# Stress axis : x y z
#
# Youngs Moduli (GPa) = 85.48613 21.83887 84.68326
#
# Poissons Ratio (x) = -0.06039 0.20610
# Poissons Ratio (y) = -0.23640 0.15674
# Poissons Ratio (z) = 0.20805 0.04042
#
# Static dielectric constant tensor:
#      x y z
#    x 4.118690 0.006570 0.075400 
#    y 0.006570 3.897070 0.151810 
#    z 0.075400 0.151810 4.044290 
# 
# 
# High freq. dielectric constant tensor:
#      x y z
#    x 1.890100 0.002400 0.001710 
#    y 0.002400 1.873290 0.006360 
#    z 0.001710 0.006360 1.880500 
# 
# From -- ./inp_files/333312.got.cif
#   From: 2010.06.25/outbox.cif.g09.slc.cpg/sg2_167_cif.got.tgz:333312.got - 2010.06.27 13:26:56.
