data_PCOD8024241
_publ_section_title
;
Structure prediction by ZEFSAII (Michael W. Deem and Ramdas Pophale) SiO2 
 PCOD8024241
Probable space group: P -1
;
_chemical_formula_sum "Si O2"
_cell_formula_units_Z 14
_cell_length_a 8.844496
_cell_length_b 21.505087
_cell_length_c 10.077581
_cell_angle_alpha 43.373426
_cell_angle_beta 135.244277
_cell_angle_gamma 149.038195
_cell_volume 656.461513
_symmetry_space_group_name_H-M "P -1"
_symmetry_group_IT_number 2
_symmetry_cell_setting 'triclinic'
loop_
_space_group_symop_operation_xyz
x,y,z
-x,-y,-z
loop_
_atom_site_type_symbol
_atom_site_label
_atom_site_fract_x
_atom_site_fract_y
_atom_site_fract_z
Si Si1 0.700043 0.463060 0.330483
Si Si2 0.677557 0.657988 0.960581
Si Si3 0.401484 0.378769 0.555758
Si Si4 0.836173 0.086633 0.026013
Si Si5 0.692569 0.917536 0.735568
Si Si6 0.660510 0.364722 0.975248
Si Si7 0.216171 0.882889 0.349823
O O1 0.525222 0.363212 0.254309
O O2 0.486469 0.404820 0.414753
O O3 0.000000 0.500000 0.500000
O O4 0.775384 0.582859 0.128191
O O5 0.526129 0.625891 0.058919
O O6 0.982492 0.806186 0.914361
O O7 0.500000 0.500000 0.500000
O O8 0.042510 0.253059 0.527749
O O9 0.574621 0.351966 0.787024
O O10 0.989710 0.032236 0.194748
O O11 0.865736 0.143501 0.814299
O O12 0.500000 0.000000 0.000000
O O13 0.434276 0.766968 0.848289
O O14 0.541342 0.932468 0.501269
O O15 0.773253 0.009160 0.764260
O O16 0.000000 0.500000 0.000000
#
# Coordination Sequence:
#
# PCOD8024241 Si02
#       7
#     2   2   2   2   2   2   2
#     4  11  24  42  64  98 137 173 218 278 339 397
#     4  10  23  43  61  97 135 169 224 270 332 406
#     4  12  22  40  69  97 131 178 222 274 336 394
#     4  11  24  44  68  92 137 181 223 278 339 403
#     4  10  24  42  68  98 132 174 229 280 334 398
#     4  11  21  40  69  97 131 173 218 277 334 398
#     4  11  23  44  67  99 136 170 233 285 324 408
#
# _framework density 21.326460000000001
#
# number of rings (size 3 to 8) (size 9 to 14) (size 15 to 20)
#    0.000    1.143    4.286    2.143    0.000    7.429 
#    2.571    0.000    0.000    0.000    0.000    0.000 
#    0.000    0.000    0.000    0.000    0.000    0.000 
#
# Total GULP energy -173492.470295 kJ/mol
# GULP energy per Si atom -12392.319307 kJ/mol
# Density = 2.127792 g / cm^3
# Si number density = 21.326460 Si / 1000 Ang^3
#
#
#
# Elastic Constant Matrix: (Units=GPa)
#
#
# Indices 1 2 3 4 5 6 
#
# 1 96.5180 62.0666 51.1114 0.8587 9.5934 13.1693
# 2 62.0666 150.8860 35.9088 7.3087 8.6269 1.7024
# 3 51.1114 35.9088 115.2275 26.8412 10.5099 -3.2334
# 4 0.8587 7.3087 26.8412 40.2702 -2.3589 2.9920
# 5 9.5934 8.6269 10.5099 -2.3589 38.3203 7.5858
# 6 13.1693 1.7024 -3.2334 2.9920 7.5858 38.9759
#
#
#
# Elastic Compliance Matrix: (Units=1/GPa)
#
#
# Indices 1 2 3 4 5 6 
#
# 1 0.020243 -0.006509 -0.008980 0.007386 0.000907 -0.008044
# 2 -0.006509 0.009295 0.000691 -0.002250 -0.001239 0.002264
# 3 -0.008980 0.000691 0.015531 -0.010961 -0.004013 0.005915
# 4 0.007386 -0.002250 -0.010961 0.033193 0.005061 -0.006840
# 5 0.000907 -0.001239 -0.004013 0.005061 0.028865 -0.006592
# 6 -0.008044 0.002264 0.005915 -0.006840 -0.006592 0.030575
#
#
# Mechanical properties :
#
#
# Convention : Reuss Voigt Hill
#
# Bulk Modulus (GPa) = 64.62271 73.42279 69.02275
# Shear Modulus (GPa) = 28.99309 37.74961 33.37135
#
# Velocity S-wave (km/s) = 3.69112 4.21180 3.96003
# Velocity P-wave (km/s) = 6.96659 7.62595 7.30371
#
# Compressibility (1/GPa) = 0.01547444
#
# Stress axis : x y z
#
# Youngs Moduli (GPa) = 49.39917 107.58831 64.38561
#
# Poissons Ratio (x) = 0.70027 0.57817
# Poissons Ratio (y) = 0.32153 -0.04450
# Poissons Ratio (z) = 0.44360 -0.07436
#
# Static dielectric constant tensor:
#      x y z
#    x 3.805780 0.193440 0.034080 
#    y 0.193440 3.282970 -0.067100 
#    z 0.034080 -0.067100 3.966180 
# 
# 
# High freq. dielectric constant tensor:
#      x y z
#    x 1.822090 -0.006710 0.005860 
#    y -0.006710 1.850730 0.016290 
#    z 0.005860 0.016290 1.844990 
# 
# From -- ./inp_files/223283.got.cif
#   From: 2010.06.25/outbox.cif.g09.slc.cpg/sg2_112_cif.got.tgz:223283.got - 2010.06.27 13:26:56.
