data_PCOD8024511
_publ_section_title
;
Structure prediction by ZEFSAII (Michael W. Deem and Ramdas Pophale) SiO2 
 PCOD8024511
Probable space group: P -1
;
_chemical_formula_sum "Si O2"
_cell_formula_units_Z 14
_cell_length_a 15.498723
_cell_length_b 12.586398
_cell_length_c 9.578737
_cell_angle_alpha 47.113351
_cell_angle_beta 52.395729
_cell_angle_gamma 26.220766
_cell_volume 604.907132
_symmetry_space_group_name_H-M "P -1"
_symmetry_group_IT_number 2
_symmetry_cell_setting 'triclinic'
loop_
_space_group_symop_operation_xyz
x,y,z
-x,-y,-z
loop_
_atom_site_type_symbol
_atom_site_label
_atom_site_fract_x
_atom_site_fract_y
_atom_site_fract_z
Si Si1 0.138446 0.508388 0.653346
Si Si2 0.413335 0.671364 0.295963
Si Si3 0.980236 0.195327 0.222945
Si Si4 0.891495 0.529335 0.805431
Si Si5 0.467947 0.946074 0.943415
Si Si6 0.237535 0.740443 0.848329
Si Si7 0.917739 0.307737 0.735380
O O1 0.201784 0.526212 0.436453
O O2 0.113968 0.649613 0.676271
O O3 0.934446 0.650614 0.688914
O O4 0.292926 0.210517 0.793337
O O5 0.500000 0.500000 0.500000
O O6 0.533378 0.481232 0.210802
O O7 0.184231 0.884900 0.321038
O O8 0.425954 0.831214 0.140490
O O9 0.838916 0.241871 0.239096
O O10 0.011501 0.304428 0.002823
O O11 0.663154 0.741487 0.842477
O O12 0.964437 0.401459 0.693786
O O13 0.500000 0.000000 0.000000
O O14 0.211954 0.658710 0.075022
O O15 0.127269 0.009585 0.753423
#
# Coordination Sequence:
#
# PCOD8024511 Si02
#       7
#     2   2   2   2   2   2   2
#     4  12  23  40  69 101 129 169 223 265 332 387
#     4  12  24  40  66  98 127 168 221 270 324 387
#     4  11  22  41  69  94 126 173 211 278 325 373
#     4  11  22  43  64  95 135 169 215 269 329 383
#     4  12  23  41  66  99 135 166 215 281 327 380
#     4  10  23  48  63  92 139 169 218 269 325 386
#     4  10  23  43  68  92 134 182 209 265 327 398
#
# _framework density 23.144048999999999
#
# number of rings (size 3 to 8) (size 9 to 14) (size 15 to 20)
#    0.000    0.857    5.714    2.571    0.000    4.000 
#    0.000    7.857    0.000    0.000    0.000    0.000 
#    0.000    0.000    0.000    0.000    0.000    0.000 
#
# Total GULP energy -173563.170709 kJ/mol
# GULP energy per Si atom -12397.369336 kJ/mol
# Density = 2.309137 g / cm^3
# Si number density = 23.144049 Si / 1000 Ang^3
#
#
#
# Elastic Constant Matrix: (Units=GPa)
#
#
# Indices 1 2 3 4 5 6 
#
# 1 77.9148 26.3074 25.7018 7.3935 11.9114 22.9559
# 2 26.3074 138.8840 59.7795 -12.7397 15.6234 14.7760
# 3 25.7018 59.7795 145.5266 -4.4392 24.8379 2.5425
# 4 7.3935 -12.7397 -4.4392 24.2817 8.3690 15.4050
# 5 11.9114 15.6234 24.8379 8.3690 32.5019 3.5872
# 6 22.9559 14.7760 2.5425 15.4050 3.5872 40.7912
#
#
#
# Elastic Compliance Matrix: (Units=1/GPa)
#
#
# Indices 1 2 3 4 5 6 
#
# 1 0.016889 -0.000952 -0.001777 0.001088 -0.003646 -0.009139
# 2 -0.000952 0.011141 -0.003075 0.011958 -0.004920 -0.007391
# 3 -0.001777 -0.003075 0.009450 0.001753 -0.005695 0.001363
# 4 0.001088 0.011958 0.001753 0.075523 -0.023455 -0.031512
# 5 -0.003646 -0.004920 -0.005695 -0.023455 0.043845 0.009191
# 6 -0.009139 -0.007391 0.001363 -0.031512 0.009191 0.043343
#
#
# Mechanical properties :
#
#
# Convention : Reuss Voigt Hill
#
# Bulk Modulus (GPa) = 38.65077 65.10031 51.87554
# Shear Modulus (GPa) = 22.68375 36.21739 29.45057
#
# Velocity S-wave (km/s) = 3.13407 3.96013 3.57107
# Velocity P-wave (km/s) = 5.46195 7.00711 6.28222
#
# Compressibility (1/GPa) = 0.02587271
#
# Stress axis : x y z
#
# Youngs Moduli (GPa) = 59.21091 89.76053 105.82084
#
# Poissons Ratio (x) = 0.08547 0.18800
# Poissons Ratio (y) = 0.05638 0.32536
# Poissons Ratio (z) = 0.10519 0.27598
#
# Static dielectric constant tensor:
#      x y z
#    x 3.926850 0.317410 0.033710 
#    y 0.317410 3.666310 0.018550 
#    z 0.033710 0.018550 4.303310 
# 
# 
# High freq. dielectric constant tensor:
#      x y z
#    x 1.896810 0.015200 -0.001610 
#    y 0.015200 1.920040 -0.002760 
#    z -0.001610 -0.002760 1.926360 
# 
# From -- ./inp_files/257843.got.cif
#   From: 2010.06.25/outbox.cif.g09.slc.cpg/sg2_129_cif.got.tgz:257843.got - 2010.06.27 13:26:56.
