data_PCOD8024780
_publ_section_title
;
Structure prediction by ZEFSAII (Michael W. Deem and Ramdas Pophale) SiO2 
 PCOD8024780
Probable space group: P -1
;
_chemical_formula_sum "Si O2"
_cell_formula_units_Z 16
_cell_length_a 15.300684
_cell_length_b 14.320941
_cell_length_c 15.155653
_cell_angle_alpha 151.283799
_cell_angle_beta 27.444480
_cell_angle_gamma 143.668491
_cell_volume 729.788538
_symmetry_space_group_name_H-M "P -1"
_symmetry_group_IT_number 2
_symmetry_cell_setting 'triclinic'
loop_
_space_group_symop_operation_xyz
x,y,z
-x,-y,-z
loop_
_atom_site_type_symbol
_atom_site_label
_atom_site_fract_x
_atom_site_fract_y
_atom_site_fract_z
Si Si1 0.658237 0.888803 0.568189
Si Si2 0.004607 0.695607 0.567333
Si Si3 0.930506 0.472873 0.282634
Si Si4 0.329050 0.557687 0.261116
Si Si5 0.473126 0.624873 0.377057
Si Si6 0.389847 0.830973 0.902562
Si Si7 0.955698 0.095259 0.844273
Si Si8 0.737681 0.314345 0.925888
O O1 0.548862 0.833821 0.527853
O O2 0.547444 0.751480 0.630493
O O3 0.875502 0.845356 0.328526
O O4 0.652150 0.114628 0.788171
O O5 0.205294 0.713821 0.455182
O O6 0.017751 0.519660 0.340018
O O7 0.818825 0.638196 0.748065
O O8 0.981528 0.892081 0.698680
O O9 0.703625 0.486412 0.500155
O O10 0.034687 0.632914 0.252823
O O11 0.964193 0.254072 0.045531
O O12 0.413825 0.662737 0.361415
O O13 0.500000 0.500000 0.000000
O O14 0.638732 0.486383 0.112707
O O15 0.238240 0.919053 0.048657
O O16 0.290621 0.677516 0.935725
O O17 0.500000 0.000000 0.000000
#
# Coordination Sequence:
#
# PCOD8024780 Si02
#       8
#     2   2   2   2   2   2   2   2
#     4  11  24  43  67 100 136 178 230 270 341 397
#     4  10  24  45  69  99 133 179 215 279 342 394
#     4  11  23  42  70  97 134 180 227 269 338 395
#     4  10  23  43  73 100 132 172 228 272 337 407
#     4  11  24  43  70  97 135 175 224 282 329 404
#     4  10  26  42  65 104 134 179 236 270 332 403
#     4  12  24  44  69  97 140 176 222 283 332 399
#     4  11  24  43  67  96 136 181 224 280 333 389
#
# _framework density 21.924157999999998
#
# number of rings (size 3 to 8) (size 9 to 14) (size 15 to 20)
#    0.000    1.250    3.750    0.750    7.000    4.000 
#    0.000    7.500    0.000    0.000    0.000    0.000 
#    0.000    0.000    0.000    0.000    0.000    0.000 
#
# Total GULP energy -198292.090135 kJ/mol
# GULP energy per Si atom -12393.255633 kJ/mol
# Density = 2.187426 g / cm^3
# Si number density = 21.924158 Si / 1000 Ang^3
#
#
#
# Elastic Constant Matrix: (Units=GPa)
#
#
# Indices 1 2 3 4 5 6 
#
# 1 118.0918 48.2476 52.2986 10.3760 10.2475 8.7415
# 2 48.2476 97.3134 50.5588 -24.6038 9.7075 5.7230
# 3 52.2986 50.5588 110.2473 -18.9073 20.8190 4.6805
# 4 10.3760 -24.6038 -18.9073 50.9204 0.6562 7.8844
# 5 10.2475 9.7075 20.8190 0.6562 33.3145 1.7241
# 6 8.7415 5.7230 4.6805 7.8844 1.7241 29.5776
#
#
#
# Elastic Compliance Matrix: (Units=1/GPa)
#
#
# Indices 1 2 3 4 5 6 
#
# 1 0.013973 -0.006259 -0.005287 -0.007840 0.000987 -0.000050
# 2 -0.006259 0.017682 -0.003184 0.009186 -0.001240 -0.003444
# 3 -0.005287 -0.003184 0.015388 0.005549 -0.007103 -0.001321
# 4 -0.007840 0.009186 0.005549 0.028999 -0.003898 -0.007841
# 5 0.000987 -0.001240 -0.007103 -0.003898 0.034586 0.000096
# 6 -0.000050 -0.003444 -0.001321 -0.007841 0.000096 0.036784
#
#
# Mechanical properties :
#
#
# Convention : Reuss Voigt Hill
#
# Bulk Modulus (GPa) = 56.87157 69.76250 63.31704
# Shear Modulus (GPa) = 27.36227 34.39900 30.88063
#
# Velocity S-wave (km/s) = 3.53660 3.96536 3.75710
# Velocity P-wave (km/s) = 6.53247 7.27010 6.91113
#
# Compressibility (1/GPa) = 0.01758348
#
# Stress axis : x y z
#
# Youngs Moduli (GPa) = 71.56470 56.55420 64.98617
#
# Poissons Ratio (x) = 0.35395 0.34359
# Poissons Ratio (y) = 0.44789 0.20693
# Poissons Ratio (z) = 0.37837 0.18008
#
# Static dielectric constant tensor:
#      x y z
#    x 4.159330 0.033690 0.431280 
#    y 0.033690 4.252610 -0.520630 
#    z 0.431280 -0.520630 4.236600 
# 
# 
# High freq. dielectric constant tensor:
#      x y z
#    x 1.856480 0.016300 0.020140 
#    y 0.016300 1.863010 -0.032790 
#    z 0.020140 -0.032790 1.864730 
# 
# From -- ./inp_files/534520.got.cif
#   From: 2010.06.25/outbox.cif.g09.slc.cpg/sg2_268_cif.got.tgz:534520.got - 2010.06.27 13:26:56.
