data_PCOD8024855
_publ_section_title
;
Structure prediction by ZEFSAII (Michael W. Deem and Ramdas Pophale) SiO2 
 PCOD8024855
Probable space group: P -1
;
_chemical_formula_sum "Si O2"
_cell_formula_units_Z 14
_cell_length_a 9.160825
_cell_length_b 24.922176
_cell_length_c 11.900050
_cell_angle_alpha 26.351993
_cell_angle_beta 127.190792
_cell_angle_gamma 145.397509
_cell_volume 581.585537
_symmetry_space_group_name_H-M "P -1"
_symmetry_group_IT_number 2
_symmetry_cell_setting 'triclinic'
loop_
_space_group_symop_operation_xyz
x,y,z
-x,-y,-z
loop_
_atom_site_type_symbol
_atom_site_label
_atom_site_fract_x
_atom_site_fract_y
_atom_site_fract_z
Si Si1 0.570473 0.180347 0.170323
Si Si2 0.935443 0.705872 0.868706
Si Si3 0.461102 0.828670 0.386056
Si Si4 0.290460 0.078266 0.451124
Si Si5 0.347210 0.289350 0.449556
Si Si6 0.019391 0.264318 0.756248
Si Si7 0.401198 0.296686 0.718453
O O1 0.466019 0.210331 0.170139
O O2 0.938525 0.360285 0.988981
O O3 0.500000 0.000000 0.500000
O O4 0.441671 0.179248 0.000486
O O5 0.933103 0.803109 0.580421
O O6 0.609686 0.527015 0.110326
O O7 0.166660 0.877868 0.747472
O O8 0.460076 0.773953 0.613370
O O9 0.533288 0.773029 0.426166
O O10 0.131615 0.713880 0.434225
O O11 0.743960 0.071771 0.065947
O O12 0.000000 0.000000 0.500000
O O13 0.271288 0.229682 0.656836
O O14 0.150261 0.226256 0.811921
O O15 0.282158 0.463859 0.578536
#
# Coordination Sequence:
#
# PCOD8024855 Si02
#       7
#     2   2   2   2   2   2   2
#     4  10  24  41  67  96 129 177 223 270 327 397
#     4  10  23  44  62 104 132 176 224 265 348 391
#     4  11  23  42  66 102 128 176 225 275 336 393
#     4  11  21  41  67  91 136 176 218 274 329 400
#     4  11  24  41  71  97 136 174 221 282 326 407
#     4  10  25  43  67 101 133 174 224 277 339 397
#     4  11  24  47  69  96 138 179 223 276 337 399
#
# _framework density 24.072127999999999
#
# number of rings (size 3 to 8) (size 9 to 14) (size 15 to 20)
#    0.000    1.429    1.429    2.571    4.000    8.571 
#    0.000    1.429    0.000    0.000    0.000    0.000 
#    0.000    0.000    0.000    0.000    0.000    0.000 
#
# Total GULP energy -173439.205799 kJ/mol
# GULP energy per Si atom -12388.514700 kJ/mol
# Density = 2.401734 g / cm^3
# Si number density = 24.072128 Si / 1000 Ang^3
#
#
#
# Elastic Constant Matrix: (Units=GPa)
#
#
# Indices 1 2 3 4 5 6 
#
# 1 135.1106 47.4153 7.9080 22.5040 3.2481 15.1159
# 2 47.4153 114.0209 1.0461 34.4411 6.4360 -2.1075
# 3 7.9080 1.0461 50.6277 19.7118 4.6319 -6.4752
# 4 22.5040 34.4411 19.7118 42.9281 3.9949 2.5745
# 5 3.2481 6.4360 4.6319 3.9949 32.6121 8.9303
# 6 15.1159 -2.1075 -6.4752 2.5745 8.9303 45.0081
#
#
#
# Elastic Compliance Matrix: (Units=1/GPa)
#
#
# Indices 1 2 3 4 5 6 
#
# 1 0.009352 -0.003659 -0.001512 -0.001159 0.001159 -0.003693
# 2 -0.003659 0.014094 0.005714 -0.011986 -0.002845 0.003961
# 3 -0.001512 0.005714 0.027525 -0.016390 -0.004687 0.006603
# 4 -0.001159 -0.011986 -0.016390 0.041244 0.001158 -0.005119
# 5 0.001159 -0.002845 -0.004687 0.001158 0.033816 -0.007973
# 6 -0.003693 0.003961 0.006603 -0.005119 -0.007973 0.026469
#
#
# Mechanical properties :
#
#
# Convention : Reuss Voigt Hill
#
# Bulk Modulus (GPa) = 19.21007 45.83312 32.52160
# Shear Modulus (GPa) = 29.62677 40.33565 34.98121
#
# Velocity S-wave (km/s) = 3.51201 4.09787 3.81620
# Velocity P-wave (km/s) = 4.94400 6.43982 5.74084
#
# Compressibility (1/GPa) = 0.05205602
#
# Stress axis : x y z
#
# Youngs Moduli (GPa) = 106.92566 70.95442 36.33074
#
# Poissons Ratio (x) = 0.25961 0.05494
# Poissons Ratio (y) = 0.39122 -0.20758
# Poissons Ratio (z) = 0.16170 -0.40541
#
# Static dielectric constant tensor:
#      x y z
#    x 5.330180 0.217230 -0.467010 
#    y 0.217230 4.633570 -0.016480 
#    z -0.467010 -0.016480 4.437520 
# 
# 
# High freq. dielectric constant tensor:
#      x y z
#    x 1.962060 0.016800 -0.008700 
#    y 0.016800 1.954860 -0.000530 
#    z -0.008700 -0.000530 1.950690 
# 
# From -- ./inp_files/406556.got.cif
#   From: 2010.06.25/outbox.cif.g09.slc.cpg/sg2_204_cif.got.tgz:406556.got - 2010.06.27 13:26:56.
