data_PCOD8024054
_publ_section_title
;
Structure prediction by ZEFSAII (Michael W. Deem and Ramdas Pophale) SiO2 
 PCOD8024054
Probable space group: P -1
;
_chemical_formula_sum "Si O2"
_cell_formula_units_Z 16
_cell_length_a 10.541480
_cell_length_b 9.334372
_cell_length_c 8.075746
_cell_angle_alpha 78.342684
_cell_angle_beta 106.993292
_cell_angle_gamma 106.477267
_cell_volume 722.555990
_symmetry_space_group_name_H-M "P -1"
_symmetry_group_IT_number 2
_symmetry_cell_setting 'triclinic'
loop_
_space_group_symop_operation_xyz
x,y,z
-x,-y,-z
loop_
_atom_site_type_symbol
_atom_site_label
_atom_site_fract_x
_atom_site_fract_y
_atom_site_fract_z
Si Si1 0.353298 0.907724 0.602344
Si Si2 0.428543 0.910000 0.150687
Si Si3 0.182700 0.442226 0.475015
Si Si4 0.271960 0.198730 0.388368
Si Si5 0.185785 0.768692 0.885726
Si Si6 0.435595 0.687806 0.449203
Si Si7 0.073233 0.455846 0.788056
Si Si8 0.948044 0.837984 0.939420
O O1 0.268280 0.816794 0.739905
O O2 0.347548 0.795611 0.474539
O O3 0.515039 0.975053 0.700499
O O4 0.277398 0.037364 0.499503
O O5 0.472002 0.755295 0.259685
O O6 0.268633 0.849172 0.061230
O O7 0.500000 0.000000 0.000000
O O8 0.177286 0.271130 0.458679
O O9 0.336898 0.523784 0.457035
O O10 0.165132 0.454095 0.661422
O O11 0.071531 0.510044 0.321368
O O12 0.424394 0.306652 0.401020
O O13 0.204536 0.179779 0.184670
O O14 0.151773 0.585145 0.916017
O O15 0.045857 0.822631 0.825706
O O16 0.047479 0.292598 0.897529
O O17 0.000000 0.000000 0.000000
#
# Coordination Sequence:
#
# PCOD8024054 Si02
#       8
#     2   2   2   2   2   2   2   2
#     4  10  23  42  69  98 128 178 221 272 318 392
#     4   9  20  36  65  97 128 163 215 264 321 379
#     4  11  24  44  70  94 128 179 222 273 319 394
#     4  11  25  42  65  97 136 167 223 266 327 390
#     4  11  22  44  69  94 129 176 220 266 334 389
#     4  11  22  43  69  94 131 176 225 264 328 388
#     4  11  25  47  66  96 131 172 228 265 332 394
#     4  12  29  42  66 100 134 170 212 281 337 391
#
# _framework density 22.143612999999998
#
# number of rings (size 3 to 8) (size 9 to 14) (size 15 to 20)
#    0.000    1.250    2.500    3.000    8.750    0.500 
#    0.000    0.625    0.000    0.000    0.000    0.000 
#    0.000    0.000    0.000    0.000    0.000    0.000 
#
# Total GULP energy -198220.791827 kJ/mol
# GULP energy per Si atom -12388.799489 kJ/mol
# Density = 2.209321 g / cm^3
# Si number density = 22.143613 Si / 1000 Ang^3
#
#
#
# Elastic Constant Matrix: (Units=GPa)
#
#
# Indices 1 2 3 4 5 6 
#
# 1 87.2693 42.0362 41.0237 -6.3969 11.8783 12.2924
# 2 42.0362 141.7034 49.9785 -8.3738 4.8791 -6.4537
# 3 41.0237 49.9785 96.4891 -0.7318 19.3842 2.9018
# 4 -6.3969 -8.3738 -0.7318 28.9470 3.7290 1.3133
# 5 11.8783 4.8791 19.3842 3.7290 32.0075 1.7874
# 6 12.2924 -6.4537 2.9018 1.3133 1.7874 37.1423
#
#
#
# Elastic Compliance Matrix: (Units=1/GPa)
#
#
# Indices 1 2 3 4 5 6 
#
# 1 0.016638 -0.003285 -0.004582 0.003250 -0.002960 -0.005692
# 2 -0.003285 0.009617 -0.004032 0.001583 0.001847 0.002928
# 3 -0.004582 -0.004032 0.015836 -0.000852 -0.007174 -0.000046
# 4 0.003250 0.001583 -0.000852 0.036435 -0.005077 -0.001778
# 5 -0.002960 0.001847 -0.007174 -0.005077 0.036981 0.000261
# 6 -0.005692 0.002928 -0.000046 -0.001778 0.000261 0.029370
#
#
# Mechanical properties :
#
#
# Convention : Reuss Voigt Hill
#
# Bulk Modulus (GPa) = 54.66273 65.72652 60.19462
# Shear Modulus (GPa) = 28.60876 32.44759 30.52817
#
# Velocity S-wave (km/s) = 3.59829 3.83211 3.71704
# Velocity P-wave (km/s) = 6.48095 7.02328 6.75756
#
# Compressibility (1/GPa) = 0.01829400
#
# Stress axis : x y z
#
# Youngs Moduli (GPa) = 60.10463 103.98554 63.14589
#
# Poissons Ratio (x) = 0.34157 0.28933
# Poissons Ratio (y) = 0.19743 0.25458
# Poissons Ratio (z) = 0.27540 0.41924
#
# Static dielectric constant tensor:
#      x y z
#    x 4.038080 0.246770 0.124020 
#    y 0.246770 4.207760 0.165240 
#    z 0.124020 0.165240 4.119850 
# 
# 
# High freq. dielectric constant tensor:
#      x y z
#    x 1.866710 0.016060 0.005100 
#    y 0.016060 1.885420 0.006030 
#    z 0.005100 0.006030 1.867270 
# 
# From -- ./inp_files/237883.got.cif
#   From: 2010.06.25/outbox.cif.g09.slc.cpg/sg2_119_cif.got.tgz:237883.got - 2010.06.27 13:26:56.
