data_PCOD8024368
_publ_section_title
;
Structure prediction by ZEFSAII (Michael W. Deem and Ramdas Pophale) SiO2 
 PCOD8024368
Probable space group: P -1
;
_chemical_formula_sum "Si O2"
_cell_formula_units_Z 16
_cell_length_a 13.022173
_cell_length_b 26.162061
_cell_length_c 13.463590
_cell_angle_alpha 17.999449
_cell_angle_beta 32.639007
_cell_angle_gamma 33.968243
_cell_volume 753.215118
_symmetry_space_group_name_H-M "P -1"
_symmetry_group_IT_number 2
_symmetry_cell_setting 'triclinic'
loop_
_space_group_symop_operation_xyz
x,y,z
-x,-y,-z
loop_
_atom_site_type_symbol
_atom_site_label
_atom_site_fract_x
_atom_site_fract_y
_atom_site_fract_z
Si Si1 0.613926 0.168563 0.852645
Si Si2 0.944676 0.029574 0.378749
Si Si3 0.796553 0.773253 0.836197
Si Si4 0.057421 0.430940 0.265906
Si Si5 0.609227 0.392794 0.261532
Si Si6 0.999396 0.175019 0.621098
Si Si7 0.769585 0.835391 0.242084
Si Si8 0.383949 0.702470 0.781013
O O1 0.549756 0.252992 0.641941
O O2 0.785438 0.245849 0.622296
O O3 0.433645 0.191908 0.030649
O O4 0.691712 0.971444 0.138176
O O5 0.754436 0.172602 0.265482
O O6 0.898861 0.861834 0.675982
O O7 0.000000 0.000000 0.500000
O O8 0.131209 0.082785 0.078922
O O9 0.850202 0.851942 0.542953
O O10 0.867907 0.573483 0.156849
O O11 0.064605 0.306748 0.583619
O O12 0.061380 0.320435 0.368215
O O13 0.247314 0.516154 0.958808
O O14 0.707682 0.310863 0.230153
O O15 0.419964 0.524272 0.138774
O O16 0.000000 0.000000 0.000000
O O17 0.589795 0.758638 0.489381
#
# Coordination Sequence:
#
# PCOD8024368 Si02
#       8
#     2   2   2   2   2   2   2   2
#     4  12  24  43  67 101 132 177 221 277 334 397
#     4  12  24  40  68  99 137 182 227 266 335 401
#     4  12  26  42  68 103 133 172 229 274 332 406
#     4  11  23  47  70  94 135 177 220 285 332 391
#     4  10  23  44  68  96 144 170 228 276 333 392
#     4  12  25  49  71  94 135 178 223 283 336 392
#     4  11  23  43  69  97 137 178 221 272 338 392
#     4  10  23  43  66 101 134 186 218 276 329 399
#
# _framework density 21.242270000000001
#
# number of rings (size 3 to 8) (size 9 to 14) (size 15 to 20)
#    0.000    0.750    5.000    1.875    3.500    2.000 
#    0.000    2.500    0.000    0.000    0.000    0.000 
#    0.000    0.000    0.000    0.000    0.000    0.000 
#
# Total GULP energy -198426.453932 kJ/mol
# GULP energy per Si atom -12401.653371 kJ/mol
# Density = 2.119392 g / cm^3
# Si number density = 21.242270 Si / 1000 Ang^3
#
#
#
# Elastic Constant Matrix: (Units=GPa)
#
#
# Indices 1 2 3 4 5 6 
#
# 1 110.3829 41.5210 36.2292 3.8244 -4.6356 15.9270
# 2 41.5210 140.2308 56.6531 6.1090 6.0355 4.6001
# 3 36.2292 56.6531 91.9956 -3.2897 8.2728 0.7952
# 4 3.8244 6.1090 -3.2897 39.1016 2.7640 -8.3710
# 5 -4.6356 6.0355 8.2728 2.7640 35.3499 -9.2387
# 6 15.9270 4.6001 0.7952 -8.3710 -9.2387 31.9279
#
#
#
# Elastic Compliance Matrix: (Units=1/GPa)
#
#
# Indices 1 2 3 4 5 6 
#
# 1 0.011967 -0.001767 -0.003794 -0.002574 0.001422 -0.005884
# 2 -0.001767 0.010028 -0.005469 -0.002054 -0.000817 -0.001202
# 3 -0.003794 -0.005469 0.016099 0.003278 -0.002994 0.002273
# 4 -0.002574 -0.002054 0.003278 0.028340 -0.000689 0.008729
# 5 0.001422 -0.000817 -0.002994 -0.000689 0.031575 0.008439
# 6 -0.005884 -0.001202 0.002273 0.008729 0.008439 0.039103
#
#
# Mechanical properties :
#
#
# Convention : Reuss Voigt Hill
#
# Bulk Modulus (GPa) = 62.36603 67.93509 65.15056
# Shear Modulus (GPa) = 30.39220 35.15628 32.77424
#
# Velocity S-wave (km/s) = 3.78662 4.07260 3.93221
# Velocity P-wave (km/s) = 6.96714 7.35971 7.16611
#
# Compressibility (1/GPa) = 0.01603437
#
# Stress axis : x y z
#
# Youngs Moduli (GPa) = 83.56316 99.72259 62.11556
#
# Poissons Ratio (x) = 0.17617 0.23566
# Poissons Ratio (y) = 0.14763 0.33972
# Poissons Ratio (z) = 0.31703 0.54540
#
# Static dielectric constant tensor:
#      x y z
#    x 3.958830 -0.022640 0.094230 
#    y -0.022640 4.077600 -0.346040 
#    z 0.094230 -0.346040 4.060230 
# 
# 
# High freq. dielectric constant tensor:
#      x y z
#    x 1.841290 0.003050 0.002990 
#    y 0.003050 1.825000 -0.016690 
#    z 0.002990 -0.016690 1.840010 
# 
# From -- ./inp_files/274102.got.cif
#   From: 2010.06.25/outbox.cif.g09.slc.cpg/sg2_138_cif.got.tgz:274102.got - 2010.06.27 13:26:56.
