data_PCOD8024804
_publ_section_title
;
Structure prediction by ZEFSAII (Michael W. Deem and Ramdas Pophale) SiO2 
 PCOD8024804
Probable space group: P -1
;
_chemical_formula_sum "Si O2"
_cell_formula_units_Z 16
_cell_length_a 12.541069
_cell_length_b 8.878819
_cell_length_c 17.755838
_cell_angle_alpha 99.421904
_cell_angle_beta 156.398132
_cell_angle_gamma 92.897645
_cell_volume 672.748144
_symmetry_space_group_name_H-M "P -1"
_symmetry_group_IT_number 2
_symmetry_cell_setting 'triclinic'
loop_
_space_group_symop_operation_xyz
x,y,z
-x,-y,-z
loop_
_atom_site_type_symbol
_atom_site_label
_atom_site_fract_x
_atom_site_fract_y
_atom_site_fract_z
Si Si1 0.899336 0.647550 0.191932
Si Si2 0.295820 0.763619 0.173311
Si Si3 0.242784 0.432584 0.737696
Si Si4 0.179665 0.879756 0.951536
Si Si5 0.273121 0.480536 0.417345
Si Si6 0.252305 0.016603 0.387642
Si Si7 0.346127 0.431934 0.181003
Si Si8 0.644820 0.262197 0.250245
O O1 0.849956 0.656577 0.249027
O O2 0.209994 0.641693 0.379919
O O3 0.589341 0.475858 0.943575
O O4 0.955799 0.825531 0.202015
O O5 0.599124 0.878794 0.429901
O O6 0.306019 0.592134 0.134475
O O7 0.281387 0.877419 0.103124
O O8 0.994725 0.715802 0.024581
O O9 0.283387 0.631593 0.774025
O O10 0.979625 0.302302 0.499498
O O11 0.071892 0.693126 0.825787
O O12 0.867193 0.889022 0.739489
O O13 0.452851 0.050198 0.099769
O O14 0.500000 0.500000 0.500000
O O15 0.422519 0.484256 0.593087
O O16 0.500000 0.000000 0.500000
O O17 0.482781 0.341878 0.206949
#
# Coordination Sequence:
#
# PCOD8024804 Si02
#       8
#     2   2   2   2   2   2   2   2
#     4  11  24  44  71 101 133 190 231 281 351 421
#     4  11  26  40  66 103 145 183 224 289 352 421
#     4  10  23  43  73  93 133 181 248 282 336 415
#     4  12  25  43  67 103 143 175 235 290 347 419
#     4  12  24  44  70 104 143 186 224 286 362 424
#     4  12  25  42  69 106 144 180 230 292 353 417
#     4  11  24  43  66  99 143 185 232 276 353 427
#     4  11  23  44  70  97 128 187 237 292 341 406
#
# _framework density 23.783047
#
# number of rings (size 3 to 8) (size 9 to 14) (size 15 to 20)
#    0.000    0.750    5.000    2.250    1.750    1.000 
#    0.000    1.250   11.000    0.000    0.000    0.000 
#    0.000    0.000    0.000    0.000    0.000    0.000 
#
# Total GULP energy -198215.303761 kJ/mol
# GULP energy per Si atom -12388.456485 kJ/mol
# Density = 2.372892 g / cm^3
# Si number density = 23.783047 Si / 1000 Ang^3
#
#
#
# Elastic Constant Matrix: (Units=GPa)
#
#
# Indices 1 2 3 4 5 6 
#
# 1 56.0421 20.1775 15.4450 -2.7608 -7.9862 14.0015
# 2 20.1775 99.4769 30.1666 -5.9871 -5.1080 25.4875
# 3 15.4450 30.1666 119.8341 -4.7187 -5.4562 5.9120
# 4 -2.7608 -5.9871 -4.7187 55.9821 7.6935 -2.7765
# 5 -7.9862 -5.1080 -5.4562 7.6935 33.5718 -8.2851
# 6 14.0015 25.4875 5.9120 -2.7765 -8.2851 31.9559
#
#
#
# Elastic Compliance Matrix: (Units=1/GPa)
#
#
# Indices 1 2 3 4 5 6 
#
# 1 0.021080 -0.001879 -0.001788 -0.000028 0.002795 -0.006685
# 2 -0.001879 0.013809 -0.002774 0.000855 -0.001456 -0.009980
# 3 -0.001788 -0.002774 0.009254 0.000340 0.000964 0.001564
# 4 -0.000028 0.000855 0.000340 0.018538 -0.004116 -0.000190
# 5 0.002795 -0.001456 0.000964 -0.004116 0.033314 0.008038
# 6 -0.006685 -0.009980 0.001564 -0.000190 0.008038 0.043960
#
#
# Mechanical properties :
#
#
# Convention : Reuss Voigt Hill
#
# Bulk Modulus (GPa) = 31.98959 45.21460 38.60209
# Shear Modulus (GPa) = 30.62649 38.27289 34.44969
#
# Velocity S-wave (km/s) = 3.59241 4.01590 3.81004
# Velocity P-wave (km/s) = 5.53958 6.36834 5.96837
#
# Compressibility (1/GPa) = 0.03126017
#
# Stress axis : x y z
#
# Youngs Moduli (GPa) = 47.43841 72.41727 108.06311
#
# Poissons Ratio (x) = 0.13608 0.19321
# Poissons Ratio (y) = 0.08914 0.29979
# Poissons Ratio (z) = 0.08482 0.20090
#
# Static dielectric constant tensor:
#      x y z
#    x 3.110700 0.525860 0.131710 
#    y 0.525860 4.572680 -0.166950 
#    z 0.131710 -0.166950 4.790940 
# 
# 
# High freq. dielectric constant tensor:
#      x y z
#    x 1.907670 0.027390 -0.005210 
#    y 0.027390 1.947990 -0.013550 
#    z -0.005210 -0.013550 1.974770 
# 
# From -- ./inp_files/314769.got.cif
#   From: 2010.06.25/outbox.cif.g09.slc.cpg/sg2_158_cif.got.tgz:314769.got - 2010.06.27 13:26:56.
