data_PCOD8024578
_publ_section_title
;
Structure prediction by ZEFSAII (Michael W. Deem and Ramdas Pophale) SiO2 
 PCOD8024578
Probable space group: P -1
;
_chemical_formula_sum "Si O2"
_cell_formula_units_Z 16
_cell_length_a 11.999812
_cell_length_b 9.033040
_cell_length_c 8.928869
_cell_angle_alpha 57.319477
_cell_angle_beta 65.235624
_cell_angle_gamma 60.515719
_cell_volume 693.465688
_symmetry_space_group_name_H-M "P -1"
_symmetry_group_IT_number 2
_symmetry_cell_setting 'triclinic'
loop_
_space_group_symop_operation_xyz
x,y,z
-x,-y,-z
loop_
_atom_site_type_symbol
_atom_site_label
_atom_site_fract_x
_atom_site_fract_y
_atom_site_fract_z
Si Si1 0.667871 0.919819 0.631018
Si Si2 0.227606 0.424695 0.015803
Si Si3 0.567262 0.780991 0.496400
Si Si4 0.150047 0.881845 0.460316
Si Si5 0.165716 0.889018 0.105623
Si Si6 0.390195 0.661551 0.888536
Si Si7 0.992118 0.706952 0.150831
Si Si8 0.788401 0.543102 0.322503
O O1 0.671974 0.840399 0.502918
O O2 0.516572 0.059802 0.661625
O O3 0.767684 0.033159 0.522929
O O4 0.702610 0.753718 0.821947
O O5 0.304876 0.568777 0.892991
O O6 0.227354 0.351722 0.886539
O O7 0.080252 0.540809 0.084802
O O8 0.459423 0.754645 0.682188
O O9 0.649974 0.597876 0.456921
O O10 0.203898 0.879120 0.263380
O O11 0.161615 0.675947 0.617330
O O12 0.000000 0.000000 0.500000
O O13 0.081180 0.750968 0.206004
O O14 0.297356 0.816535 0.971065
O O15 0.078238 0.101468 0.003549
O O16 0.500000 0.500000 0.000000
O O17 0.886385 0.619488 0.321994
#
# Coordination Sequence:
#
# PCOD8024578 Si02
#       8
#     2   2   2   2   2   2   2   2
#     4  11  26  47  68 100 147 177 234 280 355 400
#     4  11  23  44  71 100 134 185 224 294 335 416
#     4  11  27  46  70 104 136 190 225 292 338 414
#     4  12  26  44  70 105 144 179 228 294 345 404
#     4  10  24  42  69 102 136 186 225 285 347 411
#     4  11  22  43  69  96 138 178 233 277 342 409
#     4  10  23  43  69 101 136 180 232 277 349 417
#     4  12  26  42  73 103 140 179 234 280 349 409
#
# _framework density 23.072519
#
# number of rings (size 3 to 8) (size 9 to 14) (size 15 to 20)
#    0.000    1.000    1.250    4.125    7.000    5.000 
#    0.000    0.000    0.000    0.000    0.000    0.000 
#    0.000    0.000    0.000    0.000    0.000    0.000 
#
# Total GULP energy -198369.790256 kJ/mol
# GULP energy per Si atom -12398.111891 kJ/mol
# Density = 2.302001 g / cm^3
# Si number density = 23.072519 Si / 1000 Ang^3
#
#
#
# Elastic Constant Matrix: (Units=GPa)
#
#
# Indices 1 2 3 4 5 6 
#
# 1 124.3156 62.5109 48.0748 0.6868 -5.9502 -0.7410
# 2 62.5109 142.2721 66.1502 -3.8102 -3.4581 -21.2683
# 3 48.0748 66.1502 94.4449 -2.9297 -5.0428 -15.9227
# 4 0.6868 -3.8102 -2.9297 39.6069 -4.5147 -6.4221
# 5 -5.9502 -3.4581 -5.0428 -4.5147 33.7665 -9.5698
# 6 -0.7410 -21.2683 -15.9227 -6.4221 -9.5698 41.4750
#
#
#
# Elastic Compliance Matrix: (Units=1/GPa)
#
#
# Indices 1 2 3 4 5 6 
#
# 1 0.011398 -0.003815 -0.003760 -0.001413 -0.000107 -0.003439
# 2 -0.003815 0.012074 -0.005639 0.001680 0.001222 0.004501
# 3 -0.003760 -0.005639 0.017467 0.001919 0.002965 0.004728
# 4 -0.001413 0.001680 0.001919 0.027414 0.005910 0.007182
# 5 -0.000107 0.001222 0.002965 0.005910 0.033933 0.010508
# 6 -0.003439 0.004501 0.004728 0.007182 0.010508 0.031709
#
#
# Mechanical properties :
#
#
# Convention : Reuss Voigt Hill
#
# Bulk Modulus (GPa) = 68.90590 79.38939 74.14764
# Shear Modulus (GPa) = 30.25551 35.25612 32.75582
#
# Velocity S-wave (km/s) = 3.62515 3.91328 3.77196
# Velocity P-wave (km/s) = 6.88854 7.40956 7.15380
#
# Compressibility (1/GPa) = 0.01451255
#
# Stress axis : x y z
#
# Youngs Moduli (GPa) = 87.73257 82.82079 57.25244
#
# Poissons Ratio (x) = 0.31594 0.21524
# Poissons Ratio (y) = 0.33467 0.32285
# Poissons Ratio (z) = 0.32984 0.46703
#
# Static dielectric constant tensor:
#      x y z
#    x 4.525920 0.060470 0.019740 
#    y 0.060470 4.305490 -0.195270 
#    z 0.019740 -0.195270 4.149270 
# 
# 
# High freq. dielectric constant tensor:
#      x y z
#    x 1.926210 -0.001300 0.001260 
#    y -0.001300 1.925820 -0.011570 
#    z 0.001260 -0.011570 1.896970 
# 
# From -- ./inp_files/242507.got.cif
#   From: 2010.06.25/outbox.cif.g09.slc.cpg/sg2_122_cif.got.tgz:242507.got - 2010.06.27 13:26:56.
