data_PCOD8024989
_publ_section_title
;
Structure prediction by ZEFSAII (Michael W. Deem and Ramdas Pophale) SiO2 
 PCOD8024989
Probable space group: P -1
;
_chemical_formula_sum "Si O2"
_cell_formula_units_Z 12
_cell_length_a 9.041990
_cell_length_b 7.735492
_cell_length_c 10.376783
_cell_angle_alpha 56.947730
_cell_angle_beta 125.132523
_cell_angle_gamma 90.594957
_cell_volume 446.101830
_symmetry_space_group_name_H-M "P -1"
_symmetry_group_IT_number 2
_symmetry_cell_setting 'triclinic'
loop_
_space_group_symop_operation_xyz
x,y,z
-x,-y,-z
loop_
_atom_site_type_symbol
_atom_site_label
_atom_site_fract_x
_atom_site_fract_y
_atom_site_fract_z
Si Si1 0.013061 0.182556 0.071253
Si Si2 0.637414 0.613616 0.177596
Si Si3 0.306726 0.973297 0.994958
Si Si4 0.627795 0.867489 0.420206
Si Si5 0.931502 0.439329 0.184869
Si Si6 0.396496 0.777821 0.544225
O O1 0.905665 0.353608 0.066418
O O2 0.867198 0.067165 0.003489
O O3 0.222337 0.983915 0.299163
O O4 0.055883 0.317182 0.920711
O O5 0.400031 0.801585 0.986991
O O6 0.727690 0.477527 0.144687
O O7 0.665102 0.428183 0.378682
O O8 0.766318 0.764081 0.198150
O O9 0.501206 0.892304 0.218857
O O10 0.589012 0.705848 0.574756
O O11 0.868959 0.742645 0.566102
O O12 0.560273 0.124947 0.339138
#
# Coordination Sequence:
#
# PCOD8024989 Si02
#       6
#     2   2   2   2   2   2
#     4  10  23  44  67  93 125 168 212 252 310 383
#     4  11  26  41  64  96 130 165 208 265 316 362
#     4  11  26  42  62  95 130 164 210 263 314 364
#     4  10  23  44  67  93 125 168 212 252 310 383
#     4  10  23  44  68  91 125 170 211 252 311 381
#     4  10  23  44  68  91 125 170 211 252 311 381
#
# _framework density 26.899687
#
# number of rings (size 3 to 8) (size 9 to 14) (size 15 to 20)
#    0.000    1.667    0.000    2.000    0.000   21.333 
#    0.000    0.000    0.000    0.000    0.000    0.000 
#    0.000    0.000    0.000    0.000    0.000    0.000 
#
# Total GULP energy -148716.867647 kJ/mol
# GULP energy per Si atom -12393.072304 kJ/mol
# Density = 2.683846 g / cm^3
# Si number density = 26.899687 Si / 1000 Ang^3
#
#
#
# Elastic Constant Matrix: (Units=GPa)
#
#
# Indices 1 2 3 4 5 6 
#
# 1 136.2617 8.7263 16.2783 -19.9097 -23.1064 10.7374
# 2 8.7263 59.5094 32.7296 -10.0884 -9.5556 14.1965
# 3 16.2783 32.7296 53.3267 -13.5220 -13.9652 13.2591
# 4 -19.9097 -10.0884 -13.5220 45.1955 14.2647 -0.8717
# 5 -23.1064 -9.5556 -13.9652 14.2647 20.9434 -6.7648
# 6 10.7374 14.1965 13.2591 -0.8717 -6.7648 46.5555
#
#
#
# Elastic Compliance Matrix: (Units=1/GPa)
#
#
# Indices 1 2 3 4 5 6 
#
# 1 0.009113 0.000710 -0.000319 0.001201 0.009061 -0.000888
# 2 0.000710 0.026054 -0.014731 0.001447 0.000637 -0.003794
# 3 -0.000319 -0.014731 0.032339 0.002433 0.011907 -0.002869
# 4 0.001201 0.001447 0.002433 0.029103 -0.017307 -0.003381
# 5 0.009061 0.000637 0.011907 -0.017307 0.079559 0.005561
# 6 -0.000888 -0.003794 -0.002869 -0.003381 0.005561 0.024403
#
#
# Mechanical properties :
#
#
# Convention : Reuss Voigt Hill
#
# Bulk Modulus (GPa) = 25.75570 40.50738 33.13154
# Shear Modulus (GPa) = 20.64452 35.29647 27.97049
#
# Velocity S-wave (km/s) = 2.77332 3.62629 3.22810
# Velocity P-wave (km/s) = 4.45540 5.71180 5.12227
#
# Compressibility (1/GPa) = 0.03882636
#
# Stress axis : x y z
#
# Youngs Moduli (GPa) = 109.72830 38.38140 30.92202
#
# Poissons Ratio (x) = -0.02724 0.00987
# Poissons Ratio (y) = -0.07786 0.45550
# Poissons Ratio (z) = 0.03504 0.56538
#
# Static dielectric constant tensor:
#      x y z
#    x 5.173590 -0.086810 -0.051760 
#    y -0.086810 5.283460 -0.421810 
#    z -0.051760 -0.421810 4.311760 
# 
# 
# High freq. dielectric constant tensor:
#      x y z
#    x 2.106200 -0.010930 -0.003870 
#    y -0.010930 2.083260 -0.026150 
#    z -0.003870 -0.026150 2.048230 
# 
# From -- ./inp_files/377798.got.cif
#   From: 2010.06.25/outbox.cif.g09.slc.cpg/sg2_189_cif.got.tgz:377798.got - 2010.06.27 13:26:56.
