data_PCOD8024847
_publ_section_title
;
Structure prediction by ZEFSAII (Michael W. Deem and Ramdas Pophale) SiO2 
 PCOD8024847
Probable space group: P -1
;
_chemical_formula_sum "Si O2"
_cell_formula_units_Z 16
_cell_length_a 12.178911
_cell_length_b 9.165534
_cell_length_c 14.557867
_cell_angle_alpha 48.842281
_cell_angle_beta 141.697119
_cell_angle_gamma 130.493332
_cell_volume 726.945073
_symmetry_space_group_name_H-M "P -1"
_symmetry_group_IT_number 2
_symmetry_cell_setting 'triclinic'
loop_
_space_group_symop_operation_xyz
x,y,z
-x,-y,-z
loop_
_atom_site_type_symbol
_atom_site_label
_atom_site_fract_x
_atom_site_fract_y
_atom_site_fract_z
Si Si1 0.701035 0.821293 0.525072
Si Si2 0.592891 0.826375 0.103585
Si Si3 0.221179 0.095718 0.004081
Si Si4 0.991824 0.592496 0.767317
Si Si5 0.696230 0.229094 0.673382
Si Si6 0.802322 0.975289 0.710851
Si Si7 0.286310 0.408487 0.081518
Si Si8 0.806099 0.003793 0.335411
O O1 0.844644 0.687173 0.681209
O O2 0.490519 0.703460 0.462713
O O3 0.790307 0.999326 0.583334
O O4 0.671046 0.918884 0.366953
O O5 0.661683 0.859482 0.030968
O O6 0.466126 0.599049 0.124753
O O7 0.757419 0.862367 0.271615
O O8 0.500000 0.000000 0.000000
O O9 0.274079 0.291745 0.023933
O O10 0.005816 0.044873 0.859206
O O11 0.261781 0.903834 0.159351
O O12 0.864926 0.429249 0.683042
O O13 0.165349 0.758759 0.764554
O O14 0.101339 0.478103 0.952003
O O15 0.677335 0.104383 0.618953
O O16 0.704992 0.739901 0.768046
O O17 0.000000 0.000000 0.500000
#
# Coordination Sequence:
#
# PCOD8024847 Si02
#       8
#     2   2   2   2   2   2   2   2
#     4  11  25  41  65  92 132 174 213 262 321 375
#     4  12  24  39  67  97 126 167 216 266 312 380
#     4  11  22  43  69  94 131 170 207 266 327 379
#     4  11  21  42  66  92 131 167 210 269 318 374
#     4  11  22  42  65  97 129 167 215 266 320 380
#     4  11  23  43  67  95 130 171 211 263 319 389
#     4  11  23  42  66 101 130 161 218 267 319 378
#     4  10  23  44  61  90 132 168 210 261 316 375
#
# _framework density 22.009916
#
# number of rings (size 3 to 8) (size 9 to 14) (size 15 to 20)
#    0.000    1.000    3.750    4.125    0.000    4.500 
#    0.000    0.625    0.000    0.000    0.000    0.000 
#    0.000    0.000    0.000    0.000    0.000    0.000 
#
# Total GULP energy -198214.446184 kJ/mol
# GULP energy per Si atom -12388.402887 kJ/mol
# Density = 2.195982 g / cm^3
# Si number density = 22.009916 Si / 1000 Ang^3
#
#
#
# Elastic Constant Matrix: (Units=GPa)
#
#
# Indices 1 2 3 4 5 6 
#
# 1 103.6712 40.9228 26.4735 -5.9640 1.8119 -11.3120
# 2 40.9228 155.8845 25.1226 8.4445 -8.2709 2.6033
# 3 26.4735 25.1226 50.2438 15.2469 0.5377 -18.1309
# 4 -5.9640 8.4445 15.2469 32.1628 -9.2988 2.9128
# 5 1.8119 -8.2709 0.5377 -9.2988 33.3873 7.2710
# 6 -11.3120 2.6033 -18.1309 2.9128 7.2710 21.1981
#
#
#
# Elastic Compliance Matrix: (Units=1/GPa)
#
#
# Indices 1 2 3 4 5 6 
#
# 1 0.013006 -0.002342 -0.008610 0.007645 0.001340 -0.001646
# 2 -0.002342 0.008955 -0.009945 0.005219 0.007003 -0.013975
# 3 -0.008610 -0.009945 0.073398 -0.050789 -0.034346 0.078164
# 4 0.007645 0.005219 -0.050789 0.070887 0.034877 -0.061705
# 5 0.001340 0.007003 -0.034346 0.034877 0.053337 -0.052608
# 6 -0.001646 -0.013975 0.078164 -0.061705 -0.052608 0.141390
#
#
# Mechanical properties :
#
#
# Convention : Reuss Voigt Hill
#
# Bulk Modulus (GPa) = 18.66914 54.98193 36.82553
# Shear Modulus (GPa) = 11.88716 31.83503 21.86109
#
# Velocity S-wave (km/s) = 2.32649 3.80728 3.15499
# Velocity P-wave (km/s) = 3.96450 6.66047 5.48084
#
# Compressibility (1/GPa) = 0.05356433
#
# Stress axis : x y z
#
# Youngs Moduli (GPa) = 76.88877 111.67130 13.62433
#
# Poissons Ratio (x) = 0.26156 0.11730
# Poissons Ratio (y) = 0.18009 0.13550
# Poissons Ratio (z) = 0.66200 1.11058
#
# Static dielectric constant tensor:
#      x y z
#    x 27.369360 -6.964380 -17.565640 
#    y -6.964380 5.193350 5.435590 
#    z -17.565640 5.435590 17.286320 
# 
# 
# High freq. dielectric constant tensor:
#      x y z
#    x 1.859640 -0.000070 0.009130 
#    y -0.000070 1.873880 0.013380 
#    z 0.009130 0.013380 1.871630 
# 
# From -- ./inp_files/217668.got.cif
#   From: 2010.06.25/outbox.cif.g09.slc.cpg/sg2_109_cif.got.tgz:217668.got - 2010.06.27 13:26:56.
