data_PCOD8024340
_publ_section_title
;
Structure prediction by ZEFSAII (Michael W. Deem and Ramdas Pophale) SiO2 
 PCOD8024340
Probable space group: P -1
;
_chemical_formula_sum "Si O2"
_cell_formula_units_Z 16
_cell_length_a 16.811206
_cell_length_b 13.064475
_cell_length_c 10.082667
_cell_angle_alpha 43.230283
_cell_angle_beta 136.600914
_cell_angle_gamma 148.656361
_cell_volume 754.396171
_symmetry_space_group_name_H-M "P -1"
_symmetry_group_IT_number 2
_symmetry_cell_setting 'triclinic'
loop_
_space_group_symop_operation_xyz
x,y,z
-x,-y,-z
loop_
_atom_site_type_symbol
_atom_site_label
_atom_site_fract_x
_atom_site_fract_y
_atom_site_fract_z
Si Si1 0.644734 0.155841 0.424804
Si Si2 0.001203 0.589940 0.782332
Si Si3 0.779191 0.590978 0.893841
Si Si4 0.649139 0.159512 0.124921
Si Si5 0.667270 0.518521 0.095238
Si Si6 0.302029 0.228243 0.893830
Si Si7 0.879692 0.219072 0.824304
Si Si8 0.147180 0.238107 0.463372
O O1 0.597422 0.071199 0.296355
O O2 0.715011 0.387183 0.295928
O O3 0.787049 0.167105 0.623981
O O4 0.500000 0.000000 0.500000
O O5 0.184339 0.775144 0.776648
O O6 0.887445 0.388620 0.741739
O O7 0.912335 0.665708 0.627789
O O8 0.000000 0.500000 0.000000
O O9 0.790916 0.692775 0.676874
O O10 0.669921 0.353800 0.952130
O O11 0.702237 0.615178 0.898635
O O12 0.943212 0.682481 0.073338
O O13 0.500000 0.000000 0.000000
O O14 0.762599 0.707715 0.137057
O O15 0.478106 0.352081 0.039922
O O16 0.287481 0.289041 0.673268
O O17 0.209285 0.988475 0.002787
O O18 0.000000 0.000000 0.500000
#
# Coordination Sequence:
#
# PCOD8024340 Si02
#       8
#     2   2   2   2   2   2   2   2
#     4  11  23  40  69  96 129 173 216 269 331 381
#     4  11  22  41  68  95 131 171 215 277 320 381
#     4  10  23  43  65  95 132 164 220 272 316 387
#     4  10  24  41  66 101 131 165 219 272 329 386
#     4  10  24  44  62  94 130 169 214 274 324 384
#     4  11  23  42  66  91 131 173 215 261 326 392
#     4  11  22  42  68  94 128 170 220 269 321 387
#     4  12  23  42  67  97 127 177 213 261 329 381
#
# _framework density 21.209014
#
# number of rings (size 3 to 8) (size 9 to 14) (size 15 to 20)
#    0.000    1.250    5.000    0.750    1.750    9.500 
#    2.250    0.000    0.000    0.000    0.000    0.000 
#    0.000    0.000    0.000    0.000    0.000    0.000 
#
# Total GULP energy -198259.103394 kJ/mol
# GULP energy per Si atom -12391.193962 kJ/mol
# Density = 2.116074 g / cm^3
# Si number density = 21.209014 Si / 1000 Ang^3
#
#
#
# Elastic Constant Matrix: (Units=GPa)
#
#
# Indices 1 2 3 4 5 6 
#
# 1 65.0830 23.5783 29.2314 -8.1801 -24.9374 0.6623
# 2 23.5783 108.8391 43.7176 3.3223 -9.0811 4.0095
# 3 29.2314 43.7176 140.7130 6.7217 -19.0063 1.5321
# 4 -8.1801 3.3223 6.7217 34.5349 0.6725 -0.6227
# 5 -24.9374 -9.0811 -19.0063 0.6725 43.8559 -4.2681
# 6 0.6623 4.0095 1.5321 -0.6227 -4.2681 21.4879
#
#
#
# Elastic Compliance Matrix: (Units=1/GPa)
#
#
# Indices 1 2 3 4 5 6 
#
# 1 0.022733 -0.003253 -0.002497 0.006008 0.011323 0.002507
# 2 -0.003253 0.011052 -0.002802 -0.001306 -0.000949 -0.001989
# 3 -0.002497 -0.002802 0.008848 -0.002076 0.001894 0.000285
# 4 0.006008 -0.001306 -0.002076 0.030898 0.001917 0.001483
# 5 0.011323 -0.000949 0.001894 0.001917 0.030398 0.005787
# 6 0.002507 -0.001989 0.000285 0.001483 0.005787 0.048004
#
#
# Mechanical properties :
#
#
# Convention : Reuss Voigt Hill
#
# Bulk Modulus (GPa) = 39.17094 56.40996 47.79045
# Shear Modulus (GPa) = 28.16163 34.51625 31.33894
#
# Velocity S-wave (km/s) = 3.64787 4.03852 3.84816
# Velocity P-wave (km/s) = 6.02094 6.95709 6.50588
#
# Compressibility (1/GPa) = 0.02552913
#
# Stress axis : x y z
#
# Youngs Moduli (GPa) = 43.98902 90.48115 113.02228
#
# Poissons Ratio (x) = 0.29433 0.28219
# Poissons Ratio (y) = 0.14309 0.31670
# Poissons Ratio (z) = 0.10983 0.25354
#
# Static dielectric constant tensor:
#      x y z
#    x 3.767400 -0.305930 -0.049540 
#    y -0.305930 3.647220 0.532160 
#    z -0.049540 0.532160 4.115730 
# 
# 
# High freq. dielectric constant tensor:
#      x y z
#    x 1.822960 -0.003200 -0.007000 
#    y -0.003200 1.834970 0.004680 
#    z -0.007000 0.004680 1.839680 
# 
# From -- ./inp_files/332964.got.cif
#   From: 2010.06.25/outbox.cif.g09.slc.cpg/sg2_167_cif.got.tgz:332964.got - 2010.06.27 13:26:56.
