data_PCOD8024358
_publ_section_title
;
Structure prediction by ZEFSAII (Michael W. Deem and Ramdas Pophale) SiO2 
 PCOD8024358
Probable space group: P -1
;
_chemical_formula_sum "Si O2"
_cell_formula_units_Z 14
_cell_length_a 17.155236
_cell_length_b 7.837523
_cell_length_c 7.144038
_cell_angle_alpha 53.834424
_cell_angle_beta 117.906643
_cell_angle_gamma 105.534497
_cell_volume 685.240165
_symmetry_space_group_name_H-M "P -1"
_symmetry_group_IT_number 2
_symmetry_cell_setting 'triclinic'
loop_
_space_group_symop_operation_xyz
x,y,z
-x,-y,-z
loop_
_atom_site_type_symbol
_atom_site_label
_atom_site_fract_x
_atom_site_fract_y
_atom_site_fract_z
Si Si1 0.802599 0.227402 0.477729
Si Si2 0.502525 0.237365 0.281332
Si Si3 0.103805 0.001297 0.599823
Si Si4 0.232113 0.000345 0.056389
Si Si5 0.205625 0.387419 0.552947
Si Si6 0.382273 0.591032 0.994425
Si Si7 0.356440 0.632170 0.365999
O O1 0.844216 0.411932 0.535698
O O2 0.868649 0.151624 0.440857
O O3 0.783605 0.027658 0.721067
O O4 0.713444 0.328243 0.229181
O O5 0.406270 0.352234 0.103203
O O6 0.562697 0.380980 0.391942
O O7 0.500000 0.000000 0.500000
O O8 0.545886 0.247761 0.116710
O O9 0.137738 0.243226 0.450029
O O10 0.147960 0.912972 0.898109
O O11 0.000000 0.000000 0.500000
O O12 0.318238 0.870422 0.173907
O O13 0.246644 0.244988 0.861081
O O14 0.282484 0.464692 0.452161
O O15 0.390863 0.584684 0.229987
#
# Coordination Sequence:
#
# PCOD8024358 Si02
#       7
#     2   2   2   2   2   2   2
#     4  11  21  42  67  92 131 173 211 259 326 385
#     4  11  26  39  60  96 130 164 212 269 312 370
#     4  10  23  43  65  99 130 163 218 266 321 386
#     4   9  21  40  63  94 123 164 216 257 315 391
#     4   9  22  41  65  93 126 171 210 264 317 379
#     4  11  23  40  64  92 125 169 215 258 320 377
#     4  11  21  43  63  91 127 165 220 255 314 393
#
# _framework density 20.430792
#
# number of rings (size 3 to 8) (size 9 to 14) (size 15 to 20)
#    0.857    0.857    4.286    0.429    2.000    5.143 
#    0.000    2.857    0.000    0.000    0.000    0.000 
#    0.000    0.000    0.000    0.000    0.000    0.000 
#
# Total GULP energy -173470.023967 kJ/mol
# GULP energy per Si atom -12390.715998 kJ/mol
# Density = 2.038429 g / cm^3
# Si number density = 20.430792 Si / 1000 Ang^3
#
#
#
# Elastic Constant Matrix: (Units=GPa)
#
#
# Indices 1 2 3 4 5 6 
#
# 1 147.8196 63.9505 55.9531 -5.0017 -2.9666 -20.4478
# 2 63.9505 88.2840 24.6793 -6.7604 -9.3742 -6.4132
# 3 55.9531 24.6793 80.7247 -9.4037 -18.3846 -11.2906
# 4 -5.0017 -6.7604 -9.4037 40.2543 5.6379 -2.5240
# 5 -2.9666 -9.3742 -18.3846 5.6379 37.7361 -6.7474
# 6 -20.4478 -6.4132 -11.2906 -2.5240 -6.7474 30.1506
#
#
#
# Elastic Compliance Matrix: (Units=1/GPa)
#
#
# Indices 1 2 3 4 5 6 
#
# 1 0.013279 -0.007761 -0.007192 -0.000588 -0.003621 0.003802
# 2 -0.007761 0.017147 0.001213 0.001634 0.003972 -0.000136
# 3 -0.007192 0.001213 0.020472 0.003006 0.010261 0.005594
# 4 -0.000588 0.001634 0.003006 0.026147 -0.001561 0.002914
# 5 -0.003621 0.003972 0.010261 -0.001561 0.034177 0.009750
# 6 0.003802 -0.000136 0.005594 0.002914 0.009750 0.040237
#
#
# Mechanical properties :
#
#
# Convention : Reuss Voigt Hill
#
# Bulk Modulus (GPa) = 42.70535 67.33269 55.01902
# Shear Modulus (GPa) = 26.77457 33.11121 29.94289
#
# Velocity S-wave (km/s) = 3.62401 4.03010 3.83244
# Velocity P-wave (km/s) = 6.20154 7.39484 6.82432
#
# Compressibility (1/GPa) = 0.02341627
#
# Stress axis : x y z
#
# Youngs Moduli (GPa) = 75.30936 58.31924 48.84830
#
# Poissons Ratio (x) = 0.45264 0.35134
# Poissons Ratio (y) = 0.58450 -0.05927
# Poissons Ratio (z) = 0.54165 -0.07076
#
# Static dielectric constant tensor:
#      x y z
#    x 3.513810 -0.155670 -0.122860 
#    y -0.155670 3.621770 0.004510 
#    z -0.122860 0.004510 3.840000 
# 
# 
# High freq. dielectric constant tensor:
#      x y z
#    x 1.785210 -0.009450 -0.009910 
#    y -0.009450 1.783410 -0.004960 
#    z -0.009910 -0.004960 1.809220 
# 
# From -- ./inp_files/291695.got.cif
#   From: 2010.06.25/outbox.cif.g09.slc.cpg/sg2_146_cif.got.tgz:291695.got - 2010.06.27 13:26:56.
