data_PCOD8024957
_publ_section_title
;
Structure prediction by ZEFSAII (Michael W. Deem and Ramdas Pophale) SiO2 
 PCOD8024957
Probable space group: P -1
;
_chemical_formula_sum "Si O2"
_cell_formula_units_Z 12
_cell_length_a 9.293760
_cell_length_b 9.285764
_cell_length_c 14.431915
_cell_angle_alpha 67.404581
_cell_angle_beta 55.395699
_cell_angle_gamma 30.140000
_cell_volume 497.218520
_symmetry_space_group_name_H-M "P -1"
_symmetry_group_IT_number 2
_symmetry_cell_setting 'triclinic'
loop_
_space_group_symop_operation_xyz
x,y,z
-x,-y,-z
loop_
_atom_site_type_symbol
_atom_site_label
_atom_site_fract_x
_atom_site_fract_y
_atom_site_fract_z
Si Si1 0.207833 0.617745 0.471341
Si Si2 0.330563 0.686407 0.109905
Si Si3 0.817777 0.575452 0.956590
Si Si4 0.545670 0.258339 0.260762
Si Si5 0.512721 0.020868 0.191608
Si Si6 0.470798 0.749333 0.387673
O O1 0.366705 0.382608 0.394996
O O2 0.413673 0.622382 0.397129
O O3 0.220562 0.509480 0.590480
O O4 0.828073 0.957510 0.510731
O O5 0.443023 0.501254 0.200171
O O6 0.500000 0.500000 0.000000
O O7 0.467158 0.757185 0.061296
O O8 0.939056 0.967899 0.186970
O O9 0.717506 0.783536 0.864563
O O10 0.091932 0.242883 0.901635
O O11 0.000000 0.500000 0.000000
O O12 0.396935 0.228040 0.262576
O O13 0.525777 0.829422 0.264942
#
# Coordination Sequence:
#
# PCOD8024957 Si02
#       6
#     2   2   2   2   2   2
#     4  10  23  44  66  98 133 177 224 271 347 406
#     4  12  23  45  68  96 141 181 221 278 333 406
#     4  12  27  45  65 102 138 181 227 278 336 398
#     4  12  24  41  73 101 131 183 227 272 339 405
#     4  12  24  44  69 101 136 176 228 281 336 397
#     4  10  23  44  67  95 139 173 218 286 336 403
#
# _framework density 24.134257999999999
#
# number of rings (size 3 to 8) (size 9 to 14) (size 15 to 20)
#    0.000    0.667    3.333    4.000    2.333    1.333 
#    0.000    0.000    0.000    0.000    0.000    0.000 
#    0.000    0.000    0.000    0.000    0.000    0.000 
#
# Total GULP energy -148689.898186 kJ/mol
# GULP energy per Si atom -12390.824849 kJ/mol
# Density = 2.407933 g / cm^3
# Si number density = 24.134258 Si / 1000 Ang^3
#
#
#
# Elastic Constant Matrix: (Units=GPa)
#
#
# Indices 1 2 3 4 5 6 
#
# 1 99.5644 35.6012 30.4840 -23.8003 1.1183 -2.9549
# 2 35.6012 133.2434 27.1727 -22.0764 17.2781 -13.6895
# 3 30.4840 27.1727 62.3267 -23.2986 16.8830 2.8131
# 4 -23.8003 -22.0764 -23.2986 59.3019 1.9297 -0.8761
# 5 1.1183 17.2781 16.8830 1.9297 19.9954 -1.6543
# 6 -2.9549 -13.6895 2.8131 -0.8761 -1.6543 36.1982
#
#
#
# Elastic Compliance Matrix: (Units=1/GPa)
#
#
# Indices 1 2 3 4 5 6 
#
# 1 0.013438 -0.002822 -0.006866 0.001417 0.007425 0.000937
# 2 -0.002822 0.010209 0.000424 0.003177 -0.009058 0.003260
# 3 -0.006866 0.000424 0.030544 0.010227 -0.027070 -0.003763
# 4 0.001417 0.003177 0.010227 0.023084 -0.013650 0.000457
# 5 0.007425 -0.009058 -0.027070 -0.013650 0.081820 0.002693
# 6 0.000937 0.003260 -0.003763 0.000457 0.002693 0.029362
#
#
# Mechanical properties :
#
#
# Convention : Reuss Voigt Hill
#
# Bulk Modulus (GPa) = 28.04111 53.51668 40.77889
# Shear Modulus (GPa) = 22.84445 36.55755 29.70100
#
# Velocity S-wave (km/s) = 3.07995 3.89621 3.51188
# Velocity P-wave (km/s) = 4.92871 6.51639 5.77735
#
# Compressibility (1/GPa) = 0.03566193
#
# Stress axis : x y z
#
# Youngs Moduli (GPa) = 74.41426 97.95618 32.74014
#
# Poissons Ratio (x) = 0.27644 0.22479
# Poissons Ratio (y) = 0.21000 -0.01388
# Poissons Ratio (z) = 0.51093 -0.04151
#
# Static dielectric constant tensor:
#      x y z
#    x 4.825470 0.025520 -0.699910 
#    y 0.025520 4.685230 -0.078640 
#    z -0.699910 -0.078640 5.033740 
# 
# 
# High freq. dielectric constant tensor:
#      x y z
#    x 1.944510 -0.007030 0.000950 
#    y -0.007030 1.981760 -0.000580 
#    z 0.000950 -0.000580 1.956500 
# 
# From -- ./inp_files/205782.got.cif
#   From: 2010.06.25/outbox.cif.g09.slc.cpg/sg2_103_cif.got.tgz:205782.got - 2010.06.27 13:26:56.
