data_PCOD8024946
_publ_section_title
;
Structure prediction by ZEFSAII (Michael W. Deem and Ramdas Pophale) SiO2 
 PCOD8024946
Probable space group: P -1
;
_chemical_formula_sum "Si O2"
_cell_formula_units_Z 14
_cell_length_a 9.119552
_cell_length_b 14.101872
_cell_length_c 8.450633
_cell_angle_alpha 114.720141
_cell_angle_beta 147.162933
_cell_angle_gamma 73.053992
_cell_volume 531.329859
_symmetry_space_group_name_H-M "P -1"
_symmetry_group_IT_number 2
_symmetry_cell_setting 'triclinic'
loop_
_space_group_symop_operation_xyz
x,y,z
-x,-y,-z
loop_
_atom_site_type_symbol
_atom_site_label
_atom_site_fract_x
_atom_site_fract_y
_atom_site_fract_z
Si Si1 0.090143 0.614290 0.097353
Si Si2 0.503050 0.541341 0.209428
Si Si3 0.985182 0.915312 0.068268
Si Si4 0.520588 0.013355 0.215248
Si Si5 0.053599 0.280556 0.305287
Si Si6 0.435014 0.335629 0.217854
Si Si7 0.491797 0.782090 0.096687
O O1 0.247693 0.609367 0.065290
O O2 0.300054 0.678696 0.451973
O O3 0.000000 0.500000 0.000000
O O4 0.821157 0.674442 0.900470
O O5 0.798137 0.608961 0.552881
O O6 0.476897 0.448269 0.246490
O O7 0.500000 0.500000 0.000000
O O8 0.046106 0.801115 0.982326
O O9 0.182070 0.948874 0.418650
O O10 0.680487 0.904436 0.854484
O O11 0.000000 0.000000 0.000000
O O12 0.418726 0.900185 0.121569
O O13 0.500000 0.000000 0.000000
O O14 0.277889 0.232362 0.578637
O O15 0.786200 0.296701 0.178104
O O16 0.391312 0.242574 0.986073
#
# Coordination Sequence:
#
# PCOD8024946 Si02
#       7
#     2   2   2   2   2   2   2
#     4  10  23  44  66  95 135 191 230 281 355 414
#     4  11  24  45  70 106 140 183 243 295 342 420
#     4  12  23  47  78 101 144 191 235 298 362 432
#     4  12  26  47  75 110 144 185 242 302 363 428
#     4  12  26  42  72 111 138 186 244 293 357 429
#     4  11  24  45  70  96 145 188 225 289 355 420
#     4  12  24  44  71 106 142 188 236 293 368 422
#
# _framework density 26.348981999999999
#
# number of rings (size 3 to 8) (size 9 to 14) (size 15 to 20)
#    0.000    0.571    4.286    4.286    2.000    5.143 
#    0.000    4.286    0.000    0.000    0.000    0.000 
#    0.000    0.000    0.000    0.000    0.000    0.000 
#
# Total GULP energy -173614.011234 kJ/mol
# GULP energy per Si atom -12401.000802 kJ/mol
# Density = 2.628901 g / cm^3
# Si number density = 26.348982 Si / 1000 Ang^3
#
#
#
# Elastic Constant Matrix: (Units=GPa)
#
#
# Indices 1 2 3 4 5 6 
#
# 1 145.3324 22.6628 54.6657 -3.9507 -1.2752 -18.7696
# 2 22.6628 41.0342 18.7045 10.1089 -4.7026 -19.8248
# 3 54.6657 18.7045 164.2723 -4.3037 -4.8476 -0.6851
# 4 -3.9507 10.1089 -4.3037 42.5652 -1.9938 -4.3466
# 5 -1.2752 -4.7026 -4.8476 -1.9938 49.7284 -5.0708
# 6 -18.7696 -19.8248 -0.6851 -4.3466 -5.0708 42.7656
#
#
#
# Elastic Compliance Matrix: (Units=1/GPa)
#
#
# Indices 1 2 3 4 5 6 
#
# 1 0.008629 -0.002691 -0.002514 0.001459 0.000051 0.002654
# 2 -0.002691 0.037464 -0.003373 -0.007658 0.004457 0.015882
# 3 -0.002514 -0.003373 0.007330 0.001067 0.000126 -0.002426
# 4 0.001459 -0.007658 0.001067 0.025550 0.000417 -0.000246
# 5 0.000051 0.004457 0.000126 0.000417 0.021033 0.004627
# 6 0.002654 0.015882 -0.002426 -0.000246 0.004627 0.032395
#
#
# Mechanical properties :
#
#
# Convention : Reuss Voigt Hill
#
# Bulk Modulus (GPa) = 27.57400 60.30053 43.93727
# Shear Modulus (GPa) = 30.93162 43.98559 37.45860
#
# Velocity S-wave (km/s) = 3.42997 4.09020 3.77455
# Velocity P-wave (km/s) = 5.11604 6.72616 5.97558
#
# Compressibility (1/GPa) = 0.03626605
#
# Stress axis : x y z
#
# Youngs Moduli (GPa) = 115.88817 26.69200 136.42982
#
# Poissons Ratio (x) = 0.07183 0.34302
# Poissons Ratio (y) = 0.31188 0.46019
# Poissons Ratio (z) = 0.29138 0.09003
#
# Static dielectric constant tensor:
#      x y z
#    x 7.528440 0.467870 0.009210 
#    y 0.467870 5.175590 -0.086100 
#    z 0.009210 -0.086100 5.047340 
# 
# 
# High freq. dielectric constant tensor:
#      x y z
#    x 2.076700 -0.001710 -0.001160 
#    y -0.001710 2.058290 -0.008940 
#    z -0.001160 -0.008940 2.071100 
# 
# From -- ./inp_files/218463.got.cif
#   From: 2010.06.25/outbox.cif.g09.slc.cpg/sg2_110_cif.got.tgz:218463.got - 2010.06.27 13:26:56.
