data_PCOD8024539
_publ_section_title
;
Structure prediction by ZEFSAII (Michael W. Deem and Ramdas Pophale) SiO2 
 PCOD8024539
Probable space group: P -1
;
_chemical_formula_sum "Si O2"
_cell_formula_units_Z 16
_cell_length_a 6.059886
_cell_length_b 10.859259
_cell_length_c 12.825090
_cell_angle_alpha 110.916812
_cell_angle_beta 83.612654
_cell_angle_gamma 112.994745
_cell_volume 725.316190
_symmetry_space_group_name_H-M "P -1"
_symmetry_group_IT_number 2
_symmetry_cell_setting 'triclinic'
loop_
_space_group_symop_operation_xyz
x,y,z
-x,-y,-z
loop_
_atom_site_type_symbol
_atom_site_label
_atom_site_fract_x
_atom_site_fract_y
_atom_site_fract_z
Si Si1 0.046310 0.153975 0.090884
Si Si2 0.834477 0.778728 0.395778
Si Si3 0.379434 0.592426 0.283391
Si Si4 0.057266 0.642108 0.479570
Si Si5 0.005365 0.568832 0.908177
Si Si6 0.332388 0.006865 0.417112
Si Si7 0.523558 0.341259 0.215922
Si Si8 0.290751 0.832621 0.704841
O O1 0.017623 0.274874 0.050098
O O2 0.319067 0.206122 0.131975
O O3 0.854561 0.123570 0.185571
O O4 0.000000 0.000000 0.000000
O O5 0.647403 0.715318 0.290151
O O6 0.762844 0.870895 0.512165
O O7 0.836252 0.641875 0.420084
O O8 0.102957 0.862301 0.364224
O O9 0.279834 0.664660 0.399381
O O10 0.216954 0.550576 0.176375
O O11 0.396187 0.448969 0.285978
O O12 0.123489 0.773847 0.595344
O O13 0.000000 0.500000 0.500000
O O14 0.258367 0.582097 0.851236
O O15 0.000000 0.500000 0.000000
O O16 0.477529 0.035186 0.308459
O O17 0.500000 0.000000 0.500000
O O18 0.625643 0.291781 0.296992
#
# Coordination Sequence:
#
# PCOD8024539 Si02
#       8
#     2   2   2   2   2   2   2   2
#     4  10  24  46  71 101 133 175 240 289 348 419
#     4  11  23  39  63  92 142 181 222 273 333 405
#     4  11  22  40  64 101 135 171 231 277 336 419
#     4  12  23  37  64 100 137 175 221 269 335 419
#     4  10  23  46  72  98 137 175 229 300 353 403
#     4  11  23  42  61  91 141 187 226 273 329 411
#     4  10  23  43  68  97 132 178 228 287 341 407
#     4  11  23  40  67  96 136 183 225 278 338 407
#
# _framework density 22.059343999999999
#
# number of rings (size 3 to 8) (size 9 to 14) (size 15 to 20)
#    0.000    1.250    2.500    3.750    3.500    5.000 
#    0.000   12.500    0.000    0.000    0.000    0.000 
#    0.000    0.000    0.000    0.000    0.000    0.000 
#
# Total GULP energy -198273.303594 kJ/mol
# GULP energy per Si atom -12392.081475 kJ/mol
# Density = 2.200914 g / cm^3
# Si number density = 22.059344 Si / 1000 Ang^3
#
#
#
# Elastic Constant Matrix: (Units=GPa)
#
#
# Indices 1 2 3 4 5 6 
#
# 1 132.0388 55.1375 57.7945 -7.4352 9.9001 19.6813
# 2 55.1375 116.6414 62.1032 -8.6197 2.1663 16.3502
# 3 57.7945 62.1032 116.7116 -5.8784 3.2853 8.2143
# 4 -7.4352 -8.6197 -5.8784 47.2426 2.6046 2.0087
# 5 9.9001 2.1663 3.2853 2.6046 29.0100 11.9226
# 6 19.6813 16.3502 8.2143 2.0087 11.9226 47.8118
#
#
#
# Elastic Compliance Matrix: (Units=1/GPa)
#
#
# Indices 1 2 3 4 5 6 
#
# 1 0.010903 -0.002759 -0.003650 0.000982 -0.002199 -0.002410
# 2 -0.002759 0.013267 -0.005466 0.001340 0.001654 -0.002931
# 3 -0.003650 -0.005466 0.013212 0.000040 -0.000332 0.001183
# 4 0.000982 0.001340 0.000040 0.021729 -0.001848 -0.001321
# 5 -0.002199 0.001654 -0.000332 -0.001848 0.039115 -0.009280
# 6 -0.002410 -0.002931 0.001183 -0.001321 -0.009280 0.025076
#
#
# Mechanical properties :
#
#
# Convention : Reuss Voigt Hill
#
# Bulk Modulus (GPa) = 73.35743 79.49580 76.42661
# Shear Modulus (GPa) = 32.98240 37.50332 35.24286
#
# Velocity S-wave (km/s) = 3.87093 4.12771 4.00138
# Velocity P-wave (km/s) = 7.30107 7.67026 7.48794
#
# Compressibility (1/GPa) = 0.01363188
#
# Stress axis : x y z
#
# Youngs Moduli (GPa) = 91.72009 75.37540 75.68906
#
# Poissons Ratio (x) = 0.20799 0.27624
# Poissons Ratio (y) = 0.25309 0.41370
# Poissons Ratio (z) = 0.33475 0.41199
#
# Static dielectric constant tensor:
#      x y z
#    x 4.491270 0.125350 -0.008670 
#    y 0.125350 4.207940 0.074420 
#    z -0.008670 0.074420 3.623550 
# 
# 
# High freq. dielectric constant tensor:
#      x y z
#    x 1.895850 0.000840 0.002700 
#    y 0.000840 1.873620 0.006820 
#    z 0.002700 0.006820 1.832800 
# 
# From -- ./inp_files/69272.got.cif
#   From: 2010.06.25/outbox.cif.g09.slc.cpg/sg2_35_cif.got.tgz:69272.got - 2010.06.27 13:26:56.
