data_PCOD8024444
_publ_section_title
;
Structure prediction by ZEFSAII (Michael W. Deem and Ramdas Pophale) SiO2 
 PCOD8024444
Probable space group: P -1
;
_chemical_formula_sum "Si O2"
_cell_formula_units_Z 16
_cell_length_a 18.562428
_cell_length_b 6.253814
_cell_length_c 9.581659
_cell_angle_alpha 115.820654
_cell_angle_beta 52.723553
_cell_angle_gamma 135.803783
_cell_volume 617.002637
_symmetry_space_group_name_H-M "P -1"
_symmetry_group_IT_number 2
_symmetry_cell_setting 'triclinic'
loop_
_space_group_symop_operation_xyz
x,y,z
-x,-y,-z
loop_
_atom_site_type_symbol
_atom_site_label
_atom_site_fract_x
_atom_site_fract_y
_atom_site_fract_z
Si Si1 0.043581 0.964977 0.580858
Si Si2 0.655481 0.171420 0.267390
Si Si3 0.160429 0.697932 0.386331
Si Si4 0.182911 0.784137 0.695655
Si Si5 0.478013 0.507119 0.864823
Si Si6 0.047042 0.920326 0.045625
Si Si7 0.605486 0.592623 0.495605
Si Si8 0.282258 0.547728 0.025894
O O1 0.949893 0.614388 0.649191
O O2 0.050246 0.199937 0.750111
O O3 0.159668 0.987247 0.443972
O O4 0.000000 0.000000 0.500000
O O5 0.586684 0.279339 0.443926
O O6 0.758914 0.302078 0.292374
O O7 0.578968 0.812109 0.235489
O O8 0.706521 0.325666 0.102864
O O9 0.272159 0.757172 0.201449
O O10 0.151436 0.608466 0.535451
O O11 0.271996 0.146371 0.650628
O O12 0.068366 0.696850 0.887534
O O13 0.598436 0.719355 0.691164
O O14 0.500000 0.500000 0.000000
O O15 0.397083 0.601211 0.961558
O O16 0.169843 0.189961 0.053689
O O17 0.000000 0.000000 0.000000
O O18 0.500000 0.500000 0.500000
#
# Coordination Sequence:
#
# PCOD8024444 Si02
#       8
#     2   2   2   2   2   2   2   2
#     4  10  23  43  67  94 135 181 225 275 338 400
#     4  12  24  44  72  96 135 181 223 276 348 390
#     4  10  25  42  64  99 138 177 219 280 340 397
#     4  12  25  43  68 103 134 181 226 279 332 405
#     4  12  28  45  69 102 135 181 227 279 339 405
#     4  11  21  45  70  94 140 172 222 282 326 392
#     4  12  24  47  68  97 137 172 228 286 328 397
#     4  11  25  46  65 103 143 171 225 284 329 407
#
# _framework density 25.931816999999999
#
# number of rings (size 3 to 8) (size 9 to 14) (size 15 to 20)
#    0.000    0.750    6.250    0.375    5.250    2.500 
#    0.000    1.250    0.000    0.000    0.000    0.000 
#    0.000    0.000    0.000    0.000    0.000    0.000 
#
# Total GULP energy -198257.121676 kJ/mol
# GULP energy per Si atom -12391.070105 kJ/mol
# Density = 2.587280 g / cm^3
# Si number density = 25.931817 Si / 1000 Ang^3
#
#
#
# Elastic Constant Matrix: (Units=GPa)
#
#
# Indices 1 2 3 4 5 6 
#
# 1 172.1099 8.0511 94.0552 13.9021 1.4425 -46.8943
# 2 8.0511 32.7285 16.8944 16.7485 -8.1124 -7.3674
# 3 94.0552 16.8944 245.2140 20.4373 -8.8954 -35.3849
# 4 13.9021 16.7485 20.4373 47.7868 -15.3798 1.0763
# 5 1.4425 -8.1124 -8.8954 -15.3798 58.4047 6.6441
# 6 -46.8943 -7.3674 -35.3849 1.0763 6.6441 40.2388
#
#
#
# Elastic Compliance Matrix: (Units=1/GPa)
#
#
# Indices 1 2 3 4 5 6 
#
# 1 0.010265 0.002511 -0.002297 -0.003947 -0.002537 0.010928
# 2 0.002511 0.040158 -0.001129 -0.014389 0.000463 0.009594
# 3 -0.002297 -0.001129 0.005418 -0.001236 0.000185 0.001884
# 4 -0.003947 -0.014389 -0.001236 0.030136 0.007017 -0.010286
# 5 -0.002537 0.000463 0.000185 0.007017 0.019827 -0.006170
# 6 0.010928 0.009594 0.001884 -0.010286 -0.006170 0.042294
#
#
# Mechanical properties :
#
#
# Convention : Reuss Voigt Hill
#
# Bulk Modulus (GPa) = 18.51442 76.45041 47.48241
# Shear Modulus (GPa) = 29.77386 51.35617 40.56501
#
# Velocity S-wave (km/s) = 3.39213 4.45503 3.95941
# Velocity P-wave (km/s) = 4.74312 7.48387 6.26520
#
# Compressibility (1/GPa) = 0.05401196
#
# Stress axis : x y z
#
# Youngs Moduli (GPa) = 97.41438 24.90182 184.55668
#
# Poissons Ratio (x) = -0.06253 0.42385
# Poissons Ratio (y) = -0.24463 0.20843
# Poissons Ratio (z) = 0.22372 0.02812
#
# Static dielectric constant tensor:
#      x y z
#    x 4.604360 0.053660 -0.187740 
#    y 0.053660 4.382750 0.597110 
#    z -0.187740 0.597110 4.507760 
# 
# 
# High freq. dielectric constant tensor:
#      x y z
#    x 2.043560 -0.003760 -0.003250 
#    y -0.003760 2.033480 0.011590 
#    z -0.003250 0.011590 2.065840 
# 
# From -- ./inp_files/39778.got.cif
#   From: 2010.06.25/outbox.cif.g09.slc.cpg/sg2_20_cif.got.tgz:39778.got - 2010.06.27 13:26:56.
