data_PCOD8024334
_publ_section_title
;
Structure prediction by ZEFSAII (Michael W. Deem and Ramdas Pophale) SiO2 
 PCOD8024334
Probable space group: P -1
;
_chemical_formula_sum "Si O2"
_cell_formula_units_Z 14
_cell_length_a 16.595787
_cell_length_b 11.116328
_cell_length_c 17.205994
_cell_angle_alpha 32.348523
_cell_angle_beta 22.547601
_cell_angle_gamma 33.579290
_cell_volume 629.255322
_symmetry_space_group_name_H-M "P -1"
_symmetry_group_IT_number 2
_symmetry_cell_setting 'triclinic'
loop_
_space_group_symop_operation_xyz
x,y,z
-x,-y,-z
loop_
_atom_site_type_symbol
_atom_site_label
_atom_site_fract_x
_atom_site_fract_y
_atom_site_fract_z
Si Si1 0.337436 0.897545 0.650224
Si Si2 0.951683 0.772598 0.388981
Si Si3 0.768180 0.843604 0.674204
Si Si4 0.010715 0.774581 0.715050
Si Si5 0.679694 0.675407 0.350336
Si Si6 0.715759 0.967170 0.010688
Si Si7 0.898137 0.448263 0.878665
O O1 0.449037 0.738906 0.564247
O O2 0.500000 0.000000 0.500000
O O3 0.147554 0.109886 0.668522
O O4 0.252022 0.723399 0.876807
O O5 0.778345 0.878285 0.553571
O O6 0.000000 0.500000 0.500000
O O7 0.184722 0.819434 0.172759
O O8 0.518761 0.938241 0.872927
O O9 0.850874 0.566212 0.771438
O O10 0.931375 0.983726 0.491600
O O11 0.854856 0.682070 0.844486
O O12 0.248269 0.584259 0.609539
O O13 0.884862 0.792543 0.899245
O O14 0.853888 0.700339 0.248760
O O15 0.686371 0.848808 0.181376
#
# Coordination Sequence:
#
# PCOD8024334 Si02
#       7
#     2   2   2   2   2   2   2
#     4  12  27  45  68  96 127 177 226 267 325 391
#     4  11  26  45  66  96 133 168 226 275 320 388
#     4  11  24  42  69 101 132 175 216 264 332 388
#     4   9  23  40  70  95 138 169 216 265 326 388
#     4  10  23  43  65  94 135 170 214 267 329 380
#     4  11  22  43  67 100 133 171 219 268 326 389
#     4  10  25  44  64  98 136 170 215 270 325 381
#
# _framework density 22.248519000000002
#
# number of rings (size 3 to 8) (size 9 to 14) (size 15 to 20)
#    0.857    0.571    2.857    0.857    6.000    4.571 
#    0.000    0.000    0.000    0.000    0.000    0.000 
#    0.000    0.000    0.000    0.000    0.000    0.000 
#
# Total GULP energy -173468.436174 kJ/mol
# GULP energy per Si atom -12390.602584 kJ/mol
# Density = 2.219788 g / cm^3
# Si number density = 22.248519 Si / 1000 Ang^3
#
#
#
# Elastic Constant Matrix: (Units=GPa)
#
#
# Indices 1 2 3 4 5 6 
#
# 1 65.1611 3.3412 22.0177 -16.0435 -12.2984 -17.8173
# 2 3.3412 63.2836 34.3931 -15.2377 -4.0421 -14.6798
# 3 22.0177 34.3931 108.3826 -26.5308 -6.1995 -11.6179
# 4 -16.0435 -15.2377 -26.5308 46.2884 -1.1829 0.6812
# 5 -12.2984 -4.0421 -6.1995 -1.1829 33.6711 -7.8492
# 6 -17.8173 -14.6798 -11.6179 0.6812 -7.8492 34.0340
#
#
#
# Elastic Compliance Matrix: (Units=1/GPa)
#
#
# Indices 1 2 3 4 5 6 
#
# 1 0.026700 0.008042 -0.002353 0.010650 0.015312 0.019961
# 2 0.008042 0.024044 -0.005345 0.007642 0.008503 0.014564
# 3 -0.002353 -0.005345 0.012741 0.004744 0.001245 0.001004
# 4 0.010650 0.007642 0.004744 0.030597 0.009573 0.012087
# 5 0.015312 0.008503 0.001245 0.009573 0.041909 0.021582
# 6 0.019961 0.014564 0.001004 0.012087 0.021582 0.051193
#
#
# Mechanical properties :
#
#
# Convention : Reuss Voigt Hill
#
# Bulk Modulus (GPa) = 15.58337 39.59235 27.58786
# Shear Modulus (GPa) = 24.05154 34.60371 29.32762
#
# Velocity S-wave (km/s) = 3.29148 3.94804 3.63462
# Velocity P-wave (km/s) = 4.63299 6.21424 5.48094
#
# Compressibility (1/GPa) = 0.06417096
#
# Stress axis : x y z
#
# Youngs Moduli (GPa) = 37.45383 41.59056 78.48575
#
# Poissons Ratio (x) = -0.33447 0.18471
# Poissons Ratio (y) = -0.30120 0.41954
# Poissons Ratio (z) = 0.08814 0.22232
#
# Static dielectric constant tensor:
#      x y z
#    x 3.918750 -0.003640 -0.025590 
#    y -0.003640 3.935090 0.080890 
#    z -0.025590 0.080890 4.127040 
# 
# 
# High freq. dielectric constant tensor:
#      x y z
#    x 1.867310 -0.002400 0.005670 
#    y -0.002400 1.871760 -0.007340 
#    z 0.005670 -0.007340 1.879800 
# 
# From -- ./inp_files/371039.got.cif
#   From: 2010.06.25/outbox.cif.g09.slc.cpg/sg2_186_cif.got.tgz:371039.got - 2010.06.27 13:26:56.
