data_PCOD8024126
_publ_section_title
;
Structure prediction by ZEFSAII (Michael W. Deem and Ramdas Pophale) SiO2 
 PCOD8024126
Probable space group: P -1
;
_chemical_formula_sum "Si O2"
_cell_formula_units_Z 14
_cell_length_a 12.429011
_cell_length_b 8.705705
_cell_length_c 11.146025
_cell_angle_alpha 75.457287
_cell_angle_beta 124.689455
_cell_angle_gamma 128.329471
_cell_volume 768.155431
_symmetry_space_group_name_H-M "P -1"
_symmetry_group_IT_number 2
_symmetry_cell_setting 'triclinic'
loop_
_space_group_symop_operation_xyz
x,y,z
-x,-y,-z
loop_
_atom_site_type_symbol
_atom_site_label
_atom_site_fract_x
_atom_site_fract_y
_atom_site_fract_z
Si Si1 0.231359 0.534809 0.671078
Si Si2 0.806613 0.971406 0.482116
Si Si3 0.389483 0.764512 0.954078
Si Si4 0.958719 0.451348 0.120741
Si Si5 0.117149 0.698815 0.389276
Si Si6 0.645503 0.724680 0.216277
Si Si7 0.959369 0.120605 0.307504
O O1 0.334992 0.725368 0.788082
O O2 0.200753 0.599674 0.512275
O O3 0.336522 0.451849 0.734212
O O4 0.056886 0.378728 0.650591
O O5 0.765116 0.069403 0.540721
O O6 0.937226 0.141121 0.433214
O O7 0.647858 0.797743 0.340230
O O8 0.883550 0.874622 0.614157
O O9 0.231025 0.647368 0.961073
O O10 0.480817 0.665022 0.060286
O O11 0.500000 0.000000 0.000000
O O12 0.084441 0.655979 0.235007
O O13 0.990272 0.296939 0.214782
O O14 0.000000 0.500000 0.000000
O O15 0.797126 0.909678 0.201106
#
# Coordination Sequence:
#
# PCOD8024126 Si02
#       7
#     2   2   2   2   2   2   2
#     4  10  18  28  52  84 105 128 171 228 261 300
#     4   9  15  29  56  84 100 127 175 230 254 293
#     4  11  20  33  53  79 107 138 174 218 263 303
#     4  11  23  36  51  74 110 146 173 209 260 320
#     4  10  17  30  51  76 104 133 180 214 258 302
#     4  10  17  29  50  84 109 127 160 224 276 299
#     4   9  16  30  52  79 104 131 169 216 263 294
#
# _framework density 18.225479
#
# number of rings (size 3 to 8) (size 9 to 14) (size 15 to 20)
#    0.857    1.143    2.857    4.714    0.000    0.000 
#    0.000    0.714    0.000    6.857    0.000    0.000 
#    0.000    0.000    0.000    0.000    0.000    0.000 
#
# Total GULP energy -173438.234315 kJ/mol
# GULP energy per Si atom -12388.445308 kJ/mol
# Density = 1.818400 g / cm^3
# Si number density = 18.225479 Si / 1000 Ang^3
#
#
#
# Elastic Constant Matrix: (Units=GPa)
#
#
# Indices 1 2 3 4 5 6 
#
# 1 57.4315 29.8045 50.5779 -6.9668 -9.3979 -13.1642
# 2 29.8045 57.1280 29.2137 0.4623 -10.3207 -19.3292
# 3 50.5779 29.2137 116.4455 -4.3666 -4.2490 -7.6064
# 4 -6.9668 0.4623 -4.3666 35.4011 -13.4777 2.2538
# 5 -9.3979 -10.3207 -4.2490 -13.4777 35.8939 0.8605
# 6 -13.1642 -19.3292 -7.6064 2.2538 0.8605 22.8379
#
#
#
# Elastic Compliance Matrix: (Units=1/GPa)
#
#
# Indices 1 2 3 4 5 6 
#
# 1 0.038024 -0.008448 -0.013134 0.008843 0.009072 0.009178
# 2 -0.008448 0.031251 -0.002691 -0.001690 0.005326 0.020650
# 3 -0.013134 -0.002691 0.014488 -0.001595 -0.002983 -0.004753
# 4 0.008843 -0.001690 -0.001595 0.035595 0.015029 -0.000943
# 5 0.009072 0.005326 -0.002983 0.015029 0.036916 0.005869
# 6 0.009178 0.020650 -0.004753 -0.000943 0.005869 0.064844
#
#
# Mechanical properties :
#
#
# Convention : Reuss Voigt Hill
#
# Bulk Modulus (GPa) = 28.39546 50.02192 39.20869
# Shear Modulus (GPa) = 17.76809 26.92051 22.34430
#
# Velocity S-wave (km/s) = 3.12573 3.84745 3.50522
# Velocity P-wave (km/s) = 5.35171 6.87335 6.15970
#
# Compressibility (1/GPa) = 0.03521690
#
# Stress axis : x y z
#
# Youngs Moduli (GPa) = 26.29909 31.99908 69.02074
#
# Poissons Ratio (x) = 0.27034 0.90652
# Poissons Ratio (y) = 0.22219 0.18572
# Poissons Ratio (z) = 0.34541 0.08610
#
# Static dielectric constant tensor:
#      x y z
#    x 2.960170 -0.411610 0.041420 
#    y -0.411610 3.118290 0.223850 
#    z 0.041420 0.223850 3.697820 
# 
# 
# High freq. dielectric constant tensor:
#      x y z
#    x 1.653910 -0.052930 0.015090 
#    y -0.052930 1.682200 0.012190 
#    z 0.015090 0.012190 1.724810 
# 
# From -- ./inp_files/417207.got.cif
#   From: 2010.06.25/outbox.cif.g09.slc.cpg/sg2_209_cif.got.tgz:417207.got - 2010.06.27 13:26:56.
