data_PCOD8024701
_publ_section_title
;
Structure prediction by ZEFSAII (Michael W. Deem and Ramdas Pophale) SiO2 
 PCOD8024701
Probable space group: P -1
;
_chemical_formula_sum "Si O2"
_cell_formula_units_Z 16
_cell_length_a 12.754004
_cell_length_b 8.783979
_cell_length_c 20.990185
_cell_angle_alpha 121.520069
_cell_angle_beta 143.268609
_cell_angle_gamma 34.947494
_cell_volume 741.294827
_symmetry_space_group_name_H-M "P -1"
_symmetry_group_IT_number 2
_symmetry_cell_setting 'triclinic'
loop_
_space_group_symop_operation_xyz
x,y,z
-x,-y,-z
loop_
_atom_site_type_symbol
_atom_site_label
_atom_site_fract_x
_atom_site_fract_y
_atom_site_fract_z
Si Si1 0.692180 0.256135 0.233006
Si Si2 0.795052 0.581051 0.366805
Si Si3 0.709670 0.762487 0.761145
Si Si4 0.798687 0.698249 0.609033
Si Si5 0.751299 0.121692 0.083857
Si Si6 0.865645 0.392245 0.135741
Si Si7 0.798321 0.519348 0.875551
Si Si8 0.226212 0.600250 0.385955
O O1 0.705951 0.448098 0.307020
O O2 0.699372 0.240031 0.155856
O O3 0.403411 0.405287 0.153182
O O4 0.951743 0.942772 0.321443
O O5 0.000000 0.500000 0.500000
O O6 0.944500 0.465068 0.347048
O O7 0.530275 0.921565 0.315257
O O8 0.624557 0.767338 0.791538
O O9 0.753201 0.548339 0.695525
O O10 0.997041 0.656472 0.875893
O O11 0.780974 0.502279 0.573207
O O12 0.897418 0.720264 0.725444
O O13 0.500000 0.000000 0.500000
O O14 0.840007 0.202607 0.093987
O O15 0.456029 0.270757 0.946625
O O16 0.005955 0.778912 0.132058
O O17 0.000000 0.500000 0.000000
O O18 0.500000 0.500000 0.500000
#
# Coordination Sequence:
#
# PCOD8024701 Si02
#       8
#     2   2   2   2   2   2   2   2
#     4  12  25  47  72 105 145 189 235 295 361 422
#     4  12  25  44  68 103 139 181 241 293 350 425
#     4  11  24  43  67 100 141 176 235 287 351 417
#     4  11  23  42  69  98 137 185 232 290 352 420
#     4  11  24  46  71 101 142 182 240 292 352 424
#     4  10  23  43  70  98 130 189 231 286 354 418
#     4  12  28  42  71 104 143 186 236 294 358 423
#     4  11  24  43  70 102 139 185 235 286 359 423
#
# _framework density 21.583853999999999
#
# number of rings (size 3 to 8) (size 9 to 14) (size 15 to 20)
#    0.000    0.750    2.500    5.250    5.250    2.000 
#    0.000    5.625    0.000    0.000    0.000    0.000 
#    0.000    0.000    0.000    0.000    0.000    0.000 
#
# Total GULP energy -198305.454529 kJ/mol
# GULP energy per Si atom -12394.090908 kJ/mol
# Density = 2.153473 g / cm^3
# Si number density = 21.583854 Si / 1000 Ang^3
#
#
#
# Elastic Constant Matrix: (Units=GPa)
#
#
# Indices 1 2 3 4 5 6 
#
# 1 125.6357 26.6373 30.5518 5.3766 22.2020 13.5754
# 2 26.6373 97.6657 40.2730 -17.2225 2.1490 11.2686
# 3 30.5518 40.2730 116.9222 -8.9660 16.8696 9.9229
# 4 5.3766 -17.2225 -8.9660 37.4776 2.6162 -0.3415
# 5 22.2020 2.1490 16.8696 2.6162 42.2930 -1.1715
# 6 13.5754 11.2686 9.9229 -0.3415 -1.1715 35.7105
#
#
#
# Elastic Compliance Matrix: (Units=1/GPa)
#
#
# Indices 1 2 3 4 5 6 
#
# 1 0.009936 -0.002245 -0.001096 -0.002425 -0.004596 -0.002938
# 2 -0.002245 0.013586 -0.003696 0.005552 0.001556 -0.002302
# 3 -0.001096 -0.003696 0.010877 0.001305 -0.003699 -0.001548
# 4 -0.002425 0.005552 0.001305 0.029984 -0.001411 -0.000952
# 5 -0.004596 0.001556 -0.003699 -0.001411 0.027629 0.003177
# 6 -0.002938 -0.002302 -0.001548 -0.000952 0.003177 0.030372
#
#
# Mechanical properties :
#
#
# Convention : Reuss Voigt Hill
#
# Bulk Modulus (GPa) = 49.20496 59.46086 54.33291
# Shear Modulus (GPa) = 34.90808 39.28032 37.09420
#
# Velocity S-wave (km/s) = 4.02596 4.27065 4.15011
# Velocity P-wave (km/s) = 6.66766 7.20600 6.94205
#
# Compressibility (1/GPa) = 0.02032316
#
# Stress axis : x y z
#
# Youngs Moduli (GPa) = 100.64854 73.60553 91.93306
#
# Poissons Ratio (x) = 0.16527 0.10079
# Poissons Ratio (y) = 0.22599 0.33980
# Poissons Ratio (z) = 0.11035 0.27206
#
# Static dielectric constant tensor:
#      x y z
#    x 4.517880 0.139350 0.234780 
#    y 0.139350 4.186330 -0.135350 
#    z 0.234780 -0.135350 3.852330 
# 
# 
# High freq. dielectric constant tensor:
#      x y z
#    x 1.870190 0.012580 0.009280 
#    y 0.012580 1.845720 -0.011270 
#    z 0.009280 -0.011270 1.855120 
# 
# From -- ./inp_files/611778.got.cif
#   From: 2010.06.25/outbox.cif.g09.slc.cpg/sg2_306_cif.got.tgz:611778.got - 2010.06.27 13:26:56.
