data_PCOD8024816
_publ_section_title
;
Structure prediction by ZEFSAII (Michael W. Deem and Ramdas Pophale) SiO2 
 PCOD8024816
Probable space group: P -1
;
_chemical_formula_sum "Si O2"
_cell_formula_units_Z 16
_cell_length_a 15.182824
_cell_length_b 12.341023
_cell_length_c 9.109104
_cell_angle_alpha 140.697648
_cell_angle_beta 48.567002
_cell_angle_gamma 135.156243
_cell_volume 737.528841
_symmetry_space_group_name_H-M "P -1"
_symmetry_group_IT_number 2
_symmetry_cell_setting 'triclinic'
loop_
_space_group_symop_operation_xyz
x,y,z
-x,-y,-z
loop_
_atom_site_type_symbol
_atom_site_label
_atom_site_fract_x
_atom_site_fract_y
_atom_site_fract_z
Si Si1 0.964101 0.870936 0.262084
Si Si2 0.146114 0.638902 0.463550
Si Si3 0.266556 0.492015 0.926784
Si Si4 0.504857 0.603333 0.314691
Si Si5 0.609248 0.200228 0.128308
Si Si6 0.876164 0.988645 0.204993
Si Si7 0.639713 0.774787 0.067689
Si Si8 0.230813 0.862289 0.871847
O O1 0.858355 0.656475 0.181116
O O2 0.889097 0.955170 0.326391
O O3 0.000000 0.000000 0.500000
O O4 0.094583 0.878667 0.052488
O O5 0.211438 0.686690 0.602891
O O6 0.000000 0.500000 0.500000
O O7 0.155258 0.830971 0.581816
O O8 0.220125 0.546648 0.187428
O O9 0.367763 0.406296 0.767046
O O10 0.333679 0.679303 0.953324
O O11 0.450998 0.694447 0.591513
O O12 0.529593 0.724719 0.263261
O O13 0.395317 0.396990 0.185989
O O14 0.724749 0.171416 0.053170
O O15 0.500000 0.000000 0.000000
O O16 0.766797 0.809783 0.058630
O O17 0.000000 0.000000 0.000000
O O18 0.659410 0.953496 0.132107
#
# Coordination Sequence:
#
# PCOD8024816 Si02
#       8
#     2   2   2   2   2   2   2   2
#     4  12  27  43  71 105 141 186 227 284 361 427
#     4  11  24  43  72 108 142 174 235 289 348 415
#     4  12  27  48  73 102 143 187 233 291 350 421
#     4  11  26  46  73 101 136 188 243 286 340 414
#     4  12  31  47  69 100 147 190 232 286 352 419
#     4  11  21  44  71 101 139 180 225 289 349 405
#     4  10  23  43  74 102 131 178 241 288 340 402
#     4  11  26  46  70 105 141 178 233 293 354 410
#
# _framework density 21.694067
#
# number of rings (size 3 to 8) (size 9 to 14) (size 15 to 20)
#    0.000    0.750    5.000    1.125   12.250    2.000 
#    0.000    0.000    0.000    0.000    0.000    0.000 
#    0.000    0.000    0.000    0.000    0.000    0.000 
#
# Total GULP energy -198371.803757 kJ/mol
# GULP energy per Si atom -12398.237735 kJ/mol
# Density = 2.164469 g / cm^3
# Si number density = 21.694067 Si / 1000 Ang^3
#
#
#
# Elastic Constant Matrix: (Units=GPa)
#
#
# Indices 1 2 3 4 5 6 
#
# 1 112.4431 26.8422 32.4430 9.6475 14.8682 6.7100
# 2 26.8422 126.9174 22.7175 6.9804 16.2565 11.0000
# 3 32.4430 22.7175 111.3679 0.6524 25.8850 20.6959
# 4 9.6475 6.9804 0.6524 27.9067 5.4209 10.0015
# 5 14.8682 16.2565 25.8850 5.4209 41.9887 8.3520
# 6 6.7100 11.0000 20.6959 10.0015 8.3520 41.7929
#
#
#
# Elastic Compliance Matrix: (Units=1/GPa)
#
#
# Indices 1 2 3 4 5 6 
#
# 1 0.010386 -0.001476 -0.002602 -0.003288 -0.001287 0.001054
# 2 -0.001476 0.008722 -0.000643 -0.000844 -0.002127 -0.001113
# 3 -0.002602 -0.000643 0.012150 0.003752 -0.005775 -0.005174
# 4 -0.003288 -0.000844 0.003752 0.041565 -0.004154 -0.010225
# 5 -0.001287 -0.002127 -0.005775 -0.004154 0.029443 -0.001263
# 6 0.001054 -0.001113 -0.005174 -0.010225 -0.001263 0.029313
#
#
# Mechanical properties :
#
#
# Convention : Reuss Voigt Hill
#
# Bulk Modulus (GPa) = 45.83796 57.19263 51.51529
# Shear Modulus (GPa) = 33.71702 40.25272 36.98487
#
# Velocity S-wave (km/s) = 3.94662 4.31219 4.13345
# Velocity P-wave (km/s) = 6.47633 7.15638 6.82483
#
# Compressibility (1/GPa) = 0.02181598
#
# Stress axis : x y z
#
# Youngs Moduli (GPa) = 96.28391 114.65476 82.30387
#
# Poissons Ratio (x) = 0.16928 0.21413
# Poissons Ratio (y) = 0.14216 0.05290
# Poissons Ratio (z) = 0.25050 0.07370
#
# Static dielectric constant tensor:
#      x y z
#    x 4.131150 0.136380 0.324220 
#    y 0.136380 4.236570 0.204910 
#    z 0.324220 0.204910 3.999790 
# 
# 
# High freq. dielectric constant tensor:
#      x y z
#    x 1.862660 0.009280 0.011950 
#    y 0.009280 1.868100 0.002700 
#    z 0.011950 0.002700 1.848620 
# 
# From -- ./inp_files/308697.got.cif
#   From: 2010.06.25/outbox.cif.g09.slc.cpg/sg2_155_cif.got.tgz:308697.got - 2010.06.27 13:26:56.
