data_PCOD8024042
_publ_section_title
;
Structure prediction by ZEFSAII (Michael W. Deem and Ramdas Pophale) SiO2 
 PCOD8024042
Probable space group: P -1
;
_chemical_formula_sum "Si O2"
_cell_formula_units_Z 16
_cell_length_a 20.402019
_cell_length_b 12.100046
_cell_length_c 8.454033
_cell_angle_alpha 128.161657
_cell_angle_beta 32.852455
_cell_angle_gamma 138.102773
_cell_volume 755.890581
_symmetry_space_group_name_H-M "P -1"
_symmetry_group_IT_number 2
_symmetry_cell_setting 'triclinic'
loop_
_space_group_symop_operation_xyz
x,y,z
-x,-y,-z
loop_
_atom_site_type_symbol
_atom_site_label
_atom_site_fract_x
_atom_site_fract_y
_atom_site_fract_z
Si Si1 0.257948 0.680888 0.365010
Si Si2 0.620661 0.673979 0.842486
Si Si3 0.530647 0.931477 0.222100
Si Si4 0.206843 0.762637 0.205746
Si Si5 0.171257 0.237341 0.750718
Si Si6 0.837058 0.635875 0.559080
Si Si7 0.053212 0.440280 0.030256
Si Si8 0.003145 0.130078 0.291217
O O1 0.393574 0.841418 0.306929
O O2 0.254940 0.692785 0.191512
O O3 0.263813 0.517987 0.254889
O O4 0.116096 0.664301 0.706127
O O5 0.664941 0.679502 0.570982
O O6 0.758882 0.713248 0.695592
O O7 0.500000 0.500000 0.000000
O O8 0.577600 0.806952 0.076974
O O9 0.500000 0.000000 0.500000
O O10 0.653302 0.082254 0.010862
O O11 0.104146 0.823608 0.532168
O O12 0.122311 0.625935 0.120635
O O13 0.118961 0.360452 0.933633
O O14 0.146355 0.196443 0.952605
O O15 0.074689 0.065702 0.700091
O O16 0.906191 0.561910 0.236775
O O17 0.959594 0.789962 0.541714
#
# Coordination Sequence:
#
# PCOD8024042 Si02
#       8
#     2   2   2   2   2   2   2   2
#     4  12  23  42  67 101 137 179 226 274 343 405
#     4  11  24  47  66  92 136 183 220 275 338 410
#     4  12  28  46  68  98 140 183 227 280 338 412
#     4  12  24  44  69 102 139 177 227 287 340 405
#     4  10  23  42  69  95 140 171 224 284 339 399
#     4  11  24  40  72 100 134 173 233 278 340 400
#     4  11  23  40  72 103 133 178 227 286 336 404
#     4  11  22  42  67 105 131 175 227 292 343 392
#
# _framework density 21.167085
#
# number of rings (size 3 to 8) (size 9 to 14) (size 15 to 20)
#    0.000    0.750    5.000    2.625    3.500    3.000 
#    0.000    0.625    0.000    0.000    0.000    0.000 
#    0.000    0.000    0.000    0.000    0.000    0.000 
#
# Total GULP energy -198355.845623 kJ/mol
# GULP energy per Si atom -12397.240351 kJ/mol
# Density = 2.111891 g / cm^3
# Si number density = 21.167085 Si / 1000 Ang^3
#
#
#
# Elastic Constant Matrix: (Units=GPa)
#
#
# Indices 1 2 3 4 5 6 
#
# 1 69.0876 16.9015 48.6974 -1.8441 18.3878 4.8066
# 2 16.9015 104.1016 61.0398 -9.3047 10.4504 0.2175
# 3 48.6974 61.0398 133.2994 -11.1738 2.8809 0.0225
# 4 -1.8441 -9.3047 -11.1738 39.9142 -8.8526 -0.2297
# 5 18.3878 10.4504 2.8809 -8.8526 30.0039 -0.1851
# 6 4.8066 0.2175 0.0225 -0.2297 -0.1851 41.6905
#
#
#
# Elastic Compliance Matrix: (Units=1/GPa)
#
#
# Indices 1 2 3 4 5 6 
#
# 1 0.026481 0.003759 -0.011434 -0.005104 -0.017966 -0.003174
# 2 0.003759 0.014177 -0.007735 -0.000141 -0.006544 -0.000533
# 3 -0.011434 -0.007735 0.015358 0.004069 0.009436 0.001415
# 4 -0.005104 -0.000141 0.004069 0.028407 0.011173 0.000793
# 5 -0.017966 -0.006544 0.009436 0.011173 0.049024 0.002380
# 6 -0.003174 -0.000533 0.001415 0.000793 0.002380 0.024369
#
#
# Mechanical properties :
#
#
# Convention : Reuss Voigt Hill
#
# Bulk Modulus (GPa) = 39.69146 62.19623 50.94384
# Shear Modulus (GPa) = 25.37630 34.31169 29.84400
#
# Velocity S-wave (km/s) = 3.46621 4.03052 3.75897
# Velocity P-wave (km/s) = 5.90014 7.14894 6.55435
#
# Compressibility (1/GPa) = 0.02519434
#
# Stress axis : x y z
#
# Youngs Moduli (GPa) = 37.76343 70.53830 65.11172
#
# Poissons Ratio (x) = -0.26517 0.74452
# Poissons Ratio (y) = -0.14196 0.50366
# Poissons Ratio (z) = 0.43180 0.54564
#
# Static dielectric constant tensor:
#      x y z
#    x 3.870830 -0.225810 0.043890 
#    y -0.225810 3.876330 -0.113660 
#    z 0.043890 -0.113660 4.046930 
# 
# 
# High freq. dielectric constant tensor:
#      x y z
#    x 1.822690 -0.018830 0.006950 
#    y -0.018830 1.841190 -0.001180 
#    z 0.006950 -0.001180 1.835510 
# 
# From -- ./inp_files/239347.got.cif
#   From: 2010.06.25/outbox.cif.g09.slc.cpg/sg2_120_cif.got.tgz:239347.got - 2010.06.27 13:26:56.
