data_PCOD8024755
_publ_section_title
;
Structure prediction by ZEFSAII (Michael W. Deem and Ramdas Pophale) SiO2 
 PCOD8024755
Probable space group: P -1
;
_chemical_formula_sum "Si O2"
_cell_formula_units_Z 16
_cell_length_a 8.899364
_cell_length_b 8.624029
_cell_length_c 12.139993
_cell_angle_alpha 50.545767
_cell_angle_beta 107.492385
_cell_angle_gamma 97.891322
_cell_volume 684.319434
_symmetry_space_group_name_H-M "P -1"
_symmetry_group_IT_number 2
_symmetry_cell_setting 'triclinic'
loop_
_space_group_symop_operation_xyz
x,y,z
-x,-y,-z
loop_
_atom_site_type_symbol
_atom_site_label
_atom_site_fract_x
_atom_site_fract_y
_atom_site_fract_z
Si Si1 0.177828 0.435752 0.383829
Si Si2 0.535061 0.119505 0.241057
Si Si3 0.967808 0.963897 0.827077
Si Si4 0.337393 0.767096 0.397431
Si Si5 0.467227 0.221439 0.943181
Si Si6 0.892827 0.736260 0.116810
Si Si7 0.879612 0.983923 0.382149
Si Si8 0.563322 0.619486 0.698882
O O1 0.305353 0.571249 0.407140
O O2 0.136634 0.254625 0.537882
O O3 0.270756 0.341737 0.340385
O O4 0.013596 0.549343 0.259287
O O5 0.433588 0.257019 0.243072
O O6 0.457871 0.906773 0.299569
O O7 0.712814 0.085780 0.339595
O O8 0.539207 0.230242 0.076210
O O9 0.073456 0.071303 0.890157
O O10 0.072144 0.901409 0.770814
O O11 0.828834 0.108830 0.679000
O O12 0.904009 0.780108 0.967147
O O13 0.410106 0.703080 0.559314
O O14 0.284697 0.306202 0.871969
O O15 0.558337 0.379828 0.821196
O O16 0.500000 0.000000 0.000000
O O17 0.000000 0.000000 0.500000
#
# Coordination Sequence:
#
# PCOD8024755 Si02
#       8
#     2   2   2   2   2   2   2   2
#     4  11  27  44  72 110 140 187 244 290 356 425
#     4  12  26  48  71 103 146 189 240 293 358 423
#     4  10  23  43  72 100 142 185 234 288 361 416
#     4  11  23  46  75 102 138 186 242 299 347 420
#     4  12  27  46  77 103 139 188 242 297 350 425
#     4  10  24  45  70 105 141 182 235 298 349 419
#     4  12  28  45  70 105 148 191 233 292 364 425
#     4  12  27  44  72 104 146 185 239 298 360 419
#
# _framework density 23.380894000000001
#
# number of rings (size 3 to 8) (size 9 to 14) (size 15 to 20)
#    0.000    0.750    2.500    3.375   14.000    1.000 
#    0.000    1.250    0.000    0.000    0.000    0.000 
#    0.000    0.000    0.000    0.000    0.000    0.000 
#
# Total GULP energy -198421.748163 kJ/mol
# GULP energy per Si atom -12401.359260 kJ/mol
# Density = 2.332768 g / cm^3
# Si number density = 23.380894 Si / 1000 Ang^3
#
#
#
# Elastic Constant Matrix: (Units=GPa)
#
#
# Indices 1 2 3 4 5 6 
#
# 1 106.1091 22.5670 10.9143 7.7845 6.1389 0.6845
# 2 22.5670 64.6626 12.8253 9.5225 4.7311 -7.0690
# 3 10.9143 12.8253 93.7036 8.0124 -2.9848 3.9630
# 4 7.7845 9.5225 8.0124 30.2309 1.1271 -4.3287
# 5 6.1389 4.7311 -2.9848 1.1271 45.2642 3.1514
# 6 0.6845 -7.0690 3.9630 -4.3287 3.1514 34.8280
#
#
#
# Elastic Compliance Matrix: (Units=1/GPa)
#
#
# Indices 1 2 3 4 5 6 
#
# 1 0.010366 -0.003291 -0.000617 -0.001561 -0.001001 -0.000905
# 2 -0.003291 0.018083 -0.001982 -0.003735 -0.001736 0.003653
# 3 -0.000617 -0.001982 0.011365 -0.002579 0.001252 -0.002117
# 4 -0.001561 -0.003735 -0.002579 0.035956 -0.000749 0.004103
# 5 -0.001001 -0.001736 0.001252 -0.000749 0.022693 -0.002622
# 6 -0.000905 0.003653 -0.002117 0.004103 -0.002622 0.030460
#
#
# Mechanical properties :
#
#
# Convention : Reuss Voigt Hill
#
# Bulk Modulus (GPa) = 35.67148 39.67653 37.67400
# Shear Modulus (GPa) = 33.32255 36.60921 34.96588
#
# Velocity S-wave (km/s) = 3.77928 3.96128 3.87135
# Velocity P-wave (km/s) = 5.85950 6.15864 6.01093
#
# Compressibility (1/GPa) = 0.02803360
#
# Stress axis : x y z
#
# Youngs Moduli (GPa) = 96.46975 55.30024 87.98919
#
# Poissons Ratio (x) = 0.18200 0.05429
# Poissons Ratio (y) = 0.31749 0.17440
# Poissons Ratio (z) = 0.05953 0.10961
#
# Static dielectric constant tensor:
#      x y z
#    x 4.244860 0.060000 -0.032210 
#    y 0.060000 3.971450 -0.027320 
#    z -0.032210 -0.027320 4.366900 
# 
# 
# High freq. dielectric constant tensor:
#      x y z
#    x 1.936510 0.001440 0.003470 
#    y 0.001440 1.905880 0.004310 
#    z 0.003470 0.004310 1.936480 
# 
# From -- ./inp_files/261816.got.cif
#   From: 2010.06.25/outbox.cif.g09.slc.cpg/sg2_131_cif.got.tgz:261816.got - 2010.06.27 13:26:56.
