data_PCOD8024684
_publ_section_title
;
Structure prediction by ZEFSAII (Michael W. Deem and Ramdas Pophale) SiO2 
 PCOD8024684
Probable space group: P -1
;
_chemical_formula_sum "Si O2"
_cell_formula_units_Z 16
_cell_length_a 9.458199
_cell_length_b 9.291182
_cell_length_c 12.030644
_cell_angle_alpha 127.210896
_cell_angle_beta 120.096037
_cell_angle_gamma 56.859093
_cell_volume 681.496997
_symmetry_space_group_name_H-M "P -1"
_symmetry_group_IT_number 2
_symmetry_cell_setting 'triclinic'
loop_
_space_group_symop_operation_xyz
x,y,z
-x,-y,-z
loop_
_atom_site_type_symbol
_atom_site_label
_atom_site_fract_x
_atom_site_fract_y
_atom_site_fract_z
Si Si1 0.831459 0.407440 0.269499
Si Si2 0.845074 0.831953 0.852688
Si Si3 0.261383 0.617047 0.539546
Si Si4 0.487793 0.211666 0.378677
Si Si5 0.946050 0.318737 0.924347
Si Si6 0.002314 0.192863 0.649540
Si Si7 0.315269 0.737037 0.051232
Si Si8 0.344997 0.206821 0.711785
O O1 0.845871 0.326587 0.362009
O O2 0.754517 0.643954 0.355169
O O3 0.022385 0.325825 0.250663
O O4 0.695151 0.344836 0.113614
O O5 0.659256 0.805005 0.769762
O O6 0.819392 0.043060 0.893853
O O7 0.910023 0.814749 0.996517
O O8 0.407413 0.403036 0.511293
O O9 0.355959 0.771536 0.627283
O O10 0.129180 0.628828 0.390826
O O11 0.560769 0.017603 0.394385
O O12 0.756159 0.376742 0.936934
O O13 0.935557 0.202866 0.754211
O O14 0.000000 0.500000 0.000000
O O15 0.193104 0.209967 0.739929
O O16 0.000000 0.000000 0.500000
O O17 0.515566 0.714314 0.138091
#
# Coordination Sequence:
#
# PCOD8024684 Si02
#       8
#     2   2   2   2   2   2   2   2
#     4  11  23  42  69  99 133 172 220 281 333 397
#     4  10  23  43  70  96 131 172 228 268 338 393
#     4  11  25  44  66  93 140 176 223 270 339 401
#     4  10  23  44  63  96 133 181 218 273 333 406
#     4  11  23  43  71  97 133 180 221 275 335 402
#     4  12  26  43  68 100 136 176 229 275 332 402
#     4  10  24  44  70 100 134 170 226 276 338 393
#     4  11  24  44  66  98 135 174 224 281 326 397
#
# _framework density 23.477727000000002
#
# number of rings (size 3 to 8) (size 9 to 14) (size 15 to 20)
#    0.000    1.250    1.250    4.875    3.500    6.500 
#    2.250    2.500    0.000    0.000    0.000    0.000 
#    0.000    0.000    0.000    0.000    0.000    0.000 
#
# Total GULP energy -198325.846187 kJ/mol
# GULP energy per Si atom -12395.365387 kJ/mol
# Density = 2.342429 g / cm^3
# Si number density = 23.477727 Si / 1000 Ang^3
#
#
#
# Elastic Constant Matrix: (Units=GPa)
#
#
# Indices 1 2 3 4 5 6 
#
# 1 133.7016 49.9157 58.9660 -24.4583 18.3434 1.4320
# 2 49.9157 127.5733 33.8368 3.4199 -2.0078 -7.4140
# 3 58.9660 33.8368 107.1877 -17.8440 -13.8816 10.1584
# 4 -24.4583 3.4199 -17.8440 34.3124 9.3728 0.6586
# 5 18.3434 -2.0078 -13.8816 9.3728 40.6133 -2.6232
# 6 1.4320 -7.4140 10.1584 0.6586 -2.6232 34.3628
#
#
#
# Elastic Compliance Matrix: (Units=1/GPa)
#
#
# Indices 1 2 3 4 5 6 
#
# 1 0.016556 -0.005205 -0.007021 0.012245 -0.013023 -0.000966
# 2 -0.005205 0.010692 -0.001411 -0.006712 0.004165 0.003387
# 3 -0.007021 -0.001411 0.015183 0.000972 0.007813 -0.003922
# 4 0.012245 -0.006712 0.000972 0.043455 -0.015836 -0.004288
# 5 -0.013023 0.004165 0.007813 -0.015836 0.037183 0.002274
# 6 -0.000966 0.003387 -0.003922 -0.004288 0.002274 0.031288
#
#
# Mechanical properties :
#
#
# Convention : Reuss Voigt Hill
#
# Bulk Modulus (GPa) = 65.97858 72.65552 69.31705
# Shear Modulus (GPa) = 26.78336 36.90730 31.84533
#
# Velocity S-wave (km/s) = 3.38124 3.96916 3.68694
# Velocity P-wave (km/s) = 6.58842 7.21245 6.90749
#
# Compressibility (1/GPa) = 0.01515644
#
# Stress axis : x y z
#
# Youngs Moduli (GPa) = 60.39985 93.52983 65.86347
#
# Poissons Ratio (x) = 0.48683 0.46246
# Poissons Ratio (y) = 0.31439 0.09292
# Poissons Ratio (z) = 0.42409 0.13195
#
# Static dielectric constant tensor:
#      x y z
#    x 4.327720 0.021580 0.236980 
#    y 0.021580 4.719980 0.101160 
#    z 0.236980 0.101160 3.978480 
# 
# 
# High freq. dielectric constant tensor:
#      x y z
#    x 1.935190 -0.002200 0.024960 
#    y -0.002200 1.947140 0.012430 
#    z 0.024960 0.012430 1.903870 
# 
# From -- ./inp_files/383309.got.cif
#   From: 2010.06.25/outbox.cif.g09.slc.cpg/sg2_192_cif.got.tgz:383309.got - 2010.06.27 13:26:56.
