data_PCOD8024974
_publ_section_title
;
Structure prediction by ZEFSAII (Michael W. Deem and Ramdas Pophale) SiO2 
 PCOD8024974
Probable space group: P -1
;
_chemical_formula_sum "Si O2"
_cell_formula_units_Z 16
_cell_length_a 12.146758
_cell_length_b 9.365006
_cell_length_c 14.972142
_cell_angle_alpha 45.445513
_cell_angle_beta 133.091360
_cell_angle_gamma 113.818786
_cell_volume 876.909442
_symmetry_space_group_name_H-M "P -1"
_symmetry_group_IT_number 2
_symmetry_cell_setting 'triclinic'
loop_
_space_group_symop_operation_xyz
x,y,z
-x,-y,-z
loop_
_atom_site_type_symbol
_atom_site_label
_atom_site_fract_x
_atom_site_fract_y
_atom_site_fract_z
Si Si1 0.329155 0.426051 0.621191
Si Si2 0.388248 0.040617 0.056692
Si Si3 0.305981 0.983409 0.848017
Si Si4 0.901549 0.651621 0.246044
Si Si5 0.400615 0.631189 0.314061
Si Si6 0.133133 0.484200 0.313068
Si Si7 0.009187 0.088577 0.368906
Si Si8 0.117939 0.725389 0.482684
O O1 0.291847 0.229636 0.739879
O O2 0.509279 0.429606 0.702721
O O3 0.247082 0.404994 0.490475
O O4 0.267429 0.628847 0.553193
O O5 0.555724 0.103171 0.104704
O O6 0.395015 0.876450 0.213483
O O7 0.342366 0.914853 0.999756
O O8 0.266602 0.239364 0.920998
O O9 0.158194 0.895182 0.772800
O O10 0.909767 0.421200 0.386064
O O11 0.998514 0.644986 0.210764
O O12 0.975783 0.767420 0.316436
O O13 0.500000 0.500000 0.500000
O O14 0.226700 0.585892 0.243438
O O15 0.063828 0.304948 0.304694
O O16 0.000000 0.000000 0.500000
O O17 0.130826 0.940729 0.440648
#
# Coordination Sequence:
#
# PCOD8024974 Si02
#       8
#     2   2   2   2   2   2   2   2
#     4   9  16  33  56  77 104 133 183 222 250 304
#     4  10  19  32  56  79 105 136 181 228 255 302
#     4  10  18  31  52  84 105 132 176 224 269 306
#     4  10  17  31  53  81 107 135 176 223 261 304
#     4   9  20  36  53  78 104 143 181 216 259 313
#     4  10  20  32  52  78 110 144 171 211 261 320
#     4  12  19  31  53  83 114 140 167 215 275 318
#     4  10  17  29  52  84 107 133 177 218 263 314
#
# _framework density 18.245896999999999
#
# number of rings (size 3 to 8) (size 9 to 14) (size 15 to 20)
#    0.000    2.000    5.000    0.750    0.000    0.500 
#    0.000    1.875    0.000    0.000    0.000    0.000 
#    0.000    0.000    0.000    0.000    0.000    0.000 
#
# Total GULP energy -198220.342912 kJ/mol
# GULP energy per Si atom -12388.771432 kJ/mol
# Density = 1.820437 g / cm^3
# Si number density = 18.245897 Si / 1000 Ang^3
#
#
#
# Elastic Constant Matrix: (Units=GPa)
#
#
# Indices 1 2 3 4 5 6 
#
# 1 125.5224 49.9158 24.3058 -6.5309 23.3192 2.3848
# 2 49.9158 81.9308 18.9719 -3.2532 8.7051 -4.5412
# 3 24.3058 18.9719 65.8266 -10.2837 14.5673 -5.6752
# 4 -6.5309 -3.2532 -10.2837 17.5663 -4.2070 4.5184
# 5 23.3192 8.7051 14.5673 -4.2070 30.8496 -6.8239
# 6 2.3848 -4.5412 -5.6752 4.5184 -6.8239 22.5765
#
#
#
# Elastic Compliance Matrix: (Units=1/GPa)
#
#
# Indices 1 2 3 4 5 6 
#
# 1 0.012622 -0.006821 -0.001035 0.002399 -0.008104 -0.005895
# 2 -0.006821 0.016925 -0.002765 -0.001585 0.002463 0.004492
# 3 -0.001035 -0.002765 0.019144 0.008642 -0.006125 0.000784
# 4 0.002399 -0.001585 0.008642 0.065723 0.001029 -0.011242
# 5 -0.008104 0.002463 -0.006125 0.001029 0.043715 0.012819
# 6 -0.005895 0.004492 0.000784 -0.011242 0.012819 0.052142
#
#
# Mechanical properties :
#
#
# Convention : Reuss Voigt Hill
#
# Bulk Modulus (GPa) = 36.42966 51.07409 43.75188
# Shear Modulus (GPa) = 20.77614 26.20424 23.49019
#
# Velocity S-wave (km/s) = 3.37809 3.79380 3.59196
# Velocity P-wave (km/s) = 5.93503 6.87338 6.42137
#
# Compressibility (1/GPa) = 0.02745016
#
# Stress axis : x y z
#
# Youngs Moduli (GPa) = 79.22815 59.08270 52.23683
#
# Poissons Ratio (x) = 0.40298 0.05405
# Poissons Ratio (y) = 0.54038 0.14444
# Poissons Ratio (z) = 0.08198 0.16337
#
# Static dielectric constant tensor:
#      x y z
#    x 3.844730 0.023540 0.100990 
#    y 0.023540 3.014720 -0.023140 
#    z 0.100990 -0.023140 3.382510 
# 
# 
# High freq. dielectric constant tensor:
#      x y z
#    x 1.720110 -0.009420 0.017020 
#    y -0.009420 1.652450 -0.009490 
#    z 0.017020 -0.009490 1.702800 
# 
# From -- ./inp_files/280946.got.cif
#   From: 2010.06.25/outbox.cif.g09.slc.cpg/sg2_141_cif.got.tgz:280946.got - 2010.06.27 13:26:56.
