data_PCOD8024772
_publ_section_title
;
Structure prediction by ZEFSAII (Michael W. Deem and Ramdas Pophale) SiO2 
 PCOD8024772
Probable space group: P -1
;
_chemical_formula_sum "Si O2"
_cell_formula_units_Z 14
_cell_length_a 8.430023
_cell_length_b 16.578586
_cell_length_c 8.988047
_cell_angle_alpha 146.741978
_cell_angle_beta 64.017603
_cell_angle_gamma 112.704082
_cell_volume 618.767892
_symmetry_space_group_name_H-M "P -1"
_symmetry_group_IT_number 2
_symmetry_cell_setting 'triclinic'
loop_
_space_group_symop_operation_xyz
x,y,z
-x,-y,-z
loop_
_atom_site_type_symbol
_atom_site_label
_atom_site_fract_x
_atom_site_fract_y
_atom_site_fract_z
Si Si1 0.973613 0.486041 0.814933
Si Si2 0.455874 0.104440 0.542262
Si Si3 0.009311 0.985785 0.217650
Si Si4 0.286267 0.071541 0.992833
Si Si5 0.650926 0.590924 0.487650
Si Si6 0.932257 0.807137 0.232210
Si Si7 0.617213 0.415656 0.933419
O O1 0.146306 0.431238 0.573088
O O2 0.799316 0.376588 0.710316
O O3 0.000000 0.500000 0.000000
O O4 0.913934 0.634116 0.988793
O O5 0.252139 0.113523 0.597586
O O6 0.528483 0.267514 0.806337
O O7 0.500000 0.000000 0.500000
O O8 0.555387 0.040346 0.259268
O O9 0.047534 0.849138 0.102095
O O10 0.180616 0.026163 0.113188
O O11 0.974598 0.127246 0.555469
O O12 0.838607 0.944190 0.124803
O O13 0.375607 0.235345 0.222286
O O14 0.500000 0.500000 0.500000
O O15 0.649736 0.533595 0.232526
O O16 0.500000 0.500000 0.000000
#
# Coordination Sequence:
#
# PCOD8024772 Si02
#       7
#     2   2   2   2   2   2   2
#     4  10  23  43  72  96 143 188 241 281 360 422
#     4  12  25  43  75 105 146 185 241 297 359 429
#     4  10  24  41  70  99 147 177 240 291 359 424
#     4  11  25  45  68 106 145 186 230 303 369 414
#     4  11  26  45  72 100 146 185 236 295 361 417
#     4  11  23  45  70 108 134 194 243 293 347 442
#     4  11  24  46  72 103 138 192 244 284 347 437
#
# _framework density 22.625609000000001
#
# number of rings (size 3 to 8) (size 9 to 14) (size 15 to 20)
#    0.000    1.143    2.857    2.571    8.000    2.857 
#    2.571    1.429    0.000    0.000    0.000    0.000 
#    0.000    0.000    0.000    0.000    0.000    0.000 
#
# Total GULP energy -173494.987006 kJ/mol
# GULP energy per Si atom -12392.499072 kJ/mol
# Density = 2.257411 g / cm^3
# Si number density = 22.625609 Si / 1000 Ang^3
#
#
#
# Elastic Constant Matrix: (Units=GPa)
#
#
# Indices 1 2 3 4 5 6 
#
# 1 88.9479 41.9471 29.5392 -1.5039 -8.2294 9.7777
# 2 41.9471 142.4680 31.7001 0.4367 2.6928 5.0487
# 3 29.5392 31.7001 84.8240 7.8828 6.9659 0.0882
# 4 -1.5039 0.4367 7.8828 44.5343 4.9222 -1.3029
# 5 -8.2294 2.6928 6.9659 4.9222 35.6617 2.5867
# 6 9.7777 5.0487 0.0882 -1.3029 2.5867 42.1602
#
#
#
# Elastic Compliance Matrix: (Units=1/GPa)
#
#
# Indices 1 2 3 4 5 6 
#
# 1 0.015171 -0.003450 -0.004448 0.000707 0.004777 -0.003367
# 2 -0.003450 0.008483 -0.001903 0.000254 -0.001090 -0.000137
# 3 -0.004448 -0.001903 0.014548 -0.002278 -0.003510 0.001374
# 4 0.000707 0.000254 -0.002278 0.023194 -0.002662 0.000691
# 5 0.004777 -0.001090 -0.003510 -0.002662 0.030491 -0.002923
# 6 -0.003367 -0.000137 0.001374 0.000691 -0.002923 0.024714
#
#
# Mechanical properties :
#
#
# Convention : Reuss Voigt Hill
#
# Bulk Modulus (GPa) = 53.76471 58.06806 55.91639
# Shear Modulus (GPa) = 35.11175 38.67480 36.89328
#
# Velocity S-wave (km/s) = 3.94364 4.13890 4.04245
# Velocity P-wave (km/s) = 6.67463 6.96858 6.82319
#
# Compressibility (1/GPa) = 0.01859956
#
# Stress axis : x y z
#
# Youngs Moduli (GPa) = 65.91573 117.88298 68.73911
#
# Poissons Ratio (x) = 0.40671 0.30577
# Poissons Ratio (y) = 0.22742 0.13079
# Poissons Ratio (z) = 0.29321 0.22429
#
# Static dielectric constant tensor:
#      x y z
#    x 4.359230 0.209000 0.225890 
#    y 0.209000 4.513770 -0.929730 
#    z 0.225890 -0.929730 7.489110 
# 
# 
# High freq. dielectric constant tensor:
#      x y z
#    x 1.893270 0.014170 0.002630 
#    y 0.014170 1.917150 0.002440 
#    z 0.002630 0.002440 1.875020 
# 
# From -- ./inp_files/218996.got.cif
#   From: 2010.06.25/outbox.cif.g09.slc.cpg/sg2_110_cif.got.tgz:218996.got - 2010.06.27 13:26:56.
