data_PCOD8024928
_publ_section_title
;
Structure prediction by ZEFSAII (Michael W. Deem and Ramdas Pophale) SiO2 
 PCOD8024928
Probable space group: P -1
;
_chemical_formula_sum "Si O2"
_cell_formula_units_Z 16
_cell_length_a 10.089909
_cell_length_b 9.855100
_cell_length_c 13.306141
_cell_angle_alpha 98.858052
_cell_angle_beta 72.066198
_cell_angle_gamma 147.897759
_cell_volume 653.876664
_symmetry_space_group_name_H-M "P -1"
_symmetry_group_IT_number 2
_symmetry_cell_setting 'triclinic'
loop_
_space_group_symop_operation_xyz
x,y,z
-x,-y,-z
loop_
_atom_site_type_symbol
_atom_site_label
_atom_site_fract_x
_atom_site_fract_y
_atom_site_fract_z
Si Si1 0.768401 0.747116 0.909836
Si Si2 0.712776 0.623217 0.329186
Si Si3 0.488498 0.884565 0.397931
Si Si4 0.770757 0.617127 0.529833
Si Si5 0.108703 0.473782 0.846357
Si Si6 0.837935 0.079240 0.021321
Si Si7 0.573464 0.088423 0.803324
Si Si8 0.039824 0.887575 0.689616
O O1 0.762328 0.669399 0.791298
O O2 0.804406 0.942724 0.921395
O O3 0.500000 0.500000 0.000000
O O4 0.009477 0.871206 0.920961
O O5 0.869076 0.701785 0.401741
O O6 0.414565 0.406066 0.408649
O O7 0.724511 0.515479 0.231870
O O8 0.825933 0.856755 0.282661
O O9 0.352701 0.633362 0.442209
O O10 0.500000 0.000000 0.500000
O O11 0.348061 0.825014 0.323273
O O12 0.784537 0.094779 0.314434
O O13 0.018923 0.851654 0.570912
O O14 0.001962 0.347002 0.968819
O O15 0.330243 0.776872 0.834246
O O16 0.849064 0.284394 0.816385
O O17 0.550132 0.880939 0.110034
#
# Coordination Sequence:
#
# PCOD8024928 Si02
#       8
#     2   2   2   2   2   2   2   2
#     4  11  26  41  75 102 141 185 236 306 359 425
#     4  10  23  44  66 105 136 184 238 295 357 430
#     4  11  26  45  68 102 143 187 241 292 364 428
#     4  10  24  41  71  97 142 179 239 298 360 419
#     4  12  28  46  75 100 147 192 241 293 359 423
#     4  11  26  47  67 105 140 185 244 292 365 423
#     4  12  29  47  72 104 147 194 241 293 356 433
#     4  11  23  43  72 102 135 185 235 305 355 431
#
# _framework density 24.469446999999999
#
# number of rings (size 3 to 8) (size 9 to 14) (size 15 to 20)
#    0.000    1.000    2.500    1.875   12.250    0.500 
#    0.000    0.000    0.000    0.000    0.000    0.000 
#    0.000    0.000    0.000    0.000    0.000    0.000 
#
# Total GULP energy -198269.089485 kJ/mol
# GULP energy per Si atom -12391.818093 kJ/mol
# Density = 2.441375 g / cm^3
# Si number density = 24.469447 Si / 1000 Ang^3
#
#
#
# Elastic Constant Matrix: (Units=GPa)
#
#
# Indices 1 2 3 4 5 6 
#
# 1 90.7962 28.8887 9.7656 3.6528 -7.8365 -14.2412
# 2 28.8887 71.0250 -1.9876 2.1355 -10.4920 1.7629
# 3 9.7656 -1.9876 91.6248 2.9204 -10.1171 -16.2776
# 4 3.6528 2.1355 2.9204 33.3379 -1.5803 1.9884
# 5 -7.8365 -10.4920 -10.1171 -1.5803 43.0002 -1.2437
# 6 -14.2412 1.7629 -16.2776 1.9884 -1.2437 26.6519
#
#
#
# Elastic Compliance Matrix: (Units=1/GPa)
#
#
# Indices 1 2 3 4 5 6 
#
# 1 0.014326 -0.005778 0.000015 -0.001626 0.001383 0.008232
# 2 -0.005778 0.017009 0.000692 -0.000151 0.003149 -0.003631
# 3 0.000015 0.000692 0.012772 -0.001485 0.003354 0.008030
# 4 -0.001626 -0.000151 -0.001485 0.030570 0.000324 -0.004031
# 5 0.001383 0.003149 0.003354 0.000324 0.025185 0.003730
# 6 0.008232 -0.003631 0.008030 -0.004031 0.003730 0.047539
#
#
# Mechanical properties :
#
#
# Convention : Reuss Voigt Hill
#
# Bulk Modulus (GPa) = 29.44176 36.30881 32.87529
# Shear Modulus (GPa) = 29.60958 35.04994 32.32976
#
# Velocity S-wave (km/s) = 3.48237 3.78881 3.63882
# Velocity P-wave (km/s) = 5.31294 5.83187 5.57844
#
# Compressibility (1/GPa) = 0.03396536
#
# Stress axis : x y z
#
# Youngs Moduli (GPa) = 69.80099 58.79257 78.29800
#
# Poissons Ratio (x) = 0.33970 -0.00115
# Poissons Ratio (y) = 0.40330 -0.05420
# Poissons Ratio (z) = -0.00103 -0.04070
#
# Static dielectric constant tensor:
#      x y z
#    x 5.204900 0.131230 -0.045070 
#    y 0.131230 4.438050 0.165480 
#    z -0.045070 0.165480 4.680390 
# 
# 
# High freq. dielectric constant tensor:
#      x y z
#    x 1.981860 -0.010020 -0.006060 
#    y -0.010020 1.955040 0.003090 
#    z -0.006060 0.003090 1.991930 
# 
# From -- ./inp_files/56843.got.cif
#   From: 2010.06.25/outbox.cif.g09.slc.cpg/sg2_29_cif.got.tgz:56843.got - 2010.06.27 13:26:56.
