data_PCOD8024915
_publ_section_title
;
Structure prediction by ZEFSAII (Michael W. Deem and Ramdas Pophale) SiO2 
 PCOD8024915
Probable space group: P -1
;
_chemical_formula_sum "Si O2"
_cell_formula_units_Z 16
_cell_length_a 6.646115
_cell_length_b 21.024449
_cell_length_c 26.114998
_cell_angle_alpha 168.346317
_cell_angle_beta 85.648708
_cell_angle_gamma 95.049881
_cell_volume 733.266037
_symmetry_space_group_name_H-M "P -1"
_symmetry_group_IT_number 2
_symmetry_cell_setting 'triclinic'
loop_
_space_group_symop_operation_xyz
x,y,z
-x,-y,-z
loop_
_atom_site_type_symbol
_atom_site_label
_atom_site_fract_x
_atom_site_fract_y
_atom_site_fract_z
Si Si1 0.200454 0.665108 0.650231
Si Si2 0.978295 0.863348 0.605109
Si Si3 0.437291 0.314734 0.775422
Si Si4 0.310330 0.170111 0.770235
Si Si5 0.401090 0.355147 0.623257
Si Si6 0.709873 0.264086 0.979458
Si Si7 0.267865 0.346402 0.217740
Si Si8 0.496874 0.665040 0.552260
O O1 0.362158 0.741098 0.662947
O O2 0.287715 0.440672 0.514866
O O3 0.000000 0.500000 0.500000
O O4 0.159156 0.997531 0.939864
O O5 0.759194 0.731219 0.485958
O O6 0.093749 0.590750 0.414722
O O7 0.929364 0.124362 0.854956
O O8 0.104415 0.012465 0.672741
O O9 0.277553 0.230228 0.757800
O O10 0.500000 0.000000 0.500000
O O11 0.636133 0.500193 0.941797
O O12 0.337683 0.534372 0.909941
O O13 0.500648 0.954265 0.601758
O O14 0.577542 0.592407 0.784046
O O15 0.279902 0.521271 0.801212
O O16 0.534833 0.981026 0.766710
O O17 0.386650 0.386975 0.301152
#
# Coordination Sequence:
#
# PCOD8024915 Si02
#       8
#     2   2   2   2   2   2   2   2
#     4  11  27  45  70 106 137 177 224 287 338 407
#     4  11  25  41  69 104 133 178 229 282 331 406
#     4  11  22  42  71  94 136 183 223 282 343 397
#     4  10  23  44  65  98 137 176 229 278 341 400
#     4  11  22  43  69  96 135 183 220 284 334 401
#     4  12  23  43  69  97 134 178 229 277 342 401
#     4  11  24  45  73  98 139 181 226 278 343 402
#     4  11  25  46  71  98 138 179 229 280 340 408
#
# _framework density 21.820184000000001
#
# number of rings (size 3 to 8) (size 9 to 14) (size 15 to 20)
#    0.000    1.000    5.000    1.125    3.500    2.000 
#    0.000    1.250    0.000    0.000    0.000    0.000 
#    0.000    0.000    0.000    0.000    0.000    0.000 
#
# Total GULP energy -198448.375621 kJ/mol
# GULP energy per Si atom -12403.023476 kJ/mol
# Density = 2.177052 g / cm^3
# Si number density = 21.820184 Si / 1000 Ang^3
#
#
#
# Elastic Constant Matrix: (Units=GPa)
#
#
# Indices 1 2 3 4 5 6 
#
# 1 100.8323 27.7367 49.8432 2.3130 -15.7500 -9.0028
# 2 27.7367 84.0486 42.6639 -8.2308 -21.2681 -15.6088
# 3 49.8432 42.6639 148.6291 -12.1826 -9.8225 -5.2616
# 4 2.3130 -8.2308 -12.1826 39.2466 2.5703 -3.5746
# 5 -15.7500 -21.2681 -9.8225 2.5703 34.8118 -7.5985
# 6 -9.0028 -15.6088 -5.2616 -3.5746 -7.5985 32.4780
#
#
#
# Elastic Compliance Matrix: (Units=1/GPa)
#
#
# Indices 1 2 3 4 5 6 
#
# 1 0.013289 -0.000401 -0.004003 -0.002122 0.005653 0.003932
# 2 -0.000401 0.020096 -0.004044 0.003232 0.013420 0.012387
# 3 -0.004003 -0.004044 0.009199 0.002223 -0.002253 -0.001845
# 4 -0.002122 0.003232 0.002223 0.027341 0.000600 0.004475
# 5 0.005653 0.013420 -0.002253 0.000600 0.042666 0.017700
# 6 0.003932 0.012387 -0.001845 0.004475 0.017700 0.042168
#
#
# Mechanical properties :
#
#
# Convention : Reuss Voigt Hill
#
# Bulk Modulus (GPa) = 38.92639 63.77750 51.35195
# Shear Modulus (GPa) = 27.74449 35.52503 31.63476
#
# Velocity S-wave (km/s) = 3.56969 4.03933 3.81175
# Velocity P-wave (km/s) = 5.90496 7.14472 6.55422
#
# Compressibility (1/GPa) = 0.02568951
#
# Stress axis : x y z
#
# Youngs Moduli (GPa) = 75.25043 49.76196 108.70528
#
# Poissons Ratio (x) = 0.01995 0.43510
# Poissons Ratio (y) = 0.03017 0.43957
# Poissons Ratio (z) = 0.30119 0.20122
#
# Static dielectric constant tensor:
#      x y z
#    x 3.732590 0.119980 -0.175120 
#    y 0.119980 4.109460 -0.061810 
#    z -0.175120 -0.061810 4.170970 
# 
# 
# High freq. dielectric constant tensor:
#      x y z
#    x 1.837850 0.009730 -0.007180 
#    y 0.009730 1.874800 -0.002880 
#    z -0.007180 -0.002880 1.869020 
# 
# From -- ./inp_files/112260.got.cif
#   From: 2010.06.25/outbox.cif.g09.slc.cpg/sg2_57_cif.got.tgz:112260.got - 2010.06.27 13:26:56.
