data_PCOD8024670
_publ_section_title
;
Structure prediction by ZEFSAII (Michael W. Deem and Ramdas Pophale) SiO2 
 PCOD8024670
Probable space group: P -1
;
_chemical_formula_sum "Si O2"
_cell_formula_units_Z 14
_cell_length_a 5.052040
_cell_length_b 16.120800
_cell_length_c 9.694221
_cell_angle_alpha 119.024204
_cell_angle_beta 79.956770
_cell_angle_gamma 79.034562
_cell_volume 644.234474
_symmetry_space_group_name_H-M "P -1"
_symmetry_group_IT_number 2
_symmetry_cell_setting 'triclinic'
loop_
_space_group_symop_operation_xyz
x,y,z
-x,-y,-z
loop_
_atom_site_type_symbol
_atom_site_label
_atom_site_fract_x
_atom_site_fract_y
_atom_site_fract_z
Si Si1 0.441829 0.640226 0.987486
Si Si2 0.294102 0.453687 0.850279
Si Si3 0.910424 0.110198 0.426418
Si Si4 0.072886 0.231373 0.299027
Si Si5 0.136895 0.241780 0.987915
Si Si6 0.518555 0.710694 0.507154
Si Si7 0.782183 0.923690 0.354894
O O1 0.414080 0.537997 0.840709
O O2 0.460698 0.617313 0.130745
O O3 0.720104 0.670082 0.945288
O O4 0.164132 0.727433 0.037938
O O5 0.267621 0.381733 0.670729
O O6 0.000000 0.500000 0.000000
O O7 0.588113 0.188123 0.496987
O O8 0.105977 0.129720 0.300679
O O9 0.019251 0.135405 0.585956
O O10 0.935375 0.993767 0.318390
O O11 0.313978 0.275991 0.361676
O O12 0.761880 0.311239 0.426193
O O13 0.103941 0.205149 0.114292
O O14 0.310274 0.148250 0.802172
O O15 0.500000 0.000000 0.500000
#
# Coordination Sequence:
#
# PCOD8024670 Si02
#       7
#     2   2   2   2   2   2   2
#     4  11  26  42  68 103 129 175 220 276 332 387
#     4  11  24  43  72 104 130 171 226 276 337 381
#     4   9  23  42  67  98 132 171 227 262 341 377
#     4  10  24  44  67  95 135 187 212 263 336 395
#     4  12  26  45  68  96 143 170 223 271 331 394
#     4  10  23  43  70  93 135 175 221 269 326 397
#     4  11  24  41  68 105 127 173 224 281 325 387
#
# _framework density 21.731217000000001
#
# number of rings (size 3 to 8) (size 9 to 14) (size 15 to 20)
#    0.857    0.571    1.429    2.571   12.000    0.571 
#    0.000    5.714    0.000    0.000    0.000    0.000 
#    0.000    0.000    0.000    0.000    0.000    0.000 
#
# Total GULP energy -173455.412160 kJ/mol
# GULP energy per Si atom -12389.672297 kJ/mol
# Density = 2.168176 g / cm^3
# Si number density = 21.731217 Si / 1000 Ang^3
#
#
#
# Elastic Constant Matrix: (Units=GPa)
#
#
# Indices 1 2 3 4 5 6 
#
# 1 120.3102 29.5844 42.7711 -5.8328 12.9527 -7.1319
# 2 29.5844 101.4971 64.6146 -8.9632 10.0805 13.2199
# 3 42.7711 64.6146 128.2068 -12.5227 12.9493 -16.3633
# 4 -5.8328 -8.9632 -12.5227 17.5486 2.6604 -3.2881
# 5 12.9527 10.0805 12.9493 2.6604 26.7401 0.1150
# 6 -7.1319 13.2199 -16.3633 -3.2881 0.1150 32.5067
#
#
#
# Elastic Compliance Matrix: (Units=1/GPa)
#
#
# Indices 1 2 3 4 5 6 
#
# 1 0.009918 -0.001575 -0.001635 0.002299 -0.003657 0.002239
# 2 -0.001575 0.018921 -0.010718 -0.000885 -0.001033 -0.013521
# 3 -0.001635 -0.010718 0.016774 0.009104 -0.004254 0.013379
# 4 0.002299 -0.000885 0.009104 0.067928 -0.012000 0.012360
# 5 -0.003657 -0.001033 -0.004254 -0.012000 0.042828 -0.003889
# 6 0.002239 -0.013521 0.013379 0.012360 -0.003889 0.044752
#
#
# Mechanical properties :
#
#
# Convention : Reuss Voigt Hill
#
# Bulk Modulus (GPa) = 56.32087 69.32827 62.82457
# Shear Modulus (GPa) = 21.28590 29.56200 25.42395
#
# Velocity S-wave (km/s) = 3.13310 3.69229 3.42413
# Velocity P-wave (km/s) = 6.24994 7.08161 6.67873
#
# Compressibility (1/GPa) = 0.01775541
#
# Stress axis : x y z
#
# Youngs Moduli (GPa) = 100.82174 52.85262 59.61748
#
# Poissons Ratio (x) = 0.08327 0.09748
# Poissons Ratio (y) = 0.15884 0.63898
# Poissons Ratio (z) = 0.16486 0.56647
#
# Static dielectric constant tensor:
#      x y z
#    x 4.115570 0.181740 0.300070 
#    y 0.181740 4.209970 0.117960 
#    z 0.300070 0.117960 3.559230 
# 
# 
# High freq. dielectric constant tensor:
#      x y z
#    x 1.864610 -0.000490 0.015530 
#    y -0.000490 1.850840 -0.002500 
#    z 0.015530 -0.002500 1.821480 
# 
# From -- ./inp_files/133592.got.cif
#   From: 2010.06.25/outbox.cif.g09.slc.cpg/sg2_67_cif.got.tgz:133592.got - 2010.06.27 13:26:56.
