data_PCOD8024977
_publ_section_title
;
Structure prediction by ZEFSAII (Michael W. Deem and Ramdas Pophale) SiO2 
 PCOD8024977
Probable space group: P -1
;
_chemical_formula_sum "Si O2"
_cell_formula_units_Z 14
_cell_length_a 17.553645
_cell_length_b 5.125339
_cell_length_c 27.160124
_cell_angle_alpha 118.810743
_cell_angle_beta 162.864888
_cell_angle_gamma 54.745394
_cell_volume 562.704221
_symmetry_space_group_name_H-M "P -1"
_symmetry_group_IT_number 2
_symmetry_cell_setting 'triclinic'
loop_
_space_group_symop_operation_xyz
x,y,z
-x,-y,-z
loop_
_atom_site_type_symbol
_atom_site_label
_atom_site_fract_x
_atom_site_fract_y
_atom_site_fract_z
Si Si1 0.820705 0.154117 0.619722
Si Si2 0.306746 0.748340 0.346185
Si Si3 0.439135 0.875965 0.001329
Si Si4 0.896884 0.815219 0.829150
Si Si5 0.662185 0.735485 0.416711
Si Si6 0.790766 0.907542 0.313526
Si Si7 0.552449 0.667685 0.237320
O O1 0.640372 0.509651 0.512986
O O2 0.638182 0.145112 0.554764
O O3 0.867854 0.873777 0.582958
O O4 0.099987 0.114634 0.818858
O O5 0.140429 0.516739 0.217535
O O6 0.135020 0.074097 0.237382
O O7 0.500000 0.500000 0.000000
O O8 0.607288 0.942030 0.154644
O O9 0.500000 0.000000 0.000000
O O10 0.647410 0.128011 0.734096
O O11 0.217368 0.742695 0.037136
O O12 0.596801 0.850458 0.329705
O O13 0.869317 0.335767 0.509099
O O14 0.650968 0.788303 0.260447
O O15 0.762998 0.272819 0.339748
#
# Coordination Sequence:
#
# PCOD8024977 Si02
#       7
#     2   2   2   2   2   2   2
#     4  10  23  44  67 103 139 173 232 277 361 400
#     4  10  24  42  72 100 137 179 218 299 344 419
#     4  12  25  42  70  98 134 174 226 279 340 412
#     4  11  24  46  73 101 138 181 241 281 350 403
#     4  11  26  45  73 104 141 186 236 288 339 418
#     4  12  27  48  71 102 143 185 232 287 353 408
#     4  12  26  48  71 101 143 188 235 284 345 411
#
# _framework density 24.879857000000001
#
# number of rings (size 3 to 8) (size 9 to 14) (size 15 to 20)
#    0.000    0.857    1.429    4.714    2.000    9.714 
#    0.000    5.000    0.000    0.000    0.000    0.000 
#    0.000    0.000    0.000    0.000    0.000    0.000 
#
# Total GULP energy -173446.280266 kJ/mol
# GULP energy per Si atom -12389.020019 kJ/mol
# Density = 2.482323 g / cm^3
# Si number density = 24.879857 Si / 1000 Ang^3
#
#
#
# Elastic Constant Matrix: (Units=GPa)
#
#
# Indices 1 2 3 4 5 6 
#
# 1 119.0284 61.4398 22.1487 4.5986 -14.0632 -6.5862
# 2 61.4398 86.5334 24.1126 -1.8073 -9.4179 -2.5652
# 3 22.1487 24.1126 104.9643 -9.5038 -0.9223 -17.9071
# 4 4.5986 -1.8073 -9.5038 39.3338 -11.7402 -7.9657
# 5 -14.0632 -9.4179 -0.9223 -11.7402 40.7029 3.4356
# 6 -6.5862 -2.5652 -17.9071 -7.9657 3.4356 45.5479
#
#
#
# Elastic Compliance Matrix: (Units=1/GPa)
#
#
# Indices 1 2 3 4 5 6 
#
# 1 0.013674 -0.009285 -0.000734 -0.001427 0.002084 0.000759
# 2 -0.009285 0.019013 -0.002424 0.001668 0.001707 -0.001062
# 3 -0.000734 -0.002424 0.011415 0.003758 0.000115 0.004894
# 4 -0.001427 0.001668 0.003758 0.030242 0.008192 0.006036
# 5 0.002084 0.001707 0.000115 0.008192 0.028069 -0.000242
# 6 0.000759 -0.001062 0.004894 0.006036 -0.000242 0.025003
#
#
# Mechanical properties :
#
#
# Convention : Reuss Voigt Hill
#
# Bulk Modulus (GPa) = 52.03613 58.43646 55.23630
# Shear Modulus (GPa) = 31.50498 38.63857 35.07177
#
# Velocity S-wave (km/s) = 3.56235 3.94510 3.75860
# Velocity P-wave (km/s) = 6.15474 6.65508 6.40980
#
# Compressibility (1/GPa) = 0.01921742
#
# Stress axis : x y z
#
# Youngs Moduli (GPa) = 73.13306 52.59596 87.60574
#
# Poissons Ratio (x) = 0.48833 0.06429
# Poissons Ratio (y) = 0.67901 0.21232
# Poissons Ratio (z) = 0.05367 0.12747
#
# Static dielectric constant tensor:
#      x y z
#    x 4.506130 -0.232100 -0.105330 
#    y -0.232100 4.429700 -0.126920 
#    z -0.105330 -0.126920 4.974210 
# 
# 
# High freq. dielectric constant tensor:
#      x y z
#    x 1.994180 -0.017230 -0.010910 
#    y -0.017230 1.988220 -0.008410 
#    z -0.010910 -0.008410 2.017560 
# 
# From -- ./inp_files/620117.got.cif
#   From: 2010.06.25/outbox.cif.g09.slc.cpg/sg2_311_cif.got.tgz:620117.got - 2010.06.27 13:26:56.
