data_PCOD8024012
_publ_section_title
;
Structure prediction by ZEFSAII (Michael W. Deem and Ramdas Pophale) SiO2 
 PCOD8024012
Probable space group: P -1
;
_chemical_formula_sum "Si O2"
_cell_formula_units_Z 16
_cell_length_a 15.687850
_cell_length_b 5.226324
_cell_length_c 12.378051
_cell_angle_alpha 75.826847
_cell_angle_beta 124.076222
_cell_angle_gamma 71.258602
_cell_volume 669.144841
_symmetry_space_group_name_H-M "P -1"
_symmetry_group_IT_number 2
_symmetry_cell_setting 'triclinic'
loop_
_space_group_symop_operation_xyz
x,y,z
-x,-y,-z
loop_
_atom_site_type_symbol
_atom_site_label
_atom_site_fract_x
_atom_site_fract_y
_atom_site_fract_z
Si Si1 0.420879 0.738141 0.822864
Si Si2 0.157347 0.297513 0.806951
Si Si3 0.786577 0.660987 0.722990
Si Si4 0.358873 0.667920 0.348823
Si Si5 0.744258 0.511156 0.323658
Si Si6 0.932772 0.298914 0.667182
Si Si7 0.885129 0.377847 0.042471
Si Si8 0.342897 0.665481 0.096443
O O1 0.315394 0.684909 0.719261
O O2 0.518582 0.638264 0.804479
O O3 0.358800 0.111696 0.765107
O O4 0.500000 0.500000 0.000000
O O5 0.175757 0.527832 0.722477
O O6 0.112071 0.401272 0.887648
O O7 0.042920 0.289060 0.680371
O O8 0.291298 0.950602 0.941503
O O9 0.686199 0.569505 0.651556
O O10 0.858185 0.592429 0.668061
O O11 0.720295 0.036232 0.657092
O O12 0.887840 0.474121 0.911092
O O13 0.500000 0.500000 0.500000
O O14 0.345261 0.792659 0.203718
O O15 0.836872 0.330477 0.507491
O O16 0.992666 0.979169 0.815031
O O17 0.751669 0.437956 0.961747
#
# Coordination Sequence:
#
# PCOD8024012 Si02
#       8
#     2   2   2   2   2   2   2   2
#     4  12  26  46  73 100 140 181 232 285 336 418
#     4  11  23  46  71  94 141 184 235 280 345 410
#     4  11  25  45  69 104 137 178 239 272 348 408
#     4  11  25  43  69 101 141 181 219 288 343 414
#     4  12  29  44  71 106 139 181 230 290 348 403
#     4  11  28  44  69 104 140 183 228 291 343 406
#     4  10  23  45  72  98 136 188 231 287 334 420
#     4  10  23  42  69 102 133 183 230 280 351 406
#
# _framework density 23.911118999999999
#
# number of rings (size 3 to 8) (size 9 to 14) (size 15 to 20)
#    0.000    1.000    2.500    2.250   10.500    1.000 
#    0.000    0.000    0.000    0.000    0.000    0.000 
#    0.000    0.000    0.000    0.000    0.000    0.000 
#
# Total GULP energy -198397.251406 kJ/mol
# GULP energy per Si atom -12399.828213 kJ/mol
# Density = 2.385670 g / cm^3
# Si number density = 23.911119 Si / 1000 Ang^3
#
#
#
# Elastic Constant Matrix: (Units=GPa)
#
#
# Indices 1 2 3 4 5 6 
#
# 1 54.1924 -6.6712 27.4018 5.1588 7.2598 -14.1047
# 2 -6.6712 70.0423 4.9125 7.2260 10.4801 -1.5613
# 3 27.4018 4.9125 120.4317 10.0729 17.9810 -4.7397
# 4 5.1588 7.2260 10.0729 30.7138 -3.0402 -1.2629
# 5 7.2598 10.4801 17.9810 -3.0402 31.5982 1.8480
# 6 -14.1047 -1.5613 -4.7397 -1.2629 1.8480 30.9276
#
#
#
# Elastic Compliance Matrix: (Units=1/GPa)
#
#
# Indices 1 2 3 4 5 6 
#
# 1 0.025210 0.004226 -0.004271 -0.003940 -0.005800 0.011242
# 2 0.004226 0.016328 -0.000033 -0.005115 -0.007032 0.002958
# 3 -0.004271 -0.000033 0.010306 -0.003174 -0.005167 -0.000191
# 4 -0.003940 -0.005115 -0.003174 0.036191 0.007980 -0.001540
# 5 -0.005800 -0.007032 -0.005167 0.007980 0.039361 -0.005818
# 6 0.011242 0.002958 -0.000191 -0.001540 -0.005818 0.037865
#
#
# Mechanical properties :
#
#
# Convention : Reuss Voigt Hill
#
# Bulk Modulus (GPa) = 19.34709 32.88362 26.11535
# Shear Modulus (GPa) = 27.37527 33.24947 30.31237
#
# Velocity S-wave (km/s) = 3.38727 3.73305 3.56435
# Velocity P-wave (km/s) = 4.83808 5.68886 5.28063
#
# Compressibility (1/GPa) = 0.05168736
#
# Stress axis : x y z
#
# Youngs Moduli (GPa) = 39.66639 61.24557 97.03225
#
# Poissons Ratio (x) = -0.25880 0.41438
# Poissons Ratio (y) = -0.16761 0.00323
# Poissons Ratio (z) = 0.16940 0.00204
#
# Static dielectric constant tensor:
#      x y z
#    x 4.223090 -0.181380 0.112550 
#    y -0.181380 4.326360 0.083710 
#    z 0.112550 0.083710 4.681570 
# 
# 
# High freq. dielectric constant tensor:
#      x y z
#    x 1.947020 -0.009650 0.010190 
#    y -0.009650 1.949040 0.008240 
#    z 0.010190 0.008240 1.958310 
# 
# From -- ./inp_files/118460.got.cif
#   From: 2010.06.25/outbox.cif.g09.slc.cpg/sg2_60_cif.got.tgz:118460.got - 2010.06.27 13:26:56.
