data_PCOD8024950
_publ_section_title
;
Structure prediction by ZEFSAII (Michael W. Deem and Ramdas Pophale) SiO2 
 PCOD8024950
Probable space group: P -1
;
_chemical_formula_sum "Si O2"
_cell_formula_units_Z 16
_cell_length_a 6.483863
_cell_length_b 16.828305
_cell_length_c 15.390841
_cell_angle_alpha 34.131036
_cell_angle_beta 52.172322
_cell_angle_gamma 49.886722
_cell_volume 707.985257
_symmetry_space_group_name_H-M "P -1"
_symmetry_group_IT_number 2
_symmetry_cell_setting 'triclinic'
loop_
_space_group_symop_operation_xyz
x,y,z
-x,-y,-z
loop_
_atom_site_type_symbol
_atom_site_label
_atom_site_fract_x
_atom_site_fract_y
_atom_site_fract_z
Si Si1 0.852267 0.342944 0.918305
Si Si2 0.999519 0.689248 0.278518
Si Si3 0.547768 0.564600 0.519219
Si Si4 0.801159 0.864155 0.841542
Si Si5 0.829107 0.974221 0.148516
Si Si6 0.341948 0.253311 0.187589
Si Si7 0.197492 0.021775 0.652756
Si Si8 0.946340 0.647144 0.657534
O O1 0.904223 0.260150 0.885157
O O2 0.864043 0.513616 0.751794
O O3 0.554433 0.342951 0.027618
O O4 0.089319 0.256977 0.001517
O O5 0.238986 0.542681 0.373605
O O6 0.693528 0.683598 0.344466
O O7 0.945959 0.795407 0.280071
O O8 0.500000 0.500000 0.500000
O O9 0.267148 0.628651 0.585995
O O10 0.829133 0.772845 0.827159
O O11 0.488813 0.957665 0.856225
O O12 0.978651 0.980209 0.684230
O O13 0.882345 0.020554 0.190361
O O14 0.000000 0.000000 0.000000
O O15 0.129488 0.353202 0.221098
O O16 0.497798 0.093026 0.337786
O O17 0.207574 0.190154 0.491453
#
# Coordination Sequence:
#
# PCOD8024950 Si02
#       8
#     2   2   2   2   2   2   2   2
#     4  11  25  43  68  98 138 173 221 277 331 395
#     4  11  24  42  64  96 135 173 214 270 328 398
#     4  11  24  42  62  95 134 170 211 266 331 391
#     4  10  23  45  64  94 131 175 225 272 328 399
#     4  11  23  38  68  95 129 174 221 267 329 397
#     4  10  24  46  67  96 133 175 227 272 331 395
#     4  10  23  44  66  97 130 170 225 276 331 391
#     4  12  24  43  70  99 134 177 217 280 335 391
#
# _framework density 22.599340999999999
#
# number of rings (size 3 to 8) (size 9 to 14) (size 15 to 20)
#    0.000    1.250    1.250    4.500    5.250    4.000 
#    4.500    0.000    0.000    0.000    0.000    0.000 
#    0.000    0.000    0.000    0.000    0.000    0.000 
#
# Total GULP energy -198275.338674 kJ/mol
# GULP energy per Si atom -12392.208667 kJ/mol
# Density = 2.254790 g / cm^3
# Si number density = 22.599341 Si / 1000 Ang^3
#
#
#
# Elastic Constant Matrix: (Units=GPa)
#
#
# Indices 1 2 3 4 5 6 
#
# 1 99.4138 29.4562 13.7850 10.7968 1.0224 2.2559
# 2 29.4562 116.8437 2.8043 27.6091 1.4925 -6.6599
# 3 13.7850 2.8043 69.3928 0.9744 0.2435 -11.2054
# 4 10.7968 27.6091 0.9744 44.8166 0.9937 -2.7736
# 5 1.0224 1.4925 0.2435 0.9937 22.6224 6.8440
# 6 2.2559 -6.6599 -11.2054 -2.7736 6.8440 31.3458
#
#
#
# Elastic Compliance Matrix: (Units=1/GPa)
#
#
# Indices 1 2 3 4 5 6 
#
# 1 0.011387 -0.002674 -0.002545 -0.001207 0.000503 -0.002514
# 2 -0.002674 0.010743 0.000569 -0.005814 -0.001064 0.002396
# 3 -0.002545 0.000569 0.015943 0.000363 -0.002073 0.006488
# 4 -0.001207 -0.005814 0.000363 0.026302 -0.001196 0.001570
# 5 0.000503 -0.001064 -0.002073 -0.001196 0.047821 -0.011550
# 6 -0.002514 0.002396 0.006488 0.001570 -0.011550 0.037572
#
#
# Mechanical properties :
#
#
# Convention : Reuss Voigt Hill
#
# Bulk Modulus (GPa) = 34.75320 41.97126 38.36223
# Shear Modulus (GPa) = 29.64575 35.73063 32.68819
#
# Velocity S-wave (km/s) = 3.62580 3.98055 3.80731
# Velocity P-wave (km/s) = 5.73933 6.30386 6.02821
#
# Compressibility (1/GPa) = 0.02877433
#
# Stress axis : x y z
#
# Youngs Moduli (GPa) = 87.81832 93.08411 62.72307
#
# Poissons Ratio (x) = 0.24891 0.15962
# Poissons Ratio (y) = 0.23483 -0.03571
# Poissons Ratio (z) = 0.22348 -0.05300
#
# Static dielectric constant tensor:
#      x y z
#    x 4.003780 -0.012120 -0.110800 
#    y -0.012120 4.368050 -0.007930 
#    z -0.110800 -0.007930 4.075120 
# 
# 
# High freq. dielectric constant tensor:
#      x y z
#    x 1.884270 0.006280 -0.005220 
#    y 0.006280 1.905630 0.000550 
#    z -0.005220 0.000550 1.897340 
# 
# From -- ./inp_files/484193.got.cif
#   From: 2010.06.25/outbox.cif.g09.slc.cpg/sg2_243_cif.got.tgz:484193.got - 2010.06.27 13:26:56.
