data_PCOD8024741
_publ_section_title
;
Structure prediction by ZEFSAII (Michael W. Deem and Ramdas Pophale) SiO2 
 PCOD8024741
Probable space group: P -1
;
_chemical_formula_sum "Si O2"
_cell_formula_units_Z 16
_cell_length_a 19.413595
_cell_length_b 8.844481
_cell_length_c 11.633412
_cell_angle_alpha 53.984851
_cell_angle_beta 43.722815
_cell_angle_gamma 32.541391
_cell_volume 741.429199
_symmetry_space_group_name_H-M "P -1"
_symmetry_group_IT_number 2
_symmetry_cell_setting 'triclinic'
loop_
_space_group_symop_operation_xyz
x,y,z
-x,-y,-z
loop_
_atom_site_type_symbol
_atom_site_label
_atom_site_fract_x
_atom_site_fract_y
_atom_site_fract_z
Si Si1 0.154841 0.829065 0.101563
Si Si2 0.181244 0.368791 0.493512
Si Si3 0.276085 0.897052 0.735500
Si Si4 0.860599 0.845177 0.611346
Si Si5 0.669572 0.778305 0.853059
Si Si6 0.560213 0.702158 0.558353
Si Si7 0.190181 0.802160 0.666805
Si Si8 0.229647 0.699359 0.329654
O O1 0.241798 0.530257 0.076285
O O2 0.224584 0.761823 0.174119
O O3 0.191930 0.962455 0.925344
O O4 0.977527 0.043010 0.210596
O O5 0.315361 0.206979 0.309985
O O6 0.151574 0.608230 0.484379
O O7 0.029568 0.529190 0.536448
O O8 0.206905 0.184798 0.643861
O O9 0.448264 0.703406 0.641259
O O10 0.251853 0.755183 0.741715
O O11 0.747543 0.844411 0.793253
O O12 0.804076 0.999678 0.486863
O O13 0.862421 0.015062 0.620467
O O14 0.500000 0.000000 0.000000
O O15 0.704431 0.494338 0.393007
O O16 0.604491 0.564151 0.694592
O O17 0.500000 0.000000 0.500000
#
# Coordination Sequence:
#
# PCOD8024741 Si02
#       8
#     2   2   2   2   2   2   2   2
#     4  11  26  46  67 102 139 175 228 285 335 399
#     4  11  21  43  72  98 134 178 231 273 333 410
#     4  12  25  43  67 102 142 180 222 278 342 398
#     4  11  21  41  76 102 126 180 232 278 337 403
#     4  11  24  41  65 103 136 171 225 281 334 395
#     4  11  25  43  69 101 135 181 229 274 342 412
#     4  11  23  43  74  96 134 179 229 279 337 401
#     4  10  23  43  71  97 134 175 230 277 337 400
#
# _framework density 21.579944999999999
#
# number of rings (size 3 to 8) (size 9 to 14) (size 15 to 20)
#    0.000    1.000    5.000    2.250    5.250    1.500 
#    2.250    2.500    0.000    0.000    0.000    0.000 
#    0.000    0.000    0.000    0.000    0.000    0.000 
#
# Total GULP energy -198290.698843 kJ/mol
# GULP energy per Si atom -12393.168678 kJ/mol
# Density = 2.153083 g / cm^3
# Si number density = 21.579945 Si / 1000 Ang^3
#
#
#
# Elastic Constant Matrix: (Units=GPa)
#
#
# Indices 1 2 3 4 5 6 
#
# 1 145.0399 39.2516 49.2106 5.4213 8.8614 -23.0821
# 2 39.2516 79.3479 59.8625 9.7496 -0.2852 -27.5038
# 3 49.2106 59.8625 137.7865 -5.1742 -1.3330 -14.6385
# 4 5.4213 9.7496 -5.1742 39.7304 -13.5322 -3.8638
# 5 8.8614 -0.2852 -1.3330 -13.5322 31.4639 1.1222
# 6 -23.0821 -27.5038 -14.6385 -3.8638 1.1222 29.2369
#
#
#
# Elastic Compliance Matrix: (Units=1/GPa)
#
#
# Indices 1 2 3 4 5 6 
#
# 1 0.009055 -0.000398 -0.002619 -0.002267 -0.003829 0.005310
# 2 -0.000398 0.028862 -0.010533 -0.007808 -0.004169 0.020692
# 3 -0.002619 -0.010533 0.012453 0.005297 0.003633 -0.005180
# 4 -0.002267 -0.007808 0.005297 0.032951 0.015060 -0.002705
# 5 -0.003829 -0.004169 0.003633 0.015060 0.039620 -0.004656
# 6 0.005310 0.020692 -0.005180 -0.002705 -0.004656 0.055089
#
#
# Mechanical properties :
#
#
# Convention : Reuss Voigt Hill
#
# Bulk Modulus (GPa) = 42.97226 73.20262 58.08744
# Shear Modulus (GPa) = 23.48678 34.34287 28.91483
#
# Velocity S-wave (km/s) = 3.30261 3.99359 3.66443
# Velocity P-wave (km/s) = 5.87361 7.43373 6.69924
#
# Compressibility (1/GPa) = 0.02327083
#
# Stress axis : x y z
#
# Youngs Moduli (GPa) = 110.43973 34.64732 80.30404
#
# Poissons Ratio (x) = 0.01378 0.21032
# Poissons Ratio (y) = 0.04393 0.84581
# Poissons Ratio (z) = 0.28925 0.36493
#
# Static dielectric constant tensor:
#      x y z
#    x 4.188600 -0.065270 -0.020250 
#    y -0.065270 3.960900 -0.126100 
#    z -0.020250 -0.126100 3.679790 
# 
# 
# High freq. dielectric constant tensor:
#      x y z
#    x 1.868910 0.000160 -0.004610 
#    y 0.000160 1.853550 -0.007070 
#    z -0.004610 -0.007070 1.822900 
# 
# From -- ./inp_files/469827.got.cif
#   From: 2010.06.25/outbox.cif.g09.slc.cpg/sg2_235_cif.got.tgz:469827.got - 2010.06.27 13:26:56.
