data_PCOD8024875
_publ_section_title
;
Structure prediction by ZEFSAII (Michael W. Deem and Ramdas Pophale) SiO2 
 PCOD8024875
Probable space group: P -1
;
_chemical_formula_sum "Si O2"
_cell_formula_units_Z 16
_cell_length_a 15.279436
_cell_length_b 9.230890
_cell_length_c 13.920923
_cell_angle_alpha 99.425767
_cell_angle_beta 149.159300
_cell_angle_gamma 101.030128
_cell_volume 749.156866
_symmetry_space_group_name_H-M "P -1"
_symmetry_group_IT_number 2
_symmetry_cell_setting 'triclinic'
loop_
_space_group_symop_operation_xyz
x,y,z
-x,-y,-z
loop_
_atom_site_type_symbol
_atom_site_label
_atom_site_fract_x
_atom_site_fract_y
_atom_site_fract_z
Si Si1 0.644487 0.945628 0.602561
Si Si2 0.517855 0.903387 0.833222
Si Si3 0.008986 0.155248 0.822056
Si Si4 0.560543 0.473721 0.657390
Si Si5 0.007559 0.158012 0.417608
Si Si6 0.240284 0.453573 0.499109
Si Si7 0.155490 0.922794 0.996563
Si Si8 0.860200 0.095070 0.473442
O O1 0.474677 0.718126 0.399394
O O2 0.500000 0.000000 0.500000
O O3 0.767613 0.045832 0.630179
O O4 0.820192 0.014764 0.863180
O O5 0.330974 0.668042 0.627113
O O6 0.391338 0.975160 0.764511
O O7 0.602826 0.983104 0.812619
O O8 0.744119 0.991203 0.116844
O O9 0.004715 0.218401 0.717499
O O10 0.058338 0.007895 0.854199
O O11 0.177963 0.347004 0.063838
O O12 0.500000 0.500000 0.500000
O O13 0.435528 0.474555 0.630952
O O14 0.162966 0.347601 0.517902
O O15 0.988027 0.222306 0.511698
O O16 0.148605 0.087050 0.555033
O O17 0.019442 0.312509 0.205856
#
# Coordination Sequence:
#
# PCOD8024875 Si02
#       8
#     2   2   2   2   2   2   2   2
#     4  12  25  39  60  95 126 162 214 258 309 378
#     4  11  22  41  66  95 126 163 212 260 316 373
#     4  12  22  41  65  88 126 165 214 256 311 374
#     4  12  22  38  66  90 122 174 208 251 323 372
#     4  10  23  44  64  91 130 168 207 259 323 371
#     4  11  21  39  66  91 123 166 210 257 316 375
#     4  11  21  40  64  89 125 166 203 258 316 369
#     4  11  22  42  67  91 127 168 209 264 313 375
#
# _framework density 21.357344000000001
#
# number of rings (size 3 to 8) (size 9 to 14) (size 15 to 20)
#    0.000    0.750    6.250    2.250    0.000    2.000 
#    0.000   10.625    0.000    0.000    0.000    0.000 
#    0.000    0.000    0.000    0.000    0.000    0.000 
#
# Total GULP energy -198286.819116 kJ/mol
# GULP energy per Si atom -12392.926195 kJ/mol
# Density = 2.130873 g / cm^3
# Si number density = 21.357344 Si / 1000 Ang^3
#
#
#
# Elastic Constant Matrix: (Units=GPa)
#
#
# Indices 1 2 3 4 5 6 
#
# 1 124.8916 43.5244 28.9114 -5.2539 3.2819 -9.4412
# 2 43.5244 72.0084 64.4938 9.4862 11.6864 -17.0061
# 3 28.9114 64.4938 93.5157 16.8163 2.2755 -4.5707
# 4 -5.2539 9.4862 16.8163 40.3147 -0.6394 7.9390
# 5 3.2819 11.6864 2.2755 -0.6394 39.3142 -11.7404
# 6 -9.4412 -17.0061 -4.5707 7.9390 -11.7404 33.7278
#
#
#
# Elastic Compliance Matrix: (Units=1/GPa)
#
#
# Indices 1 2 3 4 5 6 
#
# 1 0.010892 -0.010698 0.003338 0.002976 0.001508 -0.002068
# 2 -0.010698 0.058220 -0.034848 -0.004579 -0.008579 0.019730
# 3 0.003338 -0.034848 0.033736 -0.003501 0.005261 -0.009409
# 4 0.002976 -0.004579 -0.003501 0.029534 -0.000963 -0.009237
# 5 0.001508 -0.008579 0.005261 -0.000963 0.029747 0.007391
# 6 -0.002068 0.019730 -0.009409 -0.009237 0.007391 0.042490
#
#
# Mechanical properties :
#
#
# Convention : Reuss Voigt Hill
#
# Bulk Modulus (GPa) = 54.25482 62.69720 58.47601
# Shear Modulus (GPa) = 16.93884 32.90376 24.92130
#
# Velocity S-wave (km/s) = 2.81929 3.92934 3.41966
# Velocity P-wave (km/s) = 6.00469 7.07152 6.55983
#
# Compressibility (1/GPa) = 0.01843154
#
# Stress axis : x y z
#
# Youngs Moduli (GPa) = 91.81296 17.17628 29.64178
#
# Poissons Ratio (x) = 0.18375 -0.09894
# Poissons Ratio (y) = 0.98223 1.03295
# Poissons Ratio (z) = -0.30646 0.59856
#
# Static dielectric constant tensor:
#      x y z
#    x 4.749450 0.280800 -0.019900 
#    y 0.280800 3.702540 -0.231420 
#    z -0.019900 -0.231420 3.092840 
# 
# 
# High freq. dielectric constant tensor:
#      x y z
#    x 1.868620 0.000730 0.000420 
#    y 0.000730 1.815290 -0.001860 
#    z 0.000420 -0.001860 1.829430 
# 
# From -- ./inp_files/507245.got.cif
#   From: 2010.06.25/outbox.cif.g09.slc.cpg/sg2_254_cif.got.tgz:507245.got - 2010.06.27 13:26:56.
