data_PCOD8024263
_publ_section_title
;
Structure prediction by ZEFSAII (Michael W. Deem and Ramdas Pophale) SiO2 
 PCOD8024263
Probable space group: P -1
;
_chemical_formula_sum "Si O2"
_cell_formula_units_Z 16
_cell_length_a 23.090161
_cell_length_b 6.996428
_cell_length_c 11.138308
_cell_angle_alpha 119.056643
_cell_angle_beta 30.847412
_cell_angle_gamma 127.870045
_cell_volume 724.523064
_symmetry_space_group_name_H-M "P -1"
_symmetry_group_IT_number 2
_symmetry_cell_setting 'triclinic'
loop_
_space_group_symop_operation_xyz
x,y,z
-x,-y,-z
loop_
_atom_site_type_symbol
_atom_site_label
_atom_site_fract_x
_atom_site_fract_y
_atom_site_fract_z
Si Si1 0.949267 0.117378 0.812120
Si Si2 0.748745 0.251028 0.102770
Si Si3 0.355471 0.414790 0.204443
Si Si4 0.317109 0.404460 0.533708
Si Si5 0.795639 0.574965 0.883937
Si Si6 0.892782 0.070377 0.165706
Si Si7 0.607238 0.727451 0.149105
Si Si8 0.823577 0.439775 0.536923
O O1 0.093317 0.280973 0.569307
O O2 0.917341 0.833271 0.767944
O O3 0.867228 0.194473 0.891445
O O4 0.926179 0.180864 0.007848
O O5 0.734284 0.396514 0.287591
O O6 0.623141 0.993951 0.239599
O O7 0.767563 0.408345 0.998674
O O8 0.285633 0.311410 0.423426
O O9 0.314610 0.625064 0.294998
O O10 0.500000 0.500000 0.000000
O O11 0.325011 0.230548 0.090150
O O12 0.464021 0.524945 0.340115
O O13 0.241990 0.165755 0.674711
O O14 0.818382 0.430698 0.687781
O O15 0.675526 0.627533 0.091663
O O16 0.883626 0.266648 0.331791
O O17 0.000000 0.000000 0.000000
#
# Coordination Sequence:
#
# PCOD8024263 Si02
#       8
#     2   2   2   2   2   2   2   2
#     4  11  23  44  64  92 130 163 215 268 313 379
#     4  11  22  41  65  92 128 167 214 262 320 378
#     4   9  20  42  64  92 127 164 214 261 317 378
#     4  11  21  40  63  93 127 172 209 263 321 371
#     4  10  23  43  63  97 126 163 215 266 312 388
#     4  12  25  42  65  97 130 167 218 263 310 388
#     4   9  22  41  64  92 129 162 212 268 316 381
#     4  11  23  41  67  94 128 175 207 262 329 370
#
# _framework density 22.083492
#
# number of rings (size 3 to 8) (size 9 to 14) (size 15 to 20)
#    0.000    1.500    1.250    3.375    1.750    1.000 
#    9.000    1.875    0.000    0.000    0.000    0.000 
#    0.000    0.000    0.000    0.000    0.000    0.000 
#
# Total GULP energy -198338.258191 kJ/mol
# GULP energy per Si atom -12396.141137 kJ/mol
# Density = 2.203323 g / cm^3
# Si number density = 22.083492 Si / 1000 Ang^3
#
#
#
# Elastic Constant Matrix: (Units=GPa)
#
#
# Indices 1 2 3 4 5 6 
#
# 1 107.0631 38.0456 38.2688 -0.8892 4.7842 -13.3688
# 2 38.0456 93.3044 34.7478 -4.1045 -9.2503 -3.7234
# 3 38.2688 34.7478 92.7986 1.0916 3.0792 -3.4131
# 4 -0.8892 -4.1045 1.0916 38.6321 1.9822 0.0984
# 5 4.7842 -9.2503 3.0792 1.9822 34.1142 -1.4532
# 6 -13.3688 -3.7234 -3.4131 0.0984 -1.4532 31.5393
#
#
#
# Elastic Compliance Matrix: (Units=1/GPa)
#
#
# Indices 1 2 3 4 5 6 
#
# 1 0.012636 -0.003895 -0.003514 0.000085 -0.002328 0.004408
# 2 -0.003895 0.014280 -0.003918 0.001298 0.004689 -0.000177
# 3 -0.003514 -0.003918 0.013741 -0.000792 -0.001787 -0.000545
# 4 0.000085 0.001298 -0.000792 0.026104 -0.001106 -0.000029
# 5 -0.002328 0.004689 -0.001787 -0.001106 0.031171 0.000813
# 6 0.004408 -0.000177 -0.000545 -0.000029 0.000813 0.033533
#
#
# Mechanical properties :
#
#
# Convention : Reuss Voigt Hill
#
# Bulk Modulus (GPa) = 55.54828 57.25451 56.40139
# Shear Modulus (GPa) = 31.22670 32.99738 32.11204
#
# Velocity S-wave (km/s) = 3.76444 3.86970 3.81743
# Velocity P-wave (km/s) = 6.64101 6.77855 6.71013
#
# Compressibility (1/GPa) = 0.01800236
#
# Stress axis : x y z
#
# Youngs Moduli (GPa) = 79.14183 70.02885 72.77568
#
# Poissons Ratio (x) = 0.27275 0.25573
# Poissons Ratio (y) = 0.30824 0.28515
# Poissons Ratio (z) = 0.27810 0.27439
#
# Static dielectric constant tensor:
#      x y z
#    x 4.285370 0.211490 0.136450 
#    y 0.211490 3.893170 0.101280 
#    z 0.136450 0.101280 4.154080 
# 
# 
# High freq. dielectric constant tensor:
#      x y z
#    x 1.882740 0.007060 0.006050 
#    y 0.007060 1.853000 0.009660 
#    z 0.006050 0.009660 1.875170 
# 
# From -- ./inp_files/97624.got.cif
#   From: 2010.06.25/outbox.cif.g09.slc.cpg/sg2_49_cif.got.tgz:97624.got - 2010.06.27 13:26:56.
