data_PCOD8024259
_publ_section_title
;
Structure prediction by ZEFSAII (Michael W. Deem and Ramdas Pophale) SiO2 
 PCOD8024259
Probable space group: P -1
;
_chemical_formula_sum "Si O2"
_cell_formula_units_Z 14
_cell_length_a 11.303753
_cell_length_b 16.892591
_cell_length_c 17.184654
_cell_angle_alpha 157.760289
_cell_angle_beta 146.098099
_cell_angle_gamma 32.536762
_cell_volume 647.789347
_symmetry_space_group_name_H-M "P -1"
_symmetry_group_IT_number 2
_symmetry_cell_setting 'triclinic'
loop_
_space_group_symop_operation_xyz
x,y,z
-x,-y,-z
loop_
_atom_site_type_symbol
_atom_site_label
_atom_site_fract_x
_atom_site_fract_y
_atom_site_fract_z
Si Si1 0.713374 0.393715 0.072979
Si Si2 0.103947 0.326852 0.468439
Si Si3 0.924658 0.025472 0.191388
Si Si4 0.953311 0.013083 0.372515
Si Si5 0.471886 0.145515 0.986848
Si Si6 0.732068 0.055017 0.890791
Si Si7 0.838680 0.378246 0.767691
O O1 0.628320 0.296024 0.013200
O O2 0.500000 0.500000 0.000000
O O3 0.801016 0.583004 0.324279
O O4 0.915426 0.210793 0.970549
O O5 0.000000 0.500000 0.500000
O O6 0.925432 0.227877 0.319629
O O7 0.302845 0.123771 0.351454
O O8 0.660528 0.046766 0.067522
O O9 0.007308 0.046300 0.342817
O O10 0.163784 0.809728 0.340975
O O11 0.923897 0.244572 0.611586
O O12 0.729646 0.947267 0.195794
O O13 0.396113 0.417543 0.190695
O O14 0.596419 0.042085 0.881014
O O15 0.000000 0.000000 0.000000
O O16 0.000000 0.500000 0.000000
#
# Coordination Sequence:
#
# PCOD8024259 Si02
#       7
#     2   2   2   2   2   2   2
#     4  11  25  43  63  98 133 169 212 274 327 372
#     4  11  21  42  69  90 131 175 213 260 328 380
#     4  11  24  41  65  99 130 161 221 269 312 393
#     4  10  23  43  63  95 128 166 213 265 325 379
#     4  11  21  40  67  94 127 169 211 267 315 383
#     4  11  21  42  65  97 127 164 223 257 313 397
#     4   9  22  43  62  88 128 172 216 257 321 384
#
# _framework density 21.611964
#
# number of rings (size 3 to 8) (size 9 to 14) (size 15 to 20)
#    0.000    1.429    4.286    0.429    2.000    8.571 
#   10.286    0.000    0.000    0.000    0.000    0.000 
#    0.000    0.000    0.000    0.000    0.000    0.000 
#
# Total GULP energy -173494.791296 kJ/mol
# GULP energy per Si atom -12392.485093 kJ/mol
# Density = 2.156277 g / cm^3
# Si number density = 21.611964 Si / 1000 Ang^3
#
#
#
# Elastic Constant Matrix: (Units=GPa)
#
#
# Indices 1 2 3 4 5 6 
#
# 1 85.0766 12.3630 29.1641 7.4137 -19.0261 13.3136
# 2 12.3630 121.1146 40.4149 0.4032 -8.5057 3.1109
# 3 29.1641 40.4149 136.2794 7.8531 -28.6155 -3.4920
# 4 7.4137 0.4032 7.8531 30.0167 3.6142 -6.0919
# 5 -19.0261 -8.5057 -28.6155 3.6142 36.9777 -2.7060
# 6 13.3136 3.1109 -3.4920 -6.0919 -2.7060 30.5694
#
#
#
# Elastic Compliance Matrix: (Units=1/GPa)
#
#
# Indices 1 2 3 4 5 6 
#
# 1 0.015530 -0.000344 -0.001697 -0.005699 0.006608 -0.007473
# 2 -0.000344 0.009224 -0.002790 0.000522 -0.000341 -0.001034
# 3 -0.001697 -0.002790 0.010153 -0.002552 0.006758 0.002272
# 4 -0.005699 0.000522 -0.002552 0.038165 -0.007856 0.009048
# 5 0.006608 -0.000341 0.006758 -0.007856 0.036332 -0.000421
# 6 -0.007473 -0.001034 0.002272 0.009048 -0.000421 0.038098
#
#
# Mechanical properties :
#
#
# Convention : Reuss Voigt Hill
#
# Bulk Modulus (GPa) = 39.61259 56.26165 47.93712
# Shear Modulus (GPa) = 30.19746 36.88132 33.53939
#
# Velocity S-wave (km/s) = 3.74204 4.13549 3.94368
# Velocity P-wave (km/s) = 6.08599 6.99230 6.55483
#
# Compressibility (1/GPa) = 0.02524450
#
# Stress axis : x y z
#
# Youngs Moduli (GPa) = 64.39238 108.41764 98.49699
#
# Poissons Ratio (x) = 0.03729 0.16713
# Poissons Ratio (y) = 0.02215 0.27480
# Poissons Ratio (z) = 0.10926 0.30248
#
# Static dielectric constant tensor:
#      x y z
#    x 3.795910 0.100450 -0.283070 
#    y 0.100450 4.150010 0.143730 
#    z -0.283070 0.143730 4.289400 
# 
# 
# High freq. dielectric constant tensor:
#      x y z
#    x 1.838110 0.015040 -0.017710 
#    y 0.015040 1.850030 0.006620 
#    z -0.017710 0.006620 1.858320 
# 
# From -- ./inp_files/398492.got.cif
#   From: 2010.06.25/outbox.cif.g09.slc.cpg/sg2_200_cif.got.tgz:398492.got - 2010.06.27 13:26:56.
