data_PCOD8024572
_publ_section_title
;
Structure prediction by ZEFSAII (Michael W. Deem and Ramdas Pophale) SiO2 
 PCOD8024572
Probable space group: P -1
;
_chemical_formula_sum "Si O2"
_cell_formula_units_Z 16
_cell_length_a 18.425925
_cell_length_b 8.159195
_cell_length_c 9.513449
_cell_angle_alpha 100.608686
_cell_angle_beta 124.023122
_cell_angle_gamma 38.923954
_cell_volume 652.393517
_symmetry_space_group_name_H-M "P -1"
_symmetry_group_IT_number 2
_symmetry_cell_setting 'triclinic'
loop_
_space_group_symop_operation_xyz
x,y,z
-x,-y,-z
loop_
_atom_site_type_symbol
_atom_site_label
_atom_site_fract_x
_atom_site_fract_y
_atom_site_fract_z
Si Si1 0.350203 0.231527 0.157137
Si Si2 0.099313 0.124535 0.628567
Si Si3 0.807123 0.161632 0.860075
Si Si4 0.336630 0.092403 0.553052
Si Si5 0.212429 0.294957 0.748229
Si Si6 0.276037 0.691485 0.511224
Si Si7 0.375362 0.867614 0.289134
Si Si8 0.064577 0.721822 0.274178
O O1 0.269952 0.534026 0.158974
O O2 0.537580 0.956053 0.331024
O O3 0.296018 0.166484 0.192655
O O4 0.311422 0.247178 0.957055
O O5 0.139678 0.248821 0.738992
O O6 0.933217 0.364875 0.407644
O O7 0.081550 0.041314 0.736863
O O8 0.238990 0.854930 0.635085
O O9 0.806454 0.108258 0.687930
O O10 0.720830 0.149026 0.852009
O O11 0.988444 0.877441 0.063835
O O12 0.319775 0.070626 0.695287
O O13 0.162106 0.397174 0.346539
O O14 0.401048 0.840543 0.483001
O O15 0.461152 0.401248 0.655264
O O16 0.202352 0.628785 0.450146
#
# Coordination Sequence:
#
# PCOD8024572 Si02
#       8
#     2   2   2   2   2   2   2   2
#     4  12  24  46  71 104 145 182 234 292 349 419
#     4  10  23  43  69 100 143 188 234 290 353 416
#     4  12  27  44  76 109 139 183 245 287 350 425
#     4  11  23  45  72  98 146 187 230 289 361 413
#     4  10  23  43  69 102 139 188 238 290 348 415
#     4  12  23  44  70 102 144 184 231 291 355 420
#     4  12  26  47  72 107 144 186 230 295 358 417
#     4  11  24  45  69 104 141 189 236 290 351 418
#
# _framework density 24.525077
#
# number of rings (size 3 to 8) (size 9 to 14) (size 15 to 20)
#    0.000    0.750    2.500    4.875    1.750    2.500 
#    2.250    1.250    0.000    0.000    0.000    0.000 
#    0.000    0.000    0.000    0.000    0.000    0.000 
#
# Total GULP energy -198308.604791 kJ/mol
# GULP energy per Si atom -12394.287799 kJ/mol
# Density = 2.446926 g / cm^3
# Si number density = 24.525077 Si / 1000 Ang^3
#
#
#
# Elastic Constant Matrix: (Units=GPa)
#
#
# Indices 1 2 3 4 5 6 
#
# 1 100.4610 32.6225 3.4078 2.1988 -0.1121 2.6032
# 2 32.6225 60.7225 23.6887 -1.1673 16.3094 -25.0155
# 3 3.4078 23.6887 84.5909 -1.0056 6.8188 -0.7661
# 4 2.1988 -1.1673 -1.0056 27.3987 -0.9329 -11.1257
# 5 -0.1121 16.3094 6.8188 -0.9329 28.2625 9.1232
# 6 2.6032 -25.0155 -0.7661 -11.1257 9.1232 37.8895
#
#
#
# Elastic Compliance Matrix: (Units=1/GPa)
#
#
# Indices 1 2 3 4 5 6 
#
# 1 0.035303 -0.071066 0.012523 -0.033161 0.060745 -0.073455
# 2 -0.071066 0.199828 -0.036535 0.089612 -0.169410 0.203180
# 3 0.012523 -0.036535 0.018812 -0.015466 0.027639 -0.035798
# 4 -0.033161 0.089612 -0.015466 0.082054 -0.079059 0.104260
# 5 0.060745 -0.169410 0.027639 -0.079059 0.183105 -0.182767
# 6 -0.073455 0.203180 -0.035798 0.104260 -0.182767 0.239481
#
#
# Mechanical properties :
#
#
# Convention : Reuss Voigt Hill
#
# Bulk Modulus (GPa) = 15.67704 40.57915 28.12810
# Shear Modulus (GPa) = 5.15463 31.11382 18.13423
#
# Velocity S-wave (km/s) = 1.45132 3.56568 2.72217
# Velocity P-wave (km/s) = 3.03555 5.79086 4.62323
#
# Compressibility (1/GPa) = 0.06378754
#
# Stress axis : x y z
#
# Youngs Moduli (GPa) = 28.32596 5.00432 53.15689
#
# Poissons Ratio (x) = 0.35563 -0.66567
# Poissons Ratio (y) = 2.01300 1.94208
# Poissons Ratio (z) = -0.35472 0.18283
#
# Static dielectric constant tensor:
#      x y z
#    x 4.616690 -0.116270 -0.022690 
#    y -0.116270 4.216610 0.024630 
#    z -0.022690 0.024630 4.303330 
# 
# 
# High freq. dielectric constant tensor:
#      x y z
#    x 1.995050 -0.009410 0.004620 
#    y -0.009410 1.959310 0.003270 
#    z 0.004620 0.003270 1.964440 
# 
# From -- ./inp_files/261507.got.cif
#   From: 2010.06.25/outbox.cif.g09.slc.cpg/sg2_131_cif.got.tgz:261507.got - 2010.06.27 13:26:56.
