data_PCOD8024810
_publ_section_title
;
Structure prediction by ZEFSAII (Michael W. Deem and Ramdas Pophale) SiO2 
 PCOD8024810
Probable space group: P -1
;
_chemical_formula_sum "Si O2"
_cell_formula_units_Z 16
_cell_length_a 8.704097
_cell_length_b 27.999887
_cell_length_c 4.975480
_cell_angle_alpha 71.838514
_cell_angle_beta 92.025525
_cell_angle_gamma 42.934215
_cell_volume 716.806515
_symmetry_space_group_name_H-M "P -1"
_symmetry_group_IT_number 2
_symmetry_cell_setting 'triclinic'
loop_
_space_group_symop_operation_xyz
x,y,z
-x,-y,-z
loop_
_atom_site_type_symbol
_atom_site_label
_atom_site_fract_x
_atom_site_fract_y
_atom_site_fract_z
Si Si1 0.454306 0.465805 0.367477
Si Si2 0.628421 0.131833 0.252461
Si Si3 0.111150 0.626208 0.843293
Si Si4 0.559590 0.765673 0.432324
Si Si5 0.220499 0.756555 0.412800
Si Si6 0.223929 0.064435 0.775271
Si Si7 0.720466 0.324665 0.941431
Si Si8 0.170250 0.018899 0.352436
O O1 0.500000 0.500000 0.500000
O O2 0.676421 0.404777 0.276312
O O3 0.462565 0.412651 0.641027
O O4 0.191266 0.548650 0.073668
O O5 0.503551 0.202105 0.326939
O O6 0.918678 0.065699 0.388410
O O7 0.606941 0.078894 0.433088
O O8 0.510559 0.171618 0.884715
O O9 0.853665 0.683199 0.577281
O O10 0.097038 0.673663 0.991858
O O11 0.411465 0.752961 0.369479
O O12 0.162683 0.741914 0.158956
O O13 0.953794 0.842555 0.353841
O O14 0.340034 0.690565 0.765031
O O15 0.239335 0.049190 0.486500
O O16 0.121430 0.045308 0.991759
O O17 0.500000 0.000000 0.000000
#
# Coordination Sequence:
#
# PCOD8024810 Si02
#       8
#     2   2   2   2   2   2   2   2
#     4   9  20  44  71  96 132 168 215 263 322 386
#     4  11  23  41  69  88 130 166 220 275 327 372
#     4  10  23  43  73  99 128 169 221 267 319 385
#     4  12  25  42  67 102 131 170 216 280 328 378
#     4  12  24  43  64  94 139 172 210 268 336 387
#     4  12  25  42  61  90 131 178 215 264 326 394
#     4  11  23  43  68  95 131 177 210 261 324 396
#     4  11  22  44  64  91 121 175 221 270 320 376
#
# _framework density 22.321228000000001
#
# number of rings (size 3 to 8) (size 9 to 14) (size 15 to 20)
#    0.000    1.000    3.750    2.625    3.500    5.000 
#    0.000    1.250    0.000    0.000    0.000    0.000 
#    0.000    0.000    0.000    0.000    0.000    0.000 
#
# Total GULP energy -198251.248942 kJ/mol
# GULP energy per Si atom -12390.703059 kJ/mol
# Density = 2.227042 g / cm^3
# Si number density = 22.321228 Si / 1000 Ang^3
#
#
#
# Elastic Constant Matrix: (Units=GPa)
#
#
# Indices 1 2 3 4 5 6 
#
# 1 40.3789 36.5895 21.1062 -10.3253 7.0847 4.0773
# 2 36.5895 93.5423 29.4742 -5.9466 11.0079 11.4982
# 3 21.1062 29.4742 127.5033 -16.1883 -11.0968 -1.3719
# 4 -10.3253 -5.9466 -16.1883 45.0958 0.8749 1.4926
# 5 7.0847 11.0079 -11.0968 0.8749 43.9105 -2.2138
# 6 4.0773 11.4982 -1.3719 1.4926 -2.2138 22.8163
#
#
#
# Elastic Compliance Matrix: (Units=1/GPa)
#
#
# Indices 1 2 3 4 5 6 
#
# 1 0.042009 -0.014357 -0.003160 0.006715 -0.004177 -0.001306
# 2 -0.014357 0.018185 -0.002360 -0.001445 -0.003160 -0.006953
# 3 -0.003160 -0.002360 0.009535 0.002235 0.003594 0.002530
# 4 0.006715 -0.001445 0.002235 0.024405 -0.000744 -0.002006
# 5 -0.004177 -0.003160 0.003594 -0.000744 0.025419 0.005070
# 6 -0.001306 -0.006953 0.002530 -0.002006 0.005070 0.048341
#
#
# Mechanical properties :
#
#
# Convention : Reuss Voigt Hill
#
# Bulk Modulus (GPa) = 33.36267 48.41826 40.89047
# Shear Modulus (GPa) = 22.97370 33.98149 28.47759
#
# Velocity S-wave (km/s) = 3.21164 3.90601 3.57572
# Velocity P-wave (km/s) = 5.36022 6.48700 5.95034
#
# Compressibility (1/GPa) = 0.02997362
#
# Stress axis : x y z
#
# Youngs Moduli (GPa) = 23.80443 54.99140 104.87205
#
# Poissons Ratio (x) = 0.78953 0.33140
# Poissons Ratio (y) = 0.34177 0.24754
# Poissons Ratio (z) = 0.07522 0.12980
#
# Static dielectric constant tensor:
#      x y z
#    x 4.058030 0.181620 -0.536650 
#    y 0.181620 4.766630 -0.490490 
#    z -0.536650 -0.490490 4.902320 
# 
# 
# High freq. dielectric constant tensor:
#      x y z
#    x 1.830670 0.012710 -0.011700 
#    y 0.012710 1.890720 -0.001000 
#    z -0.011700 -0.001000 1.905230 
# 
# From -- ./inp_files/56368.got.cif
#   From: 2010.06.25/outbox.cif.g09.slc.cpg/sg2_29_cif.got.tgz:56368.got - 2010.06.27 13:26:56.
