data_PCOD8024463
_publ_section_title
;
Structure prediction by ZEFSAII (Michael W. Deem and Ramdas Pophale) SiO2 
 PCOD8024463
Probable space group: P -1
;
_chemical_formula_sum "Si O2"
_cell_formula_units_Z 16
_cell_length_a 17.587547
_cell_length_b 23.991298
_cell_length_c 14.549687
_cell_angle_alpha 31.317643
_cell_angle_beta 20.874928
_cell_angle_gamma 20.089221
_cell_volume 737.757481
_symmetry_space_group_name_H-M "P -1"
_symmetry_group_IT_number 2
_symmetry_cell_setting 'triclinic'
loop_
_space_group_symop_operation_xyz
x,y,z
-x,-y,-z
loop_
_atom_site_type_symbol
_atom_site_label
_atom_site_fract_x
_atom_site_fract_y
_atom_site_fract_z
Si Si1 0.224601 0.276861 0.635356
Si Si2 0.241758 0.029865 0.941157
Si Si3 0.517779 0.472064 0.913509
Si Si4 0.737769 0.613828 0.381960
Si Si5 0.162898 0.854465 0.951536
Si Si6 0.199399 0.343194 0.113629
Si Si7 0.557069 0.568859 0.412351
Si Si8 0.158106 0.846134 0.595800
O O1 0.287701 0.283324 0.660199
O O2 0.453232 0.265021 0.331427
O O3 0.347276 0.112571 0.698766
O O4 0.836831 0.441427 0.831746
O O5 0.571501 0.836206 0.851171
O O6 0.036701 0.072516 0.022473
O O7 0.033723 0.103128 0.165919
O O8 0.592990 0.553598 0.661916
O O9 0.500000 0.500000 0.000000
O O10 0.810535 0.272062 0.849820
O O11 0.525347 0.741134 0.357716
O O12 0.102620 0.455134 0.152733
O O13 0.000000 0.000000 0.000000
O O14 0.868852 0.418203 0.336419
O O15 0.390044 0.338252 0.829400
O O16 0.500000 0.500000 0.500000
O O17 0.222294 0.714699 0.645567
O O18 0.000000 0.000000 0.500000
#
# Coordination Sequence:
#
# PCOD8024463 Si02
#       8
#     2   2   2   2   2   2   2   2
#     4  12  24  44  72  97 134 180 229 271 356 402
#     4  12  25  46  65 105 141 173 232 283 334 411
#     4  12  23  46  68  96 135 175 230 285 333 411
#     4  11  25  43  68 101 136 182 227 277 339 409
#     4  12  29  46  69 103 137 177 230 287 341 404
#     4  10  25  42  64  99 141 178 220 289 337 396
#     4  10  23  43  67  97 136 182 233 272 341 404
#     4  11  21  45  70  94 142 177 216 284 327 400
#
# _framework density 21.687342999999998
#
# number of rings (size 3 to 8) (size 9 to 14) (size 15 to 20)
#    0.000    0.750    6.250    0.375    5.250    2.500 
#    0.000    1.250    0.000    0.000    0.000    0.000 
#    0.000    0.000    0.000    0.000    0.000    0.000 
#
# Total GULP energy -198266.841982 kJ/mol
# GULP energy per Si atom -12391.677624 kJ/mol
# Density = 2.163798 g / cm^3
# Si number density = 21.687343 Si / 1000 Ang^3
#
#
#
# Elastic Constant Matrix: (Units=GPa)
#
#
# Indices 1 2 3 4 5 6 
#
# 1 135.1851 64.9672 36.0430 -1.6760 -1.4838 15.5346
# 2 64.9672 161.5433 22.4563 4.9845 -8.6932 -7.1605
# 3 36.0430 22.4563 50.7712 5.9681 -0.8728 -4.0828
# 4 -1.6760 4.9845 5.9681 29.2938 6.2539 6.6813
# 5 -1.4838 -8.6932 -0.8728 6.2539 29.0932 1.5691
# 6 15.5346 -7.1605 -4.0828 6.6813 1.5691 49.4780
#
#
#
# Elastic Compliance Matrix: (Units=1/GPa)
#
#
# Indices 1 2 3 4 5 6 
#
# 1 0.012257 -0.004325 -0.007824 0.004672 -0.001599 -0.005700
# 2 -0.004325 0.008290 0.000021 -0.002897 0.002725 0.002864
# 3 -0.007824 0.000021 0.026606 -0.007520 0.001719 0.005616
# 4 0.004672 -0.002897 -0.007520 0.040105 -0.009062 -0.007635
# 5 -0.001599 0.002725 0.001719 -0.009062 0.037046 0.001087
# 6 -0.005700 0.002864 0.005616 -0.007635 0.001087 0.023875
#
#
# Mechanical properties :
#
#
# Convention : Reuss Voigt Hill
#
# Bulk Modulus (GPa) = 43.67080 66.04808 54.85944
# Shear Modulus (GPa) = 27.76766 36.50853 32.13810
#
# Velocity S-wave (km/s) = 3.58210 4.10738 3.85370
# Velocity P-wave (km/s) = 6.10646 7.28113 6.71951
#
# Compressibility (1/GPa) = 0.02289860
#
# Stress axis : x y z
#
# Youngs Moduli (GPa) = 81.58675 120.63388 37.58562
#
# Poissons Ratio (x) = 0.52169 0.29406
# Poissons Ratio (y) = 0.35283 -0.00080
# Poissons Ratio (z) = 0.63830 -0.00257
#
# Static dielectric constant tensor:
#      x y z
#    x 3.989940 0.263270 0.012140 
#    y 0.263270 3.898150 0.380580 
#    z 0.012140 0.380580 3.592500 
# 
# 
# High freq. dielectric constant tensor:
#      x y z
#    x 1.866540 0.003750 0.011030 
#    y 0.003750 1.867060 0.008420 
#    z 0.011030 0.008420 1.836040 
# 
# From -- ./inp_files/112768.got.cif
#   From: 2010.06.25/outbox.cif.g09.slc.cpg/sg2_57_cif.got.tgz:112768.got - 2010.06.27 13:26:56.
