data_PCOD8024249
_publ_section_title
;
Structure prediction by ZEFSAII (Michael W. Deem and Ramdas Pophale) SiO2 
 PCOD8024249
Probable space group: P -1
;
_chemical_formula_sum "Si O2"
_cell_formula_units_Z 14
_cell_length_a 6.321818
_cell_length_b 15.697167
_cell_length_c 15.522305
_cell_angle_alpha 154.157390
_cell_angle_beta 109.702082
_cell_angle_gamma 77.461491
_cell_volume 617.990646
_symmetry_space_group_name_H-M "P -1"
_symmetry_group_IT_number 2
_symmetry_cell_setting 'triclinic'
loop_
_space_group_symop_operation_xyz
x,y,z
-x,-y,-z
loop_
_atom_site_type_symbol
_atom_site_label
_atom_site_fract_x
_atom_site_fract_y
_atom_site_fract_z
Si Si1 0.021473 0.489651 0.247356
Si Si2 0.013725 0.340230 0.783148
Si Si3 0.638318 0.024065 0.129434
Si Si4 0.651875 0.932074 0.385124
Si Si5 0.606308 0.130993 0.882144
Si Si6 0.480810 0.578860 0.474766
Si Si7 0.868933 0.794713 0.620912
O O1 0.022178 0.522117 0.176061
O O2 0.961911 0.693414 0.460580
O O3 0.268434 0.441589 0.268119
O O4 0.829427 0.303668 0.081050
O O5 0.248544 0.257020 0.739185
O O6 0.826302 0.136013 0.572749
O O7 0.000000 0.500000 0.000000
O O8 0.541528 0.858474 0.039635
O O9 0.598570 0.216036 0.347078
O O10 0.908462 0.054593 0.169603
O O11 0.500000 0.000000 0.000000
O O12 0.530330 0.840618 0.196985
O O13 0.500000 0.000000 0.500000
O O14 0.684653 0.922884 0.686330
O O15 0.500000 0.500000 0.500000
O O16 0.735807 0.614686 0.500662
#
# Coordination Sequence:
#
# PCOD8024249 Si02
#       7
#     2   2   2   2   2   2   2
#     4  11  25  42  66  97 131 177 222 272 338 401
#     4  11  25  44  68 102 139 177 228 282 339 406
#     4  10  24  40  63  93 129 172 219 272 335 399
#     4  11  24  44  70  99 137 178 230 279 340 409
#     4  11  25  41  66  99 129 178 221 273 337 399
#     4  10  24  40  64  94 125 172 223 274 331 395
#     4  10  23  43  63  89 135 168 219 277 329 394
#
# _framework density 22.654066
#
# number of rings (size 3 to 8) (size 9 to 14) (size 15 to 20)
#    0.000    1.429    0.000    4.286    6.000   10.286 
#    0.000    0.000    0.000    0.000    0.000    0.000 
#    0.000    0.000    0.000    0.000    0.000    0.000 
#
# Total GULP energy -173435.430233 kJ/mol
# GULP energy per Si atom -12388.245017 kJ/mol
# Density = 2.260250 g / cm^3
# Si number density = 22.654066 Si / 1000 Ang^3
#
#
#
# Elastic Constant Matrix: (Units=GPa)
#
#
# Indices 1 2 3 4 5 6 
#
# 1 140.1169 66.7691 43.7181 -14.3604 20.1648 7.8737
# 2 66.7691 159.3633 33.6843 -30.3440 21.3284 13.6886
# 3 43.7181 33.6843 93.7510 -8.4387 21.4220 2.5795
# 4 -14.3604 -30.3440 -8.4387 41.8133 -2.0752 3.1752
# 5 20.1648 21.3284 21.4220 -2.0752 50.3266 5.2739
# 6 7.8737 13.6886 2.5795 3.1752 5.2739 35.4150
#
#
#
# Elastic Compliance Matrix: (Units=1/GPa)
#
#
# Indices 1 2 3 4 5 6 
#
# 1 0.009883 -0.003183 -0.003136 0.000438 -0.001195 -0.000600
# 2 -0.003183 0.009380 -0.000886 0.005683 -0.001764 -0.003100
# 3 -0.003136 -0.000886 0.013439 0.000741 -0.004122 0.000608
# 4 0.000438 0.005683 0.000741 0.028639 -0.001223 -0.004734
# 5 -0.001195 -0.001764 -0.004122 -0.001223 0.023017 -0.002071
# 6 -0.000600 -0.003100 0.000608 -0.004734 -0.002071 0.030257
#
#
# Mechanical properties :
#
#
# Convention : Reuss Voigt Hill
#
# Bulk Modulus (GPa) = 54.66883 75.73046 65.19965
# Shear Modulus (GPa) = 37.00345 42.11495 39.55920
#
# Velocity S-wave (km/s) = 4.04594 4.31634 4.18332
# Velocity P-wave (km/s) = 6.78311 7.63824 7.22334
#
# Compressibility (1/GPa) = 0.01829196
#
# Stress axis : x y z
#
# Youngs Moduli (GPa) = 101.18758 106.60605 74.40989
#
# Poissons Ratio (x) = 0.33932 0.23334
# Poissons Ratio (y) = 0.32208 0.06594
# Poissons Ratio (z) = 0.31731 0.09447
#
# Static dielectric constant tensor:
#      x y z
#    x 4.650140 0.407860 0.388820 
#    y 0.407860 2.704410 0.631370 
#    z 0.388820 0.631370 4.220170 
# 
# 
# High freq. dielectric constant tensor:
#      x y z
#    x 1.904700 0.002840 0.008770 
#    y 0.002840 1.893610 0.002490 
#    z 0.008770 0.002490 1.904460 
# 
# From -- ./inp_files/48162.got.cif
#   From: 2010.06.25/outbox.cif.g09.slc.cpg/sg2_25_cif.got.tgz:48162.got - 2010.06.27 13:26:56.
