data_PCOD8024195
_publ_section_title
;
Structure prediction by ZEFSAII (Michael W. Deem and Ramdas Pophale) SiO2 
 PCOD8024195
Probable space group: P -1
;
_chemical_formula_sum "Si O2"
_cell_formula_units_Z 16
_cell_length_a 6.248097
_cell_length_b 13.523643
_cell_length_c 12.085604
_cell_angle_alpha 46.377254
_cell_angle_beta 62.159225
_cell_angle_gamma 82.319020
_cell_volume 624.676061
_symmetry_space_group_name_H-M "P -1"
_symmetry_group_IT_number 2
_symmetry_cell_setting 'triclinic'
loop_
_space_group_symop_operation_xyz
x,y,z
-x,-y,-z
loop_
_atom_site_type_symbol
_atom_site_label
_atom_site_fract_x
_atom_site_fract_y
_atom_site_fract_z
Si Si1 0.428256 0.231206 0.683649
Si Si2 0.588256 0.785999 0.924421
Si Si3 0.449291 0.842830 0.686384
Si Si4 0.083135 0.771004 0.163041
Si Si5 0.925080 0.478006 0.366330
Si Si6 0.767999 0.061426 0.779532
Si Si7 0.252561 0.279869 0.448539
Si Si8 0.939684 0.608363 0.019207
O O1 0.673249 0.358520 0.564644
O O2 0.514309 0.088010 0.767536
O O3 0.330980 0.271109 0.561359
O O4 0.171737 0.195460 0.849867
O O5 0.633851 0.857476 0.736685
O O6 0.680870 0.644712 0.017486
O O7 0.731522 0.893908 0.903825
O O8 0.286415 0.758312 0.032687
O O9 0.518379 0.729659 0.675274
O O10 0.156618 0.762361 0.847134
O O11 0.500000 0.000000 0.500000
O O12 0.212055 0.880723 0.144142
O O13 0.972893 0.601801 0.353375
O O14 0.168570 0.420804 0.339321
O O15 0.884663 0.536268 0.208842
O O16 0.011900 0.143130 0.586462
O O17 0.000000 0.500000 0.000000
#
# Coordination Sequence:
#
# PCOD8024195 Si02
#       8
#     2   2   2   2   2   2   2   2
#     4  10  23  42  72  99 142 186 231 280 350 412
#     4  12  27  46  70 103 144 182 235 289 348 414
#     4  12  26  46  75 103 138 184 238 292 355 418
#     4  11  25  43  68 104 141 188 231 284 341 419
#     4  11  24  43  68 104 140 183 232 285 347 413
#     4  10  24  45  68 102 140 187 233 286 342 413
#     4  10  23  43  70 102 140 180 237 287 345 418
#     4  12  28  46  73 105 142 186 234 293 354 413
#
# _framework density 25.613274000000001
#
# number of rings (size 3 to 8) (size 9 to 14) (size 15 to 20)
#    0.000    1.000    1.250    3.750    5.250   11.000 
#    0.000    0.000    0.000    0.000    0.000    0.000 
#    0.000    0.000    0.000    0.000    0.000    0.000 
#
# Total GULP energy -198218.624422 kJ/mol
# GULP energy per Si atom -12388.664026 kJ/mol
# Density = 2.555498 g / cm^3
# Si number density = 25.613274 Si / 1000 Ang^3
#
#
#
# Elastic Constant Matrix: (Units=GPa)
#
#
# Indices 1 2 3 4 5 6 
#
# 1 111.9288 45.9507 24.9054 -7.9806 5.3846 -22.4106
# 2 45.9507 133.3795 14.1330 -11.2427 1.5636 -13.0135
# 3 24.9054 14.1330 61.4399 -1.4678 5.4972 -11.2270
# 4 -7.9806 -11.2427 -1.4678 36.8842 -6.3670 -8.3610
# 5 5.3846 1.5636 5.4972 -6.3670 43.0263 3.6795
# 6 -22.4106 -13.0135 -11.2270 -8.3610 3.6795 41.8988
#
#
#
# Elastic Compliance Matrix: (Units=1/GPa)
#
#
# Indices 1 2 3 4 5 6 
#
# 1 0.012214 -0.003127 -0.003095 0.002589 -0.001093 0.005345
# 2 -0.003127 0.008968 -0.000509 0.002424 0.000367 0.001428
# 3 -0.003095 -0.000509 0.018471 0.000298 -0.002200 0.003388
# 4 0.002589 0.002424 0.000298 0.030843 0.003424 0.008072
# 5 -0.001093 0.000367 -0.002200 0.003424 0.024368 -0.002517
# 6 0.005345 0.001428 0.003388 0.008072 -0.002517 0.029909
#
#
# Mechanical properties :
#
#
# Convention : Reuss Voigt Hill
#
# Bulk Modulus (GPa) = 38.18360 52.96961 45.57660
# Shear Modulus (GPa) = 34.02100 39.14580 36.58340
#
# Velocity S-wave (km/s) = 3.64848 3.91364 3.78338
# Velocity P-wave (km/s) = 5.71740 6.41463 6.07603
#
# Compressibility (1/GPa) = 0.02618925
#
# Stress axis : x y z
#
# Youngs Moduli (GPa) = 81.87090 111.50680 54.13869
#
# Poissons Ratio (x) = 0.34873 0.16758
# Poissons Ratio (y) = 0.25604 0.02757
# Poissons Ratio (z) = 0.25343 0.05679
#
# Static dielectric constant tensor:
#      x y z
#    x 4.976990 -0.466950 -0.482870 
#    y -0.466950 4.773180 0.195710 
#    z -0.482870 0.195710 4.903830 
# 
# 
# High freq. dielectric constant tensor:
#      x y z
#    x 2.031210 -0.014350 -0.010930 
#    y -0.014350 2.032090 -0.005400 
#    z -0.010930 -0.005400 2.022990 
# 
# From -- ./inp_files/484210.got.cif
#   From: 2010.06.25/outbox.cif.g09.slc.cpg/sg2_243_cif.got.tgz:484210.got - 2010.06.27 13:26:56.
