data_PCOD8024039
_publ_section_title
;
Structure prediction by ZEFSAII (Michael W. Deem and Ramdas Pophale) SiO2 
 PCOD8024039
Probable space group: P -1
;
_chemical_formula_sum "Si O2"
_cell_formula_units_Z 16
_cell_length_a 8.602721
_cell_length_b 11.929667
_cell_length_c 9.589159
_cell_angle_alpha 59.336284
_cell_angle_beta 58.087853
_cell_angle_gamma 67.079246
_cell_volume 708.819447
_symmetry_space_group_name_H-M "P -1"
_symmetry_group_IT_number 2
_symmetry_cell_setting 'triclinic'
loop_
_space_group_symop_operation_xyz
x,y,z
-x,-y,-z
loop_
_atom_site_type_symbol
_atom_site_label
_atom_site_fract_x
_atom_site_fract_y
_atom_site_fract_z
Si Si1 0.052542 0.374749 0.649748
Si Si2 0.433737 0.360851 0.606952
Si Si3 0.298266 0.893807 0.389801
Si Si4 0.099012 0.880991 0.219113
Si Si5 0.118752 0.626759 0.970481
Si Si6 0.473880 0.888483 0.866743
Si Si7 0.772539 0.096851 0.270056
Si Si8 0.266837 0.349784 0.987287
O O1 0.273668 0.356211 0.572914
O O2 0.000000 0.500000 0.500000
O O3 0.990410 0.248006 0.688852
O O4 0.958758 0.407573 0.822293
O O5 0.500000 0.500000 0.500000
O O6 0.604309 0.255978 0.539498
O O7 0.371840 0.314659 0.815273
O O8 0.130834 0.890583 0.363954
O O9 0.228498 0.947672 0.540574
O O10 0.434188 0.988314 0.201168
O O11 0.292151 0.875193 0.050830
O O12 0.951813 0.010364 0.165350
O O13 0.222381 0.749879 0.851921
O O14 0.271267 0.501248 0.932573
O O15 0.951104 0.661851 0.915732
O O16 0.413353 0.921485 0.714015
O O17 0.627326 0.754772 0.885948
#
# Coordination Sequence:
#
# PCOD8024039 Si02
#       8
#     2   2   2   2   2   2   2   2
#     4  11  25  42  68 100 135 184 230 279 342 412
#     4  11  23  42  68  98 139 177 230 283 340 406
#     4  12  26  43  69 103 134 182 233 282 343 402
#     4  12  25  46  70  98 141 187 227 277 345 414
#     4  10  23  44  66  99 134 183 221 288 341 409
#     4  12  25  44  71 101 136 184 231 284 341 407
#     4  12  26  43  69 101 141 174 232 284 348 396
#     4  10  23  42  69  95 134 178 232 273 346 410
#
# _framework density 22.572745999999999
#
# number of rings (size 3 to 8) (size 9 to 14) (size 15 to 20)
#    0.000    0.750    2.500    4.500    3.500    4.500 
#    0.000    0.000    0.000    0.000    0.000    0.000 
#    0.000    0.000    0.000    0.000    0.000    0.000 
#
# Total GULP energy -198454.345299 kJ/mol
# GULP energy per Si atom -12403.396581 kJ/mol
# Density = 2.252137 g / cm^3
# Si number density = 22.572746 Si / 1000 Ang^3
#
#
#
# Elastic Constant Matrix: (Units=GPa)
#
#
# Indices 1 2 3 4 5 6 
#
# 1 144.9949 64.9158 32.3907 -8.4649 14.9766 3.6636
# 2 64.9158 150.4004 21.3143 -19.9728 -1.5645 -4.6823
# 3 32.3907 21.3143 62.2186 -6.0419 8.6116 2.0421
# 4 -8.4649 -19.9728 -6.0419 37.9384 8.0540 -2.2357
# 5 14.9766 -1.5645 8.6116 8.0540 39.5264 -7.0640
# 6 3.6636 -4.6823 2.0421 -2.2357 -7.0640 45.2312
#
#
#
# Elastic Compliance Matrix: (Units=1/GPa)
#
#
# Indices 1 2 3 4 5 6 
#
# 1 0.009725 -0.003787 -0.003202 0.000313 -0.003480 -0.001563
# 2 -0.003787 0.008961 -0.001041 0.003464 0.001615 0.001705
# 3 -0.003202 -0.001041 0.018876 0.002450 -0.003645 -0.001149
# 4 0.000313 0.003464 0.002450 0.030067 -0.006518 0.000691
# 5 -0.003480 0.001615 -0.003645 -0.006518 0.029685 0.004928
# 6 -0.001563 0.001705 -0.001149 0.000691 0.004928 0.023267
#
#
# Mechanical properties :
#
#
# Convention : Reuss Voigt Hill
#
# Bulk Modulus (GPa) = 46.50915 66.09505 56.30210
# Shear Modulus (GPa) = 34.76842 40.47206 37.62024
#
# Velocity S-wave (km/s) = 3.92890 4.23893 4.08686
# Velocity P-wave (km/s) = 6.42110 7.30086 6.87507
#
# Compressibility (1/GPa) = 0.02150115
#
# Stress axis : x y z
#
# Youngs Moduli (GPa) = 102.83010 111.59529 52.97697
#
# Poissons Ratio (x) = 0.42260 0.16963
# Poissons Ratio (y) = 0.38941 0.05517
# Poissons Ratio (z) = 0.32926 0.11622
#
# Static dielectric constant tensor:
#      x y z
#    x 4.217280 0.061060 0.102820 
#    y 0.061060 4.184620 0.108370 
#    z 0.102820 0.108370 3.903870 
# 
# 
# High freq. dielectric constant tensor:
#      x y z
#    x 1.903000 0.003010 0.007500 
#    y 0.003010 1.901530 -0.003640 
#    z 0.007500 -0.003640 1.880760 
# 
# From -- ./inp_files/184831.got.cif
#   From: 2010.06.25/outbox.cif.g09.slc.cpg/sg2_93_cif.got.tgz:184831.got - 2010.06.27 13:26:56.
