data_PCOD8024462
_publ_section_title
;
Structure prediction by ZEFSAII (Michael W. Deem and Ramdas Pophale) SiO2 
 PCOD8024462
Probable space group: P -1
;
_chemical_formula_sum "Si O2"
_cell_formula_units_Z 14
_cell_length_a 25.548966
_cell_length_b 13.623743
_cell_length_c 22.542531
_cell_angle_alpha 18.541290
_cell_angle_beta 163.397932
_cell_angle_gamma 162.477347
_cell_volume 619.195266
_symmetry_space_group_name_H-M "P -1"
_symmetry_group_IT_number 2
_symmetry_cell_setting 'triclinic'
loop_
_space_group_symop_operation_xyz
x,y,z
-x,-y,-z
loop_
_atom_site_type_symbol
_atom_site_label
_atom_site_fract_x
_atom_site_fract_y
_atom_site_fract_z
Si Si1 0.737803 0.346066 0.486649
Si Si2 0.810928 0.565078 0.246330
Si Si3 0.197433 0.502337 0.856691
Si Si4 0.165193 0.040485 0.839610
Si Si5 0.716977 0.758047 0.459611
Si Si6 0.452605 0.576783 0.649542
Si Si7 0.544544 0.226064 0.670465
O O1 0.690435 0.577338 0.254838
O O2 0.721861 0.479678 0.458643
O O3 0.967064 0.377470 0.706915
O O4 0.544302 0.946422 0.501637
O O5 0.818185 0.681390 0.118838
O O6 0.840188 0.878554 0.142574
O O7 0.000000 0.500000 0.500000
O O8 0.610430 0.191327 0.258456
O O9 0.320030 0.928637 0.734247
O O10 0.339219 0.416400 0.102972
O O11 0.950356 0.857244 0.675039
O O12 0.243123 0.752096 0.085263
O O13 0.677709 0.741032 0.356242
O O14 0.562141 0.369958 0.540412
O O15 0.500000 0.500000 0.500000
#
# Coordination Sequence:
#
# PCOD8024462 Si02
#       7
#     2   2   2   2   2   2   2
#     4  10  23  43  67  97 134 182 233 276 339 406
#     4  12  22  43  69  99 139 176 227 282 342 408
#     4  11  23  43  68  98 138 181 225 285 336 407
#     4  11  24  44  70  99 138 181 223 283 349 407
#     4  11  24  42  66  99 139 178 225 276 342 412
#     4  11  24  44  66  99 136 182 233 278 334 406
#     4  12  24  43  67 103 136 175 227 285 345 409
#
# _framework density 22.609991999999998
#
# number of rings (size 3 to 8) (size 9 to 14) (size 15 to 20)
#    0.000    0.857    4.286    3.429    0.000    4.571 
#    2.571    0.000    0.000    0.000    0.000    0.000 
#    0.000    0.000    0.000    0.000    0.000    0.000 
#
# Total GULP energy -173482.379864 kJ/mol
# GULP energy per Si atom -12391.598562 kJ/mol
# Density = 2.255853 g / cm^3
# Si number density = 22.609992 Si / 1000 Ang^3
#
#
#
# Elastic Constant Matrix: (Units=GPa)
#
#
# Indices 1 2 3 4 5 6 
#
# 1 149.2287 51.6628 59.7289 12.9413 -1.9842 -13.0803
# 2 51.6628 53.5697 21.1280 9.4417 3.7895 -22.1008
# 3 59.7289 21.1280 114.3023 -6.2325 8.0437 -20.5416
# 4 12.9413 9.4417 -6.2325 23.4689 0.6582 -11.3482
# 5 -1.9842 3.7895 8.0437 0.6582 31.5029 3.4662
# 6 -13.0803 -22.1008 -20.5416 -11.3482 3.4662 41.9982
#
#
#
# Elastic Compliance Matrix: (Units=1/GPa)
#
#
# Indices 1 2 3 4 5 6 
#
# 1 0.014564 -0.013662 -0.007684 -0.009279 0.005750 -0.009393
# 2 -0.013662 0.038288 0.004359 0.002992 -0.008794 0.019559
# 3 -0.007684 0.004359 0.015034 0.011977 -0.006309 0.011011
# 4 -0.009279 0.002992 0.011977 0.060296 -0.007624 0.021464
# 5 0.005750 -0.008794 -0.006309 -0.007624 0.036140 -0.010965
# 6 -0.009393 0.019559 0.011011 0.021464 -0.010965 0.043268
#
#
# Mechanical properties :
#
#
# Convention : Reuss Voigt Hill
#
# Bulk Modulus (GPa) = 29.48782 64.68223 47.08503
# Shear Modulus (GPa) = 19.77325 31.69940 25.73632
#
# Velocity S-wave (km/s) = 2.96046 3.74840 3.37749
# Velocity P-wave (km/s) = 4.97555 6.88505 6.00666
#
# Compressibility (1/GPa) = 0.03391231
#
# Stress axis : x y z
#
# Youngs Moduli (GPa) = 68.66236 26.11796 66.51573
#
# Poissons Ratio (x) = 0.35682 0.51109
# Poissons Ratio (y) = 0.93805 -0.28993
# Poissons Ratio (z) = 0.52759 -0.11384
#
# Static dielectric constant tensor:
#      x y z
#    x 4.309510 0.245900 -0.242590 
#    y 0.245900 3.964860 -0.183670 
#    z -0.242590 -0.183670 4.117280 
# 
# 
# High freq. dielectric constant tensor:
#      x y z
#    x 1.899920 0.000780 -0.001780 
#    y 0.000780 1.884830 -0.001810 
#    z -0.001780 -0.001810 1.899110 
# 
# From -- ./inp_files/183397.got.cif
#   From: 2010.06.25/outbox.cif.g09.slc.cpg/sg2_92_cif.got.tgz:183397.got - 2010.06.27 13:26:56.
