data_PCOD8024298
_publ_section_title
;
Structure prediction by ZEFSAII (Michael W. Deem and Ramdas Pophale) SiO2 
 PCOD8024298
Probable space group: P -1
;
_chemical_formula_sum "Si O2"
_cell_formula_units_Z 14
_cell_length_a 11.957643
_cell_length_b 14.015835
_cell_length_c 10.140465
_cell_angle_alpha 51.162855
_cell_angle_beta 153.695003
_cell_angle_gamma 128.167328
_cell_volume 578.927402
_symmetry_space_group_name_H-M "P -1"
_symmetry_group_IT_number 2
_symmetry_cell_setting 'triclinic'
loop_
_space_group_symop_operation_xyz
x,y,z
-x,-y,-z
loop_
_atom_site_type_symbol
_atom_site_label
_atom_site_fract_x
_atom_site_fract_y
_atom_site_fract_z
Si Si1 0.237815 0.005185 0.843854
Si Si2 0.459211 0.772602 0.291311
Si Si3 0.249850 0.265864 0.709818
Si Si4 0.945322 0.700660 0.255241
Si Si5 0.113194 0.593821 0.927233
Si Si6 0.983386 0.189861 0.038645
Si Si7 0.708141 0.458117 0.108304
O O1 0.371149 0.148373 0.884413
O O2 0.000000 0.000000 0.500000
O O3 0.109304 0.953004 0.892958
O O4 0.446833 0.915149 0.101594
O O5 0.731681 0.760221 0.649916
O O6 0.397319 0.668463 0.200879
O O7 0.225757 0.733818 0.183272
O O8 0.112891 0.225436 0.739995
O O9 0.054957 0.296199 0.365226
O O10 0.436156 0.392795 0.826809
O O11 0.704620 0.593695 0.050908
O O12 0.184508 0.630092 0.595823
O O13 0.018457 0.799553 0.130331
O O14 0.115483 0.520679 0.855123
O O15 0.000000 0.500000 0.000000
#
# Coordination Sequence:
#
# PCOD8024298 Si02
#       7
#     2   2   2   2   2   2   2
#     4  10  23  43  64  99 139 174 227 275 340 403
#     4  10  24  42  67 100 135 177 222 278 339 397
#     4  11  23  42  67  99 128 184 218 284 335 407
#     4  10  23  44  64  95 136 175 234 276 335 402
#     4  11  24  39  64 100 135 173 228 278 348 402
#     4  10  24  43  69  98 135 183 221 281 333 395
#     4  10  24  40  67  95 134 178 226 282 339 399
#
# _framework density 24.182652000000001
#
# number of rings (size 3 to 8) (size 9 to 14) (size 15 to 20)
#    0.857    0.857    1.429    1.286    8.000    4.000 
#    0.000    1.429    0.000    0.000    0.000    0.000 
#    0.000    0.000    0.000    0.000    0.000    0.000 
#
# Total GULP energy -173499.538256 kJ/mol
# GULP energy per Si atom -12392.824161 kJ/mol
# Density = 2.412761 g / cm^3
# Si number density = 24.182652 Si / 1000 Ang^3
#
#
#
# Elastic Constant Matrix: (Units=GPa)
#
#
# Indices 1 2 3 4 5 6 
#
# 1 39.3735 14.9370 24.5249 -12.9027 -16.8282 -10.7814
# 2 14.9370 84.5807 -0.0754 0.5851 -14.1709 -8.7365
# 3 24.5249 -0.0754 75.6896 3.2162 -9.5202 4.3508
# 4 -12.9027 0.5851 3.2162 29.6883 13.5558 -0.0666
# 5 -16.8282 -14.1709 -9.5202 13.5558 46.2289 -6.3628
# 6 -10.7814 -8.7365 4.3508 -0.0666 -6.3628 37.5862
#
#
#
# Elastic Compliance Matrix: (Units=1/GPa)
#
#
# Indices 1 2 3 4 5 6 
#
# 1 0.056661 -0.006394 -0.019002 0.021857 0.010938 0.018857
# 2 -0.006394 0.013898 0.002749 -0.005312 0.004304 0.001797
# 3 -0.019002 0.002749 0.020263 -0.010630 0.000233 -0.007137
# 4 0.021857 -0.005312 -0.010630 0.048795 -0.009517 0.004741
# 5 0.010938 0.004304 0.000233 -0.009517 0.031058 0.009352
# 6 0.018857 0.001797 -0.007137 0.004741 0.009352 0.034850
#
#
# Mechanical properties :
#
#
# Convention : Reuss Voigt Hill
#
# Bulk Modulus (GPa) = 21.96461 30.93520 26.44991
# Shear Modulus (GPa) = 18.79733 33.38449 26.09091
#
# Velocity S-wave (km/s) = 2.79105 3.71956 3.28824
# Velocity P-wave (km/s) = 4.41465 5.59168 5.03766
#
# Compressibility (1/GPa) = 0.04552777
#
# Stress axis : x y z
#
# Youngs Moduli (GPa) = 17.64888 71.95201 49.35103
#
# Poissons Ratio (x) = 0.46007 0.93779
# Poissons Ratio (y) = 0.11285 -0.13568
# Poissons Ratio (z) = 0.33537 -0.19782
#
# Static dielectric constant tensor:
#      x y z
#    x 4.537540 -0.039700 -0.185750 
#    y -0.039700 4.230680 0.007750 
#    z -0.185750 0.007750 4.164110 
# 
# 
# High freq. dielectric constant tensor:
#      x y z
#    x 1.971680 0.008120 -0.012190 
#    y 0.008120 1.944540 0.001140 
#    z -0.012190 0.001140 1.951900 
# 
# From -- ./inp_files/269906.got.cif
#   From: 2010.06.25/outbox.cif.g09.slc.cpg/sg2_135_cif.got.tgz:269906.got - 2010.06.27 13:26:56.
