data_PCOD8024706
_publ_section_title
;
Structure prediction by ZEFSAII (Michael W. Deem and Ramdas Pophale) SiO2 
 PCOD8024706
Probable space group: P -1
;
_chemical_formula_sum "Si O2"
_cell_formula_units_Z 16
_cell_length_a 13.519607
_cell_length_b 12.106417
_cell_length_c 9.588071
_cell_angle_alpha 81.736863
_cell_angle_beta 107.183118
_cell_angle_gamma 149.656993
_cell_volume 737.003366
_symmetry_space_group_name_H-M "P -1"
_symmetry_group_IT_number 2
_symmetry_cell_setting 'triclinic'
loop_
_space_group_symop_operation_xyz
x,y,z
-x,-y,-z
loop_
_atom_site_type_symbol
_atom_site_label
_atom_site_fract_x
_atom_site_fract_y
_atom_site_fract_z
Si Si1 0.855883 0.115849 0.484052
Si Si2 0.326704 0.562587 0.679664
Si Si3 0.548145 0.417318 0.992567
Si Si4 0.250234 0.499870 0.183462
Si Si5 0.240997 0.737149 0.076854
Si Si6 0.529041 0.655018 0.499356
Si Si7 0.228392 0.930316 0.859211
Si Si8 0.388714 0.983261 0.364611
O O1 0.776273 0.087822 0.306950
O O2 0.763753 0.093244 0.582744
O O3 0.103052 0.348860 0.551563
O O4 0.763542 0.904093 0.501337
O O5 0.314687 0.507675 0.841187
O O6 0.490449 0.640238 0.648809
O O7 0.424751 0.776825 0.678398
O O8 0.500000 0.500000 0.000000
O O9 0.694407 0.547602 0.893238
O O10 0.344599 0.151066 0.921824
O O11 0.339570 0.703024 0.121679
O O12 0.365101 0.579631 0.361456
O O13 0.004968 0.274433 0.143593
O O14 0.252995 0.797746 0.225099
O O15 0.328716 0.908512 0.967460
O O16 0.000000 0.500000 0.000000
O O17 0.500000 0.500000 0.500000
O O18 0.500000 0.000000 0.500000
#
# Coordination Sequence:
#
# PCOD8024706 Si02
#       8
#     2   2   2   2   2   2   2   2
#     4  11  25  43  69  98 136 178 229 276 344 413
#     4  11  25  43  65 100 134 176 229 282 344 399
#     4  12  27  45  69 100 136 179 232 283 344 404
#     4  11  24  45  70  99 138 176 228 282 338 406
#     4  10  23  43  70  98 138 178 222 278 340 406
#     4  11  23  43  69  97 136 177 231 291 335 404
#     4  11  24  46  70 102 136 182 228 277 346 412
#     4  11  25  44  65 100 142 173 223 282 336 406
#
# _framework density 21.709534999999999
#
# number of rings (size 3 to 8) (size 9 to 14) (size 15 to 20)
#    0.000    1.000    3.750    2.250    5.250    4.000 
#    0.000    0.000    0.000    0.000    0.000    0.000 
#    0.000    0.000    0.000    0.000    0.000    0.000 
#
# Total GULP energy -198302.786263 kJ/mol
# GULP energy per Si atom -12393.924141 kJ/mol
# Density = 2.166012 g / cm^3
# Si number density = 21.709535 Si / 1000 Ang^3
#
#
#
# Elastic Constant Matrix: (Units=GPa)
#
#
# Indices 1 2 3 4 5 6 
#
# 1 79.6483 43.0357 21.9525 3.2218 -3.2154 -21.3029
# 2 43.0357 100.6929 38.7090 9.2634 3.3919 -13.1833
# 3 21.9525 38.7090 130.7960 10.2343 -5.7904 -9.2954
# 4 3.2218 9.2634 10.2343 35.6996 4.0426 -4.4978
# 5 -3.2154 3.3919 -5.7904 4.0426 34.1475 -0.5580
# 6 -21.3029 -13.1833 -9.2954 -4.4978 -0.5580 36.0399
#
#
#
# Elastic Compliance Matrix: (Units=1/GPa)
#
#
# Indices 1 2 3 4 5 6 
#
# 1 0.018766 -0.006886 -0.000475 0.001045 0.002388 0.008618
# 2 -0.006886 0.014308 -0.003023 -0.001945 -0.002350 0.000105
# 3 -0.000475 -0.003023 0.008904 -0.001862 0.001998 0.000708
# 4 0.001045 -0.001945 -0.001862 0.029740 -0.003495 0.003083
# 5 0.002388 -0.002350 0.001998 -0.003495 0.030513 0.001103
# 6 0.008618 0.000105 0.000708 0.003083 0.001103 0.033464
#
#
# Mechanical properties :
#
#
# Convention : Reuss Voigt Hill
#
# Bulk Modulus (GPa) = 47.14801 57.61462 52.38132
# Shear Modulus (GPa) = 30.57445 35.00675 32.79060
#
# Velocity S-wave (km/s) = 3.75686 4.01996 3.89063
# Velocity P-wave (km/s) = 6.37051 6.93853 6.66058
#
# Compressibility (1/GPa) = 0.02120980
#
# Stress axis : x y z
#
# Youngs Moduli (GPa) = 53.28773 69.88971 112.30319
#
# Poissons Ratio (x) = 0.48126 0.05338
# Poissons Ratio (y) = 0.36694 0.33951
# Poissons Ratio (z) = 0.02533 0.21129
#
# Static dielectric constant tensor:
#      x y z
#    x 3.880800 -0.292630 0.243430 
#    y -0.292630 3.870010 0.504270 
#    z 0.243430 0.504270 3.220870 
# 
# 
# High freq. dielectric constant tensor:
#      x y z
#    x 1.840940 -0.001390 -0.003760 
#    y -0.001390 1.866970 -0.002890 
#    z -0.003760 -0.002890 1.873420 
# 
# From -- ./inp_files/272900.got.cif
#   From: 2010.06.25/outbox.cif.g09.slc.cpg/sg2_137_cif.got.tgz:272900.got - 2010.06.27 13:26:56.
