data_PCOD8024912
_publ_section_title
;
Structure prediction by ZEFSAII (Michael W. Deem and Ramdas Pophale) SiO2 
 PCOD8024912
Probable space group: P -1
;
_chemical_formula_sum "Si O2"
_cell_formula_units_Z 12
_cell_length_a 4.997225
_cell_length_b 12.334998
_cell_length_c 9.050494
_cell_angle_alpha 85.277546
_cell_angle_beta 95.155328
_cell_angle_gamma 121.831717
_cell_volume 471.654883
_symmetry_space_group_name_H-M "P -1"
_symmetry_group_IT_number 2
_symmetry_cell_setting 'triclinic'
loop_
_space_group_symop_operation_xyz
x,y,z
-x,-y,-z
loop_
_atom_site_type_symbol
_atom_site_label
_atom_site_fract_x
_atom_site_fract_y
_atom_site_fract_z
Si Si1 0.236362 0.181485 0.623147
Si Si2 0.540462 0.023946 0.704803
Si Si3 0.118250 0.913333 0.947090
Si Si4 0.415854 0.208297 0.309913
Si Si5 0.760440 0.680288 0.134030
Si Si6 0.742169 0.444394 0.119189
O O1 0.283245 0.061132 0.645242
O O2 0.330522 0.244887 0.459747
O O3 0.420564 0.287052 0.751215
O O4 0.878460 0.137198 0.654121
O O5 0.479345 0.990409 0.883974
O O6 0.475264 0.893246 0.640960
O O7 0.893125 0.847741 0.800727
O O8 0.081720 0.809973 0.080549
O O9 0.000000 0.000000 0.000000
O O10 0.719205 0.336302 0.240958
O O11 0.802735 0.565826 0.207737
O O12 0.583120 0.628384 0.976708
O O13 0.000000 0.500000 0.000000
#
# Coordination Sequence:
#
# PCOD8024912 Si02
#       6
#     2   2   2   2   2   2
#     4  12  27  42  70 101 138 178 216 283 333 402
#     4  12  24  44  67 102 140 175 220 271 340 398
#     4  11  22  41  67 102 132 179 219 276 329 399
#     4  11  25  42  67  99 139 178 227 268 341 396
#     4  10  23  44  65  98 135 168 233 271 338 383
#     4  10  23  45  70  94 130 180 225 282 327 398
#
# _framework density 25.442330999999999
#
# number of rings (size 3 to 8) (size 9 to 14) (size 15 to 20)
#    0.000    1.000    3.333    2.000    4.667    3.333 
#    0.000    0.833    0.000    0.000    0.000    0.000 
#    0.000    0.000    0.000    0.000    0.000    0.000 
#
# Total GULP energy -148663.903058 kJ/mol
# GULP energy per Si atom -12388.658588 kJ/mol
# Density = 2.538442 g / cm^3
# Si number density = 25.442331 Si / 1000 Ang^3
#
#
#
# Elastic Constant Matrix: (Units=GPa)
#
#
# Indices 1 2 3 4 5 6 
#
# 1 83.9064 30.2443 26.2988 -3.4128 -29.2506 -5.2732
# 2 30.2443 155.2700 66.3332 -10.5485 -18.8256 -20.8443
# 3 26.2988 66.3332 182.9031 8.5861 -45.1823 -2.6351
# 4 -3.4128 -10.5485 8.5861 36.4114 1.5144 -12.6737
# 5 -29.2506 -18.8256 -45.1823 1.5144 42.3368 -5.1141
# 6 -5.2732 -20.8443 -2.6351 -12.6737 -5.1141 33.9580
#
#
#
# Elastic Compliance Matrix: (Units=1/GPa)
#
#
# Indices 1 2 3 4 5 6 
#
# 1 0.016895 -0.001580 0.001284 0.001807 0.012803 0.004356
# 2 -0.001580 0.009699 -0.003386 0.006159 0.000329 0.007794
# 3 0.001284 -0.003386 0.008842 -0.003753 0.008799 -0.001268
# 4 0.001807 0.006159 -0.003753 0.036345 0.000790 0.017454
# 5 0.012803 0.000329 0.008799 0.000790 0.043142 0.009665
# 6 0.004356 0.007794 -0.001268 0.017454 0.009665 0.042780
#
#
# Mechanical properties :
#
#
# Convention : Reuss Voigt Hill
#
# Bulk Modulus (GPa) = 35.62072 74.20356 54.91214
# Shear Modulus (GPa) = 28.66567 42.48812 35.57689
#
# Velocity S-wave (km/s) = 3.36026 4.09097 3.74349
# Velocity P-wave (km/s) = 5.39316 7.17937 6.34939
#
# Compressibility (1/GPa) = 0.02807355
#
# Stress axis : x y z
#
# Youngs Moduli (GPa) = 59.18790 103.09972 113.09236
#
# Poissons Ratio (x) = 0.16288 -0.14523
# Poissons Ratio (y) = 0.09351 0.38294
# Poissons Ratio (z) = -0.07601 0.34911
#
# Static dielectric constant tensor:
#      x y z
#    x 4.656660 0.706840 -0.102190 
#    y 0.706840 6.616440 0.043660 
#    z -0.102190 0.043660 5.099420 
# 
# 
# High freq. dielectric constant tensor:
#      x y z
#    x 1.995210 0.003100 -0.018640 
#    y 0.003100 2.018350 0.003650 
#    z -0.018640 0.003650 2.039500 
# 
# From -- ./inp_files/59046.got.cif
#   From: 2010.06.25/outbox.cif.g09.slc.cpg/sg2_30_cif.got.tgz:59046.got - 2010.06.27 13:26:56.
