data_PCOD8024659
_publ_section_title
;
Structure prediction by ZEFSAII (Michael W. Deem and Ramdas Pophale) SiO2 
 PCOD8024659
Probable space group: P -1
;
_chemical_formula_sum "Si O2"
_cell_formula_units_Z 16
_cell_length_a 7.924644
_cell_length_b 13.225214
_cell_length_c 8.414182
_cell_angle_alpha 60.846515
_cell_angle_beta 120.213878
_cell_angle_gamma 98.656418
_cell_volume 660.260487
_symmetry_space_group_name_H-M "P -1"
_symmetry_group_IT_number 2
_symmetry_cell_setting 'triclinic'
loop_
_space_group_symop_operation_xyz
x,y,z
-x,-y,-z
loop_
_atom_site_type_symbol
_atom_site_label
_atom_site_fract_x
_atom_site_fract_y
_atom_site_fract_z
Si Si1 0.461320 0.038791 0.195097
Si Si2 0.526450 0.426942 0.728641
Si Si3 0.150366 0.784191 0.530608
Si Si4 0.584782 0.821112 0.625578
Si Si5 0.193147 0.414972 0.201041
Si Si6 0.883294 0.606970 0.449093
Si Si7 0.910351 0.001586 0.126724
Si Si8 0.230776 0.797027 0.902921
O O1 0.357070 0.108637 0.244512
O O2 0.628278 0.110562 0.157584
O O3 0.559008 0.909620 0.395529
O O4 0.311915 0.029087 0.984403
O O5 0.500000 0.500000 0.500000
O O6 0.626504 0.514801 0.823951
O O7 0.330654 0.382493 0.747028
O O8 0.672955 0.308473 0.862098
O O9 0.375129 0.770591 0.587477
O O10 0.138347 0.745297 0.740048
O O11 0.016248 0.711030 0.412814
O O12 0.046599 0.915745 0.371492
O O13 0.760452 0.714362 0.756606
O O14 0.177522 0.406108 0.388831
O O15 0.000000 0.500000 0.000000
O O16 0.000000 0.500000 0.500000
O O17 0.924200 0.128136 0.113819
O O18 0.000000 0.000000 0.000000
#
# Coordination Sequence:
#
# PCOD8024659 Si02
#       8
#     2   2   2   2   2   2   2   2
#     4  10  23  43  70 104 142 188 234 297 361 422
#     4  10  24  45  69 101 136 184 234 292 355 416
#     4  11  24  45  68 106 143 186 236 295 359 425
#     4  10  23  45  71 102 148 185 235 297 364 423
#     4  11  25  44  71 100 137 191 235 292 354 425
#     4  11  25  42  69 100 135 181 234 291 350 419
#     4  12  25  39  67 103 141 184 236 290 359 417
#     4  11  25  44  69 101 142 188 238 292 355 429
#
# _framework density 24.232859000000001
#
# number of rings (size 3 to 8) (size 9 to 14) (size 15 to 20)
#    0.000    1.250    1.250    3.000    5.250    7.000 
#    0.000    4.375    0.000    0.000    0.000    0.000 
#    0.000    0.000    0.000    0.000    0.000    0.000 
#
# Total GULP energy -198229.994131 kJ/mol
# GULP energy per Si atom -12389.374633 kJ/mol
# Density = 2.417770 g / cm^3
# Si number density = 24.232859 Si / 1000 Ang^3
#
#
#
# Elastic Constant Matrix: (Units=GPa)
#
#
# Indices 1 2 3 4 5 6 
#
# 1 49.3061 34.1405 23.9141 -14.3865 8.5850 -12.3865
# 2 34.1405 138.9668 36.4951 -25.1009 13.7079 -17.9227
# 3 23.9141 36.4951 116.3362 -31.1105 17.0569 -17.3039
# 4 -14.3865 -25.1009 -31.1105 42.8537 -5.5287 14.5681
# 5 8.5850 13.7079 17.0569 -5.5287 37.9928 -3.7918
# 6 -12.3865 -17.9227 -17.3039 14.5681 -3.7918 51.3100
#
#
#
# Elastic Compliance Matrix: (Units=1/GPa)
#
#
# Indices 1 2 3 4 5 6 
#
# 1 0.026833 -0.004771 -0.002364 0.003177 -0.002526 0.002925
# 2 -0.004771 0.009353 -0.000874 0.002741 -0.001412 0.000938
# 3 -0.002364 -0.000874 0.011718 0.006425 -0.003376 0.001002
# 4 0.003177 0.002741 0.006425 0.032438 -0.000405 -0.005348
# 5 -0.002526 -0.001412 -0.003376 -0.000405 0.028859 0.000006
# 6 0.002925 0.000938 0.001002 -0.005348 0.000006 0.022380
#
#
# Mechanical properties :
#
#
# Convention : Reuss Voigt Hill
#
# Bulk Modulus (GPa) = 31.36097 54.85651 43.10874
# Shear Modulus (GPa) = 31.60001 40.43526 36.01764
#
# Velocity S-wave (km/s) = 3.61503 4.08930 3.85946
# Velocity P-wave (km/s) = 5.51309 6.70693 6.13910
#
# Compressibility (1/GPa) = 0.03188677
#
# Stress axis : x y z
#
# Youngs Moduli (GPa) = 37.26693 106.91854 85.33750
#
# Poissons Ratio (x) = 0.51012 0.20174
# Poissons Ratio (y) = 0.17780 0.07456
# Poissons Ratio (z) = 0.08810 0.09342
#
# Static dielectric constant tensor:
#      x y z
#    x 4.685820 0.483930 0.210530 
#    y 0.483930 5.101970 0.347420 
#    z 0.210530 0.347420 4.284640 
# 
# 
# High freq. dielectric constant tensor:
#      x y z
#    x 1.966450 0.014160 0.013270 
#    y 0.014160 1.975690 -0.001090 
#    z 0.013270 -0.001090 1.954450 
# 
# From -- ./inp_files/185340.got.cif
#   From: 2010.06.25/outbox.cif.g09.slc.cpg/sg2_93_cif.got.tgz:185340.got - 2010.06.27 13:26:56.
