data_PCOD8024050
_publ_section_title
;
Structure prediction by ZEFSAII (Michael W. Deem and Ramdas Pophale) SiO2 
 PCOD8024050
Probable space group: P -1
;
_chemical_formula_sum "Si O2"
_cell_formula_units_Z 16
_cell_length_a 9.257715
_cell_length_b 10.276624
_cell_length_c 16.950634
_cell_angle_alpha 32.414892
_cell_angle_beta 71.243988
_cell_angle_gamma 62.254026
_cell_volume 756.327658
_symmetry_space_group_name_H-M "P -1"
_symmetry_group_IT_number 2
_symmetry_cell_setting 'triclinic'
loop_
_space_group_symop_operation_xyz
x,y,z
-x,-y,-z
loop_
_atom_site_type_symbol
_atom_site_label
_atom_site_fract_x
_atom_site_fract_y
_atom_site_fract_z
Si Si1 0.861595 0.118765 0.029890
Si Si2 0.472119 0.919689 0.459375
Si Si3 0.795719 0.471599 0.596432
Si Si4 0.800921 0.443391 0.139897
Si Si5 0.168061 0.759122 0.590967
Si Si6 0.115114 0.406611 0.649019
Si Si7 0.524402 0.567001 0.871592
Si Si8 0.062084 0.133427 0.134092
O O1 0.940449 0.217963 0.037650
O O2 0.800698 0.889732 0.182862
O O3 0.697874 0.366195 0.906570
O O4 0.000000 0.000000 0.000000
O O5 0.608355 0.630027 0.570893
O O6 0.301096 0.888736 0.494815
O O7 0.500000 0.000000 0.500000
O O8 0.480296 0.137618 0.284592
O O9 0.825129 0.604361 0.444594
O O10 0.915380 0.494784 0.634144
O O11 0.822281 0.171218 0.730133
O O12 0.813804 0.421046 0.243302
O O13 0.622550 0.452091 0.144439
O O14 0.948444 0.197671 0.199690
O O15 0.817344 0.709101 0.970735
O O16 0.172919 0.590914 0.598682
O O17 0.000000 0.000000 0.500000
O O18 0.500000 0.500000 0.000000
#
# Coordination Sequence:
#
# PCOD8024050 Si02
#       8
#     2   2   2   2   2   2   2   2
#     4  11  24  41  67 100 135 178 231 283 345 413
#     4  12  27  44  69 102 139 181 232 289 350 408
#     4  10  23  44  69  96 138 177 229 280 343 420
#     4  11  24  44  68 103 138 179 233 282 347 412
#     4  12  26  42  69  99 137 178 230 286 345 412
#     4  10  23  42  69  97 132 182 223 279 344 412
#     4  12  26  45  70 100 139 185 229 282 346 415
#     4  10  23  42  70  99 136 180 225 285 342 412
#
# _framework density 21.154852999999999
#
# number of rings (size 3 to 8) (size 9 to 14) (size 15 to 20)
#    0.000    1.000    2.500    3.000   10.500    2.500 
#    0.000    1.875    0.000    0.000    0.000    0.000 
#    0.000    0.000    0.000    0.000    0.000    0.000 
#
# Total GULP energy -198442.605288 kJ/mol
# GULP energy per Si atom -12402.662830 kJ/mol
# Density = 2.110670 g / cm^3
# Si number density = 21.154853 Si / 1000 Ang^3
#
#
#
# Elastic Constant Matrix: (Units=GPa)
#
#
# Indices 1 2 3 4 5 6 
#
# 1 132.1393 47.7290 41.1504 -22.0910 -10.8359 -7.1691
# 2 47.7290 99.5116 37.9104 -15.4805 -1.3413 -2.7314
# 3 41.1504 37.9104 112.4853 -13.7342 -2.7854 -7.3478
# 4 -22.0910 -15.4805 -13.7342 42.5861 -0.1999 6.3315
# 5 -10.8359 -1.3413 -2.7854 -0.1999 32.8481 -6.4414
# 6 -7.1691 -2.7314 -7.3478 6.3315 -6.4414 44.3382
#
#
#
# Elastic Compliance Matrix: (Units=1/GPa)
#
#
# Indices 1 2 3 4 5 6 
#
# 1 0.010391 -0.003629 -0.002022 0.003265 0.003352 0.001142
# 2 -0.003629 0.013198 -0.002940 0.002067 -0.001033 -0.000706
# 3 -0.002022 -0.002940 0.010854 0.001211 0.000370 0.001172
# 4 0.003265 0.002067 0.001211 0.026743 0.000871 -0.002837
# 5 0.003352 -0.001033 0.000370 0.000871 0.032552 0.005145
# 6 0.001142 -0.000706 0.001172 -0.002837 0.005145 0.024042
#
#
# Mechanical properties :
#
#
# Convention : Reuss Voigt Hill
#
# Bulk Modulus (GPa) = 57.93323 66.41284 62.17304
# Shear Modulus (GPa) = 35.53277 38.44425 36.98851
#
# Velocity S-wave (km/s) = 4.10280 4.26758 4.18600
# Velocity P-wave (km/s) = 7.06320 7.46624 7.26751
#
# Compressibility (1/GPa) = 0.01726125
#
# Stress axis : x y z
#
# Youngs Moduli (GPa) = 96.23774 75.76955 92.13176
#
# Poissons Ratio (x) = 0.27498 0.18629
# Poissons Ratio (y) = 0.34926 0.27084
# Poissons Ratio (z) = 0.19459 0.22274
#
# Static dielectric constant tensor:
#      x y z
#    x 3.940190 0.020700 -0.018680 
#    y 0.020700 3.875320 -0.073110 
#    z -0.018680 -0.073110 4.147650 
# 
# 
# High freq. dielectric constant tensor:
#      x y z
#    x 1.830450 0.001030 -0.002940 
#    y 0.001030 1.832360 0.000730 
#    z -0.002940 0.000730 1.843530 
# 
# From -- ./inp_files/494244.got.cif
#   From: 2010.06.25/outbox.cif.g09.slc.cpg/sg2_248_cif.got.tgz:494244.got - 2010.06.27 13:26:56.
