data_PCOD8024999
_publ_section_title
;
Structure prediction by ZEFSAII (Michael W. Deem and Ramdas Pophale) SiO2 
 PCOD8024999
Probable space group: P -1
;
_chemical_formula_sum "Si O2"
_cell_formula_units_Z 14
_cell_length_a 9.403124
_cell_length_b 9.044358
_cell_length_c 14.129377
_cell_angle_alpha 49.218757
_cell_angle_beta 54.033024
_cell_angle_gamma 43.264261
_cell_volume 608.995404
_symmetry_space_group_name_H-M "P -1"
_symmetry_group_IT_number 2
_symmetry_cell_setting 'triclinic'
loop_
_space_group_symop_operation_xyz
x,y,z
-x,-y,-z
loop_
_atom_site_type_symbol
_atom_site_label
_atom_site_fract_x
_atom_site_fract_y
_atom_site_fract_z
Si Si1 0.498390 0.521616 0.260370
Si Si2 0.959846 0.146874 0.749576
Si Si3 0.796511 0.059590 0.434118
Si Si4 0.107371 0.208382 0.309908
Si Si5 0.478606 0.956642 0.136788
Si Si6 0.910090 0.350672 0.058430
Si Si7 0.907011 0.729750 0.170300
O O1 0.273618 0.610636 0.262682
O O2 0.572485 0.292610 0.391088
O O3 0.466653 0.730782 0.251084
O O4 0.668485 0.468915 0.135158
O O5 0.077773 0.136042 0.803457
O O6 0.100220 0.131381 0.611798
O O7 0.945514 0.918465 0.845495
O O8 0.959356 0.129610 0.364342
O O9 0.757037 0.945645 0.587170
O O10 0.948909 0.480426 0.289367
O O11 0.268885 0.177468 0.176540
O O12 0.681817 0.907529 0.134371
O O13 0.500000 0.000000 0.000000
O O14 0.000000 0.500000 0.000000
O O15 0.912384 0.336570 0.950227
#
# Coordination Sequence:
#
# PCOD8024999 Si02
#       7
#     2   2   2   2   2   2   2
#     4  11  22  39  68  94 129 174 217 268 321 387
#     4  11  25  42  65  97 136 170 211 272 337 384
#     4  10  23  44  67  95 131 169 229 273 312 390
#     4  11  24  42  69  98 125 175 226 272 318 385
#     4  12  24  39  70  99 127 173 222 268 328 391
#     4  11  22  40  66  94 131 171 220 269 314 389
#     4  12  25  42  63 100 135 169 213 274 336 385
#
# _framework density 22.988679000000001
#
# number of rings (size 3 to 8) (size 9 to 14) (size 15 to 20)
#    0.000    0.857    4.286    3.000    2.000    5.143 
#    0.000    1.429    0.000    0.000    0.000    0.000 
#    0.000    0.000    0.000    0.000    0.000    0.000 
#
# Total GULP energy -173601.332916 kJ/mol
# GULP energy per Si atom -12400.095208 kJ/mol
# Density = 2.293636 g / cm^3
# Si number density = 22.988679 Si / 1000 Ang^3
#
#
#
# Elastic Constant Matrix: (Units=GPa)
#
#
# Indices 1 2 3 4 5 6 
#
# 1 118.1957 42.3028 37.3493 -0.0509 30.4539 -7.9887
# 2 42.3028 108.8168 33.5460 0.6770 11.1889 -11.7474
# 3 37.3493 33.5460 97.1287 5.1136 24.4886 2.9931
# 4 -0.0509 0.6770 5.1136 27.8565 -2.7366 13.3385
# 5 30.4539 11.1889 24.4886 -2.7366 26.1190 0.6154
# 6 -7.9887 -11.7474 2.9931 13.3385 0.6154 42.4559
#
#
#
# Elastic Compliance Matrix: (Units=1/GPa)
#
#
# Indices 1 2 3 4 5 6 
#
# 1 0.013722 -0.003420 -0.000390 -0.002520 -0.014495 0.002665
# 2 -0.003420 0.011664 -0.003217 -0.001003 0.001830 0.003099
# 3 -0.000390 -0.003217 0.014920 -0.003545 -0.012510 -0.000720
# 4 -0.002520 -0.001003 -0.003545 0.044780 0.011732 -0.014741
# 5 -0.014495 0.001830 -0.012510 0.011732 0.067503 -0.006004
# 6 0.002665 0.003099 -0.000720 -0.014741 -0.006004 0.029682
#
#
# Mechanical properties :
#
#
# Convention : Reuss Voigt Hill
#
# Bulk Modulus (GPa) = 38.09487 61.17081 49.63284
# Shear Modulus (GPa) = 24.38135 33.34914 28.86524
#
# Velocity S-wave (km/s) = 3.26019 3.81291 3.54733
# Velocity P-wave (km/s) = 5.54787 6.78610 6.19799
#
# Compressibility (1/GPa) = 0.02625026
#
# Stress axis : x y z
#
# Youngs Moduli (GPa) = 72.87723 85.73447 67.02563
#
# Poissons Ratio (x) = 0.29324 0.02614
# Poissons Ratio (y) = 0.24926 0.21563
# Poissons Ratio (z) = 0.02843 0.27582
#
# Static dielectric constant tensor:
#      x y z
#    x 3.833570 -0.092390 0.297620 
#    y -0.092390 4.450340 -0.068250 
#    z 0.297620 -0.068250 4.395800 
# 
# 
# High freq. dielectric constant tensor:
#      x y z
#    x 1.886390 -0.008220 0.022470 
#    y -0.008220 1.918240 -0.003450 
#    z 0.022470 -0.003450 1.903930 
# 
# From -- ./inp_files/491969.got.cif
#   From: 2010.06.25/outbox.cif.g09.slc.cpg/sg2_246_cif.got.tgz:491969.got - 2010.06.27 13:26:56.
