data_PCOD8024132
_publ_section_title
;
Structure prediction by ZEFSAII (Michael W. Deem and Ramdas Pophale) SiO2 
 PCOD8024132
Probable space group: P -1
;
_chemical_formula_sum "Si O2"
_cell_formula_units_Z 16
_cell_length_a 8.289628
_cell_length_b 8.917296
_cell_length_c 11.496711
_cell_angle_alpha 77.416872
_cell_angle_beta 64.908488
_cell_angle_gamma 61.467790
_cell_volume 676.050231
_symmetry_space_group_name_H-M "P -1"
_symmetry_group_IT_number 2
_symmetry_cell_setting 'triclinic'
loop_
_space_group_symop_operation_xyz
x,y,z
-x,-y,-z
loop_
_atom_site_type_symbol
_atom_site_label
_atom_site_fract_x
_atom_site_fract_y
_atom_site_fract_z
Si Si1 0.450776 0.501336 0.879301
Si Si2 0.586486 0.760641 0.698855
Si Si3 0.668430 0.759761 0.415093
Si Si4 0.897272 0.818005 0.729090
Si Si5 0.266390 0.594894 0.528271
Si Si6 0.633218 0.208225 0.704891
Si Si7 0.021407 0.778333 0.934692
Si Si8 0.190179 0.044245 0.810803
O O1 0.561065 0.588376 0.752682
O O2 0.515955 0.311519 0.838604
O O3 0.216075 0.604252 0.921023
O O4 0.500000 0.500000 0.000000
O O5 0.560655 0.824770 0.561487
O O6 0.797075 0.732766 0.688967
O O7 0.414081 0.911705 0.798049
O O8 0.803784 0.556374 0.426732
O O9 0.511971 0.800277 0.350380
O O10 0.811030 0.849413 0.323227
O O11 0.131699 0.738440 0.638169
O O12 0.889541 0.758076 0.874052
O O13 0.791053 0.021375 0.721856
O O14 0.500000 0.500000 0.500000
O O15 0.241113 0.694060 0.398209
O O16 0.061861 0.938905 0.852858
O O17 0.895109 0.819219 0.083176
#
# Coordination Sequence:
#
# PCOD8024132 Si02
#       8
#     2   2   2   2   2   2   2   2
#     4  11  26  50  75 101 144 189 237 291 357 424
#     4  11  25  45  72 110 143 184 239 300 344 416
#     4  11  22  44  74 102 147 187 233 296 358 405
#     4  12  26  43  73 107 138 186 241 292 354 418
#     4  10  23  43  66 100 143 183 224 287 351 421
#     4  11  24  43  73 107 137 194 234 289 354 423
#     4  10  25  46  70 101 142 194 232 290 357 426
#     4  10  23  42  71 101 142 191 236 291 351 419
#
# _framework density 23.666881
#
# number of rings (size 3 to 8) (size 9 to 14) (size 15 to 20)
#    0.000    1.250    2.500    2.250   10.500    4.000 
#    0.000    1.875    0.000    0.000    0.000    0.000 
#    0.000    0.000    0.000    0.000    0.000    0.000 
#
# Total GULP energy -198321.127314 kJ/mol
# GULP energy per Si atom -12395.070457 kJ/mol
# Density = 2.361301 g / cm^3
# Si number density = 23.666881 Si / 1000 Ang^3
#
#
#
# Elastic Constant Matrix: (Units=GPa)
#
#
# Indices 1 2 3 4 5 6 
#
# 1 82.5646 35.0754 44.3235 12.4270 21.8189 -15.9752
# 2 35.0754 114.3241 35.4340 28.1548 -11.7867 -21.1609
# 3 44.3235 35.4340 130.6789 19.2831 4.3368 -9.1051
# 4 12.4270 28.1548 19.2831 53.8674 3.0984 -5.1620
# 5 21.8189 -11.7867 4.3368 3.0984 36.2780 -4.3289
# 6 -15.9752 -21.1609 -9.1051 -5.1620 -4.3289 27.7823
#
#
#
# Elastic Compliance Matrix: (Units=1/GPa)
#
#
# Indices 1 2 3 4 5 6 
#
# 1 0.021820 -0.006043 -0.005174 0.001195 -0.014059 0.004280
# 2 -0.006043 0.014829 -0.000883 -0.005849 0.010012 0.008004
# 3 -0.005174 -0.000883 0.009850 -0.002022 0.001758 -0.000521
# 4 0.001195 -0.005849 -0.002022 0.022228 -0.004394 -0.000985
# 5 -0.014059 0.010012 0.001758 -0.004394 0.040101 0.005550
# 6 0.004280 0.008004 -0.000521 -0.000985 0.005550 0.045063
#
#
# Mechanical properties :
#
#
# Convention : Reuss Voigt Hill
#
# Bulk Modulus (GPa) = 44.84208 61.91484 53.37846
# Shear Modulus (GPa) = 26.95080 37.76783 32.35931
#
# Velocity S-wave (km/s) = 3.37821 3.99909 3.70169
# Velocity P-wave (km/s) = 5.84848 6.89503 6.39320
#
# Compressibility (1/GPa) = 0.02230048
#
# Stress axis : x y z
#
# Youngs Moduli (GPa) = 45.82954 67.43576 101.51882
#
# Poissons Ratio (x) = 0.40748 0.52526
# Poissons Ratio (y) = 0.27693 0.08962
# Poissons Ratio (z) = 0.23712 0.05953
#
# Static dielectric constant tensor:
#      x y z
#    x 3.960720 0.165400 -0.066420 
#    y 0.165400 4.691160 -0.154230 
#    z -0.066420 -0.154230 4.447110 
# 
# 
# High freq. dielectric constant tensor:
#      x y z
#    x 1.909870 -0.001140 0.002040 
#    y -0.001140 1.953050 0.006630 
#    z 0.002040 0.006630 1.944740 
# 
# From -- ./inp_files/381914.got.cif
#   From: 2010.06.25/outbox.cif.g09.slc.cpg/sg2_191_cif.got.tgz:381914.got - 2010.06.27 13:26:56.
