data_PCOD8024219
_publ_section_title
;
Structure prediction by ZEFSAII (Michael W. Deem and Ramdas Pophale) SiO2 
 PCOD8024219
Probable space group: P -1
;
_chemical_formula_sum "Si O2"
_cell_formula_units_Z 12
_cell_length_a 12.412559
_cell_length_b 8.268587
_cell_length_c 13.923616
_cell_angle_alpha 132.473375
_cell_angle_beta 150.786803
_cell_angle_gamma 47.163542
_cell_volume 497.900910
_symmetry_space_group_name_H-M "P -1"
_symmetry_group_IT_number 2
_symmetry_cell_setting 'triclinic'
loop_
_space_group_symop_operation_xyz
x,y,z
-x,-y,-z
loop_
_atom_site_type_symbol
_atom_site_label
_atom_site_fract_x
_atom_site_fract_y
_atom_site_fract_z
Si Si1 0.530154 0.229736 0.160521
Si Si2 0.288537 0.645533 0.455131
Si Si3 0.863931 0.743986 0.725634
Si Si4 0.297498 0.901677 0.098362
Si Si5 0.743475 0.583556 0.373670
Si Si6 0.898600 0.729872 0.064657
O O1 0.650447 0.208074 0.351304
O O2 0.656819 0.358275 0.237097
O O3 0.268383 0.355139 0.025632
O O4 0.500000 0.000000 0.000000
O O5 0.500000 0.500000 0.500000
O O6 0.139190 0.478105 0.306632
O O7 0.105332 0.814876 0.310975
O O8 0.730515 0.965176 0.768887
O O9 0.732049 0.734303 0.520110
O O10 0.124212 0.741353 0.902316
O O11 0.240399 0.072628 0.033254
O O12 0.556626 0.746112 0.223679
O O13 0.000000 0.500000 0.500000
O O14 0.000000 0.500000 0.000000
#
# Coordination Sequence:
#
# PCOD8024219 Si02
#       6
#     2   2   2   2   2   2
#     4  11  27  50  73 109 151 199 249 310 373 440
#     4  11  22  45  77 108 145 193 249 306 367 445
#     4  10  23  42  74 110 142 191 248 309 370 435
#     4  11  24  44  77 110 147 188 249 308 376 440
#     4  11  27  50  73 105 152 200 250 300 370 448
#     4  12  24  46  76 110 146 195 245 311 374 447
#
# _framework density 24.101182000000001
#
# number of rings (size 3 to 8) (size 9 to 14) (size 15 to 20)
#    0.000    1.000    3.333    1.500    4.667    4.000 
#    6.000    0.000    0.000    0.000    0.000    0.000 
#    0.000    0.000    0.000    0.000    0.000    0.000 
#
# Total GULP energy -148666.646373 kJ/mol
# GULP energy per Si atom -12388.887198 kJ/mol
# Density = 2.404633 g / cm^3
# Si number density = 24.101182 Si / 1000 Ang^3
#
#
#
# Elastic Constant Matrix: (Units=GPa)
#
#
# Indices 1 2 3 4 5 6 
#
# 1 106.9762 61.7717 64.0560 -8.5160 26.2752 4.6896
# 2 61.7717 125.9973 90.8038 -17.8089 5.5093 2.1185
# 3 64.0560 90.8038 179.2813 -6.4918 8.8141 3.8799
# 4 -8.5160 -17.8089 -6.4918 62.2503 -4.7046 -0.1529
# 5 26.2752 5.5093 8.8141 -4.7046 58.4351 -2.2870
# 6 4.6896 2.1185 3.8799 -0.1529 -2.2870 30.3454
#
#
#
# Elastic Compliance Matrix: (Units=1/GPa)
#
#
# Indices 1 2 3 4 5 6 
#
# 1 0.015670 -0.005696 -0.002366 -0.000211 -0.006255 -0.002194
# 2 -0.005696 0.015125 -0.005639 0.003133 0.002267 0.000732
# 3 -0.002366 -0.005639 0.009248 -0.000965 0.000106 -0.000420
# 4 -0.000211 0.003133 -0.000965 0.016930 0.001313 0.000122
# 5 -0.006255 0.002267 0.000106 0.001313 0.019891 0.002300
# 6 -0.002194 0.000732 -0.000420 0.000122 0.002300 0.033470
#
#
# Mechanical properties :
#
#
# Convention : Reuss Voigt Hill
#
# Bulk Modulus (GPa) = 79.11779 93.94641 86.53210
# Shear Modulus (GPa) = 35.22359 43.24771 39.23565
#
# Velocity S-wave (km/s) = 3.82709 4.24066 4.03917
# Velocity P-wave (km/s) = 7.24068 7.93991 7.59834
#
# Compressibility (1/GPa) = 0.01263938
#
# Stress axis : x y z
#
# Youngs Moduli (GPa) = 63.81762 66.11681 108.12868
#
# Poissons Ratio (x) = 0.37663 0.25585
# Poissons Ratio (y) = 0.36353 0.60974
# Poissons Ratio (z) = 0.15100 0.37284
#
# Static dielectric constant tensor:
#      x y z
#    x 3.865980 -0.440140 0.349610 
#    y -0.440140 3.540540 0.391210 
#    z 0.349610 0.391210 4.605120 
# 
# 
# High freq. dielectric constant tensor:
#      x y z
#    x 1.961840 -0.001890 0.003530 
#    y -0.001890 1.932350 0.001290 
#    z 0.003530 0.001290 1.988620 
# 
# From -- ./inp_files/512443.got.cif
#   From: 2010.06.25/outbox.cif.g09.slc.cpg/sg2_257_cif.got.tgz:512443.got - 2010.06.27 13:26:56.
