data_PCOD8024205
_publ_section_title
;
Structure prediction by ZEFSAII (Michael W. Deem and Ramdas Pophale) SiO2 
 PCOD8024205
Probable space group: P -1
;
_chemical_formula_sum "Si O2"
_cell_formula_units_Z 16
_cell_length_a 14.540141
_cell_length_b 13.291887
_cell_length_c 12.886270
_cell_angle_alpha 144.533592
_cell_angle_beta 148.876415
_cell_angle_gamma 46.137824
_cell_volume 746.843161
_symmetry_space_group_name_H-M "P -1"
_symmetry_group_IT_number 2
_symmetry_cell_setting 'triclinic'
loop_
_space_group_symop_operation_xyz
x,y,z
-x,-y,-z
loop_
_atom_site_type_symbol
_atom_site_label
_atom_site_fract_x
_atom_site_fract_y
_atom_site_fract_z
Si Si1 0.815324 0.410037 0.225410
Si Si2 0.641292 0.205065 0.060822
Si Si3 0.648876 0.755164 0.339891
Si Si4 0.802170 0.577307 0.851532
Si Si5 0.843143 0.862776 0.963824
Si Si6 0.194637 0.889956 0.204957
Si Si7 0.510555 0.402458 0.280643
Si Si8 0.530307 0.714023 0.413018
O O1 0.718565 0.571412 0.209836
O O2 0.000000 0.500000 0.500000
O O3 0.732276 0.367464 0.223257
O O4 0.830392 0.235062 0.024528
O O5 0.469709 0.150248 0.781417
O O6 0.786286 0.058099 0.091425
O O7 0.576356 0.235690 0.141579
O O8 0.525296 0.699520 0.271162
O O9 0.795010 0.903671 0.641661
O O10 0.829097 0.755961 0.966600
O O11 0.672372 0.446178 0.552563
O O12 0.684788 0.624290 0.879072
O O13 0.000000 0.500000 0.000000
O O14 0.722497 0.780912 0.688868
O O15 0.042984 0.856351 0.113273
O O16 0.375547 0.846585 0.403929
O O17 0.481806 0.538407 0.275802
#
# Coordination Sequence:
#
# PCOD8024205 Si02
#       8
#     2   2   2   2   2   2   2   2
#     4  12  25  39  64  97 144 193 233 271 324 399
#     4  12  23  44  63 103 142 177 227 278 336 413
#     4  12  23  42  65  99 145 188 226 267 330 412
#     4  10  23  48  71  97 122 171 232 289 355 410
#     4  11  25  41  68  97 134 175 227 282 339 398
#     4  12  24  41  64  97 143 189 225 269 331 398
#     4  10  23  42  73  95 131 169 227 289 345 404
#     4  11  20  42  65  94 135 185 217 272 332 403
#
# _framework density 21.423507000000001
#
# number of rings (size 3 to 8) (size 9 to 14) (size 15 to 20)
#    0.000    0.750    3.750    4.500    1.750    2.000 
#    2.250    0.625    0.000    0.000    0.000    0.000 
#    0.000    0.000    0.000    0.000    0.000    0.000 
#
# Total GULP energy -198245.427434 kJ/mol
# GULP energy per Si atom -12390.339215 kJ/mol
# Density = 2.137475 g / cm^3
# Si number density = 21.423507 Si / 1000 Ang^3
#
#
#
# Elastic Constant Matrix: (Units=GPa)
#
#
# Indices 1 2 3 4 5 6 
#
# 1 141.8440 31.4573 44.0099 -2.7436 7.4244 -15.6701
# 2 31.4573 99.2258 38.0310 -3.7458 2.5005 -5.8577
# 3 44.0099 38.0310 90.9021 7.9977 10.4641 -6.9772
# 4 -2.7436 -3.7458 7.9977 35.6378 -5.2448 -2.5486
# 5 7.4244 2.5005 10.4641 -5.2448 33.5952 -1.9692
# 6 -15.6701 -5.8577 -6.9772 -2.5486 -1.9692 31.4019
#
#
#
# Elastic Compliance Matrix: (Units=1/GPa)
#
#
# Indices 1 2 3 4 5 6 
#
# 1 0.008870 -0.001136 -0.003658 0.001594 -0.000282 0.003514
# 2 -0.001136 0.012466 -0.004975 0.002604 0.001335 0.000948
# 3 -0.003658 -0.004975 0.015821 -0.005016 -0.004528 0.000071
# 4 0.001594 0.002604 -0.005016 0.030680 0.005984 0.003032
# 5 -0.000282 0.001335 -0.004528 0.005984 0.032168 0.001605
# 6 0.003514 0.000948 0.000071 0.003032 0.001605 0.034138
#
#
# Mechanical properties :
#
#
# Convention : Reuss Voigt Hill
#
# Bulk Modulus (GPa) = 56.75345 62.10759 59.43052
# Shear Modulus (GPa) = 31.33742 34.69188 33.01465
#
# Velocity S-wave (km/s) = 3.82875 4.02846 3.92988
# Velocity P-wave (km/s) = 6.78929 7.11979 6.95650
#
# Compressibility (1/GPa) = 0.01762007
#
# Stress axis : x y z
#
# Youngs Moduli (GPa) = 112.73389 80.22052 63.20572
#
# Poissons Ratio (x) = 0.09110 0.23118
# Poissons Ratio (y) = 0.12802 0.31448
# Poissons Ratio (z) = 0.41234 0.39913
#
# Static dielectric constant tensor:
#      x y z
#    x 3.897720 -0.166420 0.118120 
#    y -0.166420 4.212490 0.026660 
#    z 0.118120 0.026660 3.943380 
# 
# 
# High freq. dielectric constant tensor:
#      x y z
#    x 1.831180 -0.011050 0.013860 
#    y -0.011050 1.852120 -0.001820 
#    z 0.013860 -0.001820 1.842530 
# 
# From -- ./inp_files/534643.got.cif
#   From: 2010.06.25/outbox.cif.g09.slc.cpg/sg2_268_cif.got.tgz:534643.got - 2010.06.27 13:26:56.
