data_PCOD8024320
_publ_section_title
;
Structure prediction by ZEFSAII (Michael W. Deem and Ramdas Pophale) SiO2 
 PCOD8024320
Probable space group: P -1
;
_chemical_formula_sum "Si O2"
_cell_formula_units_Z 14
_cell_length_a 21.012837
_cell_length_b 21.420509
_cell_length_c 8.736455
_cell_angle_alpha 30.690527
_cell_angle_beta 146.219318
_cell_angle_gamma 160.843664
_cell_volume 654.425680
_symmetry_space_group_name_H-M "P -1"
_symmetry_group_IT_number 2
_symmetry_cell_setting 'triclinic'
loop_
_space_group_symop_operation_xyz
x,y,z
-x,-y,-z
loop_
_atom_site_type_symbol
_atom_site_label
_atom_site_fract_x
_atom_site_fract_y
_atom_site_fract_z
Si Si1 0.701323 0.933527 0.776899
Si Si2 0.284393 0.508512 0.752208
Si Si3 0.024722 0.666286 0.706533
Si Si4 0.481478 0.125150 0.161070
Si Si5 0.148219 0.898024 0.773617
Si Si6 0.050454 0.076256 0.266693
Si Si7 0.118605 0.478941 0.771944
O O1 0.517893 0.726753 0.745242
O O2 0.634815 0.906343 0.871636
O O3 0.798281 0.137284 0.464400
O O4 0.860550 0.963630 0.037978
O O5 0.196812 0.533176 0.641981
O O6 0.179658 0.446269 0.512721
O O7 0.230817 0.327340 0.089410
O O8 0.076153 0.752930 0.796722
O O9 0.000000 0.500000 0.000000
O O10 0.699721 0.365984 0.074293
O O11 0.500000 0.000000 0.500000
O O12 0.372185 0.056863 0.926467
O O13 0.121834 0.018892 0.436017
O O14 0.020760 0.753994 0.972659
O O15 0.000000 0.000000 0.500000
O O16 0.000000 0.500000 0.500000
#
# Coordination Sequence:
#
# PCOD8024320 Si02
#       7
#     2   2   2   2   2   2   2
#     4  10  24  44  65  95 132 173 210 267 322 375
#     4  10  23  43  65  92 128 175 211 265 319 377
#     4  11  26  43  64  92 137 174 209 260 325 391
#     4  11  23  37  65  95 126 163 218 267 316 375
#     4  12  24  41  64 100 125 170 216 265 319 380
#     4  11  21  42  69  95 131 163 219 269 318 378
#     4  11  21  37  64  91 126 164 213 265 319 369
#
# _framework density 21.392802
#
# number of rings (size 3 to 8) (size 9 to 14) (size 15 to 20)
#    0.000    1.143    4.286    1.714    4.000    5.714 
#    0.000    1.429    0.000    0.000    0.000    0.000 
#    0.000    0.000    0.000    0.000    0.000    0.000 
#
# Total GULP energy -173623.527789 kJ/mol
# GULP energy per Si atom -12401.680556 kJ/mol
# Density = 2.134411 g / cm^3
# Si number density = 21.392802 Si / 1000 Ang^3
#
#
#
# Elastic Constant Matrix: (Units=GPa)
#
#
# Indices 1 2 3 4 5 6 
#
# 1 53.0181 30.2509 34.2026 11.7835 14.1437 -15.0796
# 2 30.2509 184.2074 72.2201 15.6111 3.6905 -4.6015
# 3 34.2026 72.2201 141.8819 -1.0324 19.6477 -4.7335
# 4 11.7835 15.6111 -1.0324 44.3032 -4.7112 -5.0027
# 5 14.1437 3.6905 19.6477 -4.7112 38.2771 -1.6745
# 6 -15.0796 -4.6015 -4.7335 -5.0027 -1.6745 33.9991
#
#
#
# Elastic Compliance Matrix: (Units=1/GPa)
#
#
# Indices 1 2 3 4 5 6 
#
# 1 0.030122 -0.002065 -0.004659 -0.007107 -0.008936 0.010946
# 2 -0.002065 0.007237 -0.003437 -0.001986 0.001558 -0.000631
# 3 -0.004659 -0.003437 0.010323 0.002269 -0.003006 -0.000909
# 4 -0.007107 -0.001986 0.002269 0.025839 0.004874 0.000937
# 5 -0.008936 0.001558 -0.003006 0.004874 0.031336 -0.001910
# 6 0.010946 -0.000631 -0.000909 0.000937 -0.001910 0.034099
#
#
# Mechanical properties :
#
#
# Convention : Reuss Voigt Hill
#
# Bulk Modulus (GPa) = 36.55071 72.49493 54.52282
# Shear Modulus (GPa) = 29.69132 39.47812 34.58472
#
# Velocity S-wave (km/s) = 3.72951 4.30046 4.02512
# Velocity P-wave (km/s) = 5.97229 7.65635 6.86615
#
# Compressibility (1/GPa) = 0.02735925
#
# Stress axis : x y z
#
# Youngs Moduli (GPa) = 33.19812 138.18504 96.86876
#
# Poissons Ratio (x) = 0.28539 0.45133
# Poissons Ratio (y) = 0.06856 0.33293
# Poissons Ratio (z) = 0.15468 0.47493
#
# Static dielectric constant tensor:
#      x y z
#    x 3.650710 -0.087250 -0.082920 
#    y -0.087250 4.700930 0.414270 
#    z -0.082920 0.414270 4.608470 
# 
# 
# High freq. dielectric constant tensor:
#      x y z
#    x 1.816200 -0.008070 0.005700 
#    y -0.008070 1.860760 0.002560 
#    z 0.005700 0.002560 1.840360 
# 
# From -- ./inp_files/255872.got.cif
#   From: 2010.06.25/outbox.cif.g09.slc.cpg/sg2_128_cif.got.tgz:255872.got - 2010.06.27 13:26:56.
