data_PCOD8024443
_publ_section_title
;
Structure prediction by ZEFSAII (Michael W. Deem and Ramdas Pophale) SiO2 
 PCOD8024443
Probable space group: P -1
;
_chemical_formula_sum "Si O2"
_cell_formula_units_Z 16
_cell_length_a 8.488427
_cell_length_b 14.755517
_cell_length_c 15.410129
_cell_angle_alpha 142.103007
_cell_angle_beta 60.812587
_cell_angle_gamma 91.139718
_cell_volume 758.395235
_symmetry_space_group_name_H-M "P -1"
_symmetry_group_IT_number 2
_symmetry_cell_setting 'triclinic'
loop_
_space_group_symop_operation_xyz
x,y,z
-x,-y,-z
loop_
_atom_site_type_symbol
_atom_site_label
_atom_site_fract_x
_atom_site_fract_y
_atom_site_fract_z
Si Si1 0.997020 0.281945 0.376269
Si Si2 0.569094 0.424908 0.709975
Si Si3 0.847167 0.104100 0.032698
Si Si4 0.719617 0.607787 0.555076
Si Si5 0.169183 0.573846 0.794995
Si Si6 0.198002 0.714112 0.169302
Si Si7 0.168942 0.402237 0.965290
Si Si8 0.300636 0.880154 0.419251
O O1 0.778443 0.413471 0.605145
O O2 0.897091 0.395242 0.396693
O O3 0.221311 0.257894 0.331196
O O4 0.097668 0.060625 0.171864
O O5 0.415045 0.439030 0.684071
O O6 0.703379 0.220568 0.571582
O O7 0.387627 0.620390 0.967387
O O8 0.560515 0.273631 0.259606
O O9 0.922263 0.212821 0.046480
O O10 0.000000 0.000000 0.000000
O O11 0.769291 0.562327 0.406033
O O12 0.948024 0.620779 0.941945
O O13 0.256450 0.811805 0.292377
O O14 0.222909 0.543477 0.082861
O O15 0.920459 0.879814 0.330317
O O16 0.436557 0.182144 0.706118
O O17 0.000000 0.500000 0.000000
#
# Coordination Sequence:
#
# PCOD8024443 Si02
#       8
#     2   2   2   2   2   2   2   2
#     4  11  25  43  72  97 131 175 221 281 331 398
#     4  11  22  41  67  96 130 178 218 268 335 399
#     4  12  24  47  68  98 136 177 224 276 334 403
#     4  11  25  46  66  99 135 171 223 281 336 390
#     4  12  24  43  67  98 136 179 221 269 340 395
#     4  10  23  44  65  95 133 174 217 270 330 397
#     4  11  22  42  62  98 133 171 215 274 323 396
#     4  10  23  43  67  94 135 172 218 275 329 390
#
# _framework density 21.097180000000002
#
# number of rings (size 3 to 8) (size 9 to 14) (size 15 to 20)
#    0.000    1.000    5.000    3.000    5.250    0.500 
#    4.500    0.000    0.000    0.000    0.000    0.000 
#    0.000    0.000    0.000    0.000    0.000    0.000 
#
# Total GULP energy -198461.957776 kJ/mol
# GULP energy per Si atom -12403.872361 kJ/mol
# Density = 2.104916 g / cm^3
# Si number density = 21.097180 Si / 1000 Ang^3
#
#
#
# Elastic Constant Matrix: (Units=GPa)
#
#
# Indices 1 2 3 4 5 6 
#
# 1 65.4747 27.1681 20.4646 -6.4816 -4.5891 -7.4264
# 2 27.1681 102.9376 47.8528 -20.1253 -0.1123 -5.0300
# 3 20.4646 47.8528 96.7241 0.1167 -1.3729 2.4176
# 4 -6.4816 -20.1253 0.1167 38.2209 0.9894 -7.9560
# 5 -4.5891 -0.1123 -1.3729 0.9894 37.5695 -1.1383
# 6 -7.4264 -5.0300 2.4176 -7.9560 -1.1383 39.3435
#
#
#
# Elastic Compliance Matrix: (Units=1/GPa)
#
#
# Indices 1 2 3 4 5 6 
#
# 1 0.018066 -0.003061 -0.002372 0.002166 0.002165 0.003665
# 2 -0.003061 0.015740 -0.007250 0.008557 -0.000708 0.003590
# 3 -0.002372 -0.007250 0.014518 -0.004949 0.000251 -0.003260
# 4 0.002166 0.008557 -0.004949 0.032819 -0.000500 0.008429
# 5 0.002165 -0.000708 0.000251 -0.000500 0.026932 0.000981
# 6 0.003665 0.003590 -0.003260 0.008429 0.000981 0.028501
#
#
# Mechanical properties :
#
#
# Convention : Reuss Voigt Hill
#
# Bulk Modulus (GPa) = 43.55314 50.67859 47.11586
# Shear Modulus (GPa) = 29.48203 34.33683 31.90943
#
# Velocity S-wave (km/s) = 3.74229 4.03867 3.89330
# Velocity P-wave (km/s) = 6.27390 6.76916 6.52623
#
# Compressibility (1/GPa) = 0.02296046
#
# Stress axis : x y z
#
# Youngs Moduli (GPa) = 55.35174 63.53145 68.87899
#
# Poissons Ratio (x) = 0.19445 0.16336
# Poissons Ratio (y) = 0.16941 0.49936
# Poissons Ratio (z) = 0.13128 0.46059
#
# Static dielectric constant tensor:
#      x y z
#    x 3.977640 -0.043590 -0.169960 
#    y -0.043590 3.949900 0.036890 
#    z -0.169960 0.036890 3.900680 
# 
# 
# High freq. dielectric constant tensor:
#      x y z
#    x 1.838250 -0.006600 -0.007800 
#    y -0.006600 1.826390 -0.003680 
#    z -0.007800 -0.003680 1.830500 
# 
# From -- ./inp_files/504369.got.cif
#   From: 2010.06.25/outbox.cif.g09.slc.cpg/sg2_253_cif.got.tgz:504369.got - 2010.06.27 13:26:56.
