data_PCOD8024162
_publ_section_title
;
Structure prediction by ZEFSAII (Michael W. Deem and Ramdas Pophale) SiO2 
 PCOD8024162
Probable space group: P -1
;
_chemical_formula_sum "Si O2"
_cell_formula_units_Z 16
_cell_length_a 11.544595
_cell_length_b 9.896172
_cell_length_c 18.111824
_cell_angle_alpha 123.658304
_cell_angle_beta 153.343093
_cell_angle_gamma 54.557949
_cell_volume 752.654488
_symmetry_space_group_name_H-M "P -1"
_symmetry_group_IT_number 2
_symmetry_cell_setting 'triclinic'
loop_
_space_group_symop_operation_xyz
x,y,z
-x,-y,-z
loop_
_atom_site_type_symbol
_atom_site_label
_atom_site_fract_x
_atom_site_fract_y
_atom_site_fract_z
Si Si1 0.361993 0.961921 0.788311
Si Si2 0.904759 0.018295 0.158729
Si Si3 0.953269 0.221479 0.708159
Si Si4 0.152630 0.706473 0.687824
Si Si5 0.788748 0.489621 0.813734
Si Si6 0.464441 0.814071 0.652748
Si Si7 0.778980 0.031617 0.822325
Si Si8 0.419150 0.365437 0.675529
O O1 0.230032 0.146454 0.800398
O O2 0.215874 0.821615 0.692175
O O3 0.334696 0.954668 0.681767
O O4 0.669165 0.925862 0.977341
O O5 0.790110 0.209351 0.176914
O O6 0.082867 0.921636 0.297862
O O7 0.095883 0.016525 0.199674
O O8 0.939383 0.387260 0.798683
O O9 0.741274 0.263773 0.534199
O O10 0.348962 0.526225 0.737427
O O11 0.846990 0.694959 0.512113
O O12 0.666748 0.673508 0.770483
O O13 0.558260 0.407618 0.691655
O O14 0.000000 0.500000 0.000000
O O15 0.595136 0.904266 0.691961
O O16 0.620058 0.223212 0.792066
O O17 0.000000 0.000000 0.000000
#
# Coordination Sequence:
#
# PCOD8024162 Si02
#       8
#     2   2   2   2   2   2   2   2
#     4  11  22  45  68 101 138 177 230 272 342 404
#     4  11  23  43  70 100 135 180 230 273 338 408
#     4  11  24  40  70  99 130 175 226 283 332 397
#     4  10  23  42  71  99 130 181 224 281 333 409
#     4  12  25  45  69  99 135 181 226 279 339 407
#     4  12  25  43  68  99 139 174 228 284 331 405
#     4  12  24  44  65 100 134 180 224 275 341 400
#     4  11  24  43  69  97 138 172 227 272 349 395
#
# _framework density 21.258094
#
# number of rings (size 3 to 8) (size 9 to 14) (size 15 to 20)
#    0.000    0.750    3.750    5.250    3.500    1.000 
#    0.000    0.625    0.000    0.000    0.000    0.000 
#    0.000    0.000    0.000    0.000    0.000    0.000 
#
# Total GULP energy -198347.665991 kJ/mol
# GULP energy per Si atom -12396.729124 kJ/mol
# Density = 2.120971 g / cm^3
# Si number density = 21.258094 Si / 1000 Ang^3
#
#
#
# Elastic Constant Matrix: (Units=GPa)
#
#
# Indices 1 2 3 4 5 6 
#
# 1 144.1997 52.6502 58.8877 -0.0699 -4.5412 -10.6157
# 2 52.6502 91.4454 27.4828 -2.3374 -7.5924 -18.8948
# 3 58.8877 27.4828 95.9311 3.9426 -16.7384 -10.9178
# 4 -0.0699 -2.3374 3.9426 34.4293 5.2070 -0.9242
# 5 -4.5412 -7.5924 -16.7384 5.2070 42.0288 11.0137
# 6 -10.6157 -18.8948 -10.9178 -0.9242 11.0137 35.9377
#
#
#
# Elastic Compliance Matrix: (Units=1/GPa)
#
#
# Indices 1 2 3 4 5 6 
#
# 1 0.010949 -0.004807 -0.005758 0.000638 -0.001945 -0.000430
# 2 -0.004807 0.015286 -0.000732 0.001265 0.000119 0.006390
# 3 -0.005758 -0.000732 0.015323 -0.002619 0.005455 0.000830
# 4 0.000638 0.001265 -0.002619 0.030272 -0.005127 0.002408
# 5 -0.001945 0.000119 0.005455 -0.005127 0.028430 -0.007699
# 6 -0.000430 0.006390 0.000830 0.002408 -0.007699 0.033732
#
#
# Mechanical properties :
#
#
# Convention : Reuss Voigt Hill
#
# Bulk Modulus (GPa) = 52.73776 67.73531 60.23653
# Shear Modulus (GPa) = 30.69202 35.31619 33.00411
#
# Velocity S-wave (km/s) = 3.80383 4.08033 3.94451
# Velocity P-wave (km/s) = 6.64488 7.35740 7.01020
#
# Compressibility (1/GPa) = 0.01896175
#
# Stress axis : x y z
#
# Youngs Moduli (GPa) = 91.33148 65.41900 65.26309
#
# Poissons Ratio (x) = 0.31450 0.37581
# Poissons Ratio (y) = 0.43907 0.04778
# Poissons Ratio (z) = 0.52593 0.04789
#
# Static dielectric constant tensor:
#      x y z
#    x 4.068080 -0.293300 0.045280 
#    y -0.293300 3.951970 0.020440 
#    z 0.045280 0.020440 3.793760 
# 
# 
# High freq. dielectric constant tensor:
#      x y z
#    x 1.847450 -0.018720 0.001870 
#    y -0.018720 1.830000 0.001870 
#    z 0.001870 0.001870 1.830200 
# 
# From -- ./inp_files/566164.got.cif
#   From: 2010.06.25/outbox.cif.g09.slc.cpg/sg2_284_cif.got.tgz:566164.got - 2010.06.27 13:26:56.
