data_PCOD8024883
_publ_section_title
;
Structure prediction by ZEFSAII (Michael W. Deem and Ramdas Pophale) SiO2 
 PCOD8024883
Probable space group: P -1
;
_chemical_formula_sum "Si O2"
_cell_formula_units_Z 16
_cell_length_a 20.655089
_cell_length_b 6.063750
_cell_length_c 6.322800
_cell_angle_alpha 81.752063
_cell_angle_beta 80.999875
_cell_angle_gamma 60.769432
_cell_volume 680.494817
_symmetry_space_group_name_H-M "P -1"
_symmetry_group_IT_number 2
_symmetry_cell_setting 'triclinic'
loop_
_space_group_symop_operation_xyz
x,y,z
-x,-y,-z
loop_
_atom_site_type_symbol
_atom_site_label
_atom_site_fract_x
_atom_site_fract_y
_atom_site_fract_z
Si Si1 0.910045 0.126419 0.304028
Si Si2 0.787644 0.022440 0.248014
Si Si3 0.416650 0.233117 0.807840
Si Si4 0.659726 0.357970 0.552288
Si Si5 0.048047 0.626520 0.378435
Si Si6 0.163417 0.429128 0.013236
Si Si7 0.720816 0.449467 0.902299
Si Si8 0.553850 0.234538 0.910145
O O1 0.848535 0.029054 0.376632
O O2 0.908627 0.303833 0.473696
O O3 0.885557 0.284100 0.079510
O O4 0.991545 0.890285 0.258588
O O5 0.708907 0.132385 0.396045
O O6 0.818579 0.740615 0.182277
O O7 0.774247 0.183615 0.019684
O O8 0.390475 0.370262 0.574664
O O9 0.503316 0.157373 0.798662
O O10 0.363530 0.432103 0.983089
O O11 0.410129 0.974890 0.889249
O O12 0.716080 0.409745 0.661462
O O13 0.614513 0.252969 0.728267
O O14 0.000000 0.500000 0.500000
O O15 0.109035 0.413829 0.220695
O O16 0.241691 0.371786 0.091926
O O17 0.500000 0.500000 0.000000
#
# Coordination Sequence:
#
# PCOD8024883 Si02
#       8
#     2   2   2   2   2   2   2   2
#     4  10  23  44  64  98 136 174 224 282 334 406
#     4  10  24  43  67 100 136 177 234 278 343 410
#     4  10  24  45  65 107 136 180 232 284 349 412
#     4  11  23  46  73  99 141 188 230 286 351 409
#     4  11  24  41  68 100 133 177 227 275 344 406
#     4  11  24  43  69  95 136 178 221 286 337 400
#     4  10  23  44  65 100 136 175 228 287 334 411
#     4  11  23  45  71 100 144 179 231 288 344 415
#
# _framework density 23.512301999999998
#
# number of rings (size 3 to 8) (size 9 to 14) (size 15 to 20)
#    0.000    1.500    1.250    2.250    1.750    8.500 
#    9.000    0.000    0.000    0.000    0.000    0.000 
#    0.000    0.000    0.000    0.000    0.000    0.000 
#
# Total GULP energy -198279.538257 kJ/mol
# GULP energy per Si atom -12392.471141 kJ/mol
# Density = 2.345879 g / cm^3
# Si number density = 23.512302 Si / 1000 Ang^3
#
#
#
# Elastic Constant Matrix: (Units=GPa)
#
#
# Indices 1 2 3 4 5 6 
#
# 1 148.0100 46.4110 70.5188 3.9736 -0.2618 9.6475
# 2 46.4110 109.6092 54.0454 2.5503 -3.6318 4.3973
# 3 70.5188 54.0454 115.2733 -1.2057 -4.1188 9.2462
# 4 3.9736 2.5503 -1.2057 42.0440 -3.6449 1.7001
# 5 -0.2618 -3.6318 -4.1188 -3.6449 40.9829 -1.1053
# 6 9.6475 4.3973 9.2462 1.7001 -1.1053 32.9018
#
#
#
# Elastic Compliance Matrix: (Units=1/GPa)
#
#
# Indices 1 2 3 4 5 6 
#
# 1 0.009836 -0.001535 -0.005240 -0.001002 -0.000721 -0.001179
# 2 -0.001535 0.012146 -0.004761 -0.000691 0.000532 0.000218
# 3 -0.005240 -0.004761 0.014316 0.001362 0.001054 -0.001885
# 4 -0.001002 -0.000691 0.001362 0.024197 0.002190 -0.001174
# 5 -0.000721 0.000532 0.001054 0.002190 0.024759 0.000563
# 6 -0.001179 0.000218 -0.001885 -0.001174 0.000563 0.031319
#
#
# Mechanical properties :
#
#
# Convention : Reuss Voigt Hill
#
# Bulk Modulus (GPa) = 75.60432 79.42699 77.51566
# Shear Modulus (GPa) = 34.70924 36.64689 35.67806
#
# Velocity S-wave (km/s) = 3.84632 3.95223 3.89964
# Velocity P-wave (km/s) = 7.20768 7.39467 7.30177
#
# Compressibility (1/GPa) = 0.01322676
#
# Stress axis : x y z
#
# Youngs Moduli (GPa) = 101.66362 82.33289 69.85303
#
# Poissons Ratio (x) = 0.12636 0.36600
# Poissons Ratio (y) = 0.15603 0.33259
# Poissons Ratio (z) = 0.53267 0.39202
#
# Static dielectric constant tensor:
#      x y z
#    x 4.563220 -0.077600 0.064710 
#    y -0.077600 4.182450 -0.199740 
#    z 0.064710 -0.199740 4.043520 
# 
# 
# High freq. dielectric constant tensor:
#      x y z
#    x 1.941310 -0.011930 0.004400 
#    y -0.011930 1.929920 -0.008990 
#    z 0.004400 -0.008990 1.919780 
# 
# From -- ./inp_files/121541.got.cif
#   From: 2010.06.25/outbox.cif.g09.slc.cpg/sg2_61_cif.got.tgz:121541.got - 2010.06.27 13:26:56.
