data_PCOD8024179
_publ_section_title
;
Structure prediction by ZEFSAII (Michael W. Deem and Ramdas Pophale) SiO2 
 PCOD8024179
Probable space group: P -1
;
_chemical_formula_sum "Si O2"
_cell_formula_units_Z 14
_cell_length_a 10.842826
_cell_length_b 14.439867
_cell_length_c 6.455822
_cell_angle_alpha 120.939439
_cell_angle_beta 86.971059
_cell_angle_gamma 131.064135
_cell_volume 586.816173
_symmetry_space_group_name_H-M "P -1"
_symmetry_group_IT_number 2
_symmetry_cell_setting 'triclinic'
loop_
_space_group_symop_operation_xyz
x,y,z
-x,-y,-z
loop_
_atom_site_type_symbol
_atom_site_label
_atom_site_fract_x
_atom_site_fract_y
_atom_site_fract_z
Si Si1 0.862573 0.736573 0.721425
Si Si2 0.300121 0.472292 0.148325
Si Si3 0.177084 0.609465 0.463749
Si Si4 0.715340 0.740237 0.355128
Si Si5 0.159072 0.960079 0.285838
Si Si6 0.157637 0.825984 0.525515
Si Si7 0.451765 0.091513 0.086594
O O1 0.699862 0.568332 0.659682
O O2 0.771201 0.770141 0.627525
O O3 0.974573 0.726092 0.557440
O O4 0.991942 0.866990 0.037227
O O5 0.178627 0.504128 0.193545
O O6 0.500713 0.620385 0.213916
O O7 0.213002 0.321482 0.838077
O O8 0.197816 0.724667 0.438327
O O9 0.357368 0.719588 0.724363
O O10 0.000000 0.500000 0.500000
O O11 0.817000 0.910269 0.445842
O O12 0.129167 0.839382 0.303588
O O13 0.346163 0.063635 0.265823
O O14 0.320491 0.010801 0.803580
O O15 0.500000 0.000000 0.000000
#
# Coordination Sequence:
#
# PCOD8024179 Si02
#       7
#     2   2   2   2   2   2   2
#     4  11  23  44  69  98 139 180 231 284 337 402
#     4  11  24  45  69 102 142 177 231 281 341 419
#     4  11  21  45  75 101 138 180 225 282 345 409
#     4  11  25  45  68 103 138 185 231 275 344 409
#     4  11  23  44  71 101 137 179 232 284 338 405
#     4  10  23  42  72 105 133 175 229 288 342 401
#     4   9  21  41  66  97 136 175 226 276 340 401
#
# _framework density 23.857555999999999
#
# number of rings (size 3 to 8) (size 9 to 14) (size 15 to 20)
#    0.000    1.429    2.857    1.714    0.000    6.857 
#    5.143    5.714    0.000    0.000    0.000    0.000 
#    0.000    0.000    0.000    0.000    0.000    0.000 
#
# Total GULP energy -173477.994233 kJ/mol
# GULP energy per Si atom -12391.285302 kJ/mol
# Density = 2.380326 g / cm^3
# Si number density = 23.857556 Si / 1000 Ang^3
#
#
#
# Elastic Constant Matrix: (Units=GPa)
#
#
# Indices 1 2 3 4 5 6 
#
# 1 95.7944 42.5324 52.7674 7.2786 -21.7147 -3.3068
# 2 42.5324 95.5444 31.6159 -2.6528 -8.3614 -10.2575
# 3 52.7674 31.6159 88.5015 -6.5962 -19.7476 -14.8067
# 4 7.2786 -2.6528 -6.5962 24.4913 -12.8924 -1.7921
# 5 -21.7147 -8.3614 -19.7476 -12.8924 40.5850 2.2141
# 6 -3.3068 -10.2575 -14.8067 -1.7921 2.2141 53.0780
#
#
#
# Elastic Compliance Matrix: (Units=1/GPa)
#
#
# Indices 1 2 3 4 5 6 
#
# 1 0.019690 -0.005726 -0.010496 -0.008650 0.001673 -0.003170
# 2 -0.005726 0.013622 -0.000784 0.003273 0.000283 0.002156
# 3 -0.010496 -0.000784 0.021786 0.014025 0.008986 0.005371
# 4 -0.008650 0.003273 0.014025 0.059165 0.021386 0.005112
# 5 0.001673 0.000283 0.008986 0.021386 0.036658 0.001859
# 6 -0.003170 0.002156 0.005371 0.005112 0.001859 0.020653
#
#
# Mechanical properties :
#
#
# Convention : Reuss Voigt Hill
#
# Bulk Modulus (GPa) = 47.42588 59.29683 53.36136
# Shear Modulus (GPa) = 23.51665 33.82584 28.67125
#
# Velocity S-wave (km/s) = 3.14301 3.76949 3.47041
# Velocity P-wave (km/s) = 5.75267 6.62222 6.20271
#
# Compressibility (1/GPa) = 0.02108553
#
# Stress axis : x y z
#
# Youngs Moduli (GPa) = 50.78693 73.41065 45.90034
#
# Poissons Ratio (x) = 0.42036 0.48176
# Poissons Ratio (y) = 0.29081 0.03601
# Poissons Ratio (z) = 0.53305 0.05759
#
# Static dielectric constant tensor:
#      x y z
#    x 4.184940 0.135160 0.079820 
#    y 0.135160 4.344290 0.248530 
#    z 0.079820 0.248530 4.832970 
# 
# 
# High freq. dielectric constant tensor:
#      x y z
#    x 1.956540 0.014870 -0.004660 
#    y 0.014870 1.940830 0.016940 
#    z -0.004660 0.016940 1.936850 
# 
# From -- ./inp_files/78644.got.cif
#   From: 2010.06.25/outbox.cif.g09.slc.cpg/sg2_40_cif.got.tgz:78644.got - 2010.06.27 13:26:56.
