data_PCOD8024787
_publ_section_title
;
Structure prediction by ZEFSAII (Michael W. Deem and Ramdas Pophale) SiO2 
 PCOD8024787
Probable space group: P -1
;
_chemical_formula_sum "Si O2"
_cell_formula_units_Z 16
_cell_length_a 5.500685
_cell_length_b 18.070759
_cell_length_c 21.412509
_cell_angle_alpha 18.807954
_cell_angle_beta 117.948957
_cell_angle_gamma 114.499840
_cell_volume 603.023043
_symmetry_space_group_name_H-M "P -1"
_symmetry_group_IT_number 2
_symmetry_cell_setting 'triclinic'
loop_
_space_group_symop_operation_xyz
x,y,z
-x,-y,-z
loop_
_atom_site_type_symbol
_atom_site_label
_atom_site_fract_x
_atom_site_fract_y
_atom_site_fract_z
Si Si1 0.469147 0.185086 0.127463
Si Si2 0.134470 0.221344 0.315045
Si Si3 0.071077 0.235535 0.791663
Si Si4 0.893634 0.736600 0.860962
Si Si5 0.620283 0.360539 0.796874
Si Si6 0.590007 0.417621 0.283305
Si Si7 0.891917 0.675014 0.502798
Si Si8 0.046258 0.958272 0.190660
O O1 0.804032 0.159754 0.184280
O O2 0.332652 0.156355 0.201947
O O3 0.343205 0.434686 0.887402
O O4 0.358696 0.986019 0.229023
O O5 0.384328 0.235757 0.382013
O O6 0.240005 0.191363 0.279988
O O7 0.929060 0.460004 0.097905
O O8 0.000000 0.000000 0.500000
O O9 0.402635 0.227937 0.838183
O O10 0.954227 0.455983 0.640094
O O11 0.949305 0.242265 0.700833
O O12 0.000000 0.000000 0.000000
O O13 0.550262 0.400323 0.828887
O O14 0.637778 0.612178 0.565326
O O15 0.912706 0.203775 0.951823
O O16 0.861280 0.281269 0.454434
O O17 0.851878 0.894525 0.276835
#
# Coordination Sequence:
#
# PCOD8024787 Si02
#       8
#     2   2   2   2   2   2   2   2
#     4  11  23  47  73  97 145 185 231 283 356 412
#     4  10  23  43  73 101 137 182 230 286 350 411
#     4  11  23  45  67  94 138 180 225 289 348 409
#     4  10  25  47  68 105 140 183 231 291 343 424
#     4  11  23  47  65  96 138 180 227 284 349 411
#     4  10  23  45  69  94 141 180 224 286 347 418
#     4  11  25  42  65 101 134 177 231 285 343 414
#     4  12  23  41  71 100 131 182 231 284 343 412
#
# _framework density 26.532985
#
# number of rings (size 3 to 8) (size 9 to 14) (size 15 to 20)
#    0.000    1.250    2.500    3.000    1.750    6.000 
#   11.250    3.125    0.000    0.000    0.000    0.000 
#    0.000    0.000    0.000    0.000    0.000    0.000 
#
# Total GULP energy -198308.720222 kJ/mol
# GULP energy per Si atom -12394.295014 kJ/mol
# Density = 2.647259 g / cm^3
# Si number density = 26.532985 Si / 1000 Ang^3
#
#
#
# Elastic Constant Matrix: (Units=GPa)
#
#
# Indices 1 2 3 4 5 6 
#
# 1 95.9948 46.7236 27.6825 -8.3128 -27.8298 -1.4559
# 2 46.7236 191.4478 30.4872 -5.3554 -21.0271 16.5577
# 3 27.6825 30.4872 93.7340 7.0260 -35.7349 13.4199
# 4 -8.3128 -5.3554 7.0260 29.6345 -0.0072 -20.7689
# 5 -27.8298 -21.0271 -35.7349 -0.0072 43.9884 -5.5377
# 6 -1.4559 16.5577 13.4199 -20.7689 -5.5377 36.5411
#
#
#
# Elastic Compliance Matrix: (Units=1/GPa)
#
#
# Indices 1 2 3 4 5 6 
#
# 1 0.016690 -0.003346 -0.003842 0.013788 0.007421 0.012553
# 2 -0.003346 0.006406 -0.000086 -0.003051 0.000283 -0.004696
# 3 -0.003842 -0.000086 0.019517 -0.015948 0.011543 -0.014597
# 4 0.013788 -0.003051 -0.015948 0.077102 0.000835 0.051738
# 5 0.007421 0.000283 0.011543 0.000835 0.037197 0.002040
# 6 0.012553 -0.004696 -0.014597 0.051738 0.002040 0.065071
#
#
# Mechanical properties :
#
#
# Convention : Reuss Voigt Hill
#
# Bulk Modulus (GPa) = 35.63456 65.66260 50.64858
# Shear Modulus (GPa) = 20.33465 40.45167 30.39316
#
# Velocity S-wave (km/s) = 2.77138 3.90882 3.38817
# Velocity P-wave (km/s) = 4.86828 6.72110 5.86828
#
# Compressibility (1/GPa) = 0.02806264
#
# Stress axis : x y z
#
# Youngs Moduli (GPa) = 59.91736 156.11282 51.23724
#
# Poissons Ratio (x) = 0.52240 0.19687
# Poissons Ratio (y) = 0.20050 0.00442
# Poissons Ratio (z) = 0.23022 0.01345
#
# Static dielectric constant tensor:
#      x y z
#    x 4.276600 0.094960 -0.010110 
#    y 0.094960 5.585420 -0.017070 
#    z -0.010110 -0.017070 3.923530 
# 
# 
# High freq. dielectric constant tensor:
#      x y z
#    x 2.042940 0.000530 -0.027260 
#    y 0.000530 2.085410 -0.000230 
#    z -0.027260 -0.000230 2.073090 
# 
# From -- ./inp_files/584041.got.cif
#   From: 2010.06.25/outbox.cif.g09.slc.cpg/sg2_293_cif.got.tgz:584041.got - 2010.06.27 13:26:56.
