data_PCOD8024961
_publ_section_title
;
Structure prediction by ZEFSAII (Michael W. Deem and Ramdas Pophale) SiO2 
 PCOD8024961
Probable space group: P -1
;
_chemical_formula_sum "Si O2"
_cell_formula_units_Z 16
_cell_length_a 6.641258
_cell_length_b 8.844364
_cell_length_c 14.911369
_cell_angle_alpha 95.206516
_cell_angle_beta 63.882228
_cell_angle_gamma 78.039882
_cell_volume 752.664656
_symmetry_space_group_name_H-M "P -1"
_symmetry_group_IT_number 2
_symmetry_cell_setting 'triclinic'
loop_
_space_group_symop_operation_xyz
x,y,z
-x,-y,-z
loop_
_atom_site_type_symbol
_atom_site_label
_atom_site_fract_x
_atom_site_fract_y
_atom_site_fract_z
Si Si1 0.653837 0.879334 0.036310
Si Si2 0.055849 0.531563 0.268543
Si Si3 0.878897 0.745816 0.633822
Si Si4 0.258157 0.905659 0.611938
Si Si5 0.369883 0.905846 0.782118
Si Si6 0.488008 0.421407 0.903594
Si Si7 0.130308 0.646762 0.860617
Si Si8 0.221755 0.212346 0.539992
O O1 0.512508 0.759843 0.092611
O O2 0.716944 0.977013 0.111921
O O3 0.897982 0.777988 0.943224
O O4 0.500000 0.000000 0.000000
O O5 0.136486 0.417311 0.330609
O O6 0.280460 0.583821 0.196866
O O7 0.941096 0.453464 0.209319
O O8 0.859849 0.681515 0.351265
O O9 0.645021 0.879445 0.713194
O O10 0.924987 0.724623 0.517257
O O11 0.090193 0.794317 0.640059
O O12 0.248042 0.981810 0.717623
O O13 0.512673 0.793095 0.532992
O O14 0.187624 0.040996 0.558546
O O15 0.316557 0.737967 0.799010
O O16 0.250716 0.522819 0.907571
O O17 0.500000 0.500000 0.000000
#
# Coordination Sequence:
#
# PCOD8024961 Si02
#       8
#     2   2   2   2   2   2   2   2
#     4  12  27  46  73 102 139 190 235 288 349 413
#     4  12  25  43  72 100 138 183 231 280 354 408
#     4  11  22  46  66  98 137 180 225 290 339 410
#     4  10  23  44  66  98 141 173 227 290 339 413
#     4  11  24  42  70 100 133 183 234 276 348 409
#     4  12  27  47  70 103 144 180 237 289 347 412
#     4  12  25  48  69 101 146 185 229 293 342 415
#     4  10  25  41  68 102 132 177 234 281 346 412
#
# _framework density 21.257807
#
# number of rings (size 3 to 8) (size 9 to 14) (size 15 to 20)
#    0.000    0.750    3.750    3.000    3.500    1.500 
#    0.000    0.000    0.000    0.000    0.000    0.000 
#    0.000    0.000    0.000    0.000    0.000    0.000 
#
# Total GULP energy -198446.102475 kJ/mol
# GULP energy per Si atom -12402.881405 kJ/mol
# Density = 2.120942 g / cm^3
# Si number density = 21.257807 Si / 1000 Ang^3
#
#
#
# Elastic Constant Matrix: (Units=GPa)
#
#
# Indices 1 2 3 4 5 6 
#
# 1 113.7681 59.3339 63.8819 -1.4442 5.6212 1.6227
# 2 59.3339 113.6519 47.6569 -17.1827 6.7391 -2.7635
# 3 63.8819 47.6569 134.5677 9.2434 0.7939 -6.6352
# 4 -1.4442 -17.1827 9.2434 48.0902 1.7916 1.4158
# 5 5.6212 6.7391 0.7939 1.7916 21.6394 -12.8085
# 6 1.6227 -2.7635 -6.6352 1.4158 -12.8085 37.1856
#
#
#
# Elastic Compliance Matrix: (Units=1/GPa)
#
#
# Indices 1 2 3 4 5 6 
#
# 1 0.014784 -0.005413 -0.005225 -0.000243 -0.003906 -0.003316
# 2 -0.005413 0.013775 -0.002694 0.005433 -0.003638 -0.000681
# 3 -0.005225 -0.002694 0.011263 -0.003549 0.004224 0.003628
# 4 -0.000243 0.005433 -0.003549 0.023689 -0.005179 -0.002905
# 5 -0.003906 -0.003638 0.004224 -0.005179 0.061721 0.022111
# 6 -0.003316 -0.000681 0.003628 -0.002905 0.022111 0.035360
#
#
# Mechanical properties :
#
#
# Convention : Reuss Voigt Hill
#
# Bulk Modulus (GPa) = 75.99770 78.19257 77.09514
# Shear Modulus (GPa) = 26.09037 34.12402 30.10719
#
# Velocity S-wave (km/s) = 3.50713 4.01090 3.76744
# Velocity P-wave (km/s) = 7.22690 7.63627 7.43440
#
# Compressibility (1/GPa) = 0.01315829
#
# Stress axis : x y z
#
# Youngs Moduli (GPa) = 67.64092 72.59608 88.78325
#
# Poissons Ratio (x) = 0.39296 0.46389
# Poissons Ratio (y) = 0.36614 0.23918
# Poissons Ratio (z) = 0.35343 0.19557
#
# Static dielectric constant tensor:
#      x y z
#    x 3.894710 -0.000490 -0.002050 
#    y -0.000490 3.990120 -0.265690 
#    z -0.002050 -0.265690 4.003570 
# 
# 
# High freq. dielectric constant tensor:
#      x y z
#    x 1.841130 0.001040 0.001190 
#    y 0.001040 1.836290 -0.015140 
#    z 0.001190 -0.015140 1.847490 
# 
# From -- ./inp_files/38130.got.cif
#   From: 2010.06.25/outbox.cif.g09.slc.cpg/sg2_20_cif.got.tgz:38130.got - 2010.06.27 13:26:56.
