data_PCOD8024148
_publ_section_title
;
Structure prediction by ZEFSAII (Michael W. Deem and Ramdas Pophale) SiO2 
 PCOD8024148
Probable space group: P -1
;
_chemical_formula_sum "Si O2"
_cell_formula_units_Z 14
_cell_length_a 20.039060
_cell_length_b 17.799795
_cell_length_c 8.600386
_cell_angle_alpha 130.525848
_cell_angle_beta 38.669381
_cell_angle_gamma 159.729953
_cell_volume 613.782745
_symmetry_space_group_name_H-M "P -1"
_symmetry_group_IT_number 2
_symmetry_cell_setting 'triclinic'
loop_
_space_group_symop_operation_xyz
x,y,z
-x,-y,-z
loop_
_atom_site_type_symbol
_atom_site_label
_atom_site_fract_x
_atom_site_fract_y
_atom_site_fract_z
Si Si1 0.525152 0.815814 0.071539
Si Si2 0.863404 0.081726 0.246077
Si Si3 0.377895 0.771029 0.588649
Si Si4 0.319821 0.463876 0.135914
Si Si5 0.212132 0.473417 0.910382
Si Si6 0.070624 0.703339 0.094002
Si Si7 0.538433 0.634134 0.293460
O O1 0.452630 0.839173 0.362153
O O2 0.531722 0.718653 0.026639
O O3 0.323210 0.637763 0.061785
O O4 0.792014 0.073667 0.853841
O O5 0.608528 0.934605 0.503908
O O6 0.789939 0.904671 0.148472
O O7 0.035735 0.255230 0.315924
O O8 0.020949 0.232210 0.004816
O O9 0.153872 0.498712 0.641683
O O10 0.279111 0.793006 0.858367
O O11 0.331225 0.465831 0.304572
O O12 0.388644 0.416608 0.869616
O O13 0.429297 0.593280 0.591056
O O14 0.064964 0.423720 0.997049
#
# Coordination Sequence:
#
# PCOD8024148 Si02
#       7
#     2   2   2   2   2   2   2
#     4  11  23  42  64  96 128 169 209 267 311 382
#     4  11  22  42  63  96 131 165 204 276 304 380
#     4  11  23  44  67  91 134 164 216 260 324 368
#     4  10  23  42  71  94 127 168 215 257 330 360
#     4  11  24  39  68  95 128 167 218 250 328 372
#     4  11  23  45  66  92 127 175 209 268 309 382
#     4  11  22  45  65  96 129 170 209 265 310 388
#
# _framework density 22.809373000000001
#
# number of rings (size 3 to 8) (size 9 to 14) (size 15 to 20)
#    0.000    1.143    4.286    0.857    0.000    6.286 
#    2.571    9.286    0.000    0.000    0.000    0.000 
#    0.000    0.000    0.000    0.000    0.000    0.000 
#
# Total GULP energy -173561.091417 kJ/mol
# GULP energy per Si atom -12397.220816 kJ/mol
# Density = 2.275746 g / cm^3
# Si number density = 22.809373 Si / 1000 Ang^3
#
#
#
# Elastic Constant Matrix: (Units=GPa)
#
#
# Indices 1 2 3 4 5 6 
#
# 1 77.9331 30.9092 22.5836 -11.7792 -3.6888 7.9444
# 2 30.9092 114.3706 32.5626 -25.3188 0.4296 -6.2863
# 3 22.5836 32.5626 59.5216 -17.0401 -0.8920 5.7957
# 4 -11.7792 -25.3188 -17.0401 32.3409 -5.1678 8.3619
# 5 -3.6888 0.4296 -0.8920 -5.1678 30.7353 -4.5887
# 6 7.9444 -6.2863 5.7957 8.3619 -4.5887 40.6186
#
#
#
# Elastic Compliance Matrix: (Units=1/GPa)
#
#
# Indices 1 2 3 4 5 6 
#
# 1 0.015800 -0.002898 -0.003181 0.003006 0.001828 -0.003497
# 2 -0.002898 0.012070 -0.003980 0.005919 0.000640 0.001857
# 3 -0.003181 -0.003980 0.023462 0.009620 0.001198 -0.005187
# 4 0.003006 0.005919 0.009620 0.045277 0.006736 -0.009605
# 5 0.001828 0.000640 0.001198 0.006736 0.034220 0.002050
# 6 -0.003497 0.001857 -0.005187 -0.009605 0.002050 0.028540
#
#
# Mechanical properties :
#
#
# Convention : Reuss Voigt Hill
#
# Bulk Modulus (GPa) = 32.03729 47.10403 39.57066
# Shear Modulus (GPa) = 26.33088 31.79028 29.06058
#
# Velocity S-wave (km/s) = 3.40132 3.73733 3.57327
# Velocity P-wave (km/s) = 5.43152 6.27053 5.86604
#
# Compressibility (1/GPa) = 0.03121362
#
# Stress axis : x y z
#
# Youngs Moduli (GPa) = 63.29090 82.85117 42.62223
#
# Poissons Ratio (x) = 0.24010 0.13557
# Poissons Ratio (y) = 0.18342 0.16965
# Poissons Ratio (z) = 0.20132 0.32977
#
# Static dielectric constant tensor:
#      x y z
#    x 4.274560 -0.103880 0.106500 
#    y -0.103880 4.302360 -0.246350 
#    z 0.106500 -0.246350 3.798770 
# 
# 
# High freq. dielectric constant tensor:
#      x y z
#    x 1.909540 -0.005780 0.009700 
#    y -0.005780 1.911050 -0.014240 
#    z 0.009700 -0.014240 1.873960 
# 
# From -- ./inp_files/348374.got.cif
#   From: 2010.06.25/outbox.cif.g09.slc.cpg/sg2_175_cif.got.tgz:348374.got - 2010.06.27 13:26:56.
