data_PCOD8024789
_publ_section_title
;
Structure prediction by ZEFSAII (Michael W. Deem and Ramdas Pophale) SiO2 
 PCOD8024789
Probable space group: P -1
;
_chemical_formula_sum "Si O2"
_cell_formula_units_Z 14
_cell_length_a 11.110839
_cell_length_b 8.723016
_cell_length_c 8.830527
_cell_angle_alpha 86.694978
_cell_angle_beta 86.656593
_cell_angle_gamma 41.208366
_cell_volume 562.753438
_symmetry_space_group_name_H-M "P -1"
_symmetry_group_IT_number 2
_symmetry_cell_setting 'triclinic'
loop_
_space_group_symop_operation_xyz
x,y,z
-x,-y,-z
loop_
_atom_site_type_symbol
_atom_site_label
_atom_site_fract_x
_atom_site_fract_y
_atom_site_fract_z
Si Si1 0.735411 0.984164 0.318629
Si Si2 0.025429 0.245112 0.125199
Si Si3 0.445224 0.377830 0.535490
Si Si4 0.968508 0.210783 0.472128
Si Si5 0.279053 0.214944 0.945203
Si Si6 0.217635 0.825866 0.953264
Si Si7 0.540006 0.668741 0.112763
O O1 0.560968 0.158848 0.429687
O O2 0.756342 0.119073 0.212848
O O3 0.711212 0.860518 0.221016
O O4 0.916837 0.798214 0.417174
O O5 0.027831 0.206577 0.302320
O O6 0.874716 0.506452 0.064794
O O7 0.223048 0.136486 0.074300
O O8 0.032114 0.071700 0.041263
O O9 0.500000 0.500000 0.500000
O O10 0.238414 0.549386 0.491602
O O11 0.478478 0.294924 0.709093
O O12 0.000000 0.000000 0.500000
O O13 0.456453 0.159586 0.972458
O O14 0.260362 0.604419 0.924671
O O15 0.379146 0.718411 0.061823
#
# Coordination Sequence:
#
# PCOD8024789 Si02
#       7
#     2   2   2   2   2   2   2
#     4  11  25  46  68 105 143 178 237 279 355 421
#     4  10  23  46  65 101 138 177 232 281 346 414
#     4  12  23  45  71 104 142 178 232 293 345 413
#     4  12  24  44  76 104 138 185 228 298 346 405
#     4  10  24  48  66  99 143 183 227 291 343 425
#     4  10  23  43  73 103 132 185 239 289 337 416
#     4  11  22  44  70 102 137 180 239 285 351 402
#
# _framework density 24.877680999999999
#
# number of rings (size 3 to 8) (size 9 to 14) (size 15 to 20)
#    0.000    1.143    4.286    0.857    0.000    4.000 
#   15.429    0.000    0.000    0.000    0.000    0.000 
#    0.000    0.000    0.000    0.000    0.000    0.000 
#
# Total GULP energy -173609.592398 kJ/mol
# GULP energy per Si atom -12400.685171 kJ/mol
# Density = 2.482106 g / cm^3
# Si number density = 24.877681 Si / 1000 Ang^3
#
#
#
# Elastic Constant Matrix: (Units=GPa)
#
#
# Indices 1 2 3 4 5 6 
#
# 1 103.8598 34.0841 53.7233 24.4644 1.3697 7.3677
# 2 34.0841 93.9077 45.5134 31.5646 -9.4950 -9.4074
# 3 53.7233 45.5134 124.9508 16.9405 -2.2862 -14.8330
# 4 24.4644 31.5646 16.9405 43.4116 1.8355 -7.5104
# 5 1.3697 -9.4950 -2.2862 1.8355 36.2753 -2.7491
# 6 7.3677 -9.4074 -14.8330 -7.5104 -2.7491 54.0008
#
#
#
# Elastic Compliance Matrix: (Units=1/GPa)
#
#
# Indices 1 2 3 4 5 6 
#
# 1 0.014694 -0.001183 -0.005654 -0.005967 -0.001272 -0.004659
# 2 -0.001183 0.017088 -0.004146 -0.010202 0.004835 0.000827
# 3 -0.005654 -0.004146 0.012095 0.002114 0.000062 0.003668
# 4 -0.005967 -0.010202 0.002114 0.033864 -0.003712 0.004138
# 5 -0.001272 0.004835 0.000062 -0.003712 0.029224 0.002004
# 6 -0.004659 0.000827 0.003668 0.004138 0.002004 0.020983
#
#
# Mechanical properties :
#
#
# Convention : Reuss Voigt Hill
#
# Bulk Modulus (GPa) = 45.64013 65.48444 55.56229
# Shear Modulus (GPa) = 31.80311 39.36405 35.58358
#
# Velocity S-wave (km/s) = 3.57932 3.98213 3.78609
# Velocity P-wave (km/s) = 5.95548 6.89368 6.44168
#
# Compressibility (1/GPa) = 0.02191054
#
# Stress axis : x y z
#
# Youngs Moduli (GPa) = 68.05530 58.51966 82.68160
#
# Poissons Ratio (x) = 0.06920 0.46751
# Poissons Ratio (y) = 0.08048 0.34282
# Poissons Ratio (z) = 0.38481 0.24264
#
# Static dielectric constant tensor:
#      x y z
#    x 5.372030 -0.379050 -0.352080 
#    y -0.379050 5.336270 0.222170 
#    z -0.352080 0.222170 4.447290 
# 
# 
# High freq. dielectric constant tensor:
#      x y z
#    x 2.027970 -0.011820 -0.000780 
#    y -0.011820 2.038960 0.005070 
#    z -0.000780 0.005070 1.981750 
# 
# From -- ./inp_files/243997.got.cif
#   From: 2010.06.25/outbox.cif.g09.slc.cpg/sg2_122_cif.got.tgz:243997.got - 2010.06.27 13:26:56.
