data_PCOD8024031
_publ_section_title
;
Structure prediction by ZEFSAII (Michael W. Deem and Ramdas Pophale) SiO2 
 PCOD8024031
Probable space group: P -1
;
_chemical_formula_sum "Si O2"
_cell_formula_units_Z 16
_cell_length_a 8.851254
_cell_length_b 18.631706
_cell_length_c 5.390273
_cell_angle_alpha 94.800647
_cell_angle_beta 99.056545
_cell_angle_gamma 128.042283
_cell_volume 672.438291
_symmetry_space_group_name_H-M "P -1"
_symmetry_group_IT_number 2
_symmetry_cell_setting 'triclinic'
loop_
_space_group_symop_operation_xyz
x,y,z
-x,-y,-z
loop_
_atom_site_type_symbol
_atom_site_label
_atom_site_fract_x
_atom_site_fract_y
_atom_site_fract_z
Si Si1 0.231936 0.084530 0.623981
Si Si2 0.135395 0.610321 0.114026
Si Si3 0.196212 0.865517 0.883620
Si Si4 0.062289 0.305131 0.911072
Si Si5 0.560019 0.592880 0.659399
Si Si6 0.830785 0.776937 0.467162
Si Si7 0.394168 0.059989 0.166901
Si Si8 0.776170 0.406629 0.370312
O O1 0.261463 0.180179 0.674874
O O2 0.349225 0.090921 0.413611
O O3 0.321332 0.078396 0.899737
O O4 0.000000 0.000000 0.500000
O O5 0.289255 0.647075 0.395305
O O6 0.997758 0.634124 0.176356
O O7 0.243553 0.654707 0.886824
O O8 0.000000 0.500000 0.000000
O O9 0.369882 0.885842 0.758719
O O10 0.014940 0.856550 0.711551
O O11 0.097591 0.764852 0.943936
O O12 0.287347 0.949997 0.126950
O O13 0.050491 0.240874 0.684767
O O14 0.288572 0.379077 0.076349
O O15 0.500000 0.500000 0.500000
O O16 0.655279 0.679533 0.522809
O O17 0.363484 0.567958 0.721416
O O18 0.000000 0.500000 0.500000
#
# Coordination Sequence:
#
# PCOD8024031 Si02
#       8
#     2   2   2   2   2   2   2   2
#     4  12  25  46  74 108 150 193 236 295 361 424
#     4  10  23  42  69  93 131 178 228 286 348 410
#     4  10  25  46  70 109 142 188 237 294 359 428
#     4  11  26  45  71 100 146 186 239 302 362 425
#     4  11  26  45  70 100 140 190 242 297 362 427
#     4  11  27  44  71 103 147 187 239 297 362 434
#     4  11  26  45  79 106 146 193 240 289 358 434
#     4  10  23  43  67  96 127 172 234 287 348 412
#
# _framework density 23.794004000000001
#
# number of rings (size 3 to 8) (size 9 to 14) (size 15 to 20)
#    0.000    1.250    1.250    2.625   14.000    3.500 
#    0.000    0.000    0.000    0.000    0.000    0.000 
#    0.000    0.000    0.000    0.000    0.000    0.000 
#
# Total GULP energy -198262.376270 kJ/mol
# GULP energy per Si atom -12391.398517 kJ/mol
# Density = 2.373985 g / cm^3
# Si number density = 23.794004 Si / 1000 Ang^3
#
#
#
# Elastic Constant Matrix: (Units=GPa)
#
#
# Indices 1 2 3 4 5 6 
#
# 1 144.4888 43.1691 29.1109 5.7343 -16.4233 -11.2426
# 2 43.1691 63.3495 10.4629 15.5882 5.0704 -2.2334
# 3 29.1109 10.4629 118.1811 -17.6829 -18.2159 -6.3981
# 4 5.7343 15.5882 -17.6829 23.2438 -5.5365 0.1727
# 5 -16.4233 5.0704 -18.2159 -5.5365 46.2069 5.5609
# 6 -11.2426 -2.2334 -6.3981 0.1727 5.5609 46.7916
#
#
#
# Elastic Compliance Matrix: (Units=1/GPa)
#
#
# Indices 1 2 3 4 5 6 
#
# 1 0.009804 -0.007769 -0.000450 0.003490 0.004411 0.001386
# 2 -0.007769 0.029189 -0.006176 -0.025078 -0.011420 0.000132
# 3 -0.000450 -0.006176 0.012596 0.015572 0.007302 0.000394
# 4 0.003490 -0.025078 0.015572 0.075420 0.019264 -0.000797
# 5 0.004411 -0.011420 0.007302 0.019264 0.029904 -0.002112
# 6 0.001386 0.000132 0.000394 -0.000797 -0.002112 0.022019
#
#
# Mechanical properties :
#
#
# Convention : Reuss Voigt Hill
#
# Bulk Modulus (GPa) = 43.86205 54.61168 49.23687
# Shear Modulus (GPa) = 23.22117 39.46688 31.34402
#
# Velocity S-wave (km/s) = 3.12737 4.07712 3.63341
# Velocity P-wave (km/s) = 5.61379 6.72053 6.19194
#
# Compressibility (1/GPa) = 0.02279875
#
# Stress axis : x y z
#
# Youngs Moduli (GPa) = 102.00426 34.25914 79.39102
#
# Poissons Ratio (x) = 0.26616 0.03572
# Poissons Ratio (y) = 0.79248 0.49031
# Poissons Ratio (z) = 0.04590 0.21158
#
# Static dielectric constant tensor:
#      x y z
#    x 4.483920 -0.131220 0.174250 
#    y -0.131220 4.385720 -0.486070 
#    z 0.174250 -0.486070 4.999700 
# 
# 
# High freq. dielectric constant tensor:
#      x y z
#    x 1.961740 -0.001590 0.000270 
#    y -0.001590 1.940110 -0.001090 
#    z 0.000270 -0.001090 1.940090 
# 
# From -- ./inp_files/48285.got.cif
#   From: 2010.06.25/outbox.cif.g09.slc.cpg/sg2_25_cif.got.tgz:48285.got - 2010.06.27 13:26:56.
