data_PCOD8024998
_publ_section_title
;
Structure prediction by ZEFSAII (Michael W. Deem and Ramdas Pophale) SiO2 
 PCOD8024998
Probable space group: P -1
;
_chemical_formula_sum "Si O2"
_cell_formula_units_Z 14
_cell_length_a 7.693186
_cell_length_b 14.397434
_cell_length_c 7.884011
_cell_angle_alpha 106.340164
_cell_angle_beta 130.398070
_cell_angle_gamma 79.564321
_cell_volume 638.169681
_symmetry_space_group_name_H-M "P -1"
_symmetry_group_IT_number 2
_symmetry_cell_setting 'triclinic'
loop_
_space_group_symop_operation_xyz
x,y,z
-x,-y,-z
loop_
_atom_site_type_symbol
_atom_site_label
_atom_site_fract_x
_atom_site_fract_y
_atom_site_fract_z
Si Si1 0.869241 0.833037 0.805203
Si Si2 0.245051 0.540046 0.875722
Si Si3 0.218309 0.196962 0.631442
Si Si4 0.371706 0.097988 0.006102
Si Si5 0.448820 0.740385 0.597186
Si Si6 0.901728 0.380028 0.535671
Si Si7 0.693765 0.260618 0.851804
O O1 0.819634 0.866570 0.597423
O O2 0.716082 0.735290 0.702645
O O3 0.794221 0.914526 0.938788
O O4 0.132023 0.806881 0.972339
O O5 0.067572 0.455724 0.775771
O O6 0.152277 0.585246 0.667277
O O7 0.500000 0.500000 0.000000
O O8 0.238324 0.625773 0.052969
O O9 0.221769 0.128184 0.763039
O O10 0.017691 0.274745 0.559133
O O11 0.457290 0.253269 0.799396
O O12 0.561593 0.180193 0.216153
O O13 0.500000 0.000000 0.000000
O O14 0.311061 0.777356 0.363616
O O15 0.344025 0.637082 0.536193
#
# Coordination Sequence:
#
# PCOD8024998 Si02
#       7
#     2   2   2   2   2   2   2
#     4   9  22  39  64  93 125 170 209 256 327 381
#     4  11  23  35  63  95 127 165 221 260 297 377
#     4  11  21  39  70  87 131 175 203 257 328 374
#     4  10  23  44  67  95 126 162 217 268 314 385
#     4   9  23  39  63  89 126 166 210 256 329 373
#     4  11  22  39  62  96 124 170 216 255 315 372
#     4  11  20  42  62  92 131 169 211 259 317 378
#
# _framework density 21.937740999999999
#
# number of rings (size 3 to 8) (size 9 to 14) (size 15 to 20)
#    0.857    0.857    2.857    1.714    0.000    1.143 
#    0.000    5.000    0.000    0.000    0.000    0.000 
#    0.000    0.000    0.000    0.000    0.000    0.000 
#
# Total GULP energy -173434.810703 kJ/mol
# GULP energy per Si atom -12388.200764 kJ/mol
# Density = 2.188781 g / cm^3
# Si number density = 21.937741 Si / 1000 Ang^3
#
#
#
# Elastic Constant Matrix: (Units=GPa)
#
#
# Indices 1 2 3 4 5 6 
#
# 1 35.1416 -4.9232 23.2537 -4.1023 -16.5635 -6.4033
# 2 -4.9232 64.0763 32.6914 -17.5272 -14.8558 -20.6089
# 3 23.2537 32.6914 115.0345 -13.3581 -22.2029 -8.7142
# 4 -4.1023 -17.5272 -13.3581 27.9910 1.8922 0.6960
# 5 -16.5635 -14.8558 -22.2029 1.8922 44.0444 1.3263
# 6 -6.4033 -20.6089 -8.7142 0.6960 1.3263 29.6628
#
#
#
# Elastic Compliance Matrix: (Units=1/GPa)
#
#
# Indices 1 2 3 4 5 6 
#
# 1 0.061089 0.032322 -0.011730 0.021068 0.026138 0.030535
# 2 0.032322 0.046502 -0.010027 0.026814 0.020586 0.034791
# 3 -0.011730 -0.010027 0.013134 -0.001528 -0.000939 -0.005562
# 4 0.021068 0.026814 -0.001528 0.053458 0.013272 0.020881
# 5 0.026138 0.020586 -0.000939 0.013272 0.037902 0.017663
# 6 0.030535 0.034791 -0.005562 0.020881 0.017663 0.061562
#
#
# Mechanical properties :
#
#
# Convention : Reuss Voigt Hill
#
# Bulk Modulus (GPa) = 7.04940 35.14401 21.09671
# Shear Modulus (GPa) = 16.67771 31.22168 23.94970
#
# Velocity S-wave (km/s) = 2.76022 3.77662 3.30769
# Velocity P-wave (km/s) = 3.65770 5.92214 4.92192
#
# Compressibility (1/GPa) = 0.14185597
#
# Stress axis : x y z
#
# Youngs Moduli (GPa) = 16.36951 21.50423 76.14086
#
# Poissons Ratio (x) = -0.69506 0.89313
# Poissons Ratio (y) = -0.52910 0.76344
# Poissons Ratio (z) = 0.19201 0.21562
#
# Static dielectric constant tensor:
#      x y z
#    x 3.914250 0.085300 0.005520 
#    y 0.085300 3.545460 0.111060 
#    z 0.005520 0.111060 4.341910 
# 
# 
# High freq. dielectric constant tensor:
#      x y z
#    x 1.857240 -0.000110 0.001340 
#    y -0.000110 1.815900 -0.000290 
#    z 0.001340 -0.000290 1.886390 
# 
# From -- ./inp_files/208567.got.cif
#   From: 2010.06.25/outbox.cif.g09.slc.cpg/sg2_105_cif.got.tgz:208567.got - 2010.06.27 13:26:56.
