data_PCOD8024457
_publ_section_title
;
Structure prediction by ZEFSAII (Michael W. Deem and Ramdas Pophale) SiO2 
 PCOD8024457
Probable space group: P -1
;
_chemical_formula_sum "Si O2"
_cell_formula_units_Z 14
_cell_length_a 11.857839
_cell_length_b 8.138798
_cell_length_c 10.618520
_cell_angle_alpha 92.633195
_cell_angle_beta 135.789473
_cell_angle_gamma 70.191624
_cell_volume 641.280285
_symmetry_space_group_name_H-M "P -1"
_symmetry_group_IT_number 2
_symmetry_cell_setting 'triclinic'
loop_
_space_group_symop_operation_xyz
x,y,z
-x,-y,-z
loop_
_atom_site_type_symbol
_atom_site_label
_atom_site_fract_x
_atom_site_fract_y
_atom_site_fract_z
Si Si1 0.720724 0.229036 0.873759
Si Si2 0.641666 0.796170 0.075352
Si Si3 0.971167 0.257442 0.542559
Si Si4 0.426210 0.371046 0.210641
Si Si5 0.620233 0.564734 0.260551
Si Si6 0.637440 0.075821 0.564628
Si Si7 0.978265 0.926222 0.682671
O O1 0.726205 0.426129 0.864003
O O2 0.515122 0.270728 0.752185
O O3 0.752799 0.111780 0.769089
O O4 0.865806 0.117189 0.091107
O O5 0.830135 0.773813 0.274275
O O6 0.593977 0.647935 0.103126
O O7 0.652405 0.750675 0.933169
O O8 0.500000 0.000000 0.000000
O O9 0.950029 0.222383 0.376314
O O10 0.831681 0.469870 0.466062
O O11 0.923940 0.126226 0.589592
O O12 0.563841 0.397433 0.222998
O O13 0.521288 0.266956 0.409098
O O14 0.500000 0.000000 0.500000
O O15 0.794437 0.931898 0.595411
#
# Coordination Sequence:
#
# PCOD8024457 Si02
#       7
#     2   2   2   2   2   2   2
#     4  10  24  43  70  90 136 181 220 263 330 399
#     4  12  24  38  67 105 135 168 220 277 332 394
#     4  11  24  39  70 100 139 165 216 278 341 398
#     4  10  24  43  66  94 134 177 216 266 340 389
#     4  10  23  43  67  96 139 174 212 266 350 393
#     4  12  26  45  69  97 129 180 234 274 315 386
#     4  11  23  43  67 101 130 176 216 276 341 389
#
# _framework density 21.831327999999999
#
# number of rings (size 3 to 8) (size 9 to 14) (size 15 to 20)
#    0.857    0.286    1.429    4.286   10.000    0.000 
#    0.000    0.714    0.000    0.000    0.000    0.000 
#    0.000    0.000    0.000    0.000    0.000    0.000 
#
# Total GULP energy -173477.804105 kJ/mol
# GULP energy per Si atom -12391.271722 kJ/mol
# Density = 2.178164 g / cm^3
# Si number density = 21.831328 Si / 1000 Ang^3
#
#
#
# Elastic Constant Matrix: (Units=GPa)
#
#
# Indices 1 2 3 4 5 6 
#
# 1 110.5590 35.5142 41.3731 -14.6193 -3.6129 1.9433
# 2 35.5142 73.5038 38.4686 -7.6535 4.0329 -3.3315
# 3 41.3731 38.4686 135.0702 -1.2518 -5.3242 0.9980
# 4 -14.6193 -7.6535 -1.2518 39.7244 -9.0210 7.1727
# 5 -3.6129 4.0329 -5.3242 -9.0210 19.4395 -4.4790
# 6 1.9433 -3.3315 0.9980 7.1727 -4.4790 26.9732
#
#
#
# Elastic Compliance Matrix: (Units=1/GPa)
#
#
# Indices 1 2 3 4 5 6 
#
# 1 0.012148 -0.004543 -0.002194 0.004876 0.004421 -0.001918
# 2 -0.004543 0.018305 -0.004039 0.000212 -0.005232 0.001812
# 3 -0.002194 -0.004039 0.009325 -0.000677 0.002655 -0.000065
# 4 0.004876 0.000212 -0.000677 0.031246 0.013718 -0.006331
# 5 0.004421 -0.005232 0.002655 0.013718 0.061718 0.005538
# 6 -0.001918 0.001812 -0.000065 -0.006331 0.005538 0.040041
#
#
# Mechanical properties :
#
#
# Convention : Reuss Voigt Hill
#
# Bulk Modulus (GPa) = 54.86750 61.09389 57.98070
# Shear Modulus (GPa) = 24.94875 30.81256 27.88066
#
# Velocity S-wave (km/s) = 3.38419 3.76093 3.57752
# Velocity P-wave (km/s) = 6.36061 6.84870 6.60916
#
# Compressibility (1/GPa) = 0.01822573
#
# Stress axis : x y z
#
# Youngs Moduli (GPa) = 82.31677 54.62918 107.24124
#
# Poissons Ratio (x) = 0.24819 0.23524
# Poissons Ratio (y) = 0.37399 0.43320
# Poissons Ratio (z) = 0.18057 0.22067
#
# Static dielectric constant tensor:
#      x y z
#    x 3.915340 0.027240 -0.117560 
#    y 0.027240 3.760890 -0.208600 
#    z -0.117560 -0.208600 3.883460 
# 
# 
# High freq. dielectric constant tensor:
#      x y z
#    x 1.846710 -0.002360 -0.004570 
#    y -0.002360 1.849430 -0.018090 
#    z -0.004570 -0.018090 1.866250 
# 
# From -- ./inp_files/244758.got.cif
#   From: 2010.06.25/outbox.cif.g09.slc.cpg/sg2_123_cif.got.tgz:244758.got - 2010.06.27 13:26:56.
