data_PCOD8024105
_publ_section_title
;
Structure prediction by ZEFSAII (Michael W. Deem and Ramdas Pophale) SiO2 
 PCOD8024105
Probable space group: P -1
;
_chemical_formula_sum "Si O2"
_cell_formula_units_Z 16
_cell_length_a 9.264268
_cell_length_b 11.677969
_cell_length_c 8.861169
_cell_angle_alpha 105.902240
_cell_angle_beta 123.057248
_cell_angle_gamma 65.315316
_cell_volume 728.719761
_symmetry_space_group_name_H-M "P -1"
_symmetry_group_IT_number 2
_symmetry_cell_setting 'triclinic'
loop_
_space_group_symop_operation_xyz
x,y,z
-x,-y,-z
loop_
_atom_site_type_symbol
_atom_site_label
_atom_site_fract_x
_atom_site_fract_y
_atom_site_fract_z
Si Si1 0.540537 0.710341 0.261304
Si Si2 0.349973 0.055194 0.560701
Si Si3 0.584968 0.093346 0.165498
Si Si4 0.145129 0.561587 0.148938
Si Si5 0.479618 0.363611 0.112583
Si Si6 0.340571 0.515907 0.535822
Si Si7 0.870283 0.190494 0.911268
Si Si8 0.039506 0.923655 0.774799
O O1 0.640238 0.812385 0.321654
O O2 0.646429 0.613421 0.416599
O O3 0.340490 0.787764 0.238400
O O4 0.522814 0.636342 0.070788
O O5 0.138606 0.085470 0.411746
O O6 0.500000 0.000000 0.500000
O O7 0.408239 0.940861 0.669393
O O8 0.450957 0.236400 0.112809
O O9 0.787769 0.088844 0.235524
O O10 0.500000 0.000000 0.000000
O O11 0.328483 0.489758 0.134737
O O12 0.162412 0.558917 0.341430
O O13 0.067808 0.704312 0.098272
O O14 0.000000 0.500000 0.000000
O O15 0.663202 0.378487 0.300011
O O16 0.500000 0.500000 0.500000
O O17 0.999021 0.058658 0.875815
O O18 0.898510 0.188944 0.107468
#
# Coordination Sequence:
#
# PCOD8024105 Si02
#       8
#     2   2   2   2   2   2   2   2
#     4  12  22  46  68 103 136 181 241 279 357 414
#     4  12  27  42  71 104 143 187 232 294 351 429
#     4  12  26  47  70 105 138 186 238 291 361 413
#     4  11  27  44  68 104 138 182 231 295 353 419
#     4  11  24  44  72  97 134 181 233 289 345 417
#     4  10  23  42  70  97 129 183 228 279 347 417
#     4  11  23  44  70  99 141 183 234 286 356 415
#     4  11  26  44  71 102 143 186 231 298 344 431
#
# _framework density 21.956316000000001
#
# number of rings (size 3 to 8) (size 9 to 14) (size 15 to 20)
#    0.000    0.750    6.250    0.750   10.500    0.000 
#    2.250    0.625    0.000    0.000    0.000    0.000 
#    0.000    0.000    0.000    0.000    0.000    0.000 
#
# Total GULP energy -198326.442480 kJ/mol
# GULP energy per Si atom -12395.402655 kJ/mol
# Density = 2.190634 g / cm^3
# Si number density = 21.956316 Si / 1000 Ang^3
#
#
#
# Elastic Constant Matrix: (Units=GPa)
#
#
# Indices 1 2 3 4 5 6 
#
# 1 77.8147 14.0253 51.6410 -4.9489 -7.6215 12.3527
# 2 14.0253 98.2517 36.5685 -14.1077 -14.2431 24.1193
# 3 51.6410 36.5685 146.4142 -6.9949 -10.2158 21.6921
# 4 -4.9489 -14.1077 -6.9949 42.7971 13.4574 -10.9631
# 5 -7.6215 -14.2431 -10.2158 13.4574 46.3456 -1.8278
# 6 12.3527 24.1193 21.6921 -10.9631 -1.8278 35.6849
#
#
#
# Elastic Compliance Matrix: (Units=1/GPa)
#
#
# Indices 1 2 3 4 5 6 
#
# 1 0.017098 0.000586 -0.005649 0.000019 0.001631 -0.002792
# 2 0.000586 0.013332 -0.002174 0.001264 0.003058 -0.007347
# 3 -0.005649 -0.002174 0.009777 -0.000664 0.000645 -0.002689
# 4 0.000019 0.001264 -0.000664 0.028056 -0.007595 0.007773
# 5 0.001631 0.003058 0.000645 -0.007595 0.024972 -0.004077
# 6 -0.002792 -0.007347 -0.002689 0.007773 -0.004077 0.037769
#
#
# Mechanical properties :
#
#
# Convention : Reuss Voigt Hill
#
# Bulk Modulus (GPa) = 38.85972 58.55001 48.70486
# Shear Modulus (GPa) = 32.45592 39.64858 36.05225
#
# Velocity S-wave (km/s) = 3.84891 4.25407 4.05655
# Velocity P-wave (km/s) = 6.12285 7.13120 6.64617
#
# Compressibility (1/GPa) = 0.02573359
#
# Stress axis : x y z
#
# Youngs Moduli (GPa) = 58.48546 75.00832 102.28085
#
# Poissons Ratio (x) = -0.04397 0.57775
# Poissons Ratio (y) = -0.03428 0.22238
# Poissons Ratio (z) = 0.33037 0.16309
#
# Static dielectric constant tensor:
#      x y z
#    x 3.843570 0.686540 -0.451540 
#    y 0.686540 7.195840 -2.487690 
#    z -0.451540 -2.487690 6.313030 
# 
# 
# High freq. dielectric constant tensor:
#      x y z
#    x 1.846610 0.018310 -0.006860 
#    y 0.018310 1.872240 -0.003790 
#    z -0.006860 -0.003790 1.878450 
# 
# From -- ./inp_files/188788.got.cif
#   From: 2010.06.25/outbox.cif.g09.slc.cpg/sg2_95_cif.got.tgz:188788.got - 2010.06.27 13:26:56.
