data_PCOD8024843
_publ_section_title
;
Structure prediction by ZEFSAII (Michael W. Deem and Ramdas Pophale) SiO2 
 PCOD8024843
Probable space group: P -1
;
_chemical_formula_sum "Si O2"
_cell_formula_units_Z 16
_cell_length_a 16.093368
_cell_length_b 9.008045
_cell_length_c 7.155105
_cell_angle_alpha 108.091006
_cell_angle_beta 136.158523
_cell_angle_gamma 86.555883
_cell_volume 661.468080
_symmetry_space_group_name_H-M "P -1"
_symmetry_group_IT_number 2
_symmetry_cell_setting 'triclinic'
loop_
_space_group_symop_operation_xyz
x,y,z
-x,-y,-z
loop_
_atom_site_type_symbol
_atom_site_label
_atom_site_fract_x
_atom_site_fract_y
_atom_site_fract_z
Si Si1 0.111719 0.268002 0.799176
Si Si2 0.784391 0.995916 0.968413
Si Si3 0.871622 0.626469 0.560163
Si Si4 0.656246 0.722183 0.428503
Si Si5 0.681685 0.447884 0.780942
Si Si6 0.835367 0.267595 0.435960
Si Si7 0.147821 0.757773 0.125401
Si Si8 0.523420 0.591970 0.832952
O O1 0.118558 0.302435 0.603567
O O2 0.981427 0.284880 0.667235
O O3 0.125201 0.091229 0.806237
O O4 0.229016 0.401403 0.132409
O O5 0.660420 0.864705 0.642478
O O6 0.851686 0.077426 0.919029
O O7 0.755820 0.126755 0.117425
O O8 0.798201 0.724399 0.609764
O O9 0.806735 0.434982 0.390391
O O10 0.009075 0.649302 0.874545
O O11 0.583225 0.547266 0.306426
O O12 0.579992 0.742284 0.121919
O O13 0.766652 0.324061 0.901321
O O14 0.641567 0.523852 0.936217
O O15 0.550812 0.353464 0.437417
O O16 0.793006 0.220388 0.562554
#
# Coordination Sequence:
#
# PCOD8024843 Si02
#       8
#     2   2   2   2   2   2   2   2
#     4  12  23  42  71 105 150 189 227 291 358 433
#     4  12  28  45  66 109 154 190 229 293 366 431
#     4  12  24  44  78 108 145 185 244 291 357 435
#     4  11  24  44  72 105 137 191 244 293 351 422
#     4  11  22  46  73 104 131 188 251 295 344 420
#     4  12  26  44  70 108 153 186 230 295 364 432
#     4  12  27  45  74 108 150 189 232 293 371 429
#     4  10  23  43  76  97 136 186 260 292 336 415
#
# _framework density 24.188621000000001
#
# number of rings (size 3 to 8) (size 9 to 14) (size 15 to 20)
#    0.000    0.500    5.000    3.375    1.750    1.000 
#    0.000    1.250    0.000    0.000    0.000    0.000 
#    0.000    0.000    0.000    0.000    0.000    0.000 
#
# Total GULP energy -198276.835587 kJ/mol
# GULP energy per Si atom -12392.302224 kJ/mol
# Density = 2.413357 g / cm^3
# Si number density = 24.188621 Si / 1000 Ang^3
#
#
#
# Elastic Constant Matrix: (Units=GPa)
#
#
# Indices 1 2 3 4 5 6 
#
# 1 80.6475 25.7372 23.2353 -4.9158 -7.8588 5.4505
# 2 25.7372 116.9366 24.1541 2.1631 -16.7267 15.5074
# 3 23.2353 24.1541 137.6014 24.1935 -16.3222 -14.4391
# 4 -4.9158 2.1631 24.1935 30.5952 -8.0564 -11.9538
# 5 -7.8588 -16.7267 -16.3222 -8.0564 46.6124 -12.2099
# 6 5.4505 15.5074 -14.4391 -11.9538 -12.2099 29.9044
#
#
#
# Elastic Compliance Matrix: (Units=1/GPa)
#
#
# Indices 1 2 3 4 5 6 
#
# 1 0.014425 -0.002493 -0.002713 0.004990 0.001433 -0.000066
# 2 -0.002493 0.010407 -0.001601 -0.002117 0.000749 -0.006256
# 3 -0.002713 -0.001601 0.009814 -0.005367 0.002803 0.005062
# 4 0.004990 -0.002117 -0.005367 0.050241 0.012896 0.022946
# 5 0.001433 0.000749 0.002803 0.012896 0.029908 0.018070
# 6 -0.000066 -0.006256 0.005062 0.022946 0.018070 0.055691
#
#
# Mechanical properties :
#
#
# Convention : Reuss Voigt Hill
#
# Bulk Modulus (GPa) = 47.54660 53.49321 50.51990
# Shear Modulus (GPa) = 26.16284 38.89299 32.52792
#
# Velocity S-wave (km/s) = 3.29236 4.01422 3.67108
# Velocity P-wave (km/s) = 5.84398 6.60669 6.23700
#
# Compressibility (1/GPa) = 0.02103200
#
# Stress axis : x y z
#
# Youngs Moduli (GPa) = 69.32359 96.08885 101.89687
#
# Poissons Ratio (x) = 0.23957 0.27641
# Poissons Ratio (y) = 0.17284 0.16316
# Poissons Ratio (z) = 0.18805 0.15386
#
# Static dielectric constant tensor:
#      x y z
#    x 4.374560 0.136670 -0.253690 
#    y 0.136670 4.140930 -0.023240 
#    z -0.253690 -0.023240 5.167120 
# 
# 
# High freq. dielectric constant tensor:
#      x y z
#    x 1.953770 0.010710 -0.018450 
#    y 0.010710 1.935080 -0.008990 
#    z -0.018450 -0.008990 1.978050 
# 
# From -- ./inp_files/329349.got.cif
#   From: 2010.06.25/outbox.cif.g09.slc.cpg/sg2_165_cif.got.tgz:329349.got - 2010.06.27 13:26:56.
