data_PCOD8024077
_publ_section_title
;
Structure prediction by ZEFSAII (Michael W. Deem and Ramdas Pophale) SiO2 
 PCOD8024077
Probable space group: P -1
;
_chemical_formula_sum "Si O2"
_cell_formula_units_Z 10
_cell_length_a 11.729008
_cell_length_b 15.956557
_cell_length_c 15.466189
_cell_angle_alpha 161.446542
_cell_angle_beta 153.474083
_cell_angle_gamma 26.235194
_cell_volume 386.361605
_symmetry_space_group_name_H-M "P -1"
_symmetry_group_IT_number 2
_symmetry_cell_setting 'triclinic'
loop_
_space_group_symop_operation_xyz
x,y,z
-x,-y,-z
loop_
_atom_site_type_symbol
_atom_site_label
_atom_site_fract_x
_atom_site_fract_y
_atom_site_fract_z
Si Si1 0.904454 0.260656 0.916083
Si Si2 0.693132 0.679287 0.314044
Si Si3 0.712762 0.105145 0.052847
Si Si4 0.856252 0.805939 0.167446
Si Si5 0.314610 0.353802 0.537076
O O1 0.885336 0.559244 0.242574
O O2 0.623548 0.246958 0.676862
O O3 0.014975 0.010834 0.817832
O O4 0.119824 0.201281 0.926837
O O5 0.858417 0.582929 0.425592
O O6 0.500000 0.000000 0.500000
O O7 0.500000 0.500000 0.000000
O O8 0.459772 0.096569 0.929110
O O9 0.738948 0.911205 0.798155
O O10 0.703847 0.407223 0.311435
O O11 0.000000 0.000000 0.500000
O O12 0.000000 0.500000 0.000000
#
# Coordination Sequence:
#
# PCOD8024077 Si02
#       5
#     2   2   2   2   2
#     4  11  25  45  72  98 141 180 228 279 340 399
#     4  10  23  42  70 100 135 182 222 274 340 403
#     4  12  25  43  71 104 132 182 228 275 343 407
#     4  12  24  45  70  96 138 181 222 286 339 398
#     4  11  24  45  67 100 144 172 226 281 334 401
#
# _framework density 25.882487999999999
#
# number of rings (size 3 to 8) (size 9 to 14) (size 15 to 20)
#    0.000    0.800    4.000    3.000    0.000    8.000 
#    0.000    4.000    0.000    0.000    0.000    0.000 
#    0.000    0.000    0.000    0.000    0.000    0.000 
#
# Total GULP energy -123976.000974 kJ/mol
# GULP energy per Si atom -12397.600097 kJ/mol
# Density = 2.582358 g / cm^3
# Si number density = 25.882488 Si / 1000 Ang^3
#
#
#
# Elastic Constant Matrix: (Units=GPa)
#
#
# Indices 1 2 3 4 5 6 
#
# 1 168.7816 27.1730 30.9929 -15.7703 -31.1993 -1.2746
# 2 27.1730 143.4918 39.1319 5.3846 -8.4513 27.1519
# 3 30.9929 39.1319 123.4562 7.6233 -16.9493 -0.7634
# 4 -15.7703 5.3846 7.6233 45.0830 -5.4508 4.8457
# 5 -31.1993 -8.4513 -16.9493 -5.4508 49.1062 -6.3659
# 6 -1.2746 27.1519 -0.7634 4.8457 -6.3659 56.4032
#
#
#
# Elastic Compliance Matrix: (Units=1/GPa)
#
#
# Indices 1 2 3 4 5 6 
#
# 1 0.007503 -0.001158 -0.001076 0.003411 0.004698 0.000950
# 2 -0.001158 0.008670 -0.002546 -0.000642 -0.000747 -0.004263
# 3 -0.001076 -0.002546 0.009594 -0.001610 0.002234 0.001722
# 4 0.003411 -0.000642 -0.001610 0.024348 0.004039 -0.001272
# 5 0.004698 -0.000747 0.002234 0.004039 0.024822 0.002950
# 6 0.000950 -0.004263 0.001722 -0.001272 0.002950 0.020269
#
#
# Mechanical properties :
#
#
# Convention : Reuss Voigt Hill
#
# Bulk Modulus (GPa) = 61.70983 70.03615 65.87299
# Shear Modulus (GPa) = 45.38429 52.68059 49.03244
#
# Velocity S-wave (km/s) = 4.19199 4.51641 4.35722
# Velocity P-wave (km/s) = 6.87928 7.36989 7.12881
#
# Compressibility (1/GPa) = 0.01620487
#
# Stress axis : x y z
#
# Youngs Moduli (GPa) = 133.27535 115.34458 104.23062
#
# Poissons Ratio (x) = 0.13362 0.11217
# Poissons Ratio (y) = 0.15439 0.26542
# Poissons Ratio (z) = 0.14343 0.29372
#
# Static dielectric constant tensor:
#      x y z
#    x 3.716670 0.303190 0.242500 
#    y 0.303190 5.218050 -0.639260 
#    z 0.242500 -0.639260 5.134850 
# 
# 
# High freq. dielectric constant tensor:
#      x y z
#    x 2.058290 -0.003030 -0.005700 
#    y -0.003030 2.065520 -0.013060 
#    z -0.005700 -0.013060 2.050360 
# 
# From -- ./inp_files/31020.got.cif
#   From: 2010.06.25/outbox.cif.g09.slc.cpg/sg2_16_cif.got.tgz:31020.got - 2010.06.27 13:26:56.
