data_PCOD8024743
_publ_section_title
;
Structure prediction by ZEFSAII (Michael W. Deem and Ramdas Pophale) SiO2 
 PCOD8024743
Probable space group: P -1
;
_chemical_formula_sum "Si O2"
_cell_formula_units_Z 14
_cell_length_a 11.801850
_cell_length_b 11.945799
_cell_length_c 9.222135
_cell_angle_alpha 36.925358
_cell_angle_beta 60.382054
_cell_angle_gamma 52.288570
_cell_volume 617.893990
_symmetry_space_group_name_H-M "P -1"
_symmetry_group_IT_number 2
_symmetry_cell_setting 'triclinic'
loop_
_space_group_symop_operation_xyz
x,y,z
-x,-y,-z
loop_
_atom_site_type_symbol
_atom_site_label
_atom_site_fract_x
_atom_site_fract_y
_atom_site_fract_z
Si Si1 0.601866 0.120753 0.812579
Si Si2 0.446403 0.803267 0.903512
Si Si3 0.879380 0.370506 0.553165
Si Si4 0.069899 0.997665 0.305129
Si Si5 0.323814 0.207365 0.429117
Si Si6 0.043564 0.614731 0.193152
Si Si7 0.431775 0.417412 0.374157
O O1 0.772269 0.999092 0.796731
O O2 0.550888 0.302887 0.538305
O O3 0.582435 0.201910 0.903289
O O4 0.500000 0.000000 0.000000
O O5 0.592584 0.824108 0.744301
O O6 0.316800 0.992892 0.706641
O O7 0.464509 0.575161 0.084537
O O8 0.936972 0.188355 0.589794
O O9 0.958838 0.300565 0.730713
O O10 0.711227 0.445926 0.590413
O O11 0.905807 0.570622 0.285441
O O12 0.000000 0.000000 0.500000
O O13 0.954931 0.210080 0.092804
O O14 0.172571 0.393686 0.314679
O O15 0.416489 0.249268 0.454051
#
# Coordination Sequence:
#
# PCOD8024743 Si02
#       7
#     2   2   2   2   2   2   2
#     4  12  25  44  69  97 140 181 224 272 339 404
#     4  11  23  41  67  97 130 166 225 276 336 387
#     4  10  23  43  71  98 129 179 231 275 341 401
#     4  12  28  45  66 103 140 181 229 277 338 414
#     4  10  24  42  66 103 128 167 221 290 329 392
#     4  10  24  44  71  95 138 176 224 280 345 404
#     4  11  22  42  69  97 130 175 222 275 330 402
#
# _framework density 22.657608
#
# number of rings (size 3 to 8) (size 9 to 14) (size 15 to 20)
#    0.000    1.143    2.857    2.143    6.000    4.000 
#    0.000    0.000    0.000    0.000    0.000    0.000 
#    0.000    0.000    0.000    0.000    0.000    0.000 
#
# Total GULP energy -173446.348621 kJ/mol
# GULP energy per Si atom -12389.024901 kJ/mol
# Density = 2.260604 g / cm^3
# Si number density = 22.657608 Si / 1000 Ang^3
#
#
#
# Elastic Constant Matrix: (Units=GPa)
#
#
# Indices 1 2 3 4 5 6 
#
# 1 79.7942 35.0243 34.3880 1.2994 -2.6402 -5.6860
# 2 35.0243 99.9152 71.9651 6.2077 1.9238 -0.2695
# 3 34.3880 71.9651 144.0463 -9.5827 10.0914 0.8994
# 4 1.2994 6.2077 -9.5827 39.9746 -6.8628 -0.8727
# 5 -2.6402 1.9238 10.0914 -6.8628 23.4453 -2.7150
# 6 -5.6860 -0.2695 0.8994 -0.8727 -2.7150 12.0388
#
#
#
# Elastic Compliance Matrix: (Units=1/GPa)
#
#
# Indices 1 2 3 4 5 6 
#
# 1 0.016007 -0.004263 -0.002000 0.000567 0.004175 0.008597
# 2 -0.004263 0.017593 -0.008071 -0.004546 0.000065 -0.001331
# 3 -0.002000 -0.008071 0.011979 0.003441 -0.004022 -0.002678
# 4 0.000567 -0.004546 0.003441 0.027903 0.007544 0.003633
# 5 0.004175 0.000065 -0.004022 0.007544 0.048654 0.013793
# 6 0.008597 -0.001331 -0.002678 0.003633 0.013793 0.090669
#
#
# Mechanical properties :
#
#
# Convention : Reuss Voigt Hill
#
# Bulk Modulus (GPa) = 59.12869 67.39007 63.25938
# Shear Modulus (GPa) = 20.23398 27.25031 23.74214
#
# Velocity S-wave (km/s) = 2.99161 3.47176 3.24059
# Velocity P-wave (km/s) = 6.17140 6.77334 6.47937
#
# Compressibility (1/GPa) = 0.01691226
#
# Stress axis : x y z
#
# Youngs Moduli (GPa) = 62.47368 56.83974 83.47869
#
# Poissons Ratio (x) = 0.24230 0.16696
# Poissons Ratio (y) = 0.26632 0.67372
# Poissons Ratio (z) = 0.12495 0.45873
#
# Static dielectric constant tensor:
#      x y z
#    x 4.087670 0.058270 -0.214180 
#    y 0.058270 4.080020 -0.122690 
#    z -0.214180 -0.122690 4.386390 
# 
# 
# High freq. dielectric constant tensor:
#      x y z
#    x 1.876910 0.000970 -0.009710 
#    y 0.000970 1.899290 -0.007690 
#    z -0.009710 -0.007690 1.909130 
# 
# From -- ./inp_files/261281.got.cif
#   From: 2010.06.25/outbox.cif.g09.slc.cpg/sg2_131_cif.got.tgz:261281.got - 2010.06.27 13:26:56.
