data_PCOD8024178
_publ_section_title
;
Structure prediction by ZEFSAII (Michael W. Deem and Ramdas Pophale) SiO2 
 PCOD8024178
Probable space group: P -1
;
_chemical_formula_sum "Si O2"
_cell_formula_units_Z 14
_cell_length_a 11.524700
_cell_length_b 5.446396
_cell_length_c 14.192712
_cell_angle_alpha 49.960053
_cell_angle_beta 66.332322
_cell_angle_gamma 91.149670
_cell_volume 573.353198
_symmetry_space_group_name_H-M "P -1"
_symmetry_group_IT_number 2
_symmetry_cell_setting 'triclinic'
loop_
_space_group_symop_operation_xyz
x,y,z
-x,-y,-z
loop_
_atom_site_type_symbol
_atom_site_label
_atom_site_fract_x
_atom_site_fract_y
_atom_site_fract_z
Si Si1 0.884391 0.454185 0.384057
Si Si2 0.612925 0.437137 0.418259
Si Si3 0.169575 0.896060 0.219400
Si Si4 0.263320 0.276503 0.288253
Si Si5 0.997578 0.371417 0.895925
Si Si6 0.792040 0.465862 0.060390
Si Si7 0.524372 0.304421 0.284837
O O1 0.768170 0.614835 0.365944
O O2 0.962003 0.451234 0.262201
O O3 0.006178 0.722381 0.344075
O O4 0.826852 0.065783 0.538926
O O5 0.500000 0.500000 0.500000
O O6 0.611648 0.558585 0.279431
O O7 0.577552 0.027427 0.541712
O O8 0.218274 0.588210 0.253089
O O9 0.252996 0.151896 0.213594
O O10 0.189854 0.129956 0.059766
O O11 0.426151 0.436639 0.223594
O O12 0.844993 0.358549 0.972377
O O13 0.115608 0.609765 0.870784
O O14 0.000000 0.000000 0.000000
O O15 0.632023 0.234417 0.196326
#
# Coordination Sequence:
#
# PCOD8024178 Si02
#       7
#     2   2   2   2   2   2   2
#     4  11  23  46  76 105 141 182 245 307 359 420
#     4  10  23  42  72 104 141 182 235 305 365 422
#     4  12  26  49  71 108 146 196 244 291 355 433
#     4  11  28  48  73 105 146 198 245 292 352 431
#     4  11  23  43  67 111 140 180 234 301 370 421
#     4  11  25  42  73 101 147 188 235 296 364 435
#     4  10  24  45  66 107 143 187 241 291 365 429
#
# _framework density 24.417757000000002
#
# number of rings (size 3 to 8) (size 9 to 14) (size 15 to 20)
#    0.000    1.143    2.857    1.714    6.000    2.286 
#    5.143    0.000    0.000    0.000    0.000    0.000 
#    0.000    0.000    0.000    0.000    0.000    0.000 
#
# Total GULP energy -173461.580454 kJ/mol
# GULP energy per Si atom -12390.112890 kJ/mol
# Density = 2.436218 g / cm^3
# Si number density = 24.417757 Si / 1000 Ang^3
#
#
#
# Elastic Constant Matrix: (Units=GPa)
#
#
# Indices 1 2 3 4 5 6 
#
# 1 174.5413 51.6826 23.3405 15.7939 -18.7506 -7.3513
# 2 51.6826 96.0079 9.9271 19.1310 0.5920 -8.8552
# 3 23.3405 9.9271 94.2949 19.4675 -2.8040 -3.4420
# 4 15.7939 19.1310 19.4675 38.8371 -6.5239 -5.7199
# 5 -18.7506 0.5920 -2.8040 -6.5239 43.4224 11.7364
# 6 -7.3513 -8.8552 -3.4420 -5.7199 11.7364 18.2559
#
#
#
# Elastic Compliance Matrix: (Units=1/GPa)
#
#
# Indices 1 2 3 4 5 6 
#
# 1 0.007422 -0.004021 -0.001368 0.000027 0.003585 -0.001516
# 2 -0.004021 0.014242 0.000746 -0.005540 -0.004494 0.006583
# 3 -0.001368 0.000746 0.012087 -0.005903 -0.000935 0.000841
# 4 0.000027 -0.005540 -0.005903 0.032627 0.003473 0.004201
# 5 0.003585 -0.004494 -0.000935 0.003473 0.030322 -0.019318
# 6 -0.001516 0.006583 0.000841 0.004201 -0.019318 0.071253
#
#
# Mechanical properties :
#
#
# Convention : Reuss Voigt Hill
#
# Bulk Modulus (GPa) = 40.87532 59.41604 50.14568
# Shear Modulus (GPa) = 26.96963 38.76267 32.86615
#
# Velocity S-wave (km/s) = 3.32702 3.98864 3.67276
# Velocity P-wave (km/s) = 5.61561 6.75265 6.21021
#
# Compressibility (1/GPa) = 0.02446464
#
# Stress axis : x y z
#
# Youngs Moduli (GPa) = 134.73874 70.21438 82.73561
#
# Poissons Ratio (x) = 0.28235 0.11319
# Poissons Ratio (y) = 0.54181 -0.06175
# Poissons Ratio (z) = 0.18434 -0.05240
#
# Static dielectric constant tensor:
#      x y z
#    x 5.178540 0.345740 0.116430 
#    y 0.345740 4.277950 0.073290 
#    z 0.116430 0.073290 4.591200 
# 
# 
# High freq. dielectric constant tensor:
#      x y z
#    x 1.989080 -0.000860 0.001780 
#    y -0.000860 1.952910 0.006570 
#    z 0.001780 0.006570 1.967820 
# 
# From -- ./inp_files/510670.got.cif
#   From: 2010.06.25/outbox.cif.g09.slc.cpg/sg2_256_cif.got.tgz:510670.got - 2010.06.27 13:26:56.
