data_PCOD8024297
_publ_section_title
;
Structure prediction by ZEFSAII (Michael W. Deem and Ramdas Pophale) SiO2 
 PCOD8024297
Probable space group: P -1
;
_chemical_formula_sum "Si O2"
_cell_formula_units_Z 16
_cell_length_a 13.714060
_cell_length_b 8.781390
_cell_length_c 11.512057
_cell_angle_alpha 79.789506
_cell_angle_beta 147.072096
_cell_angle_gamma 89.094241
_cell_volume 705.701389
_symmetry_space_group_name_H-M "P -1"
_symmetry_group_IT_number 2
_symmetry_cell_setting 'triclinic'
loop_
_space_group_symop_operation_xyz
x,y,z
-x,-y,-z
loop_
_atom_site_type_symbol
_atom_site_label
_atom_site_fract_x
_atom_site_fract_y
_atom_site_fract_z
Si Si1 0.945838 0.683234 0.600942
Si Si2 0.416887 0.373684 0.784236
Si Si3 0.030242 0.989632 0.318117
Si Si4 0.231542 0.680985 0.707195
Si Si5 0.650552 0.119505 0.527969
Si Si6 0.256660 0.082169 0.124021
Si Si7 0.918677 0.558055 0.037440
Si Si8 0.483083 0.477088 0.351078
O O1 0.728365 0.731906 0.333190
O O2 0.095977 0.606675 0.659527
O O3 0.006739 0.834813 0.686291
O O4 0.941760 0.547871 0.711997
O O5 0.320346 0.556129 0.710643
O O6 0.475953 0.384501 0.706658
O O7 0.602051 0.285303 0.055588
O O8 0.104307 0.852238 0.507027
O O9 0.181600 0.979226 0.371321
O O10 0.835212 0.978302 0.070118
O O11 0.456187 0.102484 0.284096
O O12 0.635597 0.307974 0.490249
O O13 0.698681 0.053634 0.714340
O O14 0.111046 0.250238 0.004370
O O15 0.727250 0.521808 0.881146
O O16 0.000000 0.500000 0.000000
O O17 0.500000 0.500000 0.500000
#
# Coordination Sequence:
#
# PCOD8024297 Si02
#       8
#     2   2   2   2   2   2   2   2
#     4  12  26  42  67 102 134 176 230 281 335 403
#     4  11  24  46  70  96 136 181 225 285 336 398
#     4  12  25  42  69  95 138 178 224 281 345 395
#     4  11  25  46  70  96 135 180 233 279 338 403
#     4  10  23  43  64  99 134 180 224 271 339 410
#     4  10  24  42  68  95 136 180 222 275 344 404
#     4  11  23  41  66 102 135 172 229 277 336 404
#     4  11  23  40  70 100 136 176 220 281 339 402
#
# _framework density 22.672481000000001
#
# number of rings (size 3 to 8) (size 9 to 14) (size 15 to 20)
#    0.000    1.000    2.500    3.375    3.500    4.500 
#    0.000    0.000    0.000    0.000    0.000    0.000 
#    0.000    0.000    0.000    0.000    0.000    0.000 
#
# Total GULP energy -198433.324206 kJ/mol
# GULP energy per Si atom -12402.082763 kJ/mol
# Density = 2.262088 g / cm^3
# Si number density = 22.672481 Si / 1000 Ang^3
#
#
#
# Elastic Constant Matrix: (Units=GPa)
#
#
# Indices 1 2 3 4 5 6 
#
# 1 87.7394 -5.6537 32.5377 10.3617 -6.2929 0.8049
# 2 -5.6537 67.8193 35.9667 11.9597 -4.4772 6.7752
# 3 32.5377 35.9667 149.7127 19.4376 -5.5190 10.4752
# 4 10.3617 11.9597 19.4376 35.9461 1.6354 -1.7581
# 5 -6.2929 -4.4772 -5.5190 1.6354 34.6841 -2.0337
# 6 0.8049 6.7752 10.4752 -1.7581 -2.0337 24.6919
#
#
#
# Elastic Compliance Matrix: (Units=1/GPa)
#
#
# Indices 1 2 3 4 5 6 
#
# 1 0.013422 0.003621 -0.003240 -0.003442 0.002544 -0.000092
# 2 0.003621 0.018762 -0.004267 -0.005267 0.002435 -0.003631
# 3 -0.003240 -0.004267 0.008947 -0.002627 0.000251 -0.002686
# 4 -0.003442 -0.005267 -0.002627 0.032351 -0.002971 0.004731
# 5 0.002544 0.002435 0.000251 -0.002971 0.029869 0.001391
# 6 -0.000092 -0.003631 -0.002686 0.004731 0.001391 0.043089
#
#
# Mechanical properties :
#
#
# Convention : Reuss Voigt Hill
#
# Bulk Modulus (GPa) = 29.97560 47.88584 38.93072
# Shear Modulus (GPa) = 30.24228 35.22581 32.73404
#
# Velocity S-wave (km/s) = 3.65619 3.94595 3.80383
# Velocity P-wave (km/s) = 5.57436 6.47513 6.04155
#
# Compressibility (1/GPa) = 0.03336047
#
# Stress axis : x y z
#
# Youngs Moduli (GPa) = 74.50422 53.29892 111.77043
#
# Poissons Ratio (x) = -0.19301 0.36213
# Poissons Ratio (y) = -0.26980 0.47689
# Poissons Ratio (z) = 0.24139 0.22741
#
# Static dielectric constant tensor:
#      x y z
#    x 4.086790 -0.052580 0.045430 
#    y -0.052580 3.884110 -0.006020 
#    z 0.045430 -0.006020 4.212970 
# 
# 
# High freq. dielectric constant tensor:
#      x y z
#    x 1.902380 -0.000190 0.005280 
#    y -0.000190 1.877850 0.001800 
#    z 0.005280 0.001800 1.912390 
# 
# From -- ./inp_files/447562.got.cif
#   From: 2010.06.25/outbox.cif.g09.slc.cpg/sg2_224_cif.got.tgz:447562.got - 2010.06.27 13:26:56.
