data_PCOD8024256
_publ_section_title
;
Structure prediction by ZEFSAII (Michael W. Deem and Ramdas Pophale) SiO2 
 PCOD8024256
Probable space group: P -1
;
_chemical_formula_sum "Si O2"
_cell_formula_units_Z 16
_cell_length_a 18.006594
_cell_length_b 9.065111
_cell_length_c 21.225787
_cell_angle_alpha 40.421977
_cell_angle_beta 159.322961
_cell_angle_gamma 141.898267
_cell_volume 749.896155
_symmetry_space_group_name_H-M "P -1"
_symmetry_group_IT_number 2
_symmetry_cell_setting 'triclinic'
loop_
_space_group_symop_operation_xyz
x,y,z
-x,-y,-z
loop_
_atom_site_type_symbol
_atom_site_label
_atom_site_fract_x
_atom_site_fract_y
_atom_site_fract_z
Si Si1 0.264138 0.701912 0.815853
Si Si2 0.686834 0.107515 0.977243
Si Si3 0.885730 0.255404 0.453301
Si Si4 0.479085 0.986311 0.300915
Si Si5 0.491527 0.591143 0.357447
Si Si6 0.007213 0.795846 0.700768
Si Si7 0.658352 0.961698 0.584933
Si Si8 0.835429 0.836872 0.073444
O O1 0.124076 0.692740 0.644654
O O2 0.125581 0.758224 0.744097
O O3 0.300349 0.445352 0.936750
O O4 0.502216 0.906299 0.935672
O O5 0.576934 0.284729 0.798059
O O6 0.869761 0.265987 0.120389
O O7 0.809115 0.981510 0.067307
O O8 0.000000 0.500000 0.500000
O O9 0.638522 0.134623 0.323433
O O10 0.025710 0.074923 0.632130
O O11 0.431637 0.705331 0.337406
O O12 0.585279 0.050277 0.432569
O O13 0.256349 0.059260 0.094458
O O14 0.348410 0.312438 0.334911
O O15 0.752566 0.622327 0.552231
O O16 0.500000 0.000000 0.500000
O O17 0.906369 0.128713 0.743450
#
# Coordination Sequence:
#
# PCOD8024256 Si02
#       8
#     2   2   2   2   2   2   2   2
#     4  12  22  41  63  98 140 165 207 267 313 387
#     4  11  23  41  65  98 128 171 217 251 323 387
#     4  11  22  39  66  93 129 179 212 252 313 386
#     4  10  23  43  63  94 121 168 217 257 318 378
#     4  10  23  44  66  90 129 165 221 264 305 389
#     4  11  23  39  63  97 134 169 208 260 325 367
#     4  12  26  44  66  94 123 165 217 274 329 370
#     4  11  24  42  67  93 130 170 215 263 315 387
#
# _framework density 21.336288
#
# number of rings (size 3 to 8) (size 9 to 14) (size 15 to 20)
#    0.000    1.000    3.750    5.250    1.750    4.500 
#    0.000    0.000    0.000    0.000    0.000    0.000 
#    0.000    0.000    0.000    0.000    0.000    0.000 
#
# Total GULP energy -198481.207299 kJ/mol
# GULP energy per Si atom -12405.075456 kJ/mol
# Density = 2.128773 g / cm^3
# Si number density = 21.336288 Si / 1000 Ang^3
#
#
#
# Elastic Constant Matrix: (Units=GPa)
#
#
# Indices 1 2 3 4 5 6 
#
# 1 93.1947 2.5672 51.6480 1.4418 -6.8837 -6.0077
# 2 2.5672 64.5761 14.1584 -4.0742 -13.9942 1.0521
# 3 51.6480 14.1584 139.3780 12.7828 -17.6009 1.7801
# 4 1.4418 -4.0742 12.7828 18.5281 -0.1670 -1.0431
# 5 -6.8837 -13.9942 -17.6009 -0.1670 24.9753 4.5689
# 6 -6.0077 1.0521 1.7801 -1.0431 4.5689 25.6447
#
#
#
# Elastic Compliance Matrix: (Units=1/GPa)
#
#
# Indices 1 2 3 4 5 6 
#
# 1 0.014016 0.000737 -0.005660 0.003189 -0.000395 0.003846
# 2 0.000737 0.018224 -0.001287 0.004812 0.009916 -0.002057
# 3 -0.005660 -0.001287 0.010886 -0.007491 0.005962 -0.003396
# 4 0.003189 0.004812 -0.007491 0.060150 -0.002010 0.003875
# 5 -0.000395 0.009916 0.005962 -0.002010 0.051536 -0.010177
# 6 0.003846 -0.002057 -0.003396 0.003875 -0.010177 0.042186
#
#
# Mechanical properties :
#
#
# Convention : Reuss Voigt Hill
#
# Bulk Modulus (GPa) = 32.56745 48.21066 40.38905
# Shear Modulus (GPa) = 22.76288 29.08130 25.92209
#
# Velocity S-wave (km/s) = 3.26983 3.69588 3.48937
# Velocity P-wave (km/s) = 5.43624 6.39198 5.93339
#
# Compressibility (1/GPa) = 0.03070551
#
# Stress axis : x y z
#
# Youngs Moduli (GPa) = 71.34589 54.87124 91.85998
#
# Poissons Ratio (x) = -0.04042 0.51995
# Poissons Ratio (y) = -0.05256 0.11823
# Poissons Ratio (z) = 0.40384 0.07062
#
# Static dielectric constant tensor:
#      x y z
#    x 3.770570 -0.163150 -0.118150 
#    y -0.163150 4.369760 0.078990 
#    z -0.118150 0.078990 4.012590 
# 
# 
# High freq. dielectric constant tensor:
#      x y z
#    x 1.832130 -0.004210 -0.006220 
#    y -0.004210 1.836310 -0.000230 
#    z -0.006220 -0.000230 1.850060 
# 
# From -- ./inp_files/308165.got.cif
#   From: 2010.06.25/outbox.cif.g09.slc.cpg/sg2_155_cif.got.tgz:308165.got - 2010.06.27 13:26:56.
