data_PCOD8024872
_publ_section_title
;
Structure prediction by ZEFSAII (Michael W. Deem and Ramdas Pophale) SiO2 
 PCOD8024872
Probable space group: P -1
;
_chemical_formula_sum "Si O2"
_cell_formula_units_Z 16
_cell_length_a 11.561960
_cell_length_b 16.011271
_cell_length_c 9.211245
_cell_angle_alpha 119.344191
_cell_angle_beta 100.134328
_cell_angle_gamma 130.927500
_cell_volume 736.891232
_symmetry_space_group_name_H-M "P -1"
_symmetry_group_IT_number 2
_symmetry_cell_setting 'triclinic'
loop_
_space_group_symop_operation_xyz
x,y,z
-x,-y,-z
loop_
_atom_site_type_symbol
_atom_site_label
_atom_site_fract_x
_atom_site_fract_y
_atom_site_fract_z
Si Si1 0.035240 0.013624 0.738687
Si Si2 0.617654 0.839606 0.569458
Si Si3 0.255514 0.971207 0.766452
Si Si4 0.050086 0.414923 0.585998
Si Si5 0.347112 0.721879 0.681280
Si Si6 0.285277 0.917548 0.404345
Si Si7 0.755832 0.703857 0.178982
Si Si8 0.816459 0.531603 0.033540
O O1 0.835163 0.920554 0.717725
O O2 0.879792 0.865298 0.447601
O O3 0.186908 0.032178 0.848126
O O4 0.220968 0.227201 0.913533
O O5 0.503664 0.779605 0.646919
O O6 0.719085 0.006195 0.658680
O O7 0.414888 0.650855 0.263046
O O8 0.306397 0.987547 0.622825
O O9 0.041619 0.757341 0.595067
O O10 0.487809 0.106768 0.022271
O O11 0.827769 0.328318 0.478466
O O12 0.200040 0.539773 0.582855
O O13 0.206453 0.534197 0.869146
O O14 0.500000 0.000000 0.500000
O O15 0.067997 0.686775 0.147513
O O16 0.880894 0.690354 0.196944
O O17 0.500000 0.500000 0.000000
#
# Coordination Sequence:
#
# PCOD8024872 Si02
#       8
#     2   2   2   2   2   2   2   2
#     4  11  22  38  65  97 127 162 214 260 321 385
#     4  12  24  40  62 101 131 162 210 268 321 372
#     4  11  23  43  67  89 125 174 209 258 319 380
#     4  10  23  44  64  90 119 173 221 254 313 383
#     4  11  26  42  63  89 132 174 212 255 313 386
#     4  11  23  40  66  98 125 161 218 270 317 367
#     4  11  20  36  65  97 124 165 203 266 325 374
#     4  11  22  39  68  95 126 161 210 269 319 370
#
# _framework density 21.712838999999999
#
# number of rings (size 3 to 8) (size 9 to 14) (size 15 to 20)
#    0.000    1.000    5.000    3.375    1.750    5.500 
#    0.000    0.625    0.000    0.000    0.000    0.000 
#    0.000    0.000    0.000    0.000    0.000    0.000 
#
# Total GULP energy -198253.489702 kJ/mol
# GULP energy per Si atom -12390.843106 kJ/mol
# Density = 2.166342 g / cm^3
# Si number density = 21.712839 Si / 1000 Ang^3
#
#
#
# Elastic Constant Matrix: (Units=GPa)
#
#
# Indices 1 2 3 4 5 6 
#
# 1 67.6188 26.8935 9.4991 -16.4659 1.3172 -3.2618
# 2 26.8935 118.2213 29.2455 5.1461 -3.0226 0.8250
# 3 9.4991 29.2455 74.9564 8.0726 9.0220 4.9325
# 4 -16.4659 5.1461 8.0726 25.5967 0.0976 -0.7998
# 5 1.3172 -3.0226 9.0220 0.0976 17.7346 -1.1060
# 6 -3.2618 0.8250 4.9325 -0.7998 -1.1060 30.2664
#
#
#
# Elastic Compliance Matrix: (Units=1/GPa)
#
#
# Indices 1 2 3 4 5 6 
#
# 1 0.020997 -0.004874 -0.002503 0.015379 -0.001003 0.003173
# 2 -0.004874 0.010744 -0.003596 -0.004183 0.004034 -0.000195
# 3 -0.002503 -0.003596 0.017093 -0.006351 -0.009304 -0.003465
# 4 0.015379 -0.004183 -0.006351 0.051932 0.001354 0.004228
# 5 -0.001003 0.004034 -0.009304 0.001354 0.062099 0.003603
# 6 0.003173 -0.000195 -0.003465 0.004228 0.003603 0.034195
#
#
# Mechanical properties :
#
#
# Convention : Reuss Voigt Hill
#
# Bulk Modulus (GPa) = 37.19449 43.56364 40.37906
# Shear Modulus (GPa) = 21.93267 27.73010 24.83139
#
# Velocity S-wave (km/s) = 3.18169 3.57757 3.38542
# Velocity P-wave (km/s) = 5.53759 6.09692 5.82398
#
# Compressibility (1/GPa) = 0.02688571
#
# Stress axis : x y z
#
# Youngs Moduli (GPa) = 47.62631 93.07714 58.50227
#
# Poissons Ratio (x) = 0.45370 0.14646
# Poissons Ratio (y) = 0.23215 0.21039
# Poissons Ratio (z) = 0.11923 0.33473
#
# Static dielectric constant tensor:
#      x y z
#    x 3.780730 0.338790 0.351330 
#    y 0.338790 4.064580 0.281460 
#    z 0.351330 0.281460 3.896180 
# 
# 
# High freq. dielectric constant tensor:
#      x y z
#    x 1.856140 -0.003600 0.022760 
#    y -0.003600 1.860330 0.022250 
#    z 0.022760 0.022250 1.841490 
# 
# From -- ./inp_files/273855.got.cif
#   From: 2010.06.25/outbox.cif.g09.slc.cpg/sg2_137_cif.got.tgz:273855.got - 2010.06.27 13:26:56.
