data_PCOD8024627
_publ_section_title
;
Structure prediction by ZEFSAII (Michael W. Deem and Ramdas Pophale) SiO2 
 PCOD8024627
Probable space group: P -1
;
_chemical_formula_sum "Si O2"
_cell_formula_units_Z 16
_cell_length_a 21.114121
_cell_length_b 8.552932
_cell_length_c 8.597392
_cell_angle_alpha 53.798331
_cell_angle_beta 118.549250
_cell_angle_gamma 76.125967
_cell_volume 744.409810
_symmetry_space_group_name_H-M "P -1"
_symmetry_group_IT_number 2
_symmetry_cell_setting 'triclinic'
loop_
_space_group_symop_operation_xyz
x,y,z
-x,-y,-z
loop_
_atom_site_type_symbol
_atom_site_label
_atom_site_fract_x
_atom_site_fract_y
_atom_site_fract_z
Si Si1 0.278617 0.665831 0.226006
Si Si2 0.519178 0.512890 0.341779
Si Si3 0.582402 0.958540 0.218823
Si Si4 0.088230 0.305739 0.086873
Si Si5 0.083309 0.721062 0.656778
Si Si6 0.754103 0.259586 0.210152
Si Si7 0.049726 0.203551 0.788163
Si Si8 0.474938 0.245440 0.245766
O O1 0.368984 0.593407 0.475199
O O2 0.306879 0.377165 0.430163
O O3 0.277720 0.741449 0.001912
O O4 0.166353 0.930244 0.017502
O O5 0.500000 0.500000 0.500000
O O6 0.532352 0.303218 0.371460
O O7 0.411175 0.848587 0.975057
O O8 0.525008 0.139859 0.199872
O O9 0.500000 0.000000 0.000000
O O10 0.186894 0.032009 0.462405
O O11 0.112831 0.460069 0.934148
O O12 0.054519 0.205749 0.980279
O O13 0.000000 0.500000 0.000000
O O14 0.184749 0.655844 0.783206
O O15 0.030548 0.795811 0.379788
O O16 0.000000 0.000000 0.500000
O O17 0.652031 0.486377 0.065708
O O18 0.000000 0.500000 0.500000
O O19 0.500000 0.000000 0.500000
#
# Coordination Sequence:
#
# PCOD8024627 Si02
#       8
#     2   2   2   2   2   2   2   2
#     4  11  22  45  69  96 136 182 223 280 344 405
#     4  11  23  44  68 100 136 182 230 284 341 402
#     4  10  23  43  69  97 138 179 229 285 339 412
#     4  11  24  44  71  99 136 177 229 284 341 407
#     4  11  22  45  70  98 137 180 222 282 345 402
#     4  12  24  42  70  99 139 175 227 278 341 402
#     4  10  23  44  70  96 137 175 225 280 338 413
#     4  12  24  44  66  99 140 178 229 283 339 411
#
# _framework density 21.493538999999998
#
# number of rings (size 3 to 8) (size 9 to 14) (size 15 to 20)
#    0.000    1.000    5.000    1.875    3.500    3.500 
#    0.000    0.000    0.000    0.000    0.000    0.000 
#    0.000    0.000    0.000    0.000    0.000    0.000 
#
# Total GULP energy -198216.430832 kJ/mol
# GULP energy per Si atom -12388.526927 kJ/mol
# Density = 2.144462 g / cm^3
# Si number density = 21.493539 Si / 1000 Ang^3
#
#
#
# Elastic Constant Matrix: (Units=GPa)
#
#
# Indices 1 2 3 4 5 6 
#
# 1 84.8550 40.4851 47.2819 -10.9568 -2.7591 0.6225
# 2 40.4851 165.6653 65.6661 -0.4633 -1.5949 -8.8105
# 3 47.2819 65.6661 164.4386 -23.2039 -15.4339 -3.2749
# 4 -10.9568 -0.4633 -23.2039 42.4950 -1.8484 5.4380
# 5 -2.7591 -1.5949 -15.4339 -1.8484 46.4700 -1.3061
# 6 0.6225 -8.8105 -3.2749 5.4380 -1.3061 43.9651
#
#
#
# Elastic Compliance Matrix: (Units=1/GPa)
#
#
# Indices 1 2 3 4 5 6 
#
# 1 0.014972 -0.002530 -0.003001 0.002346 -0.000136 -0.001237
# 2 -0.002530 0.007828 -0.002774 -0.002331 -0.000849 0.001661
# 3 -0.003001 -0.002774 0.008909 0.004221 0.002845 -0.000287
# 4 0.002346 -0.002331 0.004221 0.026964 0.002437 -0.003449
# 5 -0.000136 -0.000849 0.002845 0.002437 0.022536 0.000412
# 6 -0.001237 0.001661 -0.000287 -0.003449 0.000412 0.023513
#
#
# Mechanical properties :
#
#
# Convention : Reuss Voigt Hill
#
# Bulk Modulus (GPa) = 66.23067 80.20280 73.21674
# Shear Modulus (GPa) = 39.56854 44.02107 41.79480
#
# Velocity S-wave (km/s) = 4.29528 4.53051 4.41446
# Velocity P-wave (km/s) = 7.44852 8.04756 7.75383
#
# Compressibility (1/GPa) = 0.01509874
#
# Stress axis : x y z
#
# Youngs Moduli (GPa) = 66.79339 127.75171 112.24720
#
# Poissons Ratio (x) = 0.32318 0.33685
# Poissons Ratio (y) = 0.16897 0.31138
# Poissons Ratio (z) = 0.20044 0.35439
#
# Static dielectric constant tensor:
#      x y z
#    x 4.043200 0.301490 -0.250290 
#    y 0.301490 4.331350 0.081430 
#    z -0.250290 0.081430 4.240830 
# 
# 
# High freq. dielectric constant tensor:
#      x y z
#    x 1.823690 0.001790 -0.012230 
#    y 0.001790 1.864610 0.001760 
#    z -0.012230 0.001760 1.865410 
# 
# From -- ./inp_files/343326.got.cif
#   From: 2010.06.25/outbox.cif.g09.slc.cpg/sg2_172_cif.got.tgz:343326.got - 2010.06.27 13:26:56.
