data_PCOD8024370
_publ_section_title
;
Structure prediction by ZEFSAII (Michael W. Deem and Ramdas Pophale) SiO2 
 PCOD8024370
Probable space group: P -1
;
_chemical_formula_sum "Si O2"
_cell_formula_units_Z 14
_cell_length_a 9.502694
_cell_length_b 24.803993
_cell_length_c 18.598585
_cell_angle_alpha 19.339792
_cell_angle_beta 29.374853
_cell_angle_gamma 27.626637
_cell_volume 655.030507
_symmetry_space_group_name_H-M "P -1"
_symmetry_group_IT_number 2
_symmetry_cell_setting 'triclinic'
loop_
_space_group_symop_operation_xyz
x,y,z
-x,-y,-z
loop_
_atom_site_type_symbol
_atom_site_label
_atom_site_fract_x
_atom_site_fract_y
_atom_site_fract_z
Si Si1 0.703800 0.098924 0.314705
Si Si2 0.423486 0.492688 0.959751
Si Si3 0.700003 0.000915 0.592090
Si Si4 0.740482 0.491240 0.571401
Si Si5 0.588788 0.123322 0.752462
Si Si6 0.678664 0.753297 0.440986
Si Si7 0.814484 0.609015 0.012956
O O1 0.500000 0.000000 0.500000
O O2 0.655452 0.128536 0.384060
O O3 0.606041 0.302827 0.077241
O O4 0.045872 0.970598 0.301304
O O5 0.495209 0.633804 0.700610
O O6 0.500000 0.500000 0.000000
O O7 0.050019 0.541163 0.061357
O O8 0.400246 0.082898 0.674942
O O9 0.727626 0.815700 0.780600
O O10 0.000000 0.000000 0.500000
O O11 0.520110 0.687858 0.395443
O O12 0.512271 0.409248 0.809985
O O13 0.000000 0.500000 0.500000
O O14 0.947580 0.363817 0.576028
O O15 0.429830 0.161747 0.696327
O O16 0.500000 0.000000 0.000000
O O17 0.000000 0.500000 0.000000
#
# Coordination Sequence:
#
# PCOD8024370 Si02
#       7
#     2   2   2   2   2   2   2
#     4  12  24  39  67 104 134 169 232 288 333 408
#     4  12  23  42  70 102 138 180 225 285 351 407
#     4  12  22  44  72 101 136 181 233 287 346 404
#     4  10  23  43  66 101 140 182 226 284 353 407
#     4  11  23  42  67  96 134 179 225 278 343 407
#     4  11  23  44  71  95 138 183 229 279 347 416
#     4  12  24  43  72 103 138 186 236 283 340 419
#
# _framework density 21.373049000000002
#
# number of rings (size 3 to 8) (size 9 to 14) (size 15 to 20)
#    0.000    0.571    4.286    5.143    0.000    4.000 
#    0.000    0.714    0.000    0.000    0.000    0.000 
#    0.000    0.000    0.000    0.000    0.000    0.000 
#
# Total GULP energy -173499.022601 kJ/mol
# GULP energy per Si atom -12392.787329 kJ/mol
# Density = 2.132440 g / cm^3
# Si number density = 21.373049 Si / 1000 Ang^3
#
#
#
# Elastic Constant Matrix: (Units=GPa)
#
#
# Indices 1 2 3 4 5 6 
#
# 1 86.1813 29.7921 43.2078 15.2266 5.7341 4.0339
# 2 29.7921 201.7455 55.6064 -0.9290 -5.5064 11.1135
# 3 43.2078 55.6064 131.5520 -4.8406 2.2798 8.5455
# 4 15.2266 -0.9290 -4.8406 48.9588 -0.2068 -5.1687
# 5 5.7341 -5.5064 2.2798 -0.2068 36.5773 -0.0063
# 6 4.0339 11.1135 8.5455 -5.1687 -0.0063 36.0241
#
#
#
# Elastic Compliance Matrix: (Units=1/GPa)
#
#
# Indices 1 2 3 4 5 6 
#
# 1 0.015500 -0.001007 -0.004755 -0.005433 -0.002316 -0.001077
# 2 -0.001007 0.005766 -0.002047 0.000102 0.001154 -0.001166
# 3 -0.004755 -0.002047 0.010177 0.002349 -0.000184 -0.000913
# 4 -0.005433 0.000102 0.002349 0.022699 0.000850 0.003277
# 5 -0.002316 0.001154 -0.000184 0.000850 0.027892 0.000074
# 6 -0.001077 -0.001166 -0.000913 0.003277 0.000074 0.028926
#
#
# Mechanical properties :
#
#
# Convention : Reuss Voigt Hill
#
# Bulk Modulus (GPa) = 63.19069 75.18792 69.18931
# Shear Modulus (GPa) = 37.92066 43.70353 40.81210
#
# Velocity S-wave (km/s) = 4.21673 4.52685 4.37454
# Velocity P-wave (km/s) = 7.30325 7.91065 7.61301
#
# Compressibility (1/GPa) = 0.01582512
#
# Stress axis : x y z
#
# Youngs Moduli (GPa) = 64.51576 173.43568 98.25599
#
# Poissons Ratio (x) = 0.17469 0.46721
# Poissons Ratio (y) = 0.06498 0.20112
# Poissons Ratio (z) = 0.30677 0.35500
#
# Static dielectric constant tensor:
#      x y z
#    x 3.850710 -0.049120 -0.122510 
#    y -0.049120 4.895850 0.295290 
#    z -0.122510 0.295290 5.282340 
# 
# 
# High freq. dielectric constant tensor:
#      x y z
#    x 1.822660 -0.000380 0.003840 
#    y -0.000380 1.867500 -0.019530 
#    z 0.003840 -0.019530 1.838240 
# 
# From -- ./inp_files/182320.got.cif
#   From: 2010.06.25/outbox.cif.g09.slc.cpg/sg2_92_cif.got.tgz:182320.got - 2010.06.27 13:26:56.
