data_PCOD8024437
_publ_section_title
;
Structure prediction by ZEFSAII (Michael W. Deem and Ramdas Pophale) SiO2 
 PCOD8024437
Probable space group: P -1
;
_chemical_formula_sum "Si O2"
_cell_formula_units_Z 16
_cell_length_a 12.706111
_cell_length_b 9.323788
_cell_length_c 14.876208
_cell_angle_alpha 73.325896
_cell_angle_beta 28.384447
_cell_angle_gamma 74.073489
_cell_volume 801.642865
_symmetry_space_group_name_H-M "P -1"
_symmetry_group_IT_number 2
_symmetry_cell_setting 'triclinic'
loop_
_space_group_symop_operation_xyz
x,y,z
-x,-y,-z
loop_
_atom_site_type_symbol
_atom_site_label
_atom_site_fract_x
_atom_site_fract_y
_atom_site_fract_z
Si Si1 0.509103 0.712854 0.716601
Si Si2 0.581487 0.827793 0.451989
Si Si3 0.166803 0.059089 0.484228
Si Si4 0.051810 0.349493 0.040037
Si Si5 0.963157 0.167410 0.970827
Si Si6 0.325615 0.915655 0.207322
Si Si7 0.257101 0.751821 0.561322
Si Si8 0.533163 0.368761 0.745529
O O1 0.513691 0.725495 0.603546
O O2 0.704158 0.800617 0.600348
O O3 0.534898 0.536848 0.753940
O O4 0.267245 0.783781 0.914975
O O5 0.844308 0.796323 0.249855
O O6 0.480668 0.761570 0.449072
O O7 0.500000 0.000000 0.500000
O O8 0.908089 0.106369 0.661735
O O9 0.283635 0.012938 0.311172
O O10 0.176295 0.922831 0.571670
O O11 0.921790 0.337069 0.233319
O O12 0.975023 0.227519 0.051573
O O13 0.306750 0.330933 0.875530
O O14 0.000000 0.500000 0.000000
O O15 0.000000 0.000000 0.000000
O O16 0.423217 0.748213 0.185155
O O17 0.500000 0.000000 0.000000
O O18 0.285127 0.658976 0.464504
#
# Coordination Sequence:
#
# PCOD8024437 Si02
#       8
#     2   2   2   2   2   2   2   2
#     4  12  25  40  60  98 133 165 210 258 312 377
#     4  12  21  37  59  91 130 170 209 248 303 369
#     4  10  23  43  67  93 121 158 217 267 318 378
#     4  12  23  38  57  90 133 173 210 251 305 373
#     4  12  23  36  57  87 131 173 212 248 296 367
#     4  10  23  47  71  92 114 161 215 270 328 382
#     4  11  21  39  62  88 127 174 210 256 305 374
#     4  11  25  40  64  93 128 170 213 260 321 370
#
# _framework density 19.959011
#
# number of rings (size 3 to 8) (size 9 to 14) (size 15 to 20)
#    0.000    0.750    6.250    0.750    3.500    2.500 
#    0.000    0.625    0.000    0.000    0.000    0.000 
#    0.000    0.000    0.000    0.000    0.000    0.000 
#
# Total GULP energy -198372.548897 kJ/mol
# GULP energy per Si atom -12398.284306 kJ/mol
# Density = 1.991358 g / cm^3
# Si number density = 19.959011 Si / 1000 Ang^3
#
#
#
# Elastic Constant Matrix: (Units=GPa)
#
#
# Indices 1 2 3 4 5 6 
#
# 1 96.1459 52.7561 41.9023 -5.2638 -17.6720 -11.3420
# 2 52.7561 149.7948 45.8835 -7.1503 -7.4043 -12.8387
# 3 41.9023 45.8835 122.3290 -2.7364 3.0312 -19.3224
# 4 -5.2638 -7.1503 -2.7364 27.3192 -5.6056 -0.2239
# 5 -17.6720 -7.4043 3.0312 -5.6056 39.9059 -2.4522
# 6 -11.3420 -12.8387 -19.3224 -0.2239 -2.4522 35.2771
#
#
#
# Elastic Compliance Matrix: (Units=1/GPa)
#
#
# Indices 1 2 3 4 5 6 
#
# 1 0.015856 -0.003726 -0.003796 0.003195 0.007202 0.002184
# 2 -0.003726 0.008718 -0.001809 0.001468 0.000374 0.001019
# 3 -0.003796 -0.001809 0.010814 -0.000642 -0.002691 0.003853
# 4 0.003195 0.001468 -0.000642 0.039063 0.007344 0.001968
# 5 0.007202 0.000374 -0.002691 0.007344 0.029744 0.003091
# 6 0.002184 0.001019 0.003853 0.001968 0.003091 0.031758
#
#
# Mechanical properties :
#
#
# Convention : Reuss Voigt Hill
#
# Bulk Modulus (GPa) = 59.78475 72.15039 65.96757
# Shear Modulus (GPa) = 31.21294 35.68229 33.44761
#
# Velocity S-wave (km/s) = 3.95885 4.23280 4.09811
# Velocity P-wave (km/s) = 7.13550 7.75349 7.45091
#
# Compressibility (1/GPa) = 0.01672667
#
# Stress axis : x y z
#
# Youngs Moduli (GPa) = 63.06854 114.70404 92.46893
#
# Poissons Ratio (x) = 0.42738 0.35099
# Poissons Ratio (y) = 0.23499 0.16729
# Poissons Ratio (z) = 0.23939 0.20752
#
# Static dielectric constant tensor:
#      x y z
#    x 3.568540 -0.148420 -0.136120 
#    y -0.148420 3.629140 0.105930 
#    z -0.136120 0.105930 3.784030 
# 
# 
# High freq. dielectric constant tensor:
#      x y z
#    x 1.766970 -0.003780 -0.004110 
#    y -0.003780 1.781560 -0.000370 
#    z -0.004110 -0.000370 1.793350 
# 
# From -- ./inp_files/306221.got.cif
#   From: 2010.06.25/outbox.cif.g09.slc.cpg/sg2_154_cif.got.tgz:306221.got - 2010.06.27 13:26:56.
