data_PCOD8024632
_publ_section_title
;
Structure prediction by ZEFSAII (Michael W. Deem and Ramdas Pophale) SiO2 
 PCOD8024632
Probable space group: P -1
;
_chemical_formula_sum "Si O2"
_cell_formula_units_Z 12
_cell_length_a 9.661236
_cell_length_b 9.039066
_cell_length_c 11.695904
_cell_angle_alpha 39.872347
_cell_angle_beta 123.485578
_cell_angle_gamma 103.135077
_cell_volume 508.018593
_symmetry_space_group_name_H-M "P -1"
_symmetry_group_IT_number 2
_symmetry_cell_setting 'triclinic'
loop_
_space_group_symop_operation_xyz
x,y,z
-x,-y,-z
loop_
_atom_site_type_symbol
_atom_site_label
_atom_site_fract_x
_atom_site_fract_y
_atom_site_fract_z
Si Si1 0.891132 0.887618 0.935413
Si Si2 0.745741 0.146123 0.312603
Si Si3 0.445403 0.043207 0.133158
Si Si4 0.001159 0.628436 0.803094
Si Si5 0.750139 0.702770 0.332009
Si Si6 0.103105 0.775894 0.444080
O O1 0.681403 0.009679 0.799790
O O2 0.913948 0.958342 0.772432
O O3 0.960039 0.587351 0.148541
O O4 0.000000 0.000000 0.000000
O O5 0.544894 0.212156 0.136623
O O6 0.757244 0.292517 0.347009
O O7 0.852654 0.237743 0.210604
O O8 0.819898 0.850589 0.551527
O O9 0.593953 0.788231 0.304167
O O10 0.318560 0.184756 0.889451
O O11 0.000000 0.500000 0.000000
O O12 0.826934 0.408323 0.522881
O O13 0.909662 0.790924 0.391834
#
# Coordination Sequence:
#
# PCOD8024632 Si02
#       6
#     2   2   2   2   2   2
#     4  12  26  44  68 103 140 183 235 285 348 417
#     4  11  25  45  73 103 139 183 230 291 345 406
#     4  11  25  44  67 104 139 180 231 293 347 399
#     4  11  24  46  72 102 139 186 232 279 349 420
#     4  10  23  43  69  98 137 189 230 277 350 417
#     4  11  23  45  71  99 138 188 232 278 349 424
#
# _framework density 23.621182999999998
#
# number of rings (size 3 to 8) (size 9 to 14) (size 15 to 20)
#    0.000    1.000    3.333    3.000    4.667    4.000 
#    3.000    0.000    0.000    0.000    0.000    0.000 
#    0.000    0.000    0.000    0.000    0.000    0.000 
#
# Total GULP energy -148753.795522 kJ/mol
# GULP energy per Si atom -12396.149627 kJ/mol
# Density = 2.356742 g / cm^3
# Si number density = 23.621183 Si / 1000 Ang^3
#
#
#
# Elastic Constant Matrix: (Units=GPa)
#
#
# Indices 1 2 3 4 5 6 
#
# 1 121.3798 37.9426 35.1149 -5.4263 -0.3910 5.0213
# 2 37.9426 140.7872 35.3809 1.2938 10.1361 17.4509
# 3 35.1149 35.3809 66.4914 -9.1571 -15.2796 9.4034
# 4 -5.4263 1.2938 -9.1571 50.1359 -1.8430 7.6816
# 5 -0.3910 10.1361 -15.2796 -1.8430 42.3068 5.8943
# 6 5.0213 17.4509 9.4034 7.6816 5.8943 32.8140
#
#
#
# Elastic Compliance Matrix: (Units=1/GPa)
#
#
# Indices 1 2 3 4 5 6 
#
# 1 0.010111 -0.001468 -0.005036 0.000012 -0.001505 0.000944
# 2 -0.001468 0.009283 -0.004810 -0.001040 -0.003682 -0.002429
# 3 -0.005036 -0.004810 0.024596 0.005561 0.011212 -0.007036
# 4 0.000012 -0.001040 0.005561 0.022216 0.004201 -0.006998
# 5 -0.001505 -0.003682 0.011212 0.004201 0.029762 -0.007354
# 6 0.000944 -0.002429 -0.007036 -0.006998 -0.007354 0.036597
#
#
# Mechanical properties :
#
#
# Convention : Reuss Voigt Hill
#
# Bulk Modulus (GPa) = 46.81349 60.61502 53.71425
# Shear Modulus (GPa) = 30.80428 39.73266 35.26847
#
# Velocity S-wave (km/s) = 3.61514 4.10576 3.86824
# Velocity P-wave (km/s) = 6.10632 6.94215 6.53760
#
# Compressibility (1/GPa) = 0.02136136
#
# Stress axis : x y z
#
# Youngs Moduli (GPa) = 98.90078 107.72243 40.65700
#
# Poissons Ratio (x) = 0.15816 0.20476
# Poissons Ratio (y) = 0.14520 0.19557
# Poissons Ratio (z) = 0.49808 0.51816
#
# Static dielectric constant tensor:
#      x y z
#    x 4.195030 0.003690 -0.032440 
#    y 0.003690 4.498930 -0.079850 
#    z -0.032440 -0.079850 4.215480 
# 
# 
# High freq. dielectric constant tensor:
#      x y z
#    x 1.922060 -0.009020 -0.005470 
#    y -0.009020 1.962700 -0.000600 
#    z -0.005470 -0.000600 1.928780 
# 
# From -- ./inp_files/380910.got.cif
#   From: 2010.06.25/outbox.cif.g09.slc.cpg/sg2_191_cif.got.tgz:380910.got - 2010.06.27 13:26:56.
