data_PCOD8024197
_publ_section_title
;
Structure prediction by ZEFSAII (Michael W. Deem and Ramdas Pophale) SiO2 
 PCOD8024197
Probable space group: P -1
;
_chemical_formula_sum "Si O2"
_cell_formula_units_Z 14
_cell_length_a 12.346643
_cell_length_b 9.185711
_cell_length_c 17.524471
_cell_angle_alpha 61.501211
_cell_angle_beta 29.199146
_cell_angle_gamma 43.428058
_cell_volume 589.185551
_symmetry_space_group_name_H-M "P -1"
_symmetry_group_IT_number 2
_symmetry_cell_setting 'triclinic'
loop_
_space_group_symop_operation_xyz
x,y,z
-x,-y,-z
loop_
_atom_site_type_symbol
_atom_site_label
_atom_site_fract_x
_atom_site_fract_y
_atom_site_fract_z
Si Si1 0.494565 0.103943 0.799903
Si Si2 0.377662 0.706243 0.575539
Si Si3 0.712139 0.394563 0.034770
Si Si4 0.210024 0.380839 0.324530
Si Si5 0.198461 0.603761 0.843264
Si Si6 0.680773 0.073032 0.851793
Si Si7 0.807486 0.747049 0.340806
O O1 0.373899 0.338142 0.774555
O O2 0.730673 0.038315 0.738468
O O3 0.679356 0.870586 0.692014
O O4 0.168683 0.198543 0.011492
O O5 0.500000 0.500000 0.500000
O O6 0.383321 0.652350 0.675183
O O7 0.647011 0.697811 0.397261
O O8 0.015811 0.942070 0.716136
O O9 0.516604 0.331661 0.160810
O O10 0.820865 0.353095 0.065620
O O11 0.531373 0.659403 0.056284
O O12 0.004565 0.227193 0.836466
O O13 0.000000 0.500000 0.500000
O O14 0.023980 0.549223 0.323151
O O15 0.500000 0.000000 0.000000
O O16 0.500000 0.000000 0.500000
#
# Coordination Sequence:
#
# PCOD8024197 Si02
#       7
#     2   2   2   2   2   2   2
#     4  10  23  42  73 100 140 177 242 282 355 412
#     4  12  25  42  71 107 142 178 234 296 351 415
#     4  11  26  47  73 100 141 191 236 291 355 422
#     4  12  27  48  73 104 144 187 235 292 358 427
#     4  10  24  43  73 103 136 185 237 294 349 413
#     4  11  21  43  72 102 135 185 233 290 349 413
#     4  12  29  46  68 105 145 186 237 288 357 424
#
# _framework density 23.761614999999999
#
# number of rings (size 3 to 8) (size 9 to 14) (size 15 to 20)
#    0.000    0.857    1.429    4.714    8.000    1.714 
#    0.000    3.571    0.000    0.000    0.000    0.000 
#    0.000    0.000    0.000    0.000    0.000    0.000 
#
# Total GULP energy -173504.673808 kJ/mol
# GULP energy per Si atom -12393.190986 kJ/mol
# Density = 2.370753 g / cm^3
# Si number density = 23.761615 Si / 1000 Ang^3
#
#
#
# Elastic Constant Matrix: (Units=GPa)
#
#
# Indices 1 2 3 4 5 6 
#
# 1 124.4047 39.4740 60.0991 1.3689 0.1551 2.8029
# 2 39.4740 75.3193 38.2555 19.0538 8.6207 13.3600
# 3 60.0991 38.2555 145.0317 -8.1069 6.9684 -1.4445
# 4 1.3689 19.0538 -8.1069 40.0130 12.5974 0.9882
# 5 0.1551 8.6207 6.9684 12.5974 41.9054 1.2087
# 6 2.8029 13.3600 -1.4445 0.9882 1.2087 43.4401
#
#
#
# Elastic Compliance Matrix: (Units=1/GPa)
#
#
# Indices 1 2 3 4 5 6 
#
# 1 0.011096 -0.004460 -0.003440 0.000645 0.001241 0.000492
# 2 -0.004460 0.021864 -0.004583 -0.010954 -0.000244 -0.006333
# 3 -0.003440 -0.004583 0.009934 0.004973 -0.002246 0.001911
# 4 0.000645 -0.010954 0.004973 0.033908 -0.008855 0.002968
# 5 0.001241 -0.000244 -0.002246 -0.008855 0.026962 -0.000629
# 6 0.000492 -0.006333 0.001911 0.002968 -0.000629 0.024950
#
#
# Mechanical properties :
#
#
# Convention : Reuss Voigt Hill
#
# Bulk Modulus (GPa) = 55.77759 68.93477 62.35618
# Shear Modulus (GPa) = 31.31720 38.86683 35.09201
#
# Velocity S-wave (km/s) = 3.63433 4.04876 3.84713
# Velocity P-wave (km/s) = 6.41373 7.13657 6.78478
#
# Compressibility (1/GPa) = 0.01792835
#
# Stress axis : x y z
#
# Youngs Moduli (GPa) = 90.12525 45.73656 100.66151
#
# Poissons Ratio (x) = 0.20400 0.34628
# Poissons Ratio (y) = 0.40198 0.46130
# Poissons Ratio (z) = 0.31004 0.20960
#
# Static dielectric constant tensor:
#      x y z
#    x 4.485400 -0.103150 -0.048860 
#    y -0.103150 4.502290 0.001400 
#    z -0.048860 0.001400 4.244040 
# 
# 
# High freq. dielectric constant tensor:
#      x y z
#    x 1.955220 0.003930 -0.006310 
#    y 0.003930 1.947350 0.003950 
#    z -0.006310 0.003950 1.944740 
# 
# From -- ./inp_files/173467.got.cif
#   From: 2010.06.25/outbox.cif.g09.slc.cpg/sg2_87_cif.got.tgz:173467.got - 2010.06.27 13:26:56.
