data_PCOD8024983
_publ_section_title
;
Structure prediction by ZEFSAII (Michael W. Deem and Ramdas Pophale) SiO2 
 PCOD8024983
Probable space group: P -1
;
_chemical_formula_sum "Si O2"
_cell_formula_units_Z 16
_cell_length_a 11.558673
_cell_length_b 7.498327
_cell_length_c 10.891140
_cell_angle_alpha 119.169612
_cell_angle_beta 113.997613
_cell_angle_gamma 63.994412
_cell_volume 718.029938
_symmetry_space_group_name_H-M "P -1"
_symmetry_group_IT_number 2
_symmetry_cell_setting 'triclinic'
loop_
_space_group_symop_operation_xyz
x,y,z
-x,-y,-z
loop_
_atom_site_type_symbol
_atom_site_label
_atom_site_fract_x
_atom_site_fract_y
_atom_site_fract_z
Si Si1 0.803345 0.029557 0.481195
Si Si2 0.928618 0.320859 0.493820
Si Si3 0.198375 0.639457 0.810631
Si Si4 0.315027 0.195925 0.832037
Si Si5 0.155561 0.424627 0.064327
Si Si6 0.084685 0.271523 0.227296
Si Si7 0.424240 0.746589 0.060314
Si Si8 0.259759 0.832390 0.245576
O O1 0.868851 0.215902 0.542770
O O2 0.705351 0.116120 0.583251
O O3 0.719787 0.997062 0.316515
O O4 0.916610 0.812808 0.496280
O O5 0.846989 0.315864 0.333732
O O6 0.918643 0.563558 0.606439
O O7 0.280826 0.393914 0.788230
O O8 0.069768 0.694106 0.864146
O O9 0.288704 0.793409 0.936963
O O10 0.474999 0.126368 0.902113
O O11 0.232123 0.247849 0.939235
O O12 0.174625 0.313052 0.168897
O O13 0.216988 0.618478 0.149994
O O14 0.000000 0.500000 0.000000
O O15 0.138593 0.029649 0.213825
O O16 0.388002 0.805449 0.206938
O O17 0.500000 0.500000 0.000000
#
# Coordination Sequence:
#
# PCOD8024983 Si02
#       8
#     2   2   2   2   2   2   2   2
#     4  11  23  40  68  97 135 180 218 271 350 389
#     4  11  22  39  63 103 141 169 215 285 339 398
#     4  11  20  39  64  93 133 174 215 271 329 391
#     4  11  23  44  68  92 136 182 218 271 335 398
#     4  12  23  41  64  99 140 169 215 282 333 389
#     4  12  23  39  68 105 136 167 226 279 338 394
#     4  10  23  44  67  90 132 188 221 263 334 400
#     4  12  24  43  70  98 133 180 221 275 338 396
#
# _framework density 22.283192
#
# number of rings (size 3 to 8) (size 9 to 14) (size 15 to 20)
#    0.000    0.750    7.500    1.125    1.750    3.500 
#    0.000    2.500    0.000    4.500    0.000    0.000 
#    0.000    0.000    0.000    0.000    0.000    0.000 
#
# Total GULP energy -198378.169300 kJ/mol
# GULP energy per Si atom -12398.635581 kJ/mol
# Density = 2.223247 g / cm^3
# Si number density = 22.283192 Si / 1000 Ang^3
#
#
#
# Elastic Constant Matrix: (Units=GPa)
#
#
# Indices 1 2 3 4 5 6 
#
# 1 137.9986 8.4233 59.9561 0.9326 -6.4802 -22.7780
# 2 8.4233 40.2043 16.0523 2.0075 2.5943 5.5568
# 3 59.9561 16.0523 142.2830 8.4675 -15.8593 -14.5769
# 4 0.9326 2.0075 8.4675 27.6289 -0.4575 -7.3322
# 5 -6.4802 2.5943 -15.8593 -0.4575 44.1478 2.4506
# 6 -22.7780 5.5568 -14.5769 -7.3322 2.4506 19.3386
#
#
#
# Elastic Compliance Matrix: (Units=1/GPa)
#
#
# Indices 1 2 3 4 5 6 
#
# 1 0.010925 -0.003013 -0.003196 0.004265 -0.000042 0.012947
# 2 -0.003013 0.029749 -0.003770 -0.005363 -0.002677 -0.016632
# 3 -0.003196 -0.003770 0.009592 -0.001558 0.002983 0.003581
# 4 0.004265 -0.005363 -0.001558 0.042645 -0.000376 0.021606
# 5 -0.000042 -0.002677 0.002983 -0.000376 0.023881 -0.000200
# 6 0.012947 -0.016632 0.003581 0.021606 -0.000200 0.082656
#
#
# Mechanical properties :
#
#
# Convention : Reuss Voigt Hill
#
# Bulk Modulus (GPa) = 32.99322 54.37214 43.68268
# Shear Modulus (GPa) = 21.78569 33.96000 27.87284
#
# Velocity S-wave (km/s) = 3.13017 3.90810 3.54057
# Velocity P-wave (km/s) = 5.28227 6.69461 6.02994
#
# Compressibility (1/GPa) = 0.03030926
#
# Stress axis : x y z
#
# Youngs Moduli (GPa) = 91.53208 33.61484 104.24955
#
# Poissons Ratio (x) = 0.10127 0.33316
# Poissons Ratio (y) = 0.27576 0.39302
# Poissons Ratio (z) = 0.29252 0.12673
#
# Static dielectric constant tensor:
#      x y z
#    x 5.043640 -0.117320 0.050620 
#    y -0.117320 3.813280 -0.015570 
#    z 0.050620 -0.015570 4.281870 
# 
# 
# High freq. dielectric constant tensor:
#      x y z
#    x 1.879020 0.016450 -0.011260 
#    y 0.016450 1.857810 0.005260 
#    z -0.011260 0.005260 1.884060 
# 
# From -- ./inp_files/418207.got.cif
#   From: 2010.06.25/outbox.cif.g09.slc.cpg/sg2_210_cif.got.tgz:418207.got - 2010.06.27 13:26:56.
