data_PCOD8024047
_publ_section_title
;
Structure prediction by ZEFSAII (Michael W. Deem and Ramdas Pophale) SiO2 
 PCOD8024047
Probable space group: P -1
;
_chemical_formula_sum "Si O2"
_cell_formula_units_Z 14
_cell_length_a 9.666645
_cell_length_b 24.914820
_cell_length_c 5.056721
_cell_angle_alpha 59.862657
_cell_angle_beta 125.261553
_cell_angle_gamma 141.178423
_cell_volume 620.140996
_symmetry_space_group_name_H-M "P -1"
_symmetry_group_IT_number 2
_symmetry_cell_setting 'triclinic'
loop_
_space_group_symop_operation_xyz
x,y,z
-x,-y,-z
loop_
_atom_site_type_symbol
_atom_site_label
_atom_site_fract_x
_atom_site_fract_y
_atom_site_fract_z
Si Si1 0.373249 0.056994 0.125677
Si Si2 0.943820 0.344956 0.867847
Si Si3 0.072967 0.588034 0.806734
Si Si4 0.517528 0.729876 0.668132
Si Si5 0.236709 0.086790 0.421962
Si Si6 0.144622 0.872448 0.294648
Si Si7 0.083428 0.239700 0.189907
O O1 0.262776 0.073967 0.180349
O O2 0.612545 0.092029 0.415087
O O3 0.174843 0.954170 0.100052
O O4 0.430012 0.106443 0.789418
O O5 0.020721 0.390003 0.124436
O O6 0.658215 0.276897 0.704786
O O7 0.042100 0.301397 0.045016
O O8 0.051785 0.418314 0.581922
O O9 0.358161 0.664505 0.898769
O O10 0.000000 0.500000 0.000000
O O11 0.729933 0.829839 0.745679
O O12 0.646206 0.703958 0.737492
O O13 0.000000 0.000000 0.500000
O O14 0.093826 0.828606 0.064527
O O15 0.948428 0.806050 0.459206
#
# Coordination Sequence:
#
# PCOD8024047 Si02
#       7
#     2   2   2   2   2   2   2
#     4  11  23  39  57  84 125 179 224 272 322 366
#     4  10  23  42  69  97 130 170 207 267 328 387
#     4  10  23  46  72  98 130 166 211 265 329 394
#     4  10  26  39  71  93 133 173 216 268 326 375
#     4  12  24  38  59  90 131 175 225 265 315 380
#     4  11  23  38  60  87 130 172 223 275 315 373
#     4  12  24  41  64  98 129 168 221 264 321 392
#
# _framework density 22.575510999999999
#
# number of rings (size 3 to 8) (size 9 to 14) (size 15 to 20)
#    0.857    0.286    0.000    6.857    6.000    2.286 
#    0.000    1.429    0.000    0.000    0.000    0.000 
#    0.000    0.000    0.000    0.000    0.000    0.000 
#
# Total GULP energy -173527.311669 kJ/mol
# GULP energy per Si atom -12394.807976 kJ/mol
# Density = 2.252413 g / cm^3
# Si number density = 22.575511 Si / 1000 Ang^3
#
#
#
# Elastic Constant Matrix: (Units=GPa)
#
#
# Indices 1 2 3 4 5 6 
#
# 1 142.5455 53.6760 42.8021 -17.4143 0.9923 -30.9828
# 2 53.6760 97.4998 28.1995 -31.6442 -1.8831 -12.0707
# 3 42.8021 28.1995 74.0546 -25.5390 -11.5624 -8.3441
# 4 -17.4143 -31.6442 -25.5390 35.9564 -4.3555 -1.1905
# 5 0.9923 -1.8831 -11.5624 -4.3555 42.1065 -0.6522
# 6 -30.9828 -12.0707 -8.3441 -1.1905 -0.6522 35.9118
#
#
#
# Elastic Compliance Matrix: (Units=1/GPa)
#
#
# Indices 1 2 3 4 5 6 
#
# 1 0.011686 -0.004831 -0.005234 -0.002323 -0.002059 0.007128
# 2 -0.004831 0.017626 0.002094 0.015126 0.003085 0.002801
# 3 -0.005234 0.002094 0.023071 0.016778 0.008323 0.002256
# 4 -0.002323 0.015126 0.016778 0.053546 0.011016 0.008954
# 5 -0.002059 0.003085 0.008323 0.011016 0.027393 0.002057
# 6 0.007128 0.002801 0.002256 0.008954 0.002057 0.035795
#
#
# Mechanical properties :
#
#
# Convention : Reuss Voigt Hill
#
# Bulk Modulus (GPa) = 27.44126 62.60611 45.02368
# Shear Modulus (GPa) = 25.35437 35.42309 30.38873
#
# Velocity S-wave (km/s) = 3.35489 3.96548 3.67289
# Velocity P-wave (km/s) = 5.21429 6.98275 6.16229
#
# Compressibility (1/GPa) = 0.03644148
#
# Stress axis : x y z
#
# Youngs Moduli (GPa) = 85.57474 56.73512 43.34444
#
# Poissons Ratio (x) = 0.27407 0.22686
# Poissons Ratio (y) = 0.41338 -0.09076
# Poissons Ratio (z) = 0.44789 -0.11881
#
# Static dielectric constant tensor:
#      x y z
#    x 4.075670 -0.101380 -0.153580 
#    y -0.101380 3.853600 -0.021020 
#    z -0.153580 -0.021020 4.563100 
# 
# 
# High freq. dielectric constant tensor:
#      x y z
#    x 1.895250 -0.011560 -0.002410 
#    y -0.011560 1.865840 -0.001080 
#    z -0.002410 -0.001080 1.904760 
# 
# From -- ./inp_files/51095.got.cif
#   From: 2010.06.25/outbox.cif.g09.slc.cpg/sg2_26_cif.got.tgz:51095.got - 2010.06.27 13:26:56.
