data_PCOD8024939
_publ_section_title
;
Structure prediction by ZEFSAII (Michael W. Deem and Ramdas Pophale) SiO2 
 PCOD8024939
Probable space group: P -1
;
_chemical_formula_sum "Si O2"
_cell_formula_units_Z 16
_cell_length_a 19.666403
_cell_length_b 20.911978
_cell_length_c 5.694665
_cell_angle_alpha 113.147071
_cell_angle_beta 75.858321
_cell_angle_gamma 159.675524
_cell_volume 689.005915
_symmetry_space_group_name_H-M "P -1"
_symmetry_group_IT_number 2
_symmetry_cell_setting 'triclinic'
loop_
_space_group_symop_operation_xyz
x,y,z
-x,-y,-z
loop_
_atom_site_type_symbol
_atom_site_label
_atom_site_fract_x
_atom_site_fract_y
_atom_site_fract_z
Si Si1 0.961425 0.404980 0.708381
Si Si2 0.567848 0.708281 0.346915
Si Si3 0.165469 0.325316 0.410866
Si Si4 0.950997 0.991652 0.279811
Si Si5 0.019089 0.674395 0.040091
Si Si6 0.793515 0.022563 0.937955
Si Si7 0.606749 0.354033 0.982998
Si Si8 0.272090 0.784057 0.768506
O O1 0.732261 0.207254 0.495586
O O2 0.161006 0.605083 0.652236
O O3 0.000000 0.500000 0.000000
O O4 0.956616 0.322443 0.697729
O O5 0.363580 0.482136 0.316167
O O6 0.698900 0.773158 0.183998
O O7 0.488158 0.693173 0.220834
O O8 0.725142 0.887945 0.669712
O O9 0.242316 0.458661 0.706521
O O10 0.084459 0.187840 0.447677
O O11 0.981856 0.181179 0.186598
O O12 0.000000 0.000000 0.500000
O O13 0.000000 0.000000 0.000000
O O14 0.764357 0.442505 0.873590
O O15 0.122958 0.708632 0.863813
O O16 0.136390 0.855778 0.139469
O O17 0.589188 0.861746 0.017587
O O18 0.500000 0.000000 0.000000
#
# Coordination Sequence:
#
# PCOD8024939 Si02
#       8
#     2   2   2   2   2   2   2   2
#     4   9  22  44  62  93 136 173 225 285 339 412
#     4  11  25  47  72 102 146 187 233 300 364 415
#     4  11  25  47  73  99 151 181 233 301 366 413
#     4  12  28  47  75 109 146 197 252 292 356 449
#     4  11  24  40  69 103 133 177 240 284 351 436
#     4  11  24  44  69 104 138 187 229 296 363 423
#     4  11  25  42  71 102 136 183 229 295 360 420
#     4  10  23  44  66  93 137 184 224 288 353 411
#
# _framework density 23.221862999999999
#
# number of rings (size 3 to 8) (size 9 to 14) (size 15 to 20)
#    0.000    1.250    2.500    1.500    7.000    3.000 
#    4.500    0.000    0.000    0.000    0.000    0.000 
#    0.000    0.000    0.000    0.000    0.000    0.000 
#
# Total GULP energy -198210.463476 kJ/mol
# GULP energy per Si atom -12388.153967 kJ/mol
# Density = 2.316901 g / cm^3
# Si number density = 23.221863 Si / 1000 Ang^3
#
#
#
# Elastic Constant Matrix: (Units=GPa)
#
#
# Indices 1 2 3 4 5 6 
#
# 1 123.0511 77.5245 40.2921 -3.0248 27.2295 -4.2996
# 2 77.5245 166.7149 33.8769 5.8969 17.5733 3.0218
# 3 40.2921 33.8769 115.0072 7.5686 31.0116 6.3358
# 4 -3.0248 5.8969 7.5686 36.0753 1.0748 1.3056
# 5 27.2295 17.5733 31.0116 1.0748 38.7873 -13.5042
# 6 -4.2996 3.0218 6.3358 1.3056 -13.5042 62.3121
#
#
#
# Elastic Compliance Matrix: (Units=1/GPa)
#
#
# Indices 1 2 3 4 5 6 
#
# 1 0.013393 -0.005370 -0.001778 0.002536 -0.005583 0.000102
# 2 -0.005370 0.008670 -0.000545 -0.001731 0.000089 -0.000680
# 3 -0.001778 -0.000545 0.012377 -0.002251 -0.009511 -0.003369
# 4 0.002536 -0.001731 -0.002251 0.028693 -0.000033 -0.000121
# 5 -0.005583 0.000089 -0.009511 -0.000033 0.040525 0.009361
# 6 0.000102 -0.000680 -0.003369 -0.000121 0.009361 0.018462
#
#
# Mechanical properties :
#
#
# Convention : Reuss Voigt Hill
#
# Bulk Modulus (GPa) = 52.47903 78.68446 65.58175
# Shear Modulus (GPa) = 34.75646 44.30690 39.53168
#
# Velocity S-wave (km/s) = 3.87293 4.37278 4.13043
# Velocity P-wave (km/s) = 6.53051 7.71053 7.14492
#
# Compressibility (1/GPa) = 0.01905523
#
# Stress axis : x y z
#
# Youngs Moduli (GPa) = 74.66467 115.33592 80.79535
#
# Poissons Ratio (x) = 0.61934 0.14362
# Poissons Ratio (y) = 0.40094 0.04404
# Poissons Ratio (z) = 0.13272 0.06287
#
# Static dielectric constant tensor:
#      x y z
#    x 4.223810 0.117500 0.060020 
#    y 0.117500 4.749470 -0.059480 
#    z 0.060020 -0.059480 4.051340 
# 
# 
# High freq. dielectric constant tensor:
#      x y z
#    x 1.910400 -0.001920 0.020350 
#    y -0.001920 1.937740 -0.010990 
#    z 0.020350 -0.010990 1.919210 
# 
# From -- ./inp_files/120447.got.cif
#   From: 2010.06.25/outbox.cif.g09.slc.cpg/sg2_61_cif.got.tgz:120447.got - 2010.06.27 13:26:56.
