data_PCOD8024455
_publ_section_title
;
Structure prediction by ZEFSAII (Michael W. Deem and Ramdas Pophale) SiO2 
 PCOD8024455
Probable space group: P -1
;
_chemical_formula_sum "Si O2"
_cell_formula_units_Z 16
_cell_length_a 18.918537
_cell_length_b 21.061743
_cell_length_c 8.417540
_cell_angle_alpha 134.917343
_cell_angle_beta 144.462266
_cell_angle_gamma 21.951958
_cell_volume 710.275526
_symmetry_space_group_name_H-M "P -1"
_symmetry_group_IT_number 2
_symmetry_cell_setting 'triclinic'
loop_
_space_group_symop_operation_xyz
x,y,z
-x,-y,-z
loop_
_atom_site_type_symbol
_atom_site_label
_atom_site_fract_x
_atom_site_fract_y
_atom_site_fract_z
Si Si1 0.367225 0.916582 0.240092
Si Si2 0.811158 0.683249 0.799394
Si Si3 0.488834 0.559827 0.420540
Si Si4 0.639513 0.973694 0.880921
Si Si5 0.073269 0.777557 0.487180
Si Si6 0.924069 0.256244 0.206172
Si Si7 0.864357 0.685752 0.268294
Si Si8 0.738862 0.186412 0.310742
O O1 0.556042 0.796453 0.516101
O O2 0.407764 0.801884 0.010973
O O3 0.104729 0.087573 0.128666
O O4 0.410277 0.974807 0.304450
O O5 0.013688 0.485771 0.757954
O O6 0.787291 0.787686 0.834043
O O7 0.847053 0.693413 0.060971
O O8 0.500000 0.500000 0.500000
O O9 0.747971 0.419294 0.571087
O O10 0.376333 0.723118 0.566234
O O11 0.333503 0.604582 0.084784
O O12 0.821265 0.933176 0.212579
O O13 0.394702 0.133455 0.813162
O O14 0.036209 0.809215 0.662188
O O15 0.245647 0.746047 0.676302
O O16 0.971396 0.333240 0.420492
O O17 0.000000 0.000000 0.500000
#
# Coordination Sequence:
#
# PCOD8024455 Si02
#       8
#     2   2   2   2   2   2   2   2
#     4  12  25  43  73  98 145 184 231 291 346 418
#     4  11  25  46  67 105 136 184 235 286 350 414
#     4  10  23  43  67  96 137 177 228 284 341 410
#     4  12  23  47  70 103 141 185 230 287 355 409
#     4  11  24  42  73  98 139 184 227 288 351 413
#     4  12  23  45  69 100 139 187 228 286 355 410
#     4  11  26  45  71 102 144 181 234 293 346 418
#     4  11  22  46  64 103 135 178 229 282 344 412
#
# _framework density 22.52647
#
# number of rings (size 3 to 8) (size 9 to 14) (size 15 to 20)
#    0.000    0.750    5.000    2.625    3.500    2.000 
#    0.000    0.000    0.000    0.000    0.000    0.000 
#    0.000    0.000    0.000    0.000    0.000    0.000 
#
# Total GULP energy -198278.728628 kJ/mol
# GULP energy per Si atom -12392.420539 kJ/mol
# Density = 2.247520 g / cm^3
# Si number density = 22.526470 Si / 1000 Ang^3
#
#
#
# Elastic Constant Matrix: (Units=GPa)
#
#
# Indices 1 2 3 4 5 6 
#
# 1 79.0901 29.4335 5.0393 5.1824 -4.4469 -5.7007
# 2 29.4335 121.6792 27.8082 3.4077 -0.2532 -4.8533
# 3 5.0393 27.8082 97.8758 2.9935 -8.8089 1.3721
# 4 5.1824 3.4077 2.9935 38.7480 2.0512 0.1940
# 5 -4.4469 -0.2532 -8.8089 2.0512 32.3574 -0.1008
# 6 -5.7007 -4.8533 1.3721 0.1940 -0.1008 35.8727
#
#
#
# Elastic Compliance Matrix: (Units=1/GPa)
#
#
# Indices 1 2 3 4 5 6 
#
# 1 0.014258 -0.003430 0.000465 -0.001766 0.002177 0.001800
# 2 -0.003430 0.009698 -0.002687 -0.000132 -0.001116 0.000867
# 3 0.000465 -0.002687 0.011278 -0.000861 0.003166 -0.000707
# 4 -0.001766 -0.000132 -0.000861 0.026238 -0.002143 -0.000413
# 5 0.002177 -0.001116 0.003166 -0.002143 0.032193 0.000176
# 6 0.001800 0.000867 -0.000707 -0.000413 0.000176 0.028309
#
#
# Mechanical properties :
#
#
# Convention : Reuss Voigt Hill
#
# Bulk Modulus (GPa) = 41.78810 47.02302 44.40556
# Shear Modulus (GPa) = 35.39694 37.15322 36.27508
#
# Velocity S-wave (km/s) = 3.96832 4.06558 4.01725
# Velocity P-wave (km/s) = 6.29188 6.55427 6.42441
#
# Compressibility (1/GPa) = 0.02393026
#
# Stress axis : x y z
#
# Youngs Moduli (GPa) = 70.13464 103.11357 88.66999
#
# Poissons Ratio (x) = 0.35363 -0.04123
# Poissons Ratio (y) = 0.24053 0.23829
# Poissons Ratio (z) = -0.03261 0.27710
#
# Static dielectric constant tensor:
#      x y z
#    x 4.377010 -0.585440 -0.756810 
#    y -0.585440 3.528570 -1.486900 
#    z -0.756810 -1.486900 2.470650 
# 
# 
# High freq. dielectric constant tensor:
#      x y z
#    x 1.870380 -0.002740 -0.008920 
#    y -0.002740 1.901920 -0.003080 
#    z -0.008920 -0.003080 1.904310 
# 
# From -- ./inp_files/350034.got.cif
#   From: 2010.06.25/outbox.cif.g09.slc.cpg/sg2_176_cif.got.tgz:350034.got - 2010.06.27 13:26:56.
