data_PCOD8024401
_publ_section_title
;
Structure prediction by ZEFSAII (Michael W. Deem and Ramdas Pophale) SiO2 
 PCOD8024401
Probable space group: P -1
;
_chemical_formula_sum "Si O2"
_cell_formula_units_Z 16
_cell_length_a 12.846015
_cell_length_b 14.570425
_cell_length_c 8.304113
_cell_angle_alpha 149.304834
_cell_angle_beta 102.995488
_cell_angle_gamma 85.828407
_cell_volume 750.022695
_symmetry_space_group_name_H-M "P -1"
_symmetry_group_IT_number 2
_symmetry_cell_setting 'triclinic'
loop_
_space_group_symop_operation_xyz
x,y,z
-x,-y,-z
loop_
_atom_site_type_symbol
_atom_site_label
_atom_site_fract_x
_atom_site_fract_y
_atom_site_fract_z
Si Si1 0.324358 0.517994 0.636517
Si Si2 0.227301 0.121058 0.109086
Si Si3 0.825748 0.247242 0.948316
Si Si4 0.949342 0.822748 0.107438
Si Si5 0.756672 0.562183 0.841140
Si Si6 0.274467 0.769615 0.447053
Si Si7 0.476576 0.688866 0.215065
Si Si8 0.712963 0.877772 0.520632
O O1 0.311320 0.320269 0.418477
O O2 0.339409 0.499251 0.421171
O O3 0.211715 0.588179 0.724642
O O4 0.425055 0.660052 0.972805
O O5 0.208002 0.086338 0.240878
O O6 0.111749 0.114180 0.971389
O O7 0.286262 0.972255 0.829440
O O8 0.813077 0.267758 0.784035
O O9 0.953134 0.262468 0.055653
O O10 0.748630 0.048450 0.670545
O O11 0.868013 0.671664 0.959492
O O12 0.000000 0.000000 0.500000
O O13 0.775333 0.380013 0.658952
O O14 0.718008 0.688275 0.149823
O O15 0.393811 0.752835 0.404858
O O16 0.586375 0.854206 0.494906
O O17 0.500000 0.500000 0.000000
#
# Coordination Sequence:
#
# PCOD8024401 Si02
#       8
#     2   2   2   2   2   2   2   2
#     4  10  23  43  66  96 132 169 215 268 316 384
#     4  11  23  41  67  97 133 168 215 267 318 385
#     4  11  23  44  67  94 133 169 217 270 315 381
#     4  11  22  45  68  95 129 172 213 266 328 377
#     4  11  23  41  67  96 133 169 214 266 319 383
#     4  11  23  42  66  96 134 168 215 268 315 385
#     4  11  22  44  68  95 130 172 213 264 328 377
#     4  12  23  42  67  96 133 171 214 268 318 382
#
# _framework density 21.332687
#
# number of rings (size 3 to 8) (size 9 to 14) (size 15 to 20)
#    0.000    1.000    5.000    2.250    0.000    6.000 
#    0.000    0.000    0.000    0.000    0.000    0.000 
#    0.000    0.000    0.000    0.000    0.000    0.000 
#
# Total GULP energy -198455.650838 kJ/mol
# GULP energy per Si atom -12403.478177 kJ/mol
# Density = 2.128413 g / cm^3
# Si number density = 21.332687 Si / 1000 Ang^3
#
#
#
# Elastic Constant Matrix: (Units=GPa)
#
#
# Indices 1 2 3 4 5 6 
#
# 1 126.8122 42.5306 42.4753 0.6338 -3.5361 -9.9952
# 2 42.5306 122.4449 33.1298 -8.1915 8.6845 -8.9358
# 3 42.4753 33.1298 83.7809 -5.5547 -12.6466 -7.3738
# 4 0.6338 -8.1915 -5.5547 49.4652 0.1419 0.9554
# 5 -3.5361 8.6845 -12.6466 0.1419 44.9231 4.8006
# 6 -9.9952 -8.9358 -7.3738 0.9554 4.8006 24.8854
#
#
#
# Elastic Compliance Matrix: (Units=1/GPa)
#
#
# Indices 1 2 3 4 5 6 
#
# 1 0.010231 -0.002331 -0.004169 -0.001025 -0.000139 0.002103
# 2 -0.002331 0.010317 -0.003094 0.001353 -0.003314 0.002439
# 3 -0.004169 -0.003094 0.016163 0.001322 0.004704 0.001046
# 4 -0.001025 0.001353 0.001322 0.020608 0.000000 -0.000325
# 5 -0.000139 -0.003314 0.004704 0.000000 0.024708 -0.004618
# 6 0.002103 0.002439 0.001046 -0.000325 -0.004618 0.043118
#
#
# Mechanical properties :
#
#
# Convention : Reuss Voigt Hill
#
# Bulk Modulus (GPa) = 57.06725 63.25659 60.16192
# Shear Modulus (GPa) = 33.29486 38.18157 35.73821
#
# Velocity S-wave (km/s) = 3.95491 4.23521 4.09746
# Velocity P-wave (km/s) = 6.90393 7.32344 7.11678
#
# Compressibility (1/GPa) = 0.01752319
#
# Stress axis : x y z
#
# Youngs Moduli (GPa) = 97.74393 96.92512 61.87082
#
# Poissons Ratio (x) = 0.22592 0.25794
# Poissons Ratio (y) = 0.22783 0.19142
# Poissons Ratio (z) = 0.40750 0.29988
#
# Static dielectric constant tensor:
#      x y z
#    x 3.848990 -0.147780 -0.108870 
#    y -0.147780 4.012260 -0.107510 
#    z -0.108870 -0.107510 3.948660 
# 
# 
# High freq. dielectric constant tensor:
#      x y z
#    x 1.822670 -0.009890 -0.010380 
#    y -0.009890 1.848180 -0.005150 
#    z -0.010380 -0.005150 1.847080 
# 
# From -- ./inp_files/274907.got.cif
#   From: 2010.06.25/outbox.cif.g09.slc.cpg/sg2_138_cif.got.tgz:274907.got - 2010.06.27 13:26:56.
