data_PCOD8024022
_publ_section_title
;
Structure prediction by ZEFSAII (Michael W. Deem and Ramdas Pophale) SiO2 
 PCOD8024022
Probable space group: P -1
;
_chemical_formula_sum "Si O2"
_cell_formula_units_Z 16
_cell_length_a 12.721779
_cell_length_b 5.148898
_cell_length_c 11.893138
_cell_angle_alpha 87.642470
_cell_angle_beta 62.674028
_cell_angle_gamma 98.872428
_cell_volume 678.239902
_symmetry_space_group_name_H-M "P -1"
_symmetry_group_IT_number 2
_symmetry_cell_setting 'triclinic'
loop_
_space_group_symop_operation_xyz
x,y,z
-x,-y,-z
loop_
_atom_site_type_symbol
_atom_site_label
_atom_site_fract_x
_atom_site_fract_y
_atom_site_fract_z
Si Si1 0.695692 0.882726 0.091174
Si Si2 0.985801 0.063966 0.375926
Si Si3 0.167383 0.476213 0.580651
Si Si4 0.323741 0.523712 0.720935
Si Si5 0.659916 0.439787 0.705690
Si Si6 0.126053 0.638365 0.982559
Si Si7 0.209981 0.392093 0.147258
Si Si8 0.505971 0.878331 0.751361
O O1 0.637706 0.737884 0.238679
O O2 0.602206 0.082845 0.109958
O O3 0.697130 0.714189 0.980259
O O4 0.833601 0.041364 0.046489
O O5 0.901394 0.279578 0.394536
O O6 0.118633 0.155963 0.258033
O O7 0.926369 0.795750 0.344420
O O8 0.000000 0.000000 0.500000
O O9 0.273071 0.511133 0.621111
O O10 0.231743 0.437844 0.432541
O O11 0.437046 0.771706 0.669488
O O12 0.219001 0.525658 0.862337
O O13 0.715762 0.409820 0.801382
O O14 0.570203 0.643318 0.765204
O O15 0.600806 0.153369 0.689029
O O16 0.130152 0.557660 0.111961
O O17 0.000000 0.500000 0.000000
#
# Coordination Sequence:
#
# PCOD8024022 Si02
#       8
#     2   2   2   2   2   2   2   2
#     4  10  24  47  70 106 147 184 241 299 354 427
#     4  12  27  48  73 107 152 186 232 295 362 431
#     4  12  28  46  76 107 145 192 239 299 356 430
#     4  10  24  46  69 106 143 190 241 295 359 417
#     4  12  27  46  74 105 140 194 245 290 363 418
#     4  10  23  42  69 105 144 188 237 291 359 428
#     4  11  27  42  73 109 143 190 237 291 360 439
#     4  11  25  49  71 103 147 187 243 302 350 421
#
# _framework density 23.590472999999999
#
# number of rings (size 3 to 8) (size 9 to 14) (size 15 to 20)
#    0.000    1.000    2.500    1.875   10.500    3.000 
#    0.000    0.000    0.000    0.000    0.000    0.000 
#    0.000    0.000    0.000    0.000    0.000    0.000 
#
# Total GULP energy -198239.820054 kJ/mol
# GULP energy per Si atom -12389.988753 kJ/mol
# Density = 2.353678 g / cm^3
# Si number density = 23.590473 Si / 1000 Ang^3
#
#
#
# Elastic Constant Matrix: (Units=GPa)
#
#
# Indices 1 2 3 4 5 6 
#
# 1 110.9645 47.2607 25.7759 6.1538 10.6767 0.5560
# 2 47.2607 152.8020 13.5260 -7.7469 7.5786 9.2437
# 3 25.7759 13.5260 68.5554 6.7256 16.0818 -11.5758
# 4 6.1538 -7.7469 6.7256 27.5067 9.7071 -1.3233
# 5 10.6767 7.5786 16.0818 9.7071 30.8875 -2.7907
# 6 0.5560 9.2437 -11.5758 -1.3233 -2.7907 41.2189
#
#
#
# Elastic Compliance Matrix: (Units=1/GPa)
#
#
# Indices 1 2 3 4 5 6 
#
# 1 0.011386 -0.003290 -0.003312 -0.002448 -0.000677 -0.000470
# 2 -0.003290 0.008011 -0.000597 0.003700 -0.001854 -0.001926
# 3 -0.003312 -0.000597 0.018672 -0.001055 -0.007659 0.004870
# 4 -0.002448 0.003700 -0.001055 0.042763 -0.013006 -0.000601
# 5 -0.000677 -0.001854 -0.007659 -0.013006 0.041198 0.000646
# 6 -0.000470 -0.001926 0.004870 -0.000601 0.000646 0.026091
#
#
# Mechanical properties :
#
#
# Convention : Reuss Voigt Hill
#
# Bulk Modulus (GPa) = 42.24653 56.16078 49.20365
# Shear Modulus (GPa) = 29.34090 36.30658 32.82374
#
# Velocity S-wave (km/s) = 3.53053 3.92731 3.73419
# Velocity P-wave (km/s) = 5.87934 6.66508 6.28450
#
# Compressibility (1/GPa) = 0.02367058
#
# Stress axis : x y z
#
# Youngs Moduli (GPa) = 87.82733 124.82745 53.55532
#
# Poissons Ratio (x) = 0.41074 0.17739
# Poissons Ratio (y) = 0.28899 0.03195
# Poissons Ratio (z) = 0.29090 0.07448
#
# Static dielectric constant tensor:
#      x y z
#    x 6.923860 -1.087800 0.079480 
#    y -1.087800 5.213950 -0.186070 
#    z 0.079480 -0.186070 4.094850 
# 
# 
# High freq. dielectric constant tensor:
#      x y z
#    x 1.939750 0.009120 -0.006170 
#    y 0.009120 1.951840 -0.001120 
#    z -0.006170 -0.001120 1.918010 
# 
# From -- ./inp_files/410491.got.cif
#   From: 2010.06.25/outbox.cif.g09.slc.cpg/sg2_206_cif.got.tgz:410491.got - 2010.06.27 13:26:56.
