data_PCOD8024180
_publ_section_title
;
Structure prediction by ZEFSAII (Michael W. Deem and Ramdas Pophale) SiO2 
 PCOD8024180
Probable space group: P -1
;
_chemical_formula_sum "Si O2"
_cell_formula_units_Z 16
_cell_length_a 15.231498
_cell_length_b 15.124285
_cell_length_c 15.232763
_cell_angle_alpha 36.427390
_cell_angle_beta 160.667074
_cell_angle_gamma 143.467526
_cell_volume 672.100482
_symmetry_space_group_name_H-M "P -1"
_symmetry_group_IT_number 2
_symmetry_cell_setting 'triclinic'
loop_
_space_group_symop_operation_xyz
x,y,z
-x,-y,-z
loop_
_atom_site_type_symbol
_atom_site_label
_atom_site_fract_x
_atom_site_fract_y
_atom_site_fract_z
Si Si1 0.256149 0.727196 0.763624
Si Si2 0.855439 0.238024 0.017543
Si Si3 0.834572 0.908947 0.185168
Si Si4 0.532662 0.251666 0.422914
Si Si5 0.635043 0.662153 0.460236
Si Si6 0.708859 0.394830 0.293325
Si Si7 0.048001 0.941967 0.995721
Si Si8 0.840734 0.486651 0.656896
O O1 0.286958 0.709485 0.703275
O O2 0.069320 0.849387 0.505158
O O3 0.122024 0.562763 0.811791
O O4 0.551270 0.790675 0.033064
O O5 0.114279 0.256858 0.308450
O O6 0.815059 0.076552 0.061954
O O7 0.592256 0.236834 0.831977
O O8 0.898391 0.372595 0.878092
O O9 0.900579 0.917011 0.136447
O O10 0.619946 0.283467 0.379842
O O11 0.682693 0.124086 0.701226
O O12 0.618208 0.401480 0.444895
O O13 0.208538 0.189834 0.172901
O O14 0.500000 0.500000 0.500000
O O15 0.732072 0.629834 0.480111
O O16 0.000000 0.500000 0.500000
O O17 0.500000 0.500000 0.000000
O O18 0.000000 0.000000 0.000000
#
# Coordination Sequence:
#
# PCOD8024180 Si02
#       8
#     2   2   2   2   2   2   2   2
#     4  12  27  45  68 103 143 183 226 279 349 412
#     4  11  24  46  72 102 137 180 230 286 350 405
#     4  12  26  46  69 100 143 185 224 282 349 412
#     4  12  25  41  73 102 131 182 243 286 328 406
#     4  10  23  42  72 105 137 172 227 298 346 400
#     4  12  24  44  64  99 146 184 222 282 349 401
#     4  12  25  44  68  98 138 182 235 286 338 404
#     4  11  25  45  74 107 135 179 239 286 343 416
#
# _framework density 23.805966000000002
#
# number of rings (size 3 to 8) (size 9 to 14) (size 15 to 20)
#    0.000    0.500    2.500    6.375    3.500    4.000 
#    0.000    3.750    0.000    0.000    0.000    0.000 
#    0.000    0.000    0.000    0.000    0.000    0.000 
#
# Total GULP energy -198463.354627 kJ/mol
# GULP energy per Si atom -12403.959664 kJ/mol
# Density = 2.375178 g / cm^3
# Si number density = 23.805966 Si / 1000 Ang^3
#
#
#
# Elastic Constant Matrix: (Units=GPa)
#
#
# Indices 1 2 3 4 5 6 
#
# 1 82.7378 29.2224 0.3937 7.8341 2.7569 -7.6765
# 2 29.2224 99.7256 28.5835 18.4177 3.4280 -3.8822
# 3 0.3937 28.5835 102.9579 17.3906 18.9556 3.3783
# 4 7.8341 18.4177 17.3906 45.6801 -1.8232 4.8976
# 5 2.7569 3.4280 18.9556 -1.8232 25.4778 -2.0896
# 6 -7.6765 -3.8822 3.3783 4.8976 -2.0896 41.7744
#
#
#
# Elastic Compliance Matrix: (Units=1/GPa)
#
#
# Indices 1 2 3 4 5 6 
#
# 1 0.013961 -0.004107 0.001704 -0.001703 -0.002173 0.002137
# 2 -0.004107 0.012766 -0.003180 -0.003315 0.000948 0.001125
# 3 0.001704 -0.003180 0.013186 -0.004316 -0.009961 -0.001041
# 4 -0.001703 -0.003315 -0.004316 0.025703 0.005434 -0.003014
# 5 -0.002173 0.000948 -0.009961 0.005434 0.047340 0.002225
# 6 0.002137 0.001125 -0.001041 -0.003014 0.002225 0.024984
#
#
# Mechanical properties :
#
#
# Convention : Reuss Voigt Hill
#
# Bulk Modulus (GPa) = 34.78527 44.64674 39.71600
# Shear Modulus (GPa) = 31.50843 37.73457 34.62150
#
# Velocity S-wave (km/s) = 3.64201 3.98564 3.81769
# Velocity P-wave (km/s) = 5.68589 6.32262 6.01269
#
# Compressibility (1/GPa) = 0.02874780
#
# Stress axis : x y z
#
# Youngs Moduli (GPa) = 71.62946 78.33419 75.83689
#
# Poissons Ratio (x) = 0.32172 -0.12925
# Poissons Ratio (y) = 0.29418 0.24115
# Poissons Ratio (z) = -0.12208 0.24909
#
# Static dielectric constant tensor:
#      x y z
#    x 4.926380 -0.006830 0.527380 
#    y -0.006830 4.219150 0.144380 
#    z 0.527380 0.144380 4.661080 
# 
# 
# High freq. dielectric constant tensor:
#      x y z
#    x 1.951530 -0.004890 0.009890 
#    y -0.004890 1.942510 0.007400 
#    z 0.009890 0.007400 1.952700 
# 
# From -- ./inp_files/534300.got.cif
#   From: 2010.06.25/outbox.cif.g09.slc.cpg/sg2_268_cif.got.tgz:534300.got - 2010.06.27 13:26:56.
