data_PCOD8024060
_publ_section_title
;
Structure prediction by ZEFSAII (Michael W. Deem and Ramdas Pophale) SiO2 
 PCOD8024060
Probable space group: P -1
;
_chemical_formula_sum "Si O2"
_cell_formula_units_Z 12
_cell_length_a 15.121093
_cell_length_b 15.088317
_cell_length_c 8.693203
_cell_angle_alpha 136.185342
_cell_angle_beta 30.014938
_cell_angle_gamma 145.338806
_cell_volume 563.942974
_symmetry_space_group_name_H-M "P -1"
_symmetry_group_IT_number 2
_symmetry_cell_setting 'triclinic'
loop_
_space_group_symop_operation_xyz
x,y,z
-x,-y,-z
loop_
_atom_site_type_symbol
_atom_site_label
_atom_site_fract_x
_atom_site_fract_y
_atom_site_fract_z
Si Si1 0.089194 0.911546 0.171957
Si Si2 0.725470 0.561233 0.311424
Si Si3 0.580527 0.617772 0.890716
Si Si4 0.470555 0.975206 0.195638
Si Si5 0.204570 0.063407 0.874826
Si Si6 0.772723 0.379868 0.777752
O O1 0.901958 0.733892 0.210513
O O2 0.000000 0.000000 0.500000
O O3 0.289761 0.946291 0.009556
O O4 0.159487 0.950264 0.939540
O O5 0.500000 0.500000 0.500000
O O6 0.705036 0.565805 0.531690
O O7 0.791961 0.449898 0.007120
O O8 0.500000 0.500000 0.000000
O O9 0.743609 0.780935 0.929664
O O10 0.404799 0.625040 0.068241
O O11 0.303572 0.797162 0.289771
O O12 0.392202 0.080233 0.508486
O O13 0.500000 0.000000 0.000000
O O14 0.000000 0.000000 0.000000
O O15 0.000000 0.500000 0.500000
#
# Coordination Sequence:
#
# PCOD8024060 Si02
#       6
#     2   2   2   2   2   2
#     4  12  22  46  73 101 139 184 233 295 353 418
#     4  10  23  42  69  98 135 180 227 281 354 421
#     4  11  26  44  69 103 139 181 237 284 354 425
#     4  12  28  46  72 107 142 186 246 293 352 421
#     4  12  27  44  71 102 142 188 238 291 349 417
#     4  11  25  47  71 102 143 185 229 294 358 420
#
# _framework density 21.278746000000002
#
# number of rings (size 3 to 8) (size 9 to 14) (size 15 to 20)
#    0.000    0.667    3.333    3.500   11.667    0.000 
#    0.000    1.667    0.000    0.000    0.000    0.000 
#    0.000    0.000    0.000    0.000    0.000    0.000 
#
# Total GULP energy -148680.377829 kJ/mol
# GULP energy per Si atom -12390.031486 kJ/mol
# Density = 2.123031 g / cm^3
# Si number density = 21.278746 Si / 1000 Ang^3
#
#
#
# Elastic Constant Matrix: (Units=GPa)
#
#
# Indices 1 2 3 4 5 6 
#
# 1 153.4246 44.4667 55.9279 -7.7353 15.5944 8.3578
# 2 44.4667 136.7700 28.8472 -11.2951 9.6303 17.0605
# 3 55.9279 28.8472 143.3792 4.7236 21.1001 21.6796
# 4 -7.7353 -11.2951 4.7236 41.6562 5.0717 8.6346
# 5 15.5944 9.6303 21.1001 5.0717 49.1022 -7.4774
# 6 8.3578 17.0605 21.6796 8.6346 -7.4774 45.3085
#
#
#
# Elastic Compliance Matrix: (Units=1/GPa)
#
#
# Indices 1 2 3 4 5 6 
#
# 1 0.008256 -0.001905 -0.002704 0.001473 -0.001238 0.000003
# 2 -0.001905 0.008847 -0.000295 0.003084 -0.001891 -0.003739
# 3 -0.002704 -0.000295 0.009313 -0.000270 -0.003729 -0.004410
# 4 0.001473 0.003084 -0.000270 0.027255 -0.004884 -0.007304
# 5 -0.001238 -0.001891 -0.003729 -0.004884 0.024407 0.007684
# 6 0.000003 -0.003739 -0.004410 -0.007304 0.007684 0.028248
#
#
# Mechanical properties :
#
#
# Convention : Reuss Voigt Hill
#
# Bulk Modulus (GPa) = 60.21109 76.89529 68.55319
# Shear Modulus (GPa) = 41.09468 47.50219 44.29844
#
# Velocity S-wave (km/s) = 4.39937 4.72993 4.56764
# Velocity P-wave (km/s) = 7.35960 8.12682 7.75271
#
# Compressibility (1/GPa) = 0.01660824
#
# Stress axis : x y z
#
# Youngs Moduli (GPa) = 121.12974 113.02753 107.37622
#
# Poissons Ratio (x) = 0.21536 0.29032
# Poissons Ratio (y) = 0.23080 0.03165
# Poissons Ratio (z) = 0.32750 0.03332
#
# Static dielectric constant tensor:
#      x y z
#    x 3.954760 0.160130 0.352580 
#    y 0.160130 3.805310 -0.362180 
#    z 0.352580 -0.362180 3.471650 
# 
# 
# High freq. dielectric constant tensor:
#      x y z
#    x 1.838520 0.013210 0.021160 
#    y 0.013210 1.849910 -0.002150 
#    z 0.021160 -0.002150 1.852420 
# 
# From -- ./inp_files/148632.got.cif
#   From: 2010.06.25/outbox.cif.g09.slc.cpg/sg2_75_cif.got.tgz:148632.got - 2010.06.27 13:26:56.
