data_PCOD8024913
_publ_section_title
;
Structure prediction by ZEFSAII (Michael W. Deem and Ramdas Pophale) SiO2 
 PCOD8024913
Probable space group: P -1
;
_chemical_formula_sum "Si O2"
_cell_formula_units_Z 16
_cell_length_a 15.614303
_cell_length_b 9.736436
_cell_length_c 9.685949
_cell_angle_alpha 115.596418
_cell_angle_beta 63.709385
_cell_angle_gamma 143.535462
_cell_volume 776.651572
_symmetry_space_group_name_H-M "P -1"
_symmetry_group_IT_number 2
_symmetry_cell_setting 'triclinic'
loop_
_space_group_symop_operation_xyz
x,y,z
-x,-y,-z
loop_
_atom_site_type_symbol
_atom_site_label
_atom_site_fract_x
_atom_site_fract_y
_atom_site_fract_z
Si Si1 0.605092 0.995668 0.472672
Si Si2 0.613819 0.825855 0.128172
Si Si3 0.592298 0.463074 0.077612
Si Si4 0.090224 0.174754 0.886017
Si Si5 0.923048 0.030013 0.472822
Si Si6 0.926944 0.471948 0.407583
Si Si7 0.594609 0.743541 0.608530
Si Si8 0.936745 0.300954 0.058162
O O1 0.756470 0.264432 0.466628
O O2 0.500000 0.000000 0.500000
O O3 0.584422 0.836075 0.310007
O O4 0.584977 0.891362 0.592320
O O5 0.629539 0.664882 0.061866
O O6 0.762686 0.074653 0.067784
O O7 0.482046 0.722333 0.075679
O O8 0.743653 0.582529 0.082721
O O9 0.469268 0.310917 0.217461
O O10 0.084578 0.043360 0.710239
O O11 0.015666 0.242209 0.928764
O O12 0.000000 0.000000 0.000000
O O13 0.025980 0.297816 0.544945
O O14 0.759669 0.881557 0.567528
O O15 0.000000 0.000000 0.500000
O O16 0.975169 0.409898 0.229367
O O17 0.000000 0.500000 0.500000
O O18 0.500000 0.500000 0.500000
O O19 0.000000 0.500000 0.000000
#
# Coordination Sequence:
#
# PCOD8024913 Si02
#       8
#     2   2   2   2   2   2   2   2
#     4  11  25  44  69  99 139 182 225 277 346 413
#     4  10  23  44  65  98 135 180 219 277 345 400
#     4  11  24  42  72  98 136 176 228 281 340 396
#     4  12  24  44  69 101 132 175 235 277 328 408
#     4  12  27  43  72 106 131 179 238 280 334 409
#     4  11  24  45  66  95 140 181 220 279 348 398
#     4  12  24  45  70  98 142 179 226 290 337 403
#     4  11  25  43  66  95 137 175 217 282 341 396
#
# _framework density 20.601258000000001
#
# number of rings (size 3 to 8) (size 9 to 14) (size 15 to 20)
#    0.000    0.750    5.000    1.500    5.250    4.000 
#    0.000    1.250    0.000    0.000    0.000    0.000 
#    0.000    0.000    0.000    0.000    0.000    0.000 
#
# Total GULP energy -198265.771126 kJ/mol
# GULP energy per Si atom -12391.610695 kJ/mol
# Density = 2.055437 g / cm^3
# Si number density = 20.601258 Si / 1000 Ang^3
#
#
#
# Elastic Constant Matrix: (Units=GPa)
#
#
# Indices 1 2 3 4 5 6 
#
# 1 105.4632 36.4115 16.9378 -3.6282 1.4091 9.2000
# 2 36.4115 123.5093 53.5017 -3.1304 2.4247 1.9662
# 3 16.9378 53.5017 76.4691 -5.7059 9.5808 20.8848
# 4 -3.6282 -3.1304 -5.7059 43.4719 0.5890 5.9994
# 5 1.4091 2.4247 9.5808 0.5890 31.5011 4.9943
# 6 9.2000 1.9662 20.8848 5.9994 4.9943 38.5175
#
#
#
# Elastic Compliance Matrix: (Units=1/GPa)
#
#
# Indices 1 2 3 4 5 6 
#
# 1 0.010868 -0.003582 0.001064 0.001228 -0.000054 -0.003174
# 2 -0.003582 0.013608 -0.010663 -0.001566 0.001434 0.006001
# 3 0.001064 -0.010663 0.024857 0.004479 -0.004767 -0.013267
# 4 0.001228 -0.001566 0.004479 0.024468 -0.000746 -0.006356
# 5 -0.000054 0.001434 -0.004767 -0.000746 0.033368 -0.001686
# 6 -0.003174 0.006001 -0.013267 -0.006356 -0.001686 0.034816
#
#
# Mechanical properties :
#
#
# Convention : Reuss Voigt Hill
#
# Bulk Modulus (GPa) = 43.53293 57.68262 50.60778
# Shear Modulus (GPa) = 28.40850 35.93746 32.17298
#
# Velocity S-wave (km/s) = 3.71748 4.18117 3.95612
# Velocity P-wave (km/s) = 6.29311 7.16728 6.74437
#
# Compressibility (1/GPa) = 0.02297112
#
# Stress axis : x y z
#
# Youngs Moduli (GPa) = 92.01601 73.48505 40.23072
#
# Poissons Ratio (x) = 0.26324 -0.04282
# Poissons Ratio (y) = 0.32963 0.42898
# Poissons Ratio (z) = -0.09795 0.78356
#
# Static dielectric constant tensor:
#      x y z
#    x 3.638230 0.037560 0.192710 
#    y 0.037560 4.460660 0.004590 
#    z 0.192710 0.004590 3.940160 
# 
# 
# High freq. dielectric constant tensor:
#      x y z
#    x 1.807530 0.006840 0.012310 
#    y 0.006840 1.826330 0.001330 
#    z 0.012310 0.001330 1.812410 
# 
# From -- ./inp_files/205139.got.cif
#   From: 2010.06.25/outbox.cif.g09.slc.cpg/sg2_103_cif.got.tgz:205139.got - 2010.06.27 13:26:56.
