data_PCOD8024036
_publ_section_title
;
Structure prediction by ZEFSAII (Michael W. Deem and Ramdas Pophale) SiO2 
 PCOD8024036
Probable space group: P -1
;
_chemical_formula_sum "Si O2"
_cell_formula_units_Z 16
_cell_length_a 12.087690
_cell_length_b 13.944529
_cell_length_c 6.684390
_cell_angle_alpha 88.828028
_cell_angle_beta 129.285749
_cell_angle_gamma 71.538206
_cell_volume 788.828393
_symmetry_space_group_name_H-M "P -1"
_symmetry_group_IT_number 2
_symmetry_cell_setting 'triclinic'
loop_
_space_group_symop_operation_xyz
x,y,z
-x,-y,-z
loop_
_atom_site_type_symbol
_atom_site_label
_atom_site_fract_x
_atom_site_fract_y
_atom_site_fract_z
Si Si1 0.681233 0.585818 0.066347
Si Si2 0.093154 0.318946 0.532276
Si Si3 0.705310 0.905316 0.382515
Si Si4 0.807925 0.387282 0.472299
Si Si5 0.118908 0.541739 0.046173
Si Si6 0.814665 0.031891 0.779652
Si Si7 0.617777 0.087000 0.951878
Si Si8 0.343478 0.768411 0.697588
O O1 0.785070 0.628329 0.317212
O O2 0.682791 0.485052 0.194288
O O3 0.749136 0.552052 0.924152
O O4 0.509425 0.676775 0.824250
O O5 0.183037 0.193865 0.616915
O O6 0.988082 0.352735 0.610604
O O7 0.979038 0.358896 0.210113
O O8 0.563121 0.883693 0.321473
O O9 0.796249 0.932257 0.664774
O O10 0.650153 0.000436 0.161486
O O11 0.793938 0.420945 0.686200
O O12 0.777704 0.283601 0.412586
O O13 0.000000 0.500000 0.000000
O O14 0.741180 0.046021 0.915159
O O15 0.720635 0.140402 0.546814
O O16 0.000000 0.000000 0.000000
O O17 0.635105 0.186894 0.065398
#
# Coordination Sequence:
#
# PCOD8024036 Si02
#       8
#     2   2   2   2   2   2   2   2
#     4  11  22  43  63  93 127 165 216 258 304 379
#     4  11  22  38  68  93 122 168 215 253 313 374
#     4  10  23  42  69  95 121 170 211 261 321 370
#     4  11  24  40  63  94 129 167 210 258 312 374
#     4  11  21  38  62  93 127 160 208 261 305 365
#     4  11  27  43  64  99 130 161 213 264 320 383
#     4  10  23  46  66  91 130 160 215 269 310 382
#     4  11  26  42  64  94 126 173 206 256 328 370
#
# _framework density 20.283246999999999
#
# number of rings (size 3 to 8) (size 9 to 14) (size 15 to 20)
#    0.000    1.250    3.750    1.500    5.250    4.500 
#    0.000    0.000    0.000    0.000    0.000    0.000 
#    0.000    0.000    0.000    0.000    0.000    0.000 
#
# Total GULP energy -198425.287615 kJ/mol
# GULP energy per Si atom -12401.580476 kJ/mol
# Density = 2.023708 g / cm^3
# Si number density = 20.283247 Si / 1000 Ang^3
#
#
#
# Elastic Constant Matrix: (Units=GPa)
#
#
# Indices 1 2 3 4 5 6 
#
# 1 85.6869 21.6593 39.9830 11.1871 1.0800 -5.4498
# 2 21.6593 103.2226 25.7776 20.2468 2.6213 -0.8230
# 3 39.9830 25.7776 77.6335 20.2780 8.2104 -5.9868
# 4 11.1871 20.2468 20.2780 36.3923 -8.3392 7.4016
# 5 1.0800 2.6213 8.2104 -8.3392 30.9057 2.6646
# 6 -5.4498 -0.8230 -5.9868 7.4016 2.6646 38.1967
#
#
#
# Elastic Compliance Matrix: (Units=1/GPa)
#
#
# Indices 1 2 3 4 5 6 
#
# 1 0.015659 -0.001489 -0.007880 0.000672 0.001793 0.000712
# 2 -0.001489 0.011555 -0.001117 -0.006145 -0.002394 0.001219
# 3 -0.007880 -0.001117 0.021937 -0.012386 -0.009260 0.005336
# 4 0.000672 -0.006145 -0.012386 0.043757 0.016596 -0.011615
# 5 0.001793 -0.002394 -0.009260 0.016596 0.040061 -0.007258
# 6 0.000712 0.001219 0.005336 -0.011615 -0.007258 0.029901
#
#
# Mechanical properties :
#
#
# Convention : Reuss Voigt Hill
#
# Bulk Modulus (GPa) = 35.49090 49.04254 42.26672
# Shear Modulus (GPa) = 25.87497 33.04049 29.45773
#
# Velocity S-wave (km/s) = 3.57554 4.04041 3.81506
# Velocity P-wave (km/s) = 5.88062 6.78217 6.34742
#
# Compressibility (1/GPa) = 0.02817624
#
# Stress axis : x y z
#
# Youngs Moduli (GPa) = 63.86134 86.54117 45.58567
#
# Poissons Ratio (x) = 0.12890 0.35923
# Poissons Ratio (y) = 0.09512 0.05094
# Poissons Ratio (z) = 0.50325 0.09671
#
# Static dielectric constant tensor:
#      x y z
#    x 3.999920 -0.008200 -0.169580 
#    y -0.008200 3.862050 0.176880 
#    z -0.169580 0.176880 3.943850 
# 
# 
# High freq. dielectric constant tensor:
#      x y z
#    x 1.792510 -0.002920 0.004480 
#    y -0.002920 1.807190 0.007410 
#    z 0.004480 0.007410 1.789890 
# 
# From -- ./inp_files/37395.got.cif
#   From: 2010.06.25/outbox.cif.g09.slc.cpg/sg2_19_cif.got.tgz:37395.got - 2010.06.27 13:26:56.
