data_PCOD8024499
_publ_section_title
;
Structure prediction by ZEFSAII (Michael W. Deem and Ramdas Pophale) SiO2 
 PCOD8024499
Probable space group: P -1
;
_chemical_formula_sum "Si O2"
_cell_formula_units_Z 14
_cell_length_a 15.269220
_cell_length_b 12.495120
_cell_length_c 20.977382
_cell_angle_alpha 147.582873
_cell_angle_beta 18.097506
_cell_angle_gamma 137.233906
_cell_volume 607.889624
_symmetry_space_group_name_H-M "P -1"
_symmetry_group_IT_number 2
_symmetry_cell_setting 'triclinic'
loop_
_space_group_symop_operation_xyz
x,y,z
-x,-y,-z
loop_
_atom_site_type_symbol
_atom_site_label
_atom_site_fract_x
_atom_site_fract_y
_atom_site_fract_z
Si Si1 0.371649 0.912055 0.907767
Si Si2 0.410489 0.223424 0.587137
Si Si3 0.067815 0.191602 0.926790
Si Si4 0.268904 0.818147 0.184014
Si Si5 0.980860 0.922854 0.299408
Si Si6 0.815888 0.437285 0.349587
Si Si7 0.550970 0.609490 0.082575
O O1 0.687502 0.700013 0.567675
O O2 0.434063 0.129621 0.979765
O O3 0.115072 0.938816 0.045113
O O4 0.258376 0.877938 0.037315
O O5 0.190884 0.309955 0.845884
O O6 0.581098 0.374939 0.523658
O O7 0.647847 0.977481 0.314978
O O8 0.209965 0.215468 0.660835
O O9 0.842155 0.360801 0.219151
O O10 0.369280 0.564822 0.003280
O O11 0.000000 0.000000 0.500000
O O12 0.154177 0.836315 0.201096
O O13 0.756242 0.178743 0.584653
O O14 0.148930 0.333780 0.102245
O O15 0.500000 0.500000 0.000000
#
# Coordination Sequence:
#
# PCOD8024499 Si02
#       7
#     2   2   2   2   2   2   2
#     4  11  26  45  67 104 138 183 235 290 350 418
#     4  10  24  43  70 105 139 181 229 295 347 418
#     4  10  23  43  68 104 142 174 237 283 352 422
#     4  12  25  44  72 101 140 184 232 296 342 410
#     4  11  25  49  68 101 146 177 238 292 347 422
#     4  12  24  42  72 103 137 187 229 288 356 418
#     4  12  26  44  71 105 137 187 240 282 352 420
#
# _framework density 23.030497
#
# number of rings (size 3 to 8) (size 9 to 14) (size 15 to 20)
#    0.000    0.857    4.286    1.286    4.000    5.143 
#    0.000    0.000    0.000    0.000    0.000    0.000 
#    0.000    0.000    0.000    0.000    0.000    0.000 
#
# Total GULP energy -173575.957490 kJ/mol
# GULP energy per Si atom -12398.282678 kJ/mol
# Density = 2.297808 g / cm^3
# Si number density = 23.030497 Si / 1000 Ang^3
#
#
#
# Elastic Constant Matrix: (Units=GPa)
#
#
# Indices 1 2 3 4 5 6 
#
# 1 120.9157 43.1946 21.8419 -29.4396 2.6857 5.4362
# 2 43.1946 115.1719 17.0839 -15.6536 -4.3938 4.2131
# 3 21.8419 17.0839 84.7504 -5.1718 0.9332 -11.7282
# 4 -29.4396 -15.6536 -5.1718 32.4104 0.9476 -11.1277
# 5 2.6857 -4.3938 0.9332 0.9476 27.7240 -7.5920
# 6 5.4362 4.2131 -11.7282 -11.1277 -7.5920 26.4842
#
#
#
# Elastic Compliance Matrix: (Units=1/GPa)
#
#
# Indices 1 2 3 4 5 6 
#
# 1 0.011977 -0.003038 -0.001784 0.009418 -0.001712 0.000702
# 2 -0.003038 0.010344 -0.001240 0.001900 0.001844 -0.000244
# 3 -0.001784 -0.001240 0.013816 0.002801 0.001701 0.008346
# 4 0.009418 0.001900 0.002801 0.047500 0.003108 0.019854
# 5 -0.001712 0.001844 0.001701 0.003108 0.040091 0.013610
# 6 0.000702 -0.000244 0.008346 0.019854 0.013610 0.053592
#
#
# Mechanical properties :
#
#
# Convention : Reuss Voigt Hill
#
# Bulk Modulus (GPa) = 41.64398 53.89765 47.77081
# Shear Modulus (GPa) = 25.32293 33.23823 29.28058
#
# Velocity S-wave (km/s) = 3.31953 3.80310 3.56951
# Velocity P-wave (km/s) = 5.72832 6.53746 6.14622
#
# Compressibility (1/GPa) = 0.02401308
#
# Stress axis : x y z
#
# Youngs Moduli (GPa) = 83.49065 96.67731 72.37840
#
# Poissons Ratio (x) = 0.29374 0.12910
# Poissons Ratio (y) = 0.25367 0.08976
# Poissons Ratio (z) = 0.14892 0.11989
#
# Static dielectric constant tensor:
#      x y z
#    x 4.788710 0.735780 0.044030 
#    y 0.735780 4.934350 -0.123800 
#    z 0.044030 -0.123800 4.304430 
# 
# 
# High freq. dielectric constant tensor:
#      x y z
#    x 1.924500 0.011370 -0.000830 
#    y 0.011370 1.907500 -0.010090 
#    z -0.000830 -0.010090 1.916770 
# 
# From -- ./inp_files/312531.got.cif
#   From: 2010.06.25/outbox.cif.g09.slc.cpg/sg2_157_cif.got.tgz:312531.got - 2010.06.27 13:26:56.
