data_PCOD8024074
_publ_section_title
;
Structure prediction by ZEFSAII (Michael W. Deem and Ramdas Pophale) SiO2 
 PCOD8024074
Probable space group: P -1
;
_chemical_formula_sum "Si O2"
_cell_formula_units_Z 14
_cell_length_a 17.663256
_cell_length_b 7.741585
_cell_length_c 5.328518
_cell_angle_alpha 61.598875
_cell_angle_beta 82.496561
_cell_angle_gamma 62.718074
_cell_volume 566.061932
_symmetry_space_group_name_H-M "P -1"
_symmetry_group_IT_number 2
_symmetry_cell_setting 'triclinic'
loop_
_space_group_symop_operation_xyz
x,y,z
-x,-y,-z
loop_
_atom_site_type_symbol
_atom_site_label
_atom_site_fract_x
_atom_site_fract_y
_atom_site_fract_z
Si Si1 0.246348 0.957415 0.268072
Si Si2 0.281021 0.367021 0.988080
Si Si3 0.989346 0.137741 0.662718
Si Si4 0.427739 0.628251 0.248397
Si Si5 0.538027 0.779734 0.798386
Si Si6 0.198344 0.487683 0.444988
Si Si7 0.833669 0.920999 0.284740
O O1 0.342529 0.772886 0.333719
O O2 0.240447 0.198597 0.108819
O O3 0.211080 0.912541 0.577645
O O4 0.188114 0.945105 0.066136
O O5 0.384822 0.232439 0.050507
O O6 0.236086 0.526893 0.137818
O O7 0.255461 0.505193 0.641218
O O8 0.899741 0.351707 0.564520
O O9 0.065672 0.208308 0.603696
O O10 0.000000 0.000000 0.500000
O O11 0.000000 0.000000 0.000000
O O12 0.500000 0.500000 0.500000
O O13 0.415635 0.449442 0.211488
O O14 0.455809 0.789052 0.971341
O O15 0.500000 0.000000 0.500000
O O16 0.208794 0.241870 0.601666
#
# Coordination Sequence:
#
# PCOD8024074 Si02
#       7
#     2   2   2   2   2   2   2
#     4  10  23  42  71  96 137 173 233 285 349 412
#     4  10  23  42  70 100 131 181 229 287 349 412
#     4  12  25  42  65 100 137 175 223 282 346 411
#     4  11  27  45  68 106 140 190 239 293 359 421
#     4  11  27  45  72 102 145 190 237 299 355 422
#     4  10  23  44  68  98 132 176 230 275 343 424
#     4  10  23  44  69  97 130 182 218 285 341 412
#
# _framework density 24.732274
#
# number of rings (size 3 to 8) (size 9 to 14) (size 15 to 20)
#    0.000    1.429    0.000    3.000   12.000    4.571 
#    0.000    5.714    0.000    0.000    0.000    0.000 
#    0.000    0.000    0.000    0.000    0.000    0.000 
#
# Total GULP energy -173579.606055 kJ/mol
# GULP energy per Si atom -12398.543290 kJ/mol
# Density = 2.467598 g / cm^3
# Si number density = 24.732274 Si / 1000 Ang^3
#
#
#
# Elastic Constant Matrix: (Units=GPa)
#
#
# Indices 1 2 3 4 5 6 
#
# 1 120.3397 48.6627 47.5985 8.3327 30.5589 -16.8957
# 2 48.6627 106.7370 60.6200 30.6837 9.9248 -33.1416
# 3 47.5985 60.6200 174.2555 32.1326 31.4329 -9.0273
# 4 8.3327 30.6837 32.1326 31.9921 -1.7389 9.0726
# 5 30.5589 9.9248 31.4329 -1.7389 48.9080 -5.3309
# 6 -16.8957 -33.1416 -9.0273 9.0726 -5.3309 45.5812
#
#
#
# Elastic Compliance Matrix: (Units=1/GPa)
#
#
# Indices 1 2 3 4 5 6 
#
# 1 0.012088 -0.005847 -0.000928 0.003450 -0.005791 -0.001318
# 2 -0.005847 0.031321 -0.001475 -0.034760 -0.000023 0.027230
# 3 -0.000928 -0.001475 0.008954 -0.007997 -0.005012 0.001363
# 4 0.003450 -0.034760 -0.007997 0.083899 0.008521 -0.041281
# 5 -0.005791 -0.000023 -0.005012 0.008521 0.027414 -0.001646
# 6 -0.001318 0.027230 0.001363 -0.041281 -0.001646 0.049543
#
#
# Mechanical properties :
#
#
# Convention : Reuss Voigt Hill
#
# Bulk Modulus (GPa) = 27.88195 79.45496 53.66846
# Shear Modulus (GPa) = 20.68917 41.59300 31.14108
#
# Velocity S-wave (km/s) = 2.89541 4.10534 3.55227
# Velocity P-wave (km/s) = 4.74087 7.39375 6.21061
#
# Compressibility (1/GPa) = 0.03586550
#
# Stress axis : x y z
#
# Youngs Moduli (GPa) = 82.72963 31.92722 111.67828
#
# Poissons Ratio (x) = 0.18666 0.10361
# Poissons Ratio (y) = 0.48368 0.16467
# Poissons Ratio (z) = 0.07675 0.04708
#
# Static dielectric constant tensor:
#      x y z
#    x 4.522720 0.199880 0.354730 
#    y 0.199880 4.421470 0.305560 
#    z 0.354730 0.305560 4.685800 
# 
# 
# High freq. dielectric constant tensor:
#      x y z
#    x 1.997050 0.006080 0.004440 
#    y 0.006080 1.990440 0.013560 
#    z 0.004440 0.013560 1.992840 
# 
# From -- ./inp_files/104503.got.cif
#   From: 2010.06.25/outbox.cif.g09.slc.cpg/sg2_53_cif.got.tgz:104503.got - 2010.06.27 13:26:56.
