data_PCOD8024503
_publ_section_title
;
Structure prediction by ZEFSAII (Michael W. Deem and Ramdas Pophale) SiO2 
 PCOD8024503
Probable space group: P -1
;
_chemical_formula_sum "Si O2"
_cell_formula_units_Z 16
_cell_length_a 12.156800
_cell_length_b 17.482895
_cell_length_c 8.555377
_cell_angle_alpha 79.380712
_cell_angle_beta 44.875180
_cell_angle_gamma 44.673155
_cell_volume 689.744866
_symmetry_space_group_name_H-M "P -1"
_symmetry_group_IT_number 2
_symmetry_cell_setting 'triclinic'
loop_
_space_group_symop_operation_xyz
x,y,z
-x,-y,-z
loop_
_atom_site_type_symbol
_atom_site_label
_atom_site_fract_x
_atom_site_fract_y
_atom_site_fract_z
Si Si1 0.923336 0.226690 0.299981
Si Si2 0.866615 0.605173 0.364445
Si Si3 0.216473 0.327255 0.234396
Si Si4 0.334899 0.544291 0.302567
Si Si5 0.824116 0.936392 0.339262
Si Si6 0.787059 0.798527 0.251555
Si Si7 0.204401 0.988135 0.317275
Si Si8 0.383094 0.705672 0.696451
O O1 0.760430 0.338001 0.559604
O O2 0.686563 0.279197 0.420400
O O3 0.149802 0.071361 0.201100
O O4 0.091838 0.216725 0.024617
O O5 0.703526 0.684303 0.664295
O O6 0.959798 0.648335 0.179093
O O7 0.643157 0.656653 0.455771
O O8 0.149940 0.434461 0.165180
O O9 0.935916 0.392559 0.497894
O O10 0.470351 0.175750 0.952745
O O11 0.541489 0.408164 0.256547
O O12 0.500000 0.500000 0.000000
O O13 0.813933 0.847443 0.350436
O O14 0.540679 0.090383 0.487564
O O15 0.845642 0.945196 0.496800
O O16 0.100837 0.858121 0.007396
O O17 0.000000 0.000000 0.500000
#
# Coordination Sequence:
#
# PCOD8024503 Si02
#       8
#     2   2   2   2   2   2   2   2
#     4  11  26  44  69 107 139 183 237 292 353 415
#     4  10  23  45  73  99 143 187 235 286 357 413
#     4  10  25  45  72 106 138 189 237 291 347 424
#     4  11  24  44  75 102 141 188 235 291 351 419
#     4  10  23  43  68 106 136 184 238 281 362 412
#     4  10  24  43  73 104 138 187 228 302 350 415
#     4  12  27  46  71 103 145 186 235 292 354 427
#     4  10  23  44  67 106 140 185 231 290 350 423
#
# _framework density 23.196981999999998
#
# number of rings (size 3 to 8) (size 9 to 14) (size 15 to 20)
#    0.000    1.500    0.000    2.625   12.250    3.500 
#    2.250    1.875    0.000    0.000    0.000    0.000 
#    0.000    0.000    0.000    0.000    0.000    0.000 
#
# Total GULP energy -198473.762690 kJ/mol
# GULP energy per Si atom -12404.610168 kJ/mol
# Density = 2.314418 g / cm^3
# Si number density = 23.196982 Si / 1000 Ang^3
#
#
#
# Elastic Constant Matrix: (Units=GPa)
#
#
# Indices 1 2 3 4 5 6 
#
# 1 125.9005 65.8135 32.7510 3.7845 14.2281 -2.2933
# 2 65.8135 167.3190 59.6251 -4.7662 13.9333 10.6257
# 3 32.7510 59.6251 100.6290 9.4991 16.2722 7.4692
# 4 3.7845 -4.7662 9.4991 27.7241 2.7779 -6.0459
# 5 14.2281 13.9333 16.2722 2.7779 31.6697 6.8107
# 6 -2.2933 10.6257 7.4692 -6.0459 6.8107 22.9024
#
#
#
# Elastic Compliance Matrix: (Units=1/GPa)
#
#
# Indices 1 2 3 4 5 6 
#
# 1 0.010675 -0.003877 -0.000858 -0.000607 -0.003460 0.004016
# 2 -0.003877 0.009293 -0.004375 0.003059 0.000174 -0.002517
# 3 -0.000858 -0.004375 0.014201 -0.005790 -0.003816 -0.003082
# 4 -0.000607 0.003059 -0.005790 0.041912 -0.004531 0.012820
# 5 -0.003460 0.000174 -0.003816 -0.004531 0.037918 -0.011655
# 6 0.004016 -0.002517 -0.003082 0.012820 -0.011655 0.053089
#
#
# Mechanical properties :
#
#
# Convention : Reuss Voigt Hill
#
# Bulk Modulus (GPa) = 62.69934 78.91418 70.80676
# Shear Modulus (GPa) = 26.22937 32.16986 29.19961
#
# Velocity S-wave (km/s) = 3.36627 3.72803 3.55176
# Velocity P-wave (km/s) = 6.49591 7.25424 6.88552
#
# Compressibility (1/GPa) = 0.01594913
#
# Stress axis : x y z
#
# Youngs Moduli (GPa) = 93.67380 107.60565 70.41632
#
# Poissons Ratio (x) = 0.41724 0.06044
# Poissons Ratio (y) = 0.36322 0.30804
# Poissons Ratio (z) = 0.08040 0.47073
#
# Static dielectric constant tensor:
#      x y z
#    x 4.387260 0.021950 0.084880 
#    y 0.021950 4.298110 0.434350 
#    z 0.084880 0.434350 4.316410 
# 
# 
# High freq. dielectric constant tensor:
#      x y z
#    x 1.933990 -0.004110 -0.001790 
#    y -0.004110 1.919990 0.012910 
#    z -0.001790 0.012910 1.908670 
# 
# From -- ./inp_files/279372.got.cif
#   From: 2010.06.25/outbox.cif.g09.slc.cpg/sg2_140_cif.got.tgz:279372.got - 2010.06.27 13:26:56.
