data_PCOD8024040
_publ_section_title
;
Structure prediction by ZEFSAII (Michael W. Deem and Ramdas Pophale) SiO2 
 PCOD8024040
Probable space group: P -1
;
_chemical_formula_sum "Si O2"
_cell_formula_units_Z 16
_cell_length_a 9.902691
_cell_length_b 16.529164
_cell_length_c 23.120222
_cell_angle_alpha 17.092433
_cell_angle_beta 45.296048
_cell_angle_gamma 41.523408
_cell_volume 735.922875
_symmetry_space_group_name_H-M "P -1"
_symmetry_group_IT_number 2
_symmetry_cell_setting 'triclinic'
loop_
_space_group_symop_operation_xyz
x,y,z
-x,-y,-z
loop_
_atom_site_type_symbol
_atom_site_label
_atom_site_fract_x
_atom_site_fract_y
_atom_site_fract_z
Si Si1 0.964114 0.381051 0.702733
Si Si2 0.730517 0.336410 0.309470
Si Si3 0.873748 0.661920 0.747997
Si Si4 0.292016 0.658122 0.418146
Si Si5 0.547625 0.783903 0.855924
Si Si6 0.212833 0.279403 0.064270
Si Si7 0.347796 0.418924 0.439396
Si Si8 0.800182 0.303555 0.920166
O O1 0.852459 0.502161 0.593620
O O2 0.795332 0.437094 0.766131
O O3 0.117958 0.534934 0.573482
O O4 0.098413 0.043947 0.880405
O O5 0.530986 0.474053 0.314124
O O6 0.919541 0.389387 0.245735
O O7 0.781563 0.987384 0.524546
O O8 0.684490 0.519577 0.138401
O O9 0.712128 0.604917 0.880302
O O10 0.930752 0.425826 0.840382
O O11 0.500000 0.500000 0.500000
O O12 0.320134 0.615557 0.370241
O O13 0.200727 0.011639 0.212536
O O14 0.658826 0.877880 0.810981
O O15 0.391579 0.080842 0.672642
O O16 0.423393 0.596092 0.050622
O O17 0.000000 0.500000 0.000000
#
# Coordination Sequence:
#
# PCOD8024040 Si02
#       8
#     2   2   2   2   2   2   2   2
#     4  11  26  44  69 101 141 176 228 289 338 414
#     4  10  24  43  66 101 136 175 232 284 341 403
#     4  10  23  42  69  95 137 183 219 290 342 406
#     4  12  26  45  75 101 137 186 224 288 349 405
#     4  11  22  45  66 101 138 178 230 284 341 413
#     4  12  25  43  69 103 137 178 232 288 339 411
#     4  11  24  45  70  98 142 177 230 282 344 411
#     4  11  24  43  69  98 136 179 233 275 348 408
#
# _framework density 21.741406999999999
#
# number of rings (size 3 to 8) (size 9 to 14) (size 15 to 20)
#    0.000    1.000    3.750    1.500    5.250    1.500 
#    4.500    3.125    0.000    0.000    0.000    0.000 
#    0.000    0.000    0.000    0.000    0.000    0.000 
#
# Total GULP energy -198361.883861 kJ/mol
# GULP energy per Si atom -12397.617741 kJ/mol
# Density = 2.169192 g / cm^3
# Si number density = 21.741407 Si / 1000 Ang^3
#
#
#
# Elastic Constant Matrix: (Units=GPa)
#
#
# Indices 1 2 3 4 5 6 
#
# 1 115.5600 30.6439 28.8343 13.6905 7.3371 1.7015
# 2 30.6439 102.8432 41.8941 29.5231 -11.2501 4.5272
# 3 28.8343 41.8941 91.2343 24.0162 0.4173 -2.0425
# 4 13.6905 29.5231 24.0162 33.6981 2.9702 1.0608
# 5 7.3371 -11.2501 0.4173 2.9702 31.9052 4.9650
# 6 1.7015 4.5272 -2.0425 1.0608 4.9650 32.8481
#
#
#
# Elastic Compliance Matrix: (Units=1/GPa)
#
#
# Indices 1 2 3 4 5 6 
#
# 1 0.010023 -0.002478 -0.001948 -0.000240 -0.003160 0.000187
# 2 -0.002478 0.016198 -0.003859 -0.011026 0.007852 -0.003175
# 3 -0.001948 -0.003859 0.015133 -0.006603 -0.000793 0.001907
# 4 -0.000240 -0.011026 -0.006603 0.044821 -0.008058 0.000892
# 5 -0.003160 0.007852 -0.000793 -0.008058 0.036569 -0.006235
# 6 0.000187 -0.003175 0.001907 0.000892 -0.006235 0.031903
#
#
# Mechanical properties :
#
#
# Convention : Reuss Voigt Hill
#
# Bulk Modulus (GPa) = 40.34969 56.93134 48.64052
# Shear Modulus (GPa) = 27.85843 33.57463 30.71653
#
# Velocity S-wave (km/s) = 3.58348 3.93398 3.76282
# Velocity P-wave (km/s) = 5.97671 6.84671 6.42645
#
# Compressibility (1/GPa) = 0.02478334
#
# Stress axis : x y z
#
# Youngs Moduli (GPa) = 99.77053 61.73589 66.08061
#
# Poissons Ratio (x) = 0.15298 0.12873
# Poissons Ratio (y) = 0.24722 0.25503
# Poissons Ratio (z) = 0.19436 0.23826
#
# Static dielectric constant tensor:
#      x y z
#    x 3.242350 -0.179630 -0.181530 
#    y -0.179630 4.056700 0.227520 
#    z -0.181530 0.227520 3.899510 
# 
# 
# High freq. dielectric constant tensor:
#      x y z
#    x 1.857270 0.004840 0.000230 
#    y 0.004840 1.866480 0.015810 
#    z 0.000230 0.015810 1.852360 
# 
# From -- ./inp_files/560131.got.cif
#   From: 2010.06.25/outbox.cif.g09.slc.cpg/sg2_281_cif.got.tgz:560131.got - 2010.06.27 13:26:56.
