data_PCOD8024364
_publ_section_title
;
Structure prediction by ZEFSAII (Michael W. Deem and Ramdas Pophale) SiO2 
 PCOD8024364
Probable space group: P -1
;
_chemical_formula_sum "Si O2"
_cell_formula_units_Z 16
_cell_length_a 12.493917
_cell_length_b 14.801433
_cell_length_c 11.983440
_cell_angle_alpha 120.955713
_cell_angle_beta 45.584389
_cell_angle_gamma 151.346095
_cell_volume 726.111565
_symmetry_space_group_name_H-M "P -1"
_symmetry_group_IT_number 2
_symmetry_cell_setting 'triclinic'
loop_
_space_group_symop_operation_xyz
x,y,z
-x,-y,-z
loop_
_atom_site_type_symbol
_atom_site_label
_atom_site_fract_x
_atom_site_fract_y
_atom_site_fract_z
Si Si1 0.710671 0.363859 0.837341
Si Si2 0.771435 0.936488 0.568242
Si Si3 0.997640 0.261747 0.211680
Si Si4 0.122331 0.524443 0.812636
Si Si5 0.864663 0.052454 0.960615
Si Si6 0.284597 0.733556 0.445651
Si Si7 0.801221 0.132570 0.837104
Si Si8 0.848997 0.988048 0.287505
O O1 0.745923 0.503043 0.845681
O O2 0.648226 0.228909 0.711470
O O3 0.992347 0.514038 0.798395
O O4 0.427142 0.184665 0.001345
O O5 0.453509 0.708272 0.671580
O O6 0.877302 0.014210 0.415234
O O7 0.768254 0.046648 0.696480
O O8 0.000000 0.000000 0.500000
O O9 0.877284 0.146943 0.109518
O O10 0.753938 0.177868 0.406566
O O11 0.059246 0.196651 0.204397
O O12 0.021005 0.346482 0.770270
O O13 0.000000 0.500000 0.000000
O O14 0.935267 0.152050 0.856875
O O15 0.086822 0.092753 0.850784
O O16 0.526990 0.813913 0.381067
O O17 0.000000 0.500000 0.500000
O O18 0.500000 0.000000 0.000000
#
# Coordination Sequence:
#
# PCOD8024364 Si02
#       8
#     2   2   2   2   2   2   2   2
#     4  11  24  43  72 105 141 179 249 290 345 430
#     4  12  27  50  70 107 150 183 236 304 363 419
#     4  11  25  43  73 100 138 190 239 282 355 421
#     4  12  25  45  78 107 139 188 246 295 349 431
#     4  12  25  47  67 106 144 183 236 302 350 423
#     4  10  23  43  66 100 133 181 235 284 344 419
#     4  12  25  45  77 103 138 194 240 291 361 424
#     4  12  26  46  70 101 153 180 230 301 359 415
#
# _framework density 22.035181999999999
#
# number of rings (size 3 to 8) (size 9 to 14) (size 15 to 20)
#    0.000    0.500    5.000    3.000    3.500    1.000 
#    2.250    0.000    0.000    0.000    0.000    0.000 
#    0.000    0.000    0.000    0.000    0.000    0.000 
#
# Total GULP energy -198216.250616 kJ/mol
# GULP energy per Si atom -12388.515663 kJ/mol
# Density = 2.198503 g / cm^3
# Si number density = 22.035182 Si / 1000 Ang^3
#
#
#
# Elastic Constant Matrix: (Units=GPa)
#
#
# Indices 1 2 3 4 5 6 
#
# 1 126.8783 36.7087 33.9422 8.7879 3.5999 1.9950
# 2 36.7087 112.1054 45.8630 8.0080 0.1710 -12.6760
# 3 33.9422 45.8630 87.4329 22.7266 -1.0879 3.3128
# 4 8.7879 8.0080 22.7266 42.0978 0.7211 2.8516
# 5 3.5999 0.1710 -1.0879 0.7211 46.3670 -1.8487
# 6 1.9950 -12.6760 3.3128 2.8516 -1.8487 43.3819
#
#
#
# Elastic Compliance Matrix: (Units=1/GPa)
#
#
# Indices 1 2 3 4 5 6 
#
# 1 0.009180 -0.002115 -0.002392 -0.000149 -0.000794 -0.000882
# 2 -0.002115 0.012543 -0.006206 0.001122 0.000121 0.004168
# 3 -0.002392 -0.006206 0.017735 -0.007735 0.000644 -0.002522
# 4 -0.000149 0.001122 -0.007735 0.027822 -0.000644 -0.000931
# 5 -0.000794 0.000121 0.000644 -0.000644 0.021693 0.000989
# 6 -0.000882 0.004168 -0.002522 -0.000931 0.000989 0.024605
#
#
# Mechanical properties :
#
#
# Convention : Reuss Voigt Hill
#
# Bulk Modulus (GPa) = 55.45758 62.16048 58.80903
# Shear Modulus (GPa) = 35.45717 40.36286 37.91002
#
# Velocity S-wave (km/s) = 4.01573 4.28453 4.15231
# Velocity P-wave (km/s) = 6.83548 7.26273 7.05234
#
# Compressibility (1/GPa) = 0.01803180
#
# Stress axis : x y z
#
# Youngs Moduli (GPa) = 108.93038 79.72774 56.38448
#
# Poissons Ratio (x) = 0.16865 0.13486
# Poissons Ratio (y) = 0.23042 0.34992
# Poissons Ratio (z) = 0.26055 0.49479
#
# Static dielectric constant tensor:
#      x y z
#    x 3.998820 -0.114650 0.263090 
#    y -0.114650 4.033100 0.350090 
#    z 0.263090 0.350090 4.158920 
# 
# 
# High freq. dielectric constant tensor:
#      x y z
#    x 1.865010 -0.004490 0.010480 
#    y -0.004490 1.875090 0.005550 
#    z 0.010480 0.005550 1.882180 
# 
# From -- ./inp_files/433068.got.cif
#   From: 2010.06.25/outbox.cif.g09.slc.cpg/sg2_217_cif.got.tgz:433068.got - 2010.06.27 13:26:56.
