data_PCOD8024428
_publ_section_title
;
Structure prediction by ZEFSAII (Michael W. Deem and Ramdas Pophale) SiO2 
 PCOD8024428
Probable space group: P -1
;
_chemical_formula_sum "Si O2"
_cell_formula_units_Z 12
_cell_length_a 6.922616
_cell_length_b 9.633015
_cell_length_c 19.276148
_cell_angle_alpha 145.272573
_cell_angle_beta 51.618461
_cell_angle_gamma 107.619255
_cell_volume 508.226930
_symmetry_space_group_name_H-M "P -1"
_symmetry_group_IT_number 2
_symmetry_cell_setting 'triclinic'
loop_
_space_group_symop_operation_xyz
x,y,z
-x,-y,-z
loop_
_atom_site_type_symbol
_atom_site_label
_atom_site_fract_x
_atom_site_fract_y
_atom_site_fract_z
Si Si1 0.502521 0.417923 0.611294
Si Si2 0.307760 0.099837 0.742768
Si Si3 0.187432 0.736630 0.166274
Si Si4 0.884675 0.590695 0.839187
Si Si5 0.515049 0.940252 0.780208
Si Si6 0.719307 0.266613 0.653122
O O1 0.620467 0.621861 0.642489
O O2 0.646662 0.275613 0.592361
O O3 0.169736 0.603018 0.767644
O O4 0.568332 0.180917 0.443940
O O5 0.473450 0.268346 0.755947
O O6 0.980666 0.278140 0.870014
O O7 0.322562 0.034355 0.793624
O O8 0.039825 0.684675 0.244478
O O9 0.206360 0.023502 0.280687
O O10 0.500000 0.500000 0.000000
O O11 0.752554 0.539014 0.776843
O O12 0.664286 0.873328 0.039214
O O13 0.000000 0.000000 0.500000
#
# Coordination Sequence:
#
# PCOD8024428 Si02
#       6
#     2   2   2   2   2   2
#     4  12  26  44  71 102 139 180 230 289 341 403
#     4  12  24  44  74 100 137 185 229 282 343 410
#     4  10  23  43  67 103 136 177 227 277 340 406
#     4  11  23  45  71  99 136 183 232 278 340 412
#     4  11  27  44  67 105 142 176 229 286 349 403
#     4  12  24  43  74 102 135 181 237 281 335 416
#
# _framework density 23.611501000000001
#
# number of rings (size 3 to 8) (size 9 to 14) (size 15 to 20)
#    0.000    0.667    5.000    2.500    0.000    8.000 
#    0.000    0.000    0.000    0.000    0.000    0.000 
#    0.000    0.000    0.000    0.000    0.000    0.000 
#
# Total GULP energy -148816.419114 kJ/mol
# GULP energy per Si atom -12401.368259 kJ/mol
# Density = 2.355776 g / cm^3
# Si number density = 23.611501 Si / 1000 Ang^3
#
#
#
# Elastic Constant Matrix: (Units=GPa)
#
#
# Indices 1 2 3 4 5 6 
#
# 1 128.4297 12.3381 23.7773 2.0659 -1.1721 0.8378
# 2 12.3381 81.7423 -1.8675 13.5677 -5.0681 19.5708
# 3 23.7773 -1.8675 45.7160 -2.6567 2.1397 -7.8061
# 4 2.0659 13.5677 -2.6567 25.9744 -1.7160 4.9657
# 5 -1.1721 -5.0681 2.1397 -1.7160 41.9538 -1.8999
# 6 0.8378 19.5708 -7.8061 4.9657 -1.8999 34.0221
#
#
#
# Elastic Compliance Matrix: (Units=1/GPa)
#
#
# Indices 1 2 3 4 5 6 
#
# 1 0.008797 -0.001221 -0.004754 -0.000428 0.000299 -0.000526
# 2 -0.001221 0.015459 -0.000527 -0.006425 0.001236 -0.007976
# 3 -0.004754 -0.000527 0.025507 0.002057 -0.001146 0.005908
# 4 -0.000428 -0.006425 0.002057 0.042530 0.000757 -0.001987
# 5 0.000299 0.001236 -0.001146 0.000757 0.024094 0.000254
# 6 -0.000526 -0.007976 0.005908 -0.001987 0.000254 0.035654
#
#
# Mechanical properties :
#
#
# Convention : Reuss Voigt Hill
#
# Bulk Modulus (GPa) = 27.20375 36.04263 31.62319
# Shear Modulus (GPa) = 28.20132 35.16605 31.68369
#
# Velocity S-wave (km/s) = 3.45974 3.86341 3.66714
# Velocity P-wave (km/s) = 5.24463 5.93290 5.59935
#
# Compressibility (1/GPa) = 0.03675964
#
# Stress axis : x y z
#
# Youngs Moduli (GPa) = 113.67746 64.68884 39.20461
#
# Poissons Ratio (x) = 0.07898 0.18637
# Poissons Ratio (y) = 0.13879 0.02065
# Poissons Ratio (z) = 0.54040 0.03407
#
# Static dielectric constant tensor:
#      x y z
#    x 4.969350 0.415970 0.209850 
#    y 0.415970 4.513590 0.002850 
#    z 0.209850 0.002850 3.983140 
# 
# 
# High freq. dielectric constant tensor:
#      x y z
#    x 1.957900 0.011240 0.011360 
#    y 0.011240 1.921550 -0.005930 
#    z 0.011360 -0.005930 1.931050 
# 
# From -- ./inp_files/38161.got.cif
#   From: 2010.06.25/outbox.cif.g09.slc.cpg/sg2_20_cif.got.tgz:38161.got - 2010.06.27 13:26:56.
