data_PCOD8024306
_publ_section_title
;
Structure prediction by ZEFSAII (Michael W. Deem and Ramdas Pophale) SiO2 
 PCOD8024306
Probable space group: P -1
;
_chemical_formula_sum "Si O2"
_cell_formula_units_Z 16
_cell_length_a 10.867785
_cell_length_b 7.859647
_cell_length_c 11.924254
_cell_angle_alpha 128.739716
_cell_angle_beta 75.743274
_cell_angle_gamma 115.155178
_cell_volume 718.825829
_symmetry_space_group_name_H-M "P -1"
_symmetry_group_IT_number 2
_symmetry_cell_setting 'triclinic'
loop_
_space_group_symop_operation_xyz
x,y,z
-x,-y,-z
loop_
_atom_site_type_symbol
_atom_site_label
_atom_site_fract_x
_atom_site_fract_y
_atom_site_fract_z
Si Si1 0.186874 0.048620 0.742999
Si Si2 0.080327 0.409640 0.032663
Si Si3 0.855169 0.330776 0.217527
Si Si4 0.723884 0.234687 0.713057
Si Si5 0.474602 0.232070 0.413223
Si Si6 0.572066 0.222696 0.153610
Si Si7 0.517745 0.684972 0.309625
Si Si8 0.039112 0.682918 0.468459
O O1 0.332414 0.158198 0.697721
O O2 0.196487 0.857459 0.750195
O O3 0.072822 0.935499 0.623925
O O4 0.142819 0.234498 0.893722
O O5 0.206547 0.632255 0.136375
O O6 0.977403 0.285425 0.105578
O O7 0.000000 0.500000 0.000000
O O8 0.736873 0.318765 0.149239
O O9 0.916015 0.595255 0.368291
O O10 0.589982 0.300774 0.751468
O O11 0.822418 0.316793 0.619029
O O12 0.680915 0.955156 0.631294
O O13 0.500000 0.500000 0.500000
O O14 0.549143 0.153603 0.262440
O O15 0.523765 0.217445 0.523862
O O16 0.510576 0.418401 0.214415
O O17 0.500000 0.000000 0.000000
O O18 0.000000 0.500000 0.500000
#
# Coordination Sequence:
#
# PCOD8024306 Si02
#       8
#     2   2   2   2   2   2   2   2
#     4  11  22  43  72  98 132 176 233 279 346 404
#     4  11  26  45  65  97 140 180 227 283 341 414
#     4  10  23  45  66  98 137 176 232 278 341 409
#     4  11  23  43  71 100 137 177 232 280 349 404
#     4  10  23  43  65 101 136 176 221 283 339 400
#     4  11  26  44  67 102 143 178 223 283 343 406
#     4  11  24  42  71 102 134 178 225 284 346 406
#     4   9  21  41  69  99 129 176 225 284 329 405
#
# _framework density 22.258524000000001
#
# number of rings (size 3 to 8) (size 9 to 14) (size 15 to 20)
#    0.000    1.500    1.250    2.250    8.750    0.500 
#    4.500    1.875    0.000    0.000    0.000    0.000 
#    0.000    0.000    0.000    0.000    0.000    0.000 
#
# Total GULP energy -198228.591864 kJ/mol
# GULP energy per Si atom -12389.286992 kJ/mol
# Density = 2.220786 g / cm^3
# Si number density = 22.258524 Si / 1000 Ang^3
#
#
#
# Elastic Constant Matrix: (Units=GPa)
#
#
# Indices 1 2 3 4 5 6 
#
# 1 94.4465 43.2680 65.0560 13.0146 27.3630 14.1515
# 2 43.2680 122.8963 59.7220 8.7812 4.1977 15.0722
# 3 65.0560 59.7220 180.3326 19.3739 23.1405 11.7567
# 4 13.0146 8.7812 19.3739 34.1339 11.6382 4.3583
# 5 27.3630 4.1977 23.1405 11.6382 36.3697 0.6205
# 6 14.1515 15.0722 11.7567 4.3583 0.6205 28.1032
#
#
#
# Elastic Compliance Matrix: (Units=1/GPa)
#
#
# Indices 1 2 3 4 5 6 
#
# 1 0.019121 -0.003800 -0.003833 0.000556 -0.011587 -0.005818
# 2 -0.003800 0.010946 -0.002421 -0.000796 0.003440 -0.002897
# 3 -0.003833 -0.002421 0.008113 -0.002090 -0.001333 0.000188
# 4 0.000556 -0.000796 -0.002090 0.034383 -0.009929 -0.004092
# 5 -0.011587 0.003440 -0.001333 -0.009929 0.039753 0.005210
# 6 -0.005818 -0.002897 0.000188 -0.004092 0.005210 0.040507
#
#
# Mechanical properties :
#
#
# Convention : Reuss Voigt Hill
#
# Bulk Modulus (GPa) = 55.33443 81.52971 68.43207
# Shear Modulus (GPa) = 27.93976 35.02999 31.48487
#
# Velocity S-wave (km/s) = 3.54678 3.97139 3.76508
# Velocity P-wave (km/s) = 6.45652 7.59851 7.05067
#
# Compressibility (1/GPa) = 0.01807193
#
# Stress axis : x y z
#
# Youngs Moduli (GPa) = 52.29787 91.35755 123.25200
#
# Poissons Ratio (x) = 0.34713 0.47247
# Poissons Ratio (y) = 0.19871 0.29844
# Poissons Ratio (z) = 0.20048 0.22121
#
# Static dielectric constant tensor:
#      x y z
#    x 3.503030 0.472380 0.392810 
#    y 0.472380 4.374770 -0.260820 
#    z 0.392810 -0.260820 4.474740 
# 
# 
# High freq. dielectric constant tensor:
#      x y z
#    x 1.849460 0.022190 0.010540 
#    y 0.022190 1.894260 -0.004970 
#    z 0.010540 -0.004970 1.896700 
# 
# From -- ./inp_files/420008.got.cif
#   From: 2010.06.25/outbox.cif.g09.slc.cpg/sg2_211_cif.got.tgz:420008.got - 2010.06.27 13:26:56.
