data_PCOD8024562
_publ_section_title
;
Structure prediction by ZEFSAII (Michael W. Deem and Ramdas Pophale) SiO2 
 PCOD8024562
Probable space group: P -1
;
_chemical_formula_sum "Si O2"
_cell_formula_units_Z 16
_cell_length_a 8.768435
_cell_length_b 8.933553
_cell_length_c 14.833809
_cell_angle_alpha 101.673103
_cell_angle_beta 40.711081
_cell_angle_gamma 89.428122
_cell_volume 717.541785
_symmetry_space_group_name_H-M "P -1"
_symmetry_group_IT_number 2
_symmetry_cell_setting 'triclinic'
loop_
_space_group_symop_operation_xyz
x,y,z
-x,-y,-z
loop_
_atom_site_type_symbol
_atom_site_label
_atom_site_fract_x
_atom_site_fract_y
_atom_site_fract_z
Si Si1 0.072214 0.125370 0.417899
Si Si2 0.234027 0.480733 0.603950
Si Si3 0.414633 0.308674 0.335105
Si Si4 0.198873 0.403056 0.966453
Si Si5 0.061828 0.775648 0.822351
Si Si6 0.689376 0.403214 0.703625
Si Si7 0.769810 0.020302 0.861355
Si Si8 0.856876 0.356214 0.827041
O O1 0.332083 0.150135 0.332651
O O2 0.100904 0.066000 0.295945
O O3 0.877978 0.294740 0.536385
O O4 0.000000 0.000000 0.500000
O O5 0.500000 0.500000 0.500000
O O6 0.217035 0.423423 0.502831
O O7 0.059047 0.652524 0.726557
O O8 0.146925 0.354180 0.694061
O O9 0.673018 0.246470 0.258635
O O10 0.407068 0.413862 0.262213
O O11 0.265113 0.511078 0.030147
O O12 0.110408 0.255539 0.024957
O O13 0.454289 0.331717 0.794611
O O14 0.000000 0.500000 0.000000
O O15 0.944598 0.949918 0.858234
O O16 0.780386 0.404936 0.764935
O O17 0.779568 0.200648 0.871783
O O18 0.500000 0.000000 0.000000
#
# Coordination Sequence:
#
# PCOD8024562 Si02
#       8
#     2   2   2   2   2   2   2   2
#     4  12  26  46  68 107 143 185 238 285 354 421
#     4   9  19  40  68  99 133 172 228 294 349 404
#     4  11  22  41  68 102 133 176 231 292 348 405
#     4  11  24  45  70 105 135 179 242 291 351 412
#     4  10  23  43  68  99 139 181 234 285 351 421
#     4  12  23  42  73 100 139 178 235 299 343 411
#     4  12  27  47  70 101 147 196 230 283 360 428
#     4  11  24  44  66 102 139 182 236 283 353 422
#
# _framework density 22.298354
#
# number of rings (size 3 to 8) (size 9 to 14) (size 15 to 20)
#    0.000    1.000    3.750    2.250    5.250    0.000 
#    2.250    4.375    0.000    0.000    0.000    0.000 
#    0.000    0.000    0.000    0.000    0.000    0.000 
#
# Total GULP energy -198236.412606 kJ/mol
# GULP energy per Si atom -12389.775788 kJ/mol
# Density = 2.224760 g / cm^3
# Si number density = 22.298354 Si / 1000 Ang^3
#
#
#
# Elastic Constant Matrix: (Units=GPa)
#
#
# Indices 1 2 3 4 5 6 
#
# 1 84.0902 54.8235 31.9089 -6.6090 -7.6908 -15.2176
# 2 54.8235 124.5170 33.5869 -35.3766 -14.2030 -6.8876
# 3 31.9089 33.5869 101.4117 -23.9389 -14.2313 -0.7654
# 4 -6.6090 -35.3766 -23.9389 40.2357 7.1057 -2.4368
# 5 -7.6908 -14.2030 -14.2313 7.1057 34.6348 -7.2421
# 6 -15.2176 -6.8876 -0.7654 -2.4368 -7.2421 39.6631
#
#
#
# Elastic Compliance Matrix: (Units=1/GPa)
#
#
# Indices 1 2 3 4 5 6 
#
# 1 0.020473 -0.009383 -0.004897 -0.007708 0.001508 0.005933
# 2 -0.009383 0.015718 0.001021 0.012503 0.002287 0.000335
# 3 -0.004897 0.001021 0.013251 0.007392 0.003173 -0.000412
# 4 -0.007708 0.012503 0.007392 0.039299 -0.001288 0.001536
# 5 0.001508 0.002287 0.003173 -0.001288 0.033181 0.007016
# 6 0.005933 0.000335 -0.000412 0.001536 0.007016 0.028914
#
#
# Mechanical properties :
#
#
# Convention : Reuss Voigt Hill
#
# Bulk Modulus (GPa) = 43.62138 61.18418 52.40278
# Shear Modulus (GPa) = 27.02762 35.55335 31.29049
#
# Velocity S-wave (km/s) = 3.48529 3.99737 3.75008
# Velocity P-wave (km/s) = 5.98342 6.98597 6.50404
#
# Compressibility (1/GPa) = 0.02292454
#
# Stress axis : x y z
#
# Youngs Moduli (GPa) = 48.84366 63.61996 75.46836
#
# Poissons Ratio (x) = 0.59694 0.36960
# Poissons Ratio (y) = 0.45829 -0.07708
# Poissons Ratio (z) = 0.23921 -0.06498
#
# Static dielectric constant tensor:
#      x y z
#    x 4.043750 0.219290 0.114120 
#    y 0.219290 4.093350 -0.338320 
#    z 0.114120 -0.338320 4.718270 
# 
# 
# High freq. dielectric constant tensor:
#      x y z
#    x 1.874030 0.012960 -0.002380 
#    y 0.012960 1.865330 -0.026530 
#    z -0.002380 -0.026530 1.900970 
# 
# From -- ./inp_files/177862.got.cif
#   From: 2010.06.25/outbox.cif.g09.slc.cpg/sg2_89_cif.got.tgz:177862.got - 2010.06.27 13:26:56.
