data_PCOD8024835
_publ_section_title
;
Structure prediction by ZEFSAII (Michael W. Deem and Ramdas Pophale) SiO2 
 PCOD8024835
Probable space group: P -1
;
_chemical_formula_sum "Si O2"
_cell_formula_units_Z 12
_cell_length_a 19.530132
_cell_length_b 9.952865
_cell_length_c 8.769912
_cell_angle_alpha 61.701288
_cell_angle_beta 72.733452
_cell_angle_gamma 28.906429
_cell_volume 697.005232
_symmetry_space_group_name_H-M "P -1"
_symmetry_group_IT_number 2
_symmetry_cell_setting 'triclinic'
loop_
_space_group_symop_operation_xyz
x,y,z
-x,-y,-z
loop_
_atom_site_type_symbol
_atom_site_label
_atom_site_fract_x
_atom_site_fract_y
_atom_site_fract_z
Si Si1 0.448460 0.780696 0.525347
Si Si2 0.345986 0.126622 0.126158
Si Si3 0.723266 0.170127 0.476836
Si Si4 0.339234 0.480328 0.904022
Si Si5 0.160069 0.182736 0.132068
Si Si6 0.393142 0.574491 0.102630
O O1 0.583390 0.455892 0.521822
O O2 0.319181 0.894261 0.568633
O O3 0.509054 0.710813 0.690599
O O4 0.386251 0.037495 0.328203
O O5 0.226589 0.225446 0.100670
O O6 0.489827 0.831969 0.087033
O O7 0.280164 0.417440 0.986441
O O8 0.759932 0.246982 0.304060
O O9 0.854621 0.883291 0.661888
O O10 0.322317 0.592763 0.017113
O O11 0.259111 0.908950 0.093156
O O12 0.000000 0.500000 0.000000
O O13 0.500000 0.500000 0.000000
#
# Coordination Sequence:
#
# PCOD8024835 Si02
#       6
#     2   2   2   2   2   2
#     4   8  14  26  46  70  98 125 155 192 238 287
#     4   9  18  31  49  74 101 126 156 197 248 285
#     4   8  14  28  47  67  94 131 157 187 242 290
#     4  10  17  29  52  78  97 119 160 211 239 269
#     4  10  20  35  51  68  97 135 164 189 236 299
#     4  11  17  29  53  78  95 120 166 205 230 275
#
# _framework density 17.216512999999999
#
# number of rings (size 3 to 8) (size 9 to 14) (size 15 to 20)
#    0.000    2.667    3.333    2.000    0.000    0.667 
#    0.000    2.500    0.000    0.000    0.000    0.000 
#    0.000    0.000    0.000    0.000    0.000    0.000 
#
# Total GULP energy -148683.535901 kJ/mol
# GULP energy per Si atom -12390.294658 kJ/mol
# Density = 1.717733 g / cm^3
# Si number density = 17.216513 Si / 1000 Ang^3
#
#
#
# Elastic Constant Matrix: (Units=GPa)
#
#
# Indices 1 2 3 4 5 6 
#
# 1 90.5155 33.1887 72.5499 -7.9765 -3.7863 13.5328
# 2 33.1887 44.6363 46.3984 -3.6914 5.6347 4.6224
# 3 72.5499 46.3984 171.8187 -14.3963 0.1397 7.7491
# 4 -7.9765 -3.6914 -14.3963 23.2847 2.8633 6.1986
# 5 -3.7863 5.6347 0.1397 2.8633 28.9955 -2.0724
# 6 13.5328 4.6224 7.7491 6.1986 -2.0724 19.2763
#
#
#
# Elastic Compliance Matrix: (Units=1/GPa)
#
#
# Indices 1 2 3 4 5 6 
#
# 1 0.021017 -0.008542 -0.005609 0.005131 0.003083 -0.011770
# 2 -0.008542 0.036304 -0.006097 0.000418 -0.008274 -0.001282
# 3 -0.005609 -0.006097 0.010094 0.003259 0.000104 0.000305
# 4 0.005131 0.000418 0.003259 0.053681 -0.006369 -0.022959
# 5 0.003083 -0.008274 0.000104 -0.006369 0.037546 0.005862
# 6 -0.011770 -0.001282 0.000305 -0.022959 0.005862 0.068338
#
#
# Mechanical properties :
#
#
# Convention : Reuss Voigt Hill
#
# Bulk Modulus (GPa) = 37.14962 67.91606 52.53284
# Shear Modulus (GPa) = 18.08645 24.63354 21.36000
#
# Velocity S-wave (km/s) = 3.24470 3.78671 3.52613
# Velocity P-wave (km/s) = 5.97178 7.65851 6.86713
#
# Compressibility (1/GPa) = 0.02691817
#
# Stress axis : x y z
#
# Youngs Moduli (GPa) = 47.58129 27.54489 99.06580
#
# Poissons Ratio (x) = 0.23529 0.55568
# Poissons Ratio (y) = 0.40644 0.60404
# Poissons Ratio (z) = 0.26689 0.16795
#
# Static dielectric constant tensor:
#      x y z
#    x 3.032130 0.176550 -0.031870 
#    y 0.176550 2.823340 -0.024860 
#    z -0.031870 -0.024860 3.788290 
# 
# 
# High freq. dielectric constant tensor:
#      x y z
#    x 1.641320 0.015380 -0.002800 
#    y 0.015380 1.612440 0.004940 
#    z -0.002800 0.004940 1.689430 
# 
# From -- ./inp_files/145316.got.cif
#   From: 2010.06.25/outbox.cif.g09.slc.cpg/sg2_73_cif.got.tgz:145316.got - 2010.06.27 13:26:56.
