data_PCOD8024239
_publ_section_title
;
Structure prediction by ZEFSAII (Michael W. Deem and Ramdas Pophale) SiO2 
 PCOD8024239
Probable space group: P -1
;
_chemical_formula_sum "Si O2"
_cell_formula_units_Z 16
_cell_length_a 11.162334
_cell_length_b 9.009062
_cell_length_c 18.987406
_cell_angle_alpha 74.996380
_cell_angle_beta 133.438893
_cell_angle_gamma 139.768712
_cell_volume 737.428252
_symmetry_space_group_name_H-M "P -1"
_symmetry_group_IT_number 2
_symmetry_cell_setting 'triclinic'
loop_
_space_group_symop_operation_xyz
x,y,z
-x,-y,-z
loop_
_atom_site_type_symbol
_atom_site_label
_atom_site_fract_x
_atom_site_fract_y
_atom_site_fract_z
Si Si1 0.140103 0.218613 0.186794
Si Si2 0.335135 0.681056 0.358557
Si Si3 0.590552 0.167241 0.331872
Si Si4 0.780095 0.463876 0.937207
Si Si5 0.700599 0.693543 0.446598
Si Si6 0.269782 0.911469 0.867349
Si Si7 0.946787 0.094156 0.912362
Si Si8 0.775507 0.413882 0.522211
O O1 0.185780 0.378415 0.125036
O O2 0.471310 0.462243 0.321914
O O3 0.891598 0.078466 0.157769
O O4 0.006970 0.951200 0.139184
O O5 0.528277 0.673613 0.432799
O O6 0.353868 0.763110 0.436032
O O7 0.984471 0.393816 0.231702
O O8 0.478451 0.906454 0.331441
O O9 0.569926 0.232720 0.392404
O O10 0.911782 0.418914 0.394207
O O11 0.392109 0.104432 0.202456
O O12 0.451298 0.133838 0.849974
O O13 0.849812 0.599017 0.024950
O O14 0.000000 0.500000 0.000000
O O15 0.804990 0.615073 0.533925
O O16 0.000000 0.000000 0.500000
O O17 0.500000 0.000000 0.000000
O O18 0.000000 0.000000 0.000000
#
# Coordination Sequence:
#
# PCOD8024239 Si02
#       8
#     2   2   2   2   2   2   2   2
#     4  10  23  43  61  93 131 166 214 267 325 392
#     4  11  25  39  68  98 130 172 220 270 325 392
#     4  11  23  44  66  96 132 172 218 269 325 392
#     4  11  23  39  68  92 123 166 217 269 324 386
#     4  11  22  42  66  93 135 169 212 269 329 378
#     4  11  23  39  63  96 125 166 214 269 325 381
#     4  10  23  43  67  93 131 174 213 269 330 387
#     4  11  24  42  68  95 132 173 216 271 329 389
#
# _framework density 21.697025
#
# number of rings (size 3 to 8) (size 9 to 14) (size 15 to 20)
#    0.000    1.250    3.750    1.500    5.250    0.500 
#    0.000    2.500    0.000    0.000    0.000    0.000 
#    0.000    0.000    0.000    0.000    0.000    0.000 
#
# Total GULP energy -198233.387169 kJ/mol
# GULP energy per Si atom -12389.586698 kJ/mol
# Density = 2.164764 g / cm^3
# Si number density = 21.697025 Si / 1000 Ang^3
#
#
#
# Elastic Constant Matrix: (Units=GPa)
#
#
# Indices 1 2 3 4 5 6 
#
# 1 103.7775 18.6417 23.0392 4.5272 -5.2172 -5.4185
# 2 18.6417 48.4074 -2.0410 3.1655 7.3930 1.6912
# 3 23.0392 -2.0410 85.0197 -1.9379 8.6437 -0.6400
# 4 4.5272 3.1655 -1.9379 36.7282 -4.6857 2.6564
# 5 -5.2172 7.3930 8.6437 -4.6857 30.8403 2.7073
# 6 -5.4185 1.6912 -0.6400 2.6564 2.7073 38.1761
#
#
#
# Elastic Compliance Matrix: (Units=1/GPa)
#
#
# Indices 1 2 3 4 5 6 
#
# 1 0.011736 -0.005298 -0.003724 -0.000787 0.004038 0.001606
# 2 -0.005298 0.024170 0.002740 -0.002189 -0.007696 -0.001079
# 3 -0.003724 0.002740 0.013349 0.000299 -0.004974 -0.000094
# 4 -0.000787 -0.002189 0.000299 0.028310 0.004813 -0.002321
# 5 0.004038 -0.007696 -0.004974 0.004813 0.037267 -0.002147
# 6 0.001606 -0.001079 -0.000094 -0.002321 -0.002147 0.026782
#
#
# Mechanical properties :
#
#
# Convention : Reuss Voigt Hill
#
# Bulk Modulus (GPa) = 27.25412 35.16492 31.20952
# Shear Modulus (GPa) = 30.04679 34.31991 32.18335
#
# Velocity S-wave (km/s) = 3.72537 3.98147 3.85555
# Velocity P-wave (km/s) = 5.57611 6.11381 5.85114
#
# Compressibility (1/GPa) = 0.03669170
#
# Stress axis : x y z
#
# Youngs Moduli (GPa) = 85.21091 41.37368 74.91375
#
# Poissons Ratio (x) = 0.21919 0.27896
# Poissons Ratio (y) = 0.45143 -0.20528
# Poissons Ratio (z) = 0.31731 -0.11337
#
# Static dielectric constant tensor:
#      x y z
#    x 4.154730 -0.239460 -0.192690 
#    y -0.239460 3.826610 0.046140 
#    z -0.192690 0.046140 4.236050 
# 
# 
# High freq. dielectric constant tensor:
#      x y z
#    x 1.861900 -0.017650 0.000680 
#    y -0.017650 1.841140 -0.001330 
#    z 0.000680 -0.001330 1.859510 
# 
# From -- ./inp_files/279055.got.cif
#   From: 2010.06.25/outbox.cif.g09.slc.cpg/sg2_140_cif.got.tgz:279055.got - 2010.06.27 13:26:56.
