data_PCOD8024769
_publ_section_title
;
Structure prediction by ZEFSAII (Michael W. Deem and Ramdas Pophale) SiO2 
 PCOD8024769
Probable space group: P -1
;
_chemical_formula_sum "Si O2"
_cell_formula_units_Z 16
_cell_length_a 14.476250
_cell_length_b 11.723559
_cell_length_c 8.373054
_cell_angle_alpha 60.540680
_cell_angle_beta 84.878985
_cell_angle_gamma 41.776908
_cell_volume 723.881264
_symmetry_space_group_name_H-M "P -1"
_symmetry_group_IT_number 2
_symmetry_cell_setting 'triclinic'
loop_
_space_group_symop_operation_xyz
x,y,z
-x,-y,-z
loop_
_atom_site_type_symbol
_atom_site_label
_atom_site_fract_x
_atom_site_fract_y
_atom_site_fract_z
Si Si1 0.471421 0.150855 0.206591
Si Si2 0.390885 0.947708 0.416068
Si Si3 0.064440 0.183602 0.222151
Si Si4 0.128073 0.947015 0.087300
Si Si5 0.000659 0.357346 0.787742
Si Si6 0.393260 0.501490 0.477204
Si Si7 0.228896 0.305340 0.664532
Si Si8 0.241080 0.517147 0.749887
O O1 0.525619 0.161639 0.351023
O O2 0.385194 0.108723 0.267563
O O3 0.629587 0.954425 0.214030
O O4 0.351210 0.388756 0.977847
O O5 0.503123 0.743397 0.415399
O O6 0.214822 0.087111 0.342666
O O7 0.943950 0.278585 0.314903
O O8 0.113924 0.995660 0.246914
O O9 0.976177 0.378553 0.969478
O O10 0.287582 0.680361 0.224393
O O11 0.109851 0.107782 0.887104
O O12 0.000000 0.000000 0.000000
O O13 0.085491 0.394518 0.707791
O O14 0.832290 0.550957 0.587400
O O15 0.500000 0.500000 0.500000
O O16 0.281352 0.597418 0.581044
O O17 0.290904 0.337185 0.759623
#
# Coordination Sequence:
#
# PCOD8024769 Si02
#       8
#     2   2   2   2   2   2   2   2
#     4  11  27  41  73 101 145 176 232 291 344 413
#     4  11  25  47  69 102 143 183 228 283 353 406
#     4  10  25  45  67 103 138 180 229 280 349 406
#     4  10  23  43  72  93 137 183 231 279 339 413
#     4   9  23  40  68 102 134 182 223 276 349 404
#     4  12  25  48  72  97 136 190 231 282 343 418
#     4  11  22  42  69 104 140 176 231 284 343 417
#     4  12  27  41  71 104 137 178 233 286 351 405
#
# _framework density 22.103072000000001
#
# number of rings (size 3 to 8) (size 9 to 14) (size 15 to 20)
#    0.750    0.500    2.500    1.875   12.250    1.500 
#    0.000    0.625    0.000    0.000    0.000    0.000 
#    0.000    0.000    0.000    0.000    0.000    0.000 
#
# Total GULP energy -198242.795211 kJ/mol
# GULP energy per Si atom -12390.174701 kJ/mol
# Density = 2.205276 g / cm^3
# Si number density = 22.103072 Si / 1000 Ang^3
#
#
#
# Elastic Constant Matrix: (Units=GPa)
#
#
# Indices 1 2 3 4 5 6 
#
# 1 122.9811 34.3500 44.1887 12.6320 15.1979 -1.8260
# 2 34.3500 72.3920 11.1734 4.2202 0.2989 -14.9391
# 3 44.1887 11.1734 84.9622 -11.0973 13.3269 -2.5003
# 4 12.6320 4.2202 -11.0973 34.8325 -0.3794 3.2063
# 5 15.1979 0.2989 13.3269 -0.3794 36.3196 0.3056
# 6 -1.8260 -14.9391 -2.5003 3.2063 0.3056 37.5274
#
#
#
# Elastic Compliance Matrix: (Units=1/GPa)
#
#
# Indices 1 2 3 4 5 6 
#
# 1 0.012761 -0.004977 -0.006322 -0.005957 -0.003031 -0.001248
# 2 -0.004977 0.017623 0.000062 -0.000920 0.001848 0.006841
# 3 -0.006322 0.000062 0.016563 0.007506 -0.003356 0.000207
# 4 -0.005957 -0.000920 0.007506 0.033652 0.000123 -0.003032
# 5 -0.003031 0.001848 -0.003356 0.000123 0.030018 0.000110
# 6 -0.001248 0.006841 0.000207 -0.003032 0.000110 0.029582
#
#
# Mechanical properties :
#
#
# Convention : Reuss Voigt Hill
#
# Bulk Modulus (GPa) = 40.86005 51.08440 45.97222
# Shear Modulus (GPa) = 29.26884 34.44414 31.85649
#
# Velocity S-wave (km/s) = 3.64290 3.95187 3.80052
# Velocity P-wave (km/s) = 6.01835 6.63212 6.33268
#
# Compressibility (1/GPa) = 0.02447378
#
# Stress axis : x y z
#
# Youngs Moduli (GPa) = 78.36471 56.74260 60.37711
#
# Poissons Ratio (x) = 0.28241 0.38169
# Poissons Ratio (y) = 0.39002 -0.00376
# Poissons Ratio (z) = 0.49540 -0.00353
#
# Static dielectric constant tensor:
#      x y z
#    x 3.639130 -0.069450 0.364930 
#    y -0.069450 3.737310 0.148900 
#    z 0.364930 0.148900 3.832690 
# 
# 
# High freq. dielectric constant tensor:
#      x y z
#    x 1.876790 0.000070 0.014240 
#    y 0.000070 1.851570 -0.009940 
#    z 0.014240 -0.009940 1.870250 
# 
# From -- ./inp_files/306738.got.cif
#   From: 2010.06.25/outbox.cif.g09.slc.cpg/sg2_154_cif.got.tgz:306738.got - 2010.06.27 13:26:56.
