data_PCOD8024129
_publ_section_title
;
Structure prediction by ZEFSAII (Michael W. Deem and Ramdas Pophale) SiO2 
 PCOD8024129
Probable space group: P -1
;
_chemical_formula_sum "Si O2"
_cell_formula_units_Z 16
_cell_length_a 12.393124
_cell_length_b 19.795511
_cell_length_c 8.812781
_cell_angle_alpha 147.784968
_cell_angle_beta 133.002688
_cell_angle_gamma 37.790928
_cell_volume 705.677045
_symmetry_space_group_name_H-M "P -1"
_symmetry_group_IT_number 2
_symmetry_cell_setting 'triclinic'
loop_
_space_group_symop_operation_xyz
x,y,z
-x,-y,-z
loop_
_atom_site_type_symbol
_atom_site_label
_atom_site_fract_x
_atom_site_fract_y
_atom_site_fract_z
Si Si1 0.815519 0.498633 0.663931
Si Si2 0.312339 0.419949 0.972656
Si Si3 0.299554 0.062517 0.947436
Si Si4 0.387259 0.575574 0.888796
Si Si5 0.826861 0.104810 0.630267
Si Si6 0.196554 0.199257 0.431549
Si Si7 0.964192 0.689919 0.076834
Si Si8 0.100897 0.056774 0.303572
O O1 0.676115 0.520563 0.442351
O O2 0.992292 0.334324 0.502660
O O3 0.732965 0.509559 0.768974
O O4 0.853420 0.630794 0.941643
O O5 0.323342 0.261690 0.682128
O O6 0.500877 0.386529 0.043715
O O7 0.156298 0.539812 0.933394
O O8 0.156871 0.204992 0.977562
O O9 0.313451 0.907707 0.625553
O O10 0.231912 0.109793 0.140992
O O11 0.500000 0.000000 0.000000
O O12 0.500000 0.500000 0.000000
O O13 0.215004 0.727725 0.078867
O O14 0.808121 0.063635 0.705445
O O15 0.000000 0.000000 0.500000
O O16 0.236157 0.074432 0.361758
O O17 0.014318 0.781115 0.412694
O O18 0.000000 0.000000 0.000000
#
# Coordination Sequence:
#
# PCOD8024129 Si02
#       8
#     2   2   2   2   2   2   2   2
#     4  11  22  44  71  99 142 177 234 289 351 409
#     4  11  23  45  70 102 144 172 239 288 353 414
#     4  11  25  43  66  97 144 177 235 285 350 410
#     4  12  29  43  70 106 142 186 234 291 348 407
#     4  11  26  47  67 102 141 183 231 282 349 425
#     4  11  22  43  75 101 131 186 235 285 351 424
#     4  10  23  42  71 101 132 190 226 288 350 420
#     4  11  21  41  71 102 131 176 239 281 341 416
#
# _framework density 22.673262999999999
#
# number of rings (size 3 to 8) (size 9 to 14) (size 15 to 20)
#    0.000    1.000    2.500    4.125    8.750    1.000 
#    2.250    1.875    0.000    0.000    0.000    0.000 
#    0.000    0.000    0.000    0.000    0.000    0.000 
#
# Total GULP energy -198210.189545 kJ/mol
# GULP energy per Si atom -12388.136847 kJ/mol
# Density = 2.262166 g / cm^3
# Si number density = 22.673263 Si / 1000 Ang^3
#
#
#
# Elastic Constant Matrix: (Units=GPa)
#
#
# Indices 1 2 3 4 5 6 
#
# 1 87.4642 21.2505 31.7913 -0.6477 -6.1483 3.0305
# 2 21.2505 71.4057 34.8499 -3.4644 -5.5902 5.5327
# 3 31.7913 34.8499 146.2229 -15.8926 7.0886 2.3840
# 4 -0.6477 -3.4644 -15.8926 35.3793 -1.1666 5.0688
# 5 -6.1483 -5.5902 7.0886 -1.1666 46.8960 -7.3653
# 6 3.0305 5.5327 2.3840 5.0688 -7.3653 36.4735
#
#
#
# Elastic Compliance Matrix: (Units=1/GPa)
#
#
# Indices 1 2 3 4 5 6 
#
# 1 0.013062 -0.002622 -0.002411 -0.001039 0.001733 -0.000036
# 2 -0.002622 0.016773 -0.003452 0.000360 0.001909 -0.001765
# 3 -0.002411 -0.003452 0.008685 0.003559 -0.002071 -0.000757
# 4 -0.001039 0.000360 0.003559 0.030514 -0.000588 -0.004560
# 5 0.001733 0.001909 -0.002071 -0.000588 0.022765 0.004381
# 6 -0.000036 -0.001765 -0.000757 -0.004560 0.004381 0.029256
#
#
# Mechanical properties :
#
#
# Convention : Reuss Voigt Hill
#
# Bulk Modulus (GPa) = 46.40513 53.43069 49.91791
# Shear Modulus (GPa) = 34.43265 38.22983 36.33124
#
# Velocity S-wave (km/s) = 3.90121 4.11069 4.00732
# Velocity P-wave (km/s) = 6.38779 6.79316 6.59359
#
# Compressibility (1/GPa) = 0.02154934
#
# Stress axis : x y z
#
# Youngs Moduli (GPa) = 76.55681 59.61787 115.13465
#
# Poissons Ratio (x) = 0.15635 0.27761
# Poissons Ratio (y) = 0.20077 0.39747
# Poissons Ratio (z) = 0.18460 0.20581
#
# Static dielectric constant tensor:
#      x y z
#    x 4.353190 0.139670 0.091540 
#    y 0.139670 4.081280 0.065990 
#    z 0.091540 0.065990 4.646980 
# 
# 
# High freq. dielectric constant tensor:
#      x y z
#    x 1.902930 0.011180 0.002130 
#    y 0.011180 1.872050 -0.005720 
#    z 0.002130 -0.005720 1.915830 
# 
# From -- ./inp_files/283521.got.cif
#   From: 2010.06.25/outbox.cif.g09.slc.cpg/sg2_142_cif.got.tgz:283521.got - 2010.06.27 13:26:56.
