data_PCOD8024702
_publ_section_title
;
Structure prediction by ZEFSAII (Michael W. Deem and Ramdas Pophale) SiO2 
 PCOD8024702
Probable space group: P -1
;
_chemical_formula_sum "Si O2"
_cell_formula_units_Z 16
_cell_length_a 11.324700
_cell_length_b 20.454848
_cell_length_c 8.998180
_cell_angle_alpha 67.709663
_cell_angle_beta 110.317728
_cell_angle_gamma 157.457606
_cell_volume 739.343006
_symmetry_space_group_name_H-M "P -1"
_symmetry_group_IT_number 2
_symmetry_cell_setting 'triclinic'
loop_
_space_group_symop_operation_xyz
x,y,z
-x,-y,-z
loop_
_atom_site_type_symbol
_atom_site_label
_atom_site_fract_x
_atom_site_fract_y
_atom_site_fract_z
Si Si1 0.863514 0.569626 0.566421
Si Si2 0.166187 0.303879 0.737622
Si Si3 0.621682 0.790738 0.318378
Si Si4 0.200444 0.010065 0.302000
Si Si5 0.402873 0.797078 0.425010
Si Si6 0.232864 0.463486 0.124868
Si Si7 0.209885 0.810835 0.092217
Si Si8 0.633159 0.316470 0.008687
O O1 0.853392 0.643226 0.435127
O O2 0.523726 0.361847 0.594448
O O3 0.969299 0.627494 0.735145
O O4 0.079561 0.626266 0.519670
O O5 0.522197 0.472883 0.789161
O O6 0.995624 0.147301 0.737905
O O7 0.004474 0.244228 0.868965
O O8 0.531565 0.789064 0.426312
O O9 0.985393 0.964207 0.305976
O O10 0.498695 0.768939 0.138285
O O11 0.351373 0.049327 0.477790
O O12 0.472698 0.183101 0.172020
O O13 0.355617 0.825763 0.245660
O O14 0.432571 0.635227 0.019560
O O15 0.988999 0.322833 0.012283
O O16 0.500000 0.000000 0.000000
O O17 0.000000 0.500000 0.000000
#
# Coordination Sequence:
#
# PCOD8024702 Si02
#       8
#     2   2   2   2   2   2   2   2
#     4  10  23  43  70  98 135 181 225 272 337 406
#     4  11  25  43  69 100 138 178 223 276 338 405
#     4  11  23  43  68 100 134 179 226 279 332 391
#     4  12  25  42  69 104 135 177 225 277 339 399
#     4  11  26  42  64  99 138 177 225 278 334 395
#     4  11  23  45  69  97 133 181 226 275 338 396
#     4  11  28  43  68 100 134 177 223 285 333 403
#     4  11  24  42  71  98 134 180 225 277 335 402
#
# _framework density 21.640834000000002
#
# number of rings (size 3 to 8) (size 9 to 14) (size 15 to 20)
#    0.000    1.000    2.500    4.125    7.000    3.000 
#    0.000    0.000    0.000    0.000    0.000    0.000 
#    0.000    0.000    0.000    0.000    0.000    0.000 
#
# Total GULP energy -198350.997611 kJ/mol
# GULP energy per Si atom -12396.937351 kJ/mol
# Density = 2.159158 g / cm^3
# Si number density = 21.640834 Si / 1000 Ang^3
#
#
#
# Elastic Constant Matrix: (Units=GPa)
#
#
# Indices 1 2 3 4 5 6 
#
# 1 107.2796 33.5653 51.2966 -14.2004 -9.6341 8.0265
# 2 33.5653 103.8930 72.8373 -4.7118 -2.2745 9.9767
# 3 51.2966 72.8373 148.4095 4.6120 -10.6654 -1.5999
# 4 -14.2004 -4.7118 4.6120 38.1480 7.1412 -1.9745
# 5 -9.6341 -2.2745 -10.6654 7.1412 27.8714 2.1293
# 6 8.0265 9.9767 -1.5999 -1.9745 2.1293 34.8668
#
#
#
# Elastic Compliance Matrix: (Units=1/GPa)
#
#
# Indices 1 2 3 4 5 6 
#
# 1 0.012409 -0.000714 -0.003983 0.004547 0.001747 -0.002684
# 2 -0.000714 0.015855 -0.007839 0.002850 -0.002345 -0.004427
# 3 -0.003983 -0.007839 0.012396 -0.004459 0.003621 0.003255
# 4 0.004547 0.002850 -0.004459 0.030237 -0.007658 0.000113
# 5 0.001747 -0.002345 0.003621 -0.007658 0.039825 -0.002431
# 6 -0.002684 -0.004427 0.003255 0.000113 -0.002431 0.030870
#
#
# Mechanical properties :
#
#
# Convention : Reuss Voigt Hill
#
# Bulk Modulus (GPa) = 64.15767 74.99785 69.57776
# Shear Modulus (GPa) = 29.09326 33.63610 31.36468
#
# Velocity S-wave (km/s) = 3.67054 3.94672 3.81113
# Velocity P-wave (km/s) = 6.90469 7.44982 7.18243
#
# Compressibility (1/GPa) = 0.01558660
#
# Stress axis : x y z
#
# Youngs Moduli (GPa) = 80.58625 63.07078 80.66972
#
# Poissons Ratio (x) = 0.04505 0.32132
# Poissons Ratio (y) = 0.05756 0.63240
# Poissons Ratio (z) = 0.32099 0.49444
#
# Static dielectric constant tensor:
#      x y z
#    x 4.178790 0.141050 0.014770 
#    y 0.141050 3.798220 0.051690 
#    z 0.014770 0.051690 4.366530 
# 
# 
# High freq. dielectric constant tensor:
#      x y z
#    x 1.860940 0.014100 -0.004780 
#    y 0.014100 1.844240 0.004300 
#    z -0.004780 0.004300 1.861880 
# 
# From -- ./inp_files/261679.got.cif
#   From: 2010.06.25/outbox.cif.g09.slc.cpg/sg2_131_cif.got.tgz:261679.got - 2010.06.27 13:26:56.
