data_PCOD8024849
_publ_section_title
;
Structure prediction by ZEFSAII (Michael W. Deem and Ramdas Pophale) SiO2 
 PCOD8024849
Probable space group: P -1
;
_chemical_formula_sum "Si O2"
_cell_formula_units_Z 16
_cell_length_a 12.460730
_cell_length_b 9.444979
_cell_length_c 9.270818
_cell_angle_alpha 89.349608
_cell_angle_beta 78.904370
_cell_angle_gamma 46.413330
_cell_volume 764.159722
_symmetry_space_group_name_H-M "P -1"
_symmetry_group_IT_number 2
_symmetry_cell_setting 'triclinic'
loop_
_space_group_symop_operation_xyz
x,y,z
-x,-y,-z
loop_
_atom_site_type_symbol
_atom_site_label
_atom_site_fract_x
_atom_site_fract_y
_atom_site_fract_z
Si Si1 0.081222 0.725127 0.152662
Si Si2 0.106440 0.662053 0.812953
Si Si3 0.764591 0.161692 0.235529
Si Si4 0.688406 0.720210 0.403000
Si Si5 0.859423 0.577039 0.636973
Si Si6 0.205581 0.065854 0.265516
Si Si7 0.663504 0.279941 0.948665
Si Si8 0.359155 0.925548 0.516909
O O1 0.093408 0.586409 0.262918
O O2 0.221587 0.704612 0.139983
O O3 0.072134 0.677229 0.991158
O O4 0.928635 0.946365 0.228770
O O5 0.228647 0.675427 0.750536
O O6 0.181221 0.449271 0.739629
O O7 0.956146 0.839039 0.758004
O O8 0.639497 0.209815 0.375448
O O9 0.715721 0.168376 0.087430
O O10 0.729141 0.641123 0.558978
O O11 0.526378 0.795043 0.404338
O O12 0.682830 0.894763 0.384617
O O13 0.789122 0.767913 0.751261
O O14 0.000000 0.500000 0.500000
O O15 0.338908 0.856628 0.152086
O O16 0.229523 0.012254 0.429303
O O17 0.500000 0.500000 0.000000
#
# Coordination Sequence:
#
# PCOD8024849 Si02
#       8
#     2   2   2   2   2   2   2   2
#     4  11  23  42  67  96 128 169 213 265 320 380
#     4  11  22  40  64  93 129 166 215 269 308 389
#     4  11  23  42  63  96 129 167 219 262 319 383
#     4  10  23  44  61  91 135 167 215 265 322 379
#     4  11  23  41  68  99 128 165 217 265 318 383
#     4  11  22  43  62  96 127 167 219 261 317 386
#     4  11  25  44  64  91 133 172 214 269 324 381
#     4  10  25  41  64  92 131 174 208 271 322 379
#
# _framework density 20.938030999999999
#
# number of rings (size 3 to 8) (size 9 to 14) (size 15 to 20)
#    0.000    1.250    3.750    2.250    5.250    3.500 
#    0.000    0.625    0.000    0.000    0.000    0.000 
#    0.000    0.000    0.000    0.000    0.000    0.000 
#
# Total GULP energy -198367.814361 kJ/mol
# GULP energy per Si atom -12397.988398 kJ/mol
# Density = 2.089038 g / cm^3
# Si number density = 20.938031 Si / 1000 Ang^3
#
#
#
# Elastic Constant Matrix: (Units=GPa)
#
#
# Indices 1 2 3 4 5 6 
#
# 1 60.6643 19.3425 36.2458 -13.1539 8.9704 -9.4455
# 2 19.3425 111.0735 34.0410 6.5155 -0.1952 1.0667
# 3 36.2458 34.0410 75.2941 -14.4156 3.9238 9.2207
# 4 -13.1539 6.5155 -14.4156 50.6357 10.7486 -3.8726
# 5 8.9704 -0.1952 3.9238 10.7486 28.5771 4.5807
# 6 -9.4455 1.0667 9.2207 -3.8726 4.5807 22.8915
#
#
#
# Elastic Compliance Matrix: (Units=1/GPa)
#
#
# Indices 1 2 3 4 5 6 
#
# 1 0.036468 -0.002060 -0.017005 0.010708 -0.017532 0.027313
# 2 -0.002060 0.011106 -0.004877 -0.004048 0.003026 -0.000694
# 3 -0.017005 -0.004877 0.025899 0.001352 0.004095 -0.017812
# 4 0.010708 -0.004048 0.001352 0.027728 -0.015917 0.011938
# 5 -0.017532 0.003026 0.004095 -0.015917 0.049405 -0.021604
# 6 0.027313 -0.000694 -0.017812 0.011938 -0.021604 0.068504
#
#
# Mechanical properties :
#
#
# Convention : Reuss Voigt Hill
#
# Bulk Modulus (GPa) = 39.08025 47.36560 43.22293
# Shear Modulus (GPa) = 18.14728 30.91437 24.53082
#
# Velocity S-wave (km/s) = 2.94719 3.84665 3.42657
# Velocity P-wave (km/s) = 5.50332 6.51152 6.02853
#
# Compressibility (1/GPa) = 0.02558837
#
# Stress axis : x y z
#
# Youngs Moduli (GPa) = 27.42126 90.04180 38.61168
#
# Poissons Ratio (x) = 0.18551 0.65659
# Poissons Ratio (y) = 0.05650 0.18831
# Poissons Ratio (z) = 0.46630 0.43914
#
# Static dielectric constant tensor:
#      x y z
#    x 3.957510 -0.088430 0.192400 
#    y -0.088430 3.985810 -0.007090 
#    z 0.192400 -0.007090 3.697190 
# 
# 
# High freq. dielectric constant tensor:
#      x y z
#    x 1.815690 -0.003110 0.020030 
#    y -0.003110 1.832910 0.001930 
#    z 0.020030 0.001930 1.808040 
# 
# From -- ./inp_files/158708.got.cif
#   From: 2010.06.25/outbox.cif.g09.slc.cpg/sg2_80_cif.got.tgz:158708.got - 2010.06.27 13:26:56.
