data_PCOD8024980
_publ_section_title
;
Structure prediction by ZEFSAII (Michael W. Deem and Ramdas Pophale) SiO2 
 PCOD8024980
Probable space group: P -1
;
_chemical_formula_sum "Si O2"
_cell_formula_units_Z 16
_cell_length_a 22.226067
_cell_length_b 15.099031
_cell_length_c 4.908872
_cell_angle_alpha 124.631804
_cell_angle_beta 56.130356
_cell_angle_gamma 155.268516
_cell_volume 563.032104
_symmetry_space_group_name_H-M "P -1"
_symmetry_group_IT_number 2
_symmetry_cell_setting 'triclinic'
loop_
_space_group_symop_operation_xyz
x,y,z
-x,-y,-z
loop_
_atom_site_type_symbol
_atom_site_label
_atom_site_fract_x
_atom_site_fract_y
_atom_site_fract_z
Si Si1 0.338570 0.387477 0.448834
Si Si2 0.919112 0.954148 0.861196
Si Si3 0.597654 0.031721 0.938593
Si Si4 0.243384 0.427984 0.135459
Si Si5 0.545303 0.825577 0.213160
Si Si6 0.658812 0.800309 0.491196
Si Si7 0.122509 0.493151 0.753020
Si Si8 0.050403 0.772241 0.743512
O O1 0.243367 0.221269 0.146277
O O2 0.511786 0.604057 0.337063
O O3 0.298020 0.260189 0.594839
O O4 0.297851 0.461456 0.754133
O O5 0.895295 0.830876 0.933625
O O6 0.000000 0.000000 0.500000
O O7 0.000528 0.170469 0.114483
O O8 0.614420 0.956910 0.547972
O O9 0.763700 0.278340 0.010047
O O10 0.500000 0.000000 0.000000
O O11 0.527992 0.901274 0.167850
O O12 0.380162 0.572064 0.241555
O O13 0.213013 0.511399 0.428708
O O14 0.641649 0.855552 0.894215
O O15 0.778094 0.008689 0.356948
O O16 0.031466 0.417251 0.585266
O O17 0.998545 0.307064 0.961972
#
# Coordination Sequence:
#
# PCOD8024980 Si02
#       8
#     2   2   2   2   2   2   2   2
#     4  10  23  44  67 104 149 199 243 289 344 442
#     4  12  24  40  69 108 154 190 237 293 366 435
#     4  12  26  50  77 110 137 182 243 316 374 422
#     4  11  24  40  69 112 143 188 235 297 364 428
#     4  11  27  46  77 109 142 184 246 306 365 421
#     4  10  24  47  69 102 148 201 244 285 350 432
#     4  12  27  44  74 103 146 182 248 299 371 420
#     4  12  26  45  67 105 147 200 227 294 352 435
#
# _framework density 28.417560000000002
#
# number of rings (size 3 to 8) (size 9 to 14) (size 15 to 20)
#    0.000    0.750    3.750    2.625    5.250    3.500 
#    2.250    3.750    0.000    0.000    0.000    0.000 
#    0.000    0.000    0.000    0.000    0.000    0.000 
#
# Total GULP energy -198327.786025 kJ/mol
# GULP energy per Si atom -12395.486627 kJ/mol
# Density = 2.835288 g / cm^3
# Si number density = 28.417560 Si / 1000 Ang^3
#
#
#
# Elastic Constant Matrix: (Units=GPa)
#
#
# Indices 1 2 3 4 5 6 
#
# 1 46.8323 6.6587 6.0018 -4.3665 9.0950 12.0735
# 2 6.6587 146.6957 48.7187 6.0010 1.7502 10.6540
# 3 6.0018 48.7187 124.9948 13.8129 17.6501 8.0386
# 4 -4.3665 6.0010 13.8129 60.1378 3.6751 7.8566
# 5 9.0950 1.7502 17.6501 3.6751 37.1300 3.4446
# 6 12.0735 10.6540 8.0386 7.8566 3.4446 32.1860
#
#
#
# Elastic Compliance Matrix: (Units=1/GPa)
#
#
# Indices 1 2 3 4 5 6 
#
# 1 0.025314 -0.000536 0.000021 0.003482 -0.005642 -0.009569
# 2 -0.000536 0.008013 -0.003188 0.000044 0.001433 -0.001819
# 3 0.000021 -0.003188 0.010088 -0.001649 -0.004432 -0.000595
# 4 0.003482 0.000044 -0.001649 0.018014 -0.001376 -0.005159
# 5 -0.005642 0.001433 -0.004432 -0.001376 0.030506 -0.000180
# 6 -0.009569 -0.001819 -0.000595 -0.005159 -0.000180 0.036688
#
#
# Mechanical properties :
#
#
# Convention : Reuss Voigt Hill
#
# Bulk Modulus (GPa) = 27.77086 49.03123 38.40105
# Shear Modulus (GPa) = 33.77642 43.03366 38.40504
#
# Velocity S-wave (km/s) = 3.45131 3.89567 3.68020
# Velocity P-wave (km/s) = 5.06712 6.12587 5.62148
#
# Compressibility (1/GPa) = 0.03600896
#
# Stress axis : x y z
#
# Youngs Moduli (GPa) = 39.50437 124.79621 99.12661
#
# Poissons Ratio (x) = 0.06690 -0.00207
# Poissons Ratio (y) = 0.02118 0.31599
# Poissons Ratio (z) = -0.00082 0.39781
#
# Static dielectric constant tensor:
#      x y z
#    x 5.937680 0.248350 0.255330 
#    y 0.248350 5.720300 0.323510 
#    z 0.255330 0.323510 5.336750 
# 
# 
# High freq. dielectric constant tensor:
#      x y z
#    x 2.144200 0.023780 0.008090 
#    y 0.023780 2.173600 0.002870 
#    z 0.008090 0.002870 2.171710 
# 
# From -- ./inp_files/127526.got.cif
#   From: 2010.06.25/outbox.cif.g09.slc.cpg/sg2_64_cif.got.tgz:127526.got - 2010.06.27 13:26:56.
