data_PCOD8024484
_publ_section_title
;
Structure prediction by ZEFSAII (Michael W. Deem and Ramdas Pophale) SiO2 
 PCOD8024484
Probable space group: P -1
;
_chemical_formula_sum "Si O2"
_cell_formula_units_Z 16
_cell_length_a 5.550466
_cell_length_b 20.928700
_cell_length_c 11.497680
_cell_angle_alpha 147.727660
_cell_angle_beta 100.827138
_cell_angle_gamma 80.213873
_cell_volume 700.291699
_symmetry_space_group_name_H-M "P -1"
_symmetry_group_IT_number 2
_symmetry_cell_setting 'triclinic'
loop_
_space_group_symop_operation_xyz
x,y,z
-x,-y,-z
loop_
_atom_site_type_symbol
_atom_site_label
_atom_site_fract_x
_atom_site_fract_y
_atom_site_fract_z
Si Si1 0.807278 0.240880 0.045116
Si Si2 0.350131 0.656240 0.043357
Si Si3 0.702847 0.095309 0.185613
Si Si4 0.432239 0.222492 0.534061
Si Si5 0.155138 0.982480 0.159297
Si Si6 0.071578 0.439949 0.793674
Si Si7 0.685319 0.639841 0.702577
Si Si8 0.348140 0.512685 0.325254
O O1 0.559428 0.291728 0.162938
O O2 0.071226 0.285499 0.186385
O O3 0.806340 0.267431 0.947801
O O4 0.815548 0.097760 0.845996
O O5 0.397724 0.739339 0.285414
O O6 0.224112 0.535174 0.883628
O O7 0.600431 0.608153 0.931622
O O8 0.589110 0.217224 0.419763
O O9 0.821008 0.110845 0.092477
O O10 0.889678 0.044324 0.221077
O O11 0.500000 0.000000 0.000000
O O12 0.211071 0.315702 0.639512
O O13 0.349310 0.088050 0.345385
O O14 0.839773 0.405485 0.640059
O O15 0.000000 0.500000 0.000000
O O16 0.597382 0.584729 0.486341
O O17 0.764263 0.530886 0.628614
#
# Coordination Sequence:
#
# PCOD8024484 Si02
#       8
#     2   2   2   2   2   2   2   2
#     4  11  25  46  74 104 144 185 240 302 359 427
#     4  11  25  45  67 100 142 185 238 295 356 429
#     4   9  22  45  67  98 136 179 240 294 347 423
#     4  11  25  42  70 101 142 189 235 294 360 422
#     4  10  24  46  70 101 135 183 240 296 358 424
#     4  12  25  43  66 103 144 189 237 289 356 430
#     4  10  24  43  72 105 142 190 232 299 362 423
#     4  10  23  43  68 100 144 182 243 285 358 427
#
# _framework density 22.847622000000001
#
# number of rings (size 3 to 8) (size 9 to 14) (size 15 to 20)
#    0.000    1.500    2.500    0.375    7.000    6.000 
#    0.000    0.625    0.000    0.000    0.000    0.000 
#    0.000    0.000    0.000    0.000    0.000    0.000 
#
# Total GULP energy -198279.598815 kJ/mol
# GULP energy per Si atom -12392.474926 kJ/mol
# Density = 2.279562 g / cm^3
# Si number density = 22.847622 Si / 1000 Ang^3
#
#
#
# Elastic Constant Matrix: (Units=GPa)
#
#
# Indices 1 2 3 4 5 6 
#
# 1 100.9051 26.0241 41.5355 -3.6057 4.1661 -10.8688
# 2 26.0241 120.7173 54.2190 10.6223 10.4961 -11.4023
# 3 41.5355 54.2190 129.2394 -14.2179 -3.0555 -6.4693
# 4 -3.6057 10.6223 -14.2179 40.1163 1.9901 7.9507
# 5 4.1661 10.4961 -3.0555 1.9901 39.1700 -3.4015
# 6 -10.8688 -11.4023 -6.4693 7.9507 -3.4015 30.1745
#
#
#
# Elastic Compliance Matrix: (Units=1/GPa)
#
#
# Indices 1 2 3 4 5 6 
#
# 1 0.011881 -0.000499 -0.003539 -0.000672 -0.001078 0.003388
# 2 -0.000499 0.011980 -0.005356 -0.005846 -0.002895 0.004413
# 3 -0.003539 -0.005356 0.011684 0.005524 0.002269 -0.001993
# 4 -0.000672 -0.005846 0.005524 0.030222 -0.000271 -0.009261
# 5 -0.001078 -0.002895 0.002269 -0.000271 0.026793 0.002096
# 6 0.003388 0.004413 -0.001993 -0.009261 0.002096 0.038278
#
#
# Mechanical properties :
#
#
# Convention : Reuss Voigt Hill
#
# Bulk Modulus (GPa) = 59.67874 66.04656 62.86265
# Shear Modulus (GPa) = 32.21435 37.16438 34.68937
#
# Velocity S-wave (km/s) = 3.75902 4.03751 3.90075
# Velocity P-wave (km/s) = 6.70950 7.12078 6.91820
#
# Compressibility (1/GPa) = 0.01675639
#
# Stress axis : x y z
#
# Youngs Moduli (GPa) = 84.16720 83.47207 85.59068
#
# Poissons Ratio (x) = 0.04165 0.30290
# Poissons Ratio (y) = 0.04200 0.45844
# Poissons Ratio (z) = 0.29786 0.44710
#
# Static dielectric constant tensor:
#      x y z
#    x 3.893810 -0.124610 -0.492870 
#    y -0.124610 4.263810 -0.439200 
#    z -0.492870 -0.439200 4.061270 
# 
# 
# High freq. dielectric constant tensor:
#      x y z
#    x 1.907650 -0.005550 -0.000340 
#    y -0.005550 1.903780 -0.005950 
#    z -0.000340 -0.005950 1.890890 
# 
# From -- ./inp_files/71401.got.cif
#   From: 2010.06.25/outbox.cif.g09.slc.cpg/sg2_36_cif.got.tgz:71401.got - 2010.06.27 13:26:56.
