data_PCOD8024104
_publ_section_title
;
Structure prediction by ZEFSAII (Michael W. Deem and Ramdas Pophale) SiO2 
 PCOD8024104
Probable space group: P -1
;
_chemical_formula_sum "Si O2"
_cell_formula_units_Z 14
_cell_length_a 6.318869
_cell_length_b 17.419678
_cell_length_c 9.022407
_cell_angle_alpha 119.485200
_cell_angle_beta 68.038698
_cell_angle_gamma 69.878510
_cell_volume 606.445064
_symmetry_space_group_name_H-M "P -1"
_symmetry_group_IT_number 2
_symmetry_cell_setting 'triclinic'
loop_
_space_group_symop_operation_xyz
x,y,z
-x,-y,-z
loop_
_atom_site_type_symbol
_atom_site_label
_atom_site_fract_x
_atom_site_fract_y
_atom_site_fract_z
Si Si1 0.422362 0.768798 0.718466
Si Si2 0.952876 0.353905 0.023157
Si Si3 0.353398 0.612753 0.419601
Si Si4 0.220079 0.025241 0.463042
Si Si5 0.110549 0.241280 0.573304
Si Si6 0.872949 0.623201 0.709053
Si Si7 0.863644 0.869815 0.113918
O O1 0.489693 0.669870 0.497824
O O2 0.577629 0.815631 0.649651
O O3 0.559964 0.720645 0.801381
O O4 0.059427 0.870647 0.935994
O O5 0.113853 0.305052 0.775589
O O6 0.925548 0.262230 0.008235
O O7 0.618921 0.475261 0.202095
O O8 0.151711 0.366438 0.094384
O O9 0.185676 0.663834 0.355227
O O10 0.114606 0.639056 0.627716
O O11 0.092353 0.143079 0.524345
O O12 0.249063 0.034388 0.639909
O O13 0.533574 0.916674 0.194317
O O14 0.000000 0.000000 0.500000
O O15 0.000000 0.500000 0.500000
#
# Coordination Sequence:
#
# PCOD8024104 Si02
#       7
#     2   2   2   2   2   2   2
#     4  11  23  42  64 101 141 176 219 273 338 403
#     4  11  21  42  66  98 136 181 229 267 322 395
#     4  11  22  41  63  99 145 178 217 271 336 401
#     4  10  24  47  70  98 125 170 231 285 335 394
#     4  10  26  43  65 102 138 177 220 277 345 395
#     4  11  21  37  65  97 135 185 232 267 314 398
#     4  10  23  42  70  97 128 174 232 275 326 395
#
# _framework density 23.085355
#
# number of rings (size 3 to 8) (size 9 to 14) (size 15 to 20)
#    0.000    1.429    2.857    1.714    2.000    4.571 
#    5.143    1.429    0.000    0.000    0.000    0.000 
#    0.000    0.000    0.000    0.000    0.000    0.000 
#
# Total GULP energy -173500.399764 kJ/mol
# GULP energy per Si atom -12392.885697 kJ/mol
# Density = 2.303281 g / cm^3
# Si number density = 23.085355 Si / 1000 Ang^3
#
#
#
# Elastic Constant Matrix: (Units=GPa)
#
#
# Indices 1 2 3 4 5 6 
#
# 1 136.4809 54.4837 60.4081 -11.0182 -6.8871 4.3395
# 2 54.4837 89.5612 51.4150 -5.5310 -1.5798 -4.3538
# 3 60.4081 51.4150 129.4844 -4.7472 -14.8756 -6.6290
# 4 -11.0182 -5.5310 -4.7472 27.5737 -6.5277 8.5103
# 5 -6.8871 -1.5798 -14.8756 -6.5277 44.6326 -6.4245
# 6 4.3395 -4.3538 -6.6290 8.5103 -6.4245 32.6277
#
#
#
# Elastic Compliance Matrix: (Units=1/GPa)
#
#
# Indices 1 2 3 4 5 6 
#
# 1 0.011204 -0.004846 -0.003280 0.004241 0.000537 -0.003804
# 2 -0.004846 0.016720 -0.004461 -0.000227 -0.001424 0.001748
# 3 -0.003280 -0.004461 0.011578 -0.000282 0.003581 0.002972
# 4 0.004241 -0.000227 -0.000282 0.042399 0.005216 -0.010684
# 5 0.000537 -0.001424 0.003581 0.005216 0.024973 0.004023
# 6 -0.003804 0.001748 0.002972 -0.010684 0.004023 0.035571
#
#
# Mechanical properties :
#
#
# Convention : Reuss Voigt Hill
#
# Bulk Modulus (GPa) = 69.79535 76.46001 73.12768
# Shear Modulus (GPa) = 29.00309 33.58144 31.29226
#
# Velocity S-wave (km/s) = 3.54834 3.81814 3.68571
# Velocity P-wave (km/s) = 6.86198 7.25466 7.06105
#
# Compressibility (1/GPa) = 0.01432760
#
# Stress axis : x y z
#
# Youngs Moduli (GPa) = 89.25414 59.80726 86.37230
#
# Poissons Ratio (x) = 0.28984 0.28332
# Poissons Ratio (y) = 0.43255 0.38529
# Poissons Ratio (z) = 0.29277 0.26679
#
# Static dielectric constant tensor:
#      x y z
#    x 4.444510 -0.245200 -0.065780 
#    y -0.245200 4.158900 -0.067660 
#    z -0.065780 -0.067660 4.187110 
# 
# 
# High freq. dielectric constant tensor:
#      x y z
#    x 1.918110 -0.002420 0.002060 
#    y -0.002420 1.894450 -0.000740 
#    z 0.002060 -0.000740 1.914160 
# 
# From -- ./inp_files/47527.got.cif
#   From: 2010.06.25/outbox.cif.g09.slc.cpg/sg2_24_cif.got.tgz:47527.got - 2010.06.27 13:26:56.
