data_PCOD8024682
_publ_section_title
;
Structure prediction by ZEFSAII (Michael W. Deem and Ramdas Pophale) SiO2 
 PCOD8024682
Probable space group: P -1
;
_chemical_formula_sum "Si O2"
_cell_formula_units_Z 12
_cell_length_a 14.173574
_cell_length_b 12.389888
_cell_length_c 8.696199
_cell_angle_alpha 80.331389
_cell_angle_beta 143.634429
_cell_angle_gamma 127.469054
_cell_volume 524.230013
_symmetry_space_group_name_H-M "P -1"
_symmetry_group_IT_number 2
_symmetry_cell_setting 'triclinic'
loop_
_space_group_symop_operation_xyz
x,y,z
-x,-y,-z
loop_
_atom_site_type_symbol
_atom_site_label
_atom_site_fract_x
_atom_site_fract_y
_atom_site_fract_z
Si Si1 0.603318 0.383414 0.229130
Si Si2 0.210416 0.017874 0.302521
Si Si3 0.295126 0.627672 0.305644
Si Si4 0.138888 0.283390 0.653760
Si Si5 0.588248 0.922597 0.117602
Si Si6 0.223264 0.385176 0.093157
O O1 0.578944 0.364212 0.385186
O O2 0.860600 0.601706 0.467760
O O3 0.343746 0.307918 0.845650
O O4 0.625028 0.275590 0.202782
O O5 0.466406 0.155827 0.487168
O O6 0.336888 0.093606 0.620670
O O7 0.000000 0.000000 0.000000
O O8 0.033532 0.808917 0.105503
O O9 0.228705 0.517516 0.096115
O O10 0.000000 0.500000 0.000000
O O11 0.206995 0.349239 0.902855
O O12 0.844367 0.066681 0.304924
O O13 0.500000 0.000000 0.000000
O O14 0.500000 0.500000 0.500000
#
# Coordination Sequence:
#
# PCOD8024682 Si02
#       6
#     2   2   2   2   2   2
#     4  11  24  43  67  98 135 173 225 275 336 405
#     4  11  24  45  73  96 132 188 227 270 334 413
#     4  12  27  41  66 103 137 171 220 286 339 394
#     4  10  23  43  70  96 127 180 223 275 329 406
#     4  11  26  43  67 100 137 174 224 278 342 398
#     4  11  21  44  69  96 129 174 232 270 333 404
#
# _framework density 22.890715
#
# number of rings (size 3 to 8) (size 9 to 14) (size 15 to 20)
#    0.000    1.000    3.333    2.500    7.000    2.667 
#    0.000    0.000    0.000    0.000    0.000    0.000 
#    0.000    0.000    0.000    0.000    0.000    0.000 
#
# Total GULP energy -148682.282848 kJ/mol
# GULP energy per Si atom -12390.190237 kJ/mol
# Density = 2.283861 g / cm^3
# Si number density = 22.890715 Si / 1000 Ang^3
#
#
#
# Elastic Constant Matrix: (Units=GPa)
#
#
# Indices 1 2 3 4 5 6 
#
# 1 73.9003 37.8850 15.2265 3.1914 6.5800 0.4907
# 2 37.8850 138.7192 25.4867 14.2861 -1.8030 25.7446
# 3 15.2265 25.4867 62.4387 8.5482 5.9174 12.7430
# 4 3.1914 14.2861 8.5482 38.0307 6.1921 10.1492
# 5 6.5800 -1.8030 5.9174 6.1921 40.4795 6.4396
# 6 0.4907 25.7446 12.7430 10.1492 6.4396 55.5192
#
#
#
# Elastic Compliance Matrix: (Units=1/GPa)
#
#
# Indices 1 2 3 4 5 6 
#
# 1 0.016713 -0.004745 -0.002523 0.000690 -0.003121 0.002867
# 2 -0.004745 0.009865 -0.001994 -0.002205 0.002469 -0.003958
# 3 -0.002523 -0.001994 0.018450 -0.002204 -0.001609 -0.002698
# 4 0.000690 -0.002205 -0.002204 0.029074 -0.003802 -0.003352
# 5 -0.003121 0.002469 -0.001609 -0.003802 0.026638 -0.003143
# 6 0.002867 -0.003958 -0.002698 -0.003352 -0.003143 0.021418
#
#
# Mechanical properties :
#
#
# Convention : Reuss Voigt Hill
#
# Bulk Modulus (GPa) = 37.72925 48.02827 42.87876
# Shear Modulus (GPa) = 33.44142 39.90321 36.67231
#
# Velocity S-wave (km/s) = 3.82634 4.17970 4.00692
# Velocity P-wave (km/s) = 6.00327 6.65735 6.33875
#
# Compressibility (1/GPa) = 0.02650464
#
# Stress axis : x y z
#
# Youngs Moduli (GPa) = 59.83387 101.37185 54.20118
#
# Poissons Ratio (x) = 0.48097 0.13674
# Poissons Ratio (y) = 0.28389 0.10807
# Poissons Ratio (z) = 0.15095 0.20213
#
# Static dielectric constant tensor:
#      x y z
#    x 3.694360 0.169790 -0.261510 
#    y 0.169790 4.587140 0.356500 
#    z -0.261510 0.356500 4.654290 
# 
# 
# High freq. dielectric constant tensor:
#      x y z
#    x 1.891950 0.012250 0.001240 
#    y 0.012250 1.920400 0.009630 
#    z 0.001240 0.009630 1.899030 
# 
# From -- ./inp_files/160599.got.cif
#   From: 2010.06.25/outbox.cif.g09.slc.cpg/sg2_81_cif.got.tgz:160599.got - 2010.06.27 13:26:56.
