data_PCOD8024614
_publ_section_title
;
Structure prediction by ZEFSAII (Michael W. Deem and Ramdas Pophale) SiO2 
 PCOD8024614
Probable space group: P -1
;
_chemical_formula_sum "Si O2"
_cell_formula_units_Z 16
_cell_length_a 5.338445
_cell_length_b 16.704894
_cell_length_c 8.245421
_cell_angle_alpha 88.262065
_cell_angle_beta 96.280001
_cell_angle_gamma 117.092311
_cell_volume 650.542489
_symmetry_space_group_name_H-M "P -1"
_symmetry_group_IT_number 2
_symmetry_cell_setting 'triclinic'
loop_
_space_group_symop_operation_xyz
x,y,z
-x,-y,-z
loop_
_atom_site_type_symbol
_atom_site_label
_atom_site_fract_x
_atom_site_fract_y
_atom_site_fract_z
Si Si1 0.643891 0.946126 0.597342
Si Si2 0.880461 0.710765 0.584493
Si Si3 0.099205 0.133432 0.587960
Si Si4 0.874588 0.530650 0.137054
Si Si5 0.331912 0.357421 0.084432
Si Si6 0.457577 0.231955 0.873266
Si Si7 0.659625 0.944811 0.959238
Si Si8 0.257183 0.653631 0.401824
O O1 0.628764 0.862356 0.494485
O O2 0.551621 0.910911 0.772647
O O3 0.500000 0.000000 0.500000
O O4 0.956446 0.029441 0.633210
O O5 0.039716 0.819430 0.546042
O O6 0.873410 0.697890 0.778758
O O7 0.558864 0.666695 0.491820
O O8 0.063685 0.665400 0.525790
O O9 0.165447 0.191935 0.752262
O O10 0.579779 0.447492 0.173530
O O11 0.074630 0.555608 0.309869
O O12 0.831327 0.615608 0.066053
O O13 0.000000 0.500000 0.000000
O O14 0.457649 0.296624 0.012300
O O15 0.700614 0.281924 0.754257
O O16 0.487129 0.147192 0.946418
O O17 0.500000 0.000000 0.000000
O O18 0.000000 0.000000 0.000000
#
# Coordination Sequence:
#
# PCOD8024614 Si02
#       8
#     2   2   2   2   2   2   2   2
#     4  11  24  43  67 100 137 190 229 304 359 418
#     4  11  27  46  72 110 141 189 241 295 359 426
#     4  10  23  43  69  94 143 179 239 290 362 419
#     4  11  24  47  74 107 147 189 242 294 371 428
#     4  11  26  47  75 107 146 191 243 302 355 441
#     4  11  23  49  74 103 145 197 244 296 363 431
#     4  12  27  45  72 107 144 189 244 299 352 430
#     4  11  26  46  75 104 148 191 234 301 362 428
#
# _framework density 24.594856
#
# number of rings (size 3 to 8) (size 9 to 14) (size 15 to 20)
#    0.000    1.000    2.500    3.000   10.500    2.000 
#    2.250    0.000    0.000    0.000    0.000    0.000 
#    0.000    0.000    0.000    0.000    0.000    0.000 
#
# Total GULP energy -198210.588974 kJ/mol
# GULP energy per Si atom -12388.161811 kJ/mol
# Density = 2.453888 g / cm^3
# Si number density = 24.594856 Si / 1000 Ang^3
#
#
#
# Elastic Constant Matrix: (Units=GPa)
#
#
# Indices 1 2 3 4 5 6 
#
# 1 91.9274 -2.2031 12.8109 6.6631 -9.9239 -18.3970
# 2 -2.2031 75.9125 21.5850 -3.8827 -7.1076 -16.7008
# 3 12.8109 21.5850 119.5220 -1.3671 -24.6279 -3.4106
# 4 6.6631 -3.8827 -1.3671 40.8497 1.8447 -4.6731
# 5 -9.9239 -7.1076 -24.6279 1.8447 35.0643 6.3597
# 6 -18.3970 -16.7008 -3.4106 -4.6731 6.3597 32.2277
#
#
#
# Elastic Compliance Matrix: (Units=1/GPa)
#
#
# Indices 1 2 3 4 5 6 
#
# 1 0.013033 0.002654 -0.001260 -0.001070 0.001920 0.008148
# 2 0.002654 0.016399 -0.002915 0.002168 0.000100 0.009999
# 3 -0.001260 -0.002915 0.010353 -0.000321 0.006799 -0.002523
# 4 -0.001070 0.002168 -0.000321 0.025481 -0.002267 0.004621
# 5 0.001920 0.000100 0.006799 -0.002267 0.034949 -0.005358
# 6 0.008148 0.009999 -0.002523 0.004621 -0.005358 0.042322
#
#
# Mechanical properties :
#
#
# Convention : Reuss Voigt Hill
#
# Bulk Modulus (GPa) = 27.21664 39.08305 33.14985
# Shear Modulus (GPa) = 31.68003 38.63962 35.15983
#
# Velocity S-wave (km/s) = 3.59287 3.96794 3.78505
# Velocity P-wave (km/s) = 5.31993 6.07602 5.71050
#
# Compressibility (1/GPa) = 0.03674223
#
# Stress axis : x y z
#
# Youngs Moduli (GPa) = 76.72946 60.97886 96.58593
#
# Poissons Ratio (x) = -0.16185 0.12174
# Poissons Ratio (y) = -0.20365 0.28158
# Poissons Ratio (z) = 0.09671 0.17777
#
# Static dielectric constant tensor:
#      x y z
#    x 3.582080 -0.172170 -0.123270 
#    y -0.172170 4.433410 -0.031250 
#    z -0.123270 -0.031250 4.557350 
# 
# 
# High freq. dielectric constant tensor:
#      x y z
#    x 1.969830 0.006220 -0.003590 
#    y 0.006220 1.986690 0.001570 
#    z -0.003590 0.001570 1.988220 
# 
# From -- ./inp_files/135340.got.cif
#   From: 2010.06.25/outbox.cif.g09.slc.cpg/sg2_68_cif.got.tgz:135340.got - 2010.06.27 13:26:56.
