data_PCOD8024395
_publ_section_title
;
Structure prediction by ZEFSAII (Michael W. Deem and Ramdas Pophale) SiO2 
 PCOD8024395
Probable space group: P -1
;
_chemical_formula_sum "Si O2"
_cell_formula_units_Z 16
_cell_length_a 12.076753
_cell_length_b 16.264382
_cell_length_c 9.037578
_cell_angle_alpha 74.897619
_cell_angle_beta 96.062537
_cell_angle_gamma 152.284292
_cell_volume 765.561264
_symmetry_space_group_name_H-M "P -1"
_symmetry_group_IT_number 2
_symmetry_cell_setting 'triclinic'
loop_
_space_group_symop_operation_xyz
x,y,z
-x,-y,-z
loop_
_atom_site_type_symbol
_atom_site_label
_atom_site_fract_x
_atom_site_fract_y
_atom_site_fract_z
Si Si1 0.706657 0.551762 0.237598
Si Si2 0.910022 0.964726 0.341838
Si Si3 0.624250 0.092645 0.629616
Si Si4 0.726784 0.005876 0.881047
Si Si5 0.558109 0.869405 0.252933
Si Si6 0.810043 0.519909 0.539674
Si Si7 0.474799 0.396335 0.727236
Si Si8 0.622258 0.748299 0.906608
O O1 0.683911 0.460150 0.394675
O O2 0.521588 0.501117 0.285670
O O3 0.624612 0.454126 0.116422
O O4 0.980331 0.778254 0.160755
O O5 0.772997 0.962496 0.321488
O O6 0.727794 0.766259 0.349812
O O7 0.000000 0.000000 0.500000
O O8 0.143524 0.137804 0.186574
O O9 0.476951 0.064958 0.705874
O O10 0.906582 0.305349 0.531837
O O11 0.500000 0.000000 0.500000
O O12 0.598187 0.991732 0.774588
O O13 0.666431 0.879451 0.839752
O O14 0.608009 0.920334 0.064902
O O15 0.301898 0.643157 0.336126
O O16 0.747352 0.553433 0.632714
O O17 0.397973 0.289637 0.908486
#
# Coordination Sequence:
#
# PCOD8024395 Si02
#       8
#     2   2   2   2   2   2   2   2
#     4  11  24  38  68 102 138 177 221 277 339 407
#     4  11  23  37  69 102 135 180 217 273 343 406
#     4  11  27  43  70  98 130 177 232 286 333 400
#     4  11  24  47  70  97 141 175 228 282 331 409
#     4  11  23  47  67  92 139 179 221 280 345 385
#     4  10  23  43  66  94 133 178 222 283 333 404
#     4  11  21  41  63  99 143 176 221 282 334 403
#     4  12  22  41  69 102 139 179 223 273 350 398
#
# _framework density 20.899698999999998
#
# number of rings (size 3 to 8) (size 9 to 14) (size 15 to 20)
#    0.000    1.000    3.750    4.125    3.500    2.000 
#    0.000    0.625    0.000    0.000    0.000    0.000 
#    0.000    0.000    0.000    0.000    0.000    0.000 
#
# Total GULP energy -198402.408694 kJ/mol
# GULP energy per Si atom -12400.150543 kJ/mol
# Density = 2.085213 g / cm^3
# Si number density = 20.899699 Si / 1000 Ang^3
#
#
#
# Elastic Constant Matrix: (Units=GPa)
#
#
# Indices 1 2 3 4 5 6 
#
# 1 140.1898 53.9872 45.5508 12.2255 9.2122 -6.9341
# 2 53.9872 95.9235 37.6434 19.1929 6.6106 -19.5660
# 3 45.5508 37.6434 128.2353 10.4227 7.9980 6.8498
# 4 12.2255 19.1929 10.4227 31.3977 -0.9728 -0.4313
# 5 9.2122 6.6106 7.9980 -0.9728 31.5374 2.7501
# 6 -6.9341 -19.5660 6.8498 -0.4313 2.7501 27.6490
#
#
#
# Elastic Compliance Matrix: (Units=1/GPa)
#
#
# Indices 1 2 3 4 5 6 
#
# 1 0.009624 -0.004503 -0.001972 -0.000384 -0.001365 -0.000155
# 2 -0.004503 0.019186 -0.003861 -0.008605 -0.003177 0.013586
# 3 -0.001972 -0.003861 0.009998 -0.000289 -0.000667 -0.005642
# 4 -0.000384 -0.008605 -0.000289 0.037388 0.003657 -0.005895
# 5 -0.001365 -0.003177 -0.000667 0.003657 0.033553 -0.005706
# 6 -0.000155 0.013586 -0.005642 -0.005895 -0.005706 0.047617
#
#
# Mechanical properties :
#
#
# Convention : Reuss Voigt Hill
#
# Bulk Modulus (GPa) = 55.13560 70.96794 63.05177
# Shear Modulus (GPa) = 27.16165 33.26128 30.21147
#
# Velocity S-wave (km/s) = 3.60893 3.99365 3.80616
# Velocity P-wave (km/s) = 6.61847 7.43612 7.03918
#
# Compressibility (1/GPa) = 0.01813710
#
# Stress axis : x y z
#
# Youngs Moduli (GPa) = 103.91096 52.11999 100.01544
#
# Poissons Ratio (x) = 0.23470 0.19722
# Poissons Ratio (y) = 0.46791 0.38614
# Poissons Ratio (z) = 0.20490 0.20123
#
# Static dielectric constant tensor:
#      x y z
#    x 4.075040 -0.197610 -0.074690 
#    y -0.197610 3.553630 0.020920 
#    z -0.074690 0.020920 3.965430 
# 
# 
# High freq. dielectric constant tensor:
#      x y z
#    x 1.821800 -0.003850 -0.003620 
#    y -0.003850 1.807420 -0.004310 
#    z -0.003620 -0.004310 1.840670 
# 
# From -- ./inp_files/272544.got.cif
#   From: 2010.06.25/outbox.cif.g09.slc.cpg/sg2_137_cif.got.tgz:272544.got - 2010.06.27 13:26:56.
