data_PCOD8024447
_publ_section_title
;
Structure prediction by ZEFSAII (Michael W. Deem and Ramdas Pophale) SiO2 
 PCOD8024447
Probable space group: P -1
;
_chemical_formula_sum "Si O2"
_cell_formula_units_Z 14
_cell_length_a 15.296774
_cell_length_b 10.267801
_cell_length_c 14.672680
_cell_angle_alpha 34.397057
_cell_angle_beta 35.262275
_cell_angle_gamma 26.088107
_cell_volume 545.476522
_symmetry_space_group_name_H-M "P -1"
_symmetry_group_IT_number 2
_symmetry_cell_setting 'triclinic'
loop_
_space_group_symop_operation_xyz
x,y,z
-x,-y,-z
loop_
_atom_site_type_symbol
_atom_site_label
_atom_site_fract_x
_atom_site_fract_y
_atom_site_fract_z
Si Si1 0.028552 0.699621 0.662102
Si Si2 0.408570 0.697557 0.097689
Si Si3 0.731893 0.916086 0.635155
Si Si4 0.274002 0.348823 0.828562
Si Si5 0.809317 0.145388 0.283600
Si Si6 0.421433 0.296532 0.451811
Si Si7 0.212420 0.646007 0.130587
O O1 0.070945 0.578678 0.801176
O O2 0.240294 0.387835 0.615647
O O3 0.835622 0.778071 0.728034
O O4 0.000000 0.000000 0.500000
O O5 0.328608 0.602132 0.294634
O O6 0.315380 0.715092 0.072187
O O7 0.665649 0.429425 0.025830
O O8 0.317908 0.042507 0.000259
O O9 0.747228 0.666321 0.705971
O O10 0.486021 0.234228 0.670761
O O11 0.868327 0.967482 0.434746
O O12 0.221594 0.550254 0.848199
O O13 0.600801 0.222465 0.400573
O O14 0.965162 0.948579 0.178229
O O15 0.500000 0.000000 0.500000
#
# Coordination Sequence:
#
# PCOD8024447 Si02
#       7
#     2   2   2   2   2   2   2
#     4  12  24  44  72 104 137 178 230 277 342 406
#     4  10  25  47  65  97 144 178 226 284 345 399
#     4  11  21  43  71 100 139 177 229 282 336 402
#     4  11  25  46  68 104 141 181 221 285 340 407
#     4  12  22  41  70 102 139 176 231 280 337 403
#     4  12  26  44  72 104 134 181 233 283 337 410
#     4  10  23  43  67  95 135 182 222 286 339 394
#
# _framework density 25.665633
#
# number of rings (size 3 to 8) (size 9 to 14) (size 15 to 20)
#    0.000    0.857    2.857    4.286    4.000    1.714 
#    5.143    0.000    0.000    0.000    0.000    0.000 
#    0.000    0.000    0.000    0.000    0.000    0.000 
#
# Total GULP energy -173449.265730 kJ/mol
# GULP energy per Si atom -12389.233266 kJ/mol
# Density = 2.560722 g / cm^3
# Si number density = 25.665633 Si / 1000 Ang^3
#
#
#
# Elastic Constant Matrix: (Units=GPa)
#
#
# Indices 1 2 3 4 5 6 
#
# 1 64.0997 8.9771 -16.8179 -18.3008 -25.4863 -1.8297
# 2 8.9771 92.0133 -9.1979 -8.4742 -13.2960 10.6638
# 3 -16.8179 -9.1979 41.1372 -27.1338 -21.8444 4.0789
# 4 -18.3008 -8.4742 -27.1338 47.2857 2.5409 -15.0194
# 5 -25.4863 -13.2960 -21.8444 2.5409 31.8894 -10.1990
# 6 -1.8297 10.6638 4.0789 -15.0194 -10.1990 51.2332
#
#
#
# Elastic Compliance Matrix: (Units=1/GPa)
#
#
# Indices 1 2 3 4 5 6 
#
# 1 -0.002190 -0.005751 -0.022641 -0.015586 -0.020231 -0.005675
# 2 -0.005751 0.010412 -0.004694 -0.004114 -0.004451 -0.004091
# 3 -0.022641 -0.004694 -0.015751 -0.020401 -0.032760 -0.011080
# 4 -0.015586 -0.004114 -0.020401 0.003313 -0.029353 -0.002948
# 5 -0.020231 -0.004451 -0.032760 -0.029353 -0.009206 -0.007626
# 6 -0.005675 -0.004091 -0.011080 -0.002948 -0.007626 0.018667
#
#
# Mechanical properties :
#
#
# Convention : Reuss Voigt Hill
#
# Bulk Modulus (GPa) = -13.56829 18.13032 2.28102
# Shear Modulus (GPa) = 106.72356 40.36758 73.54557
#
# Velocity S-wave (km/s) = 6.45543 3.97019 5.35887
# Velocity P-wave (km/s) = 7.08981 5.30056 6.25944
#
# Compressibility (1/GPa) = -0.07370126
#
# Stress axis : x y z
#
# Youngs Moduli (GPa) = -456.62299 96.04386 -63.48924
#
# Poissons Ratio (x) = 0.55232 -1.43749
# Poissons Ratio (y) = -2.62589 -0.29803
# Poissons Ratio (z) = -10.33860 0.45084
#
# Static dielectric constant tensor:
#      x y z
#    x 4.560360 0.109070 -0.305380 
#    y 0.109070 4.981910 0.323740 
#    z -0.305380 0.323740 4.330600 
# 
# 
# High freq. dielectric constant tensor:
#      x y z
#    x 2.025040 0.011360 -0.018650 
#    y 0.011360 2.036460 0.007270 
#    z -0.018650 0.007270 2.015930 
# 
# From -- ./inp_files/435255.got.cif
#   From: 2010.06.25/outbox.cif.g09.slc.cpg/sg2_218_cif.got.tgz:435255.got - 2010.06.27 13:26:56.
