data_PCOD8024907
_publ_section_title
;
Structure prediction by ZEFSAII (Michael W. Deem and Ramdas Pophale) SiO2 
 PCOD8024907
Probable space group: P -1
;
_chemical_formula_sum "Si O2"
_cell_formula_units_Z 14
_cell_length_a 6.635434
_cell_length_b 15.019514
_cell_length_c 14.756844
_cell_angle_alpha 28.926762
_cell_angle_beta 77.940858
_cell_angle_gamma 65.011033
_cell_volume 599.820275
_symmetry_space_group_name_H-M "P -1"
_symmetry_group_IT_number 2
_symmetry_cell_setting 'triclinic'
loop_
_space_group_symop_operation_xyz
x,y,z
-x,-y,-z
loop_
_atom_site_type_symbol
_atom_site_label
_atom_site_fract_x
_atom_site_fract_y
_atom_site_fract_z
Si Si1 0.463607 0.626769 0.227134
Si Si2 0.993218 0.285623 0.702417
Si Si3 0.760403 0.462993 0.830743
Si Si4 0.070692 0.850640 0.751151
Si Si5 0.765891 0.829910 0.038751
Si Si6 0.123322 0.842406 0.348757
Si Si7 0.617764 0.093638 0.469645
O O1 0.368147 0.641467 0.120915
O O2 0.532841 0.809505 0.067940
O O3 0.688311 0.395677 0.430100
O O4 0.267165 0.663613 0.286986
O O5 0.195181 0.136642 0.888828
O O6 0.000000 0.500000 0.500000
O O7 0.044190 0.157195 0.717521
O O8 0.592096 0.717215 0.620833
O O9 0.007916 0.395520 0.816078
O O10 0.816770 0.373495 0.007384
O O11 0.247630 0.814269 0.684798
O O12 0.043289 0.036723 0.656548
O O13 0.809084 0.914776 0.679092
O O14 0.743059 0.027538 0.807509
O O15 0.500000 0.000000 0.500000
#
# Coordination Sequence:
#
# PCOD8024907 Si02
#       7
#     2   2   2   2   2   2   2
#     4  11  23  43  66  95 135 178 218 273 332 386
#     4  11  23  41  64  96 136 178 219 273 331 386
#     4  10  23  44  65  96 135 167 221 273 326 398
#     4  10  24  43  63  94 130 169 216 275 329 388
#     4  10  24  41  65  99 130 177 223 271 330 388
#     4  11  22  43  65  91 134 173 223 273 324 395
#     4  11  24  40  68  98 125 170 218 266 338 397
#
# _framework density 23.340323999999999
#
# number of rings (size 3 to 8) (size 9 to 14) (size 15 to 20)
#    0.000    1.429    2.857    1.286    2.000    3.429 
#    7.714    0.000    0.000    0.000    0.000    0.000 
#    0.000    0.000    0.000    0.000    0.000    0.000 
#
# Total GULP energy -173625.436080 kJ/mol
# GULP energy per Si atom -12401.816863 kJ/mol
# Density = 2.328720 g / cm^3
# Si number density = 23.340324 Si / 1000 Ang^3
#
#
#
# Elastic Constant Matrix: (Units=GPa)
#
#
# Indices 1 2 3 4 5 6 
#
# 1 121.4284 29.4969 28.6778 1.3990 -4.5449 14.9437
# 2 29.4969 90.1194 2.9432 -0.3004 3.6640 13.7827
# 3 28.6778 2.9432 76.0508 8.7692 3.6461 -1.4149
# 4 1.3990 -0.3004 8.7692 38.0725 8.9982 4.3426
# 5 -4.5449 3.6640 3.6461 8.9982 40.7186 7.8205
# 6 14.9437 13.7827 -1.4149 4.3426 7.8205 18.9462
#
#
#
# Elastic Compliance Matrix: (Units=1/GPa)
#
#
# Indices 1 2 3 4 5 6 
#
# 1 0.011074 -0.002229 -0.004518 0.000846 0.003391 -0.009044
# 2 -0.002229 0.013044 0.000068 0.001108 -0.000153 -0.007917
# 3 -0.004518 0.000068 0.015496 -0.003585 -0.002347 0.006462
# 4 0.000846 0.001108 -0.003585 0.028944 -0.004857 -0.006371
# 5 0.003391 -0.000153 -0.002347 -0.004857 0.028833 -0.013527
# 6 -0.009044 -0.007917 0.006462 -0.006371 -0.013527 0.073201
#
#
# Mechanical properties :
#
#
# Convention : Reuss Voigt Hill
#
# Bulk Modulus (GPa) = 38.08554 45.53715 41.81135
# Shear Modulus (GPa) = 25.94679 34.64617 30.29648
#
# Velocity S-wave (km/s) = 3.33779 3.85696 3.60673
# Velocity P-wave (km/s) = 5.58636 6.27593 5.94116
#
# Compressibility (1/GPa) = 0.02625668
#
# Stress axis : x y z
#
# Youngs Moduli (GPa) = 90.30164 76.66077 64.53153
#
# Poissons Ratio (x) = 0.17087 0.29156
# Poissons Ratio (y) = 0.20127 -0.00438
# Poissons Ratio (z) = 0.40799 -0.00520
#
# Static dielectric constant tensor:
#      x y z
#    x 4.289100 0.074990 0.230310 
#    y 0.074990 4.461430 0.108890 
#    z 0.230310 0.108890 4.081460 
# 
# 
# High freq. dielectric constant tensor:
#      x y z
#    x 1.919140 0.006620 0.015960 
#    y 0.006620 1.931680 0.002620 
#    z 0.015960 0.002620 1.919610 
# 
# From -- ./inp_files/55317.got.cif
#   From: 2010.06.25/outbox.cif.g09.slc.cpg/sg2_28_cif.got.tgz:55317.got - 2010.06.27 13:26:56.
