data_PCOD8024338
_publ_section_title
;
Structure prediction by ZEFSAII (Michael W. Deem and Ramdas Pophale) SiO2 
 PCOD8024338
Probable space group: P -1
;
_chemical_formula_sum "Si O2"
_cell_formula_units_Z 16
_cell_length_a 12.670928
_cell_length_b 14.317523
_cell_length_c 9.162564
_cell_angle_alpha 53.804225
_cell_angle_beta 64.839497
_cell_angle_gamma 109.241010
_cell_volume 736.693817
_symmetry_space_group_name_H-M "P -1"
_symmetry_group_IT_number 2
_symmetry_cell_setting 'triclinic'
loop_
_space_group_symop_operation_xyz
x,y,z
-x,-y,-z
loop_
_atom_site_type_symbol
_atom_site_label
_atom_site_fract_x
_atom_site_fract_y
_atom_site_fract_z
Si Si1 0.609954 0.265034 0.668464
Si Si2 0.835059 0.788317 0.337192
Si Si3 0.059393 0.381153 0.656724
Si Si4 0.276839 0.835468 0.745087
Si Si5 0.891003 0.538608 0.771156
Si Si6 0.311432 0.398484 0.127571
Si Si7 0.721756 0.111672 0.623549
Si Si8 0.535603 0.446158 0.392853
O O1 0.800810 0.430128 0.500724
O O2 0.634907 0.171545 0.640621
O O3 0.587235 0.358291 0.492920
O O4 0.420932 0.098366 0.033322
O O5 0.850545 0.675358 0.356560
O O6 0.852426 0.792438 0.500811
O O7 0.645470 0.702563 0.470425
O O8 0.000000 0.000000 0.000000
O O9 0.045273 0.431866 0.461147
O O10 0.846007 0.202027 0.017885
O O11 0.258876 0.897295 0.552057
O O12 0.500000 0.000000 0.500000
O O13 0.178218 0.634398 0.956479
O O14 0.709027 0.480398 0.942709
O O15 0.069268 0.736213 0.569099
O O16 0.500000 0.500000 0.000000
O O17 0.301342 0.371133 0.982462
O O18 0.500000 0.500000 0.500000
#
# Coordination Sequence:
#
# PCOD8024338 Si02
#       8
#     2   2   2   2   2   2   2   2
#     4  11  24  43  67  93 136 171 224 269 335 397
#     4  10  23  43  65  95 129 174 221 274 330 393
#     4  11  24  43  65  94 134 172 219 275 330 395
#     4  12  26  41  65 101 132 171 220 270 333 392
#     4  11  23  42  69  91 134 175 217 270 332 393
#     4   9  22  41  64  92 128 170 219 264 330 394
#     4  11  26  41  67  99 131 174 219 273 331 397
#     4  11  22  41  68  94 127 174 220 274 333 384
#
# _framework density 21.718655999999999
#
# number of rings (size 3 to 8) (size 9 to 14) (size 15 to 20)
#    0.000    1.250    2.500    2.250    8.750    2.000 
#    2.250    0.625    0.000    0.000    0.000    0.000 
#    0.000    0.000    0.000    0.000    0.000    0.000 
#
# Total GULP energy -198324.198206 kJ/mol
# GULP energy per Si atom -12395.262388 kJ/mol
# Density = 2.166922 g / cm^3
# Si number density = 21.718656 Si / 1000 Ang^3
#
#
#
# Elastic Constant Matrix: (Units=GPa)
#
#
# Indices 1 2 3 4 5 6 
#
# 1 103.0622 18.4994 37.5756 10.9654 2.5402 13.6447
# 2 18.4994 75.1540 48.0205 24.7790 6.8812 19.0323
# 3 37.5756 48.0205 146.7324 21.0869 10.4184 17.6865
# 4 10.9654 24.7790 21.0869 47.1792 7.8169 0.4514
# 5 2.5402 6.8812 10.4184 7.8169 42.4225 4.8783
# 6 13.6447 19.0323 17.6865 0.4514 4.8783 35.2358
#
#
#
# Elastic Compliance Matrix: (Units=1/GPa)
#
#
# Indices 1 2 3 4 5 6 
#
# 1 0.011115 0.000023 -0.002267 -0.001644 0.000563 -0.003235
# 2 0.000023 0.021660 -0.004670 -0.009273 0.000410 -0.009302
# 3 -0.002267 -0.004670 0.009272 -0.000976 -0.001079 -0.001092
# 4 -0.001644 -0.009273 -0.000976 0.027478 -0.003949 0.006330
# 5 0.000563 0.000410 -0.001079 -0.003949 0.024843 -0.003287
# 6 -0.003235 -0.009302 -0.001092 0.006330 -0.003287 0.035580
#
#
# Mechanical properties :
#
#
# Convention : Reuss Voigt Hill
#
# Bulk Modulus (GPa) = 35.43806 59.23774 47.33790
# Shear Modulus (GPa) = 32.64092 39.69104 36.16598
#
# Velocity S-wave (km/s) = 3.88093 4.27958 4.08512
# Velocity P-wave (km/s) = 6.03609 7.19402 6.64035
#
# Compressibility (1/GPa) = 0.02821825
#
# Stress axis : x y z
#
# Youngs Moduli (GPa) = 89.96961 46.16878 107.84675
#
# Poissons Ratio (x) = -0.00105 0.24454
# Poissons Ratio (y) = -0.00204 0.50359
# Poissons Ratio (z) = 0.20401 0.21559
#
# Static dielectric constant tensor:
#      x y z
#    x 4.031220 0.066830 0.064720 
#    y 0.066830 3.755210 0.443550 
#    z 0.064720 0.443550 4.526200 
# 
# 
# High freq. dielectric constant tensor:
#      x y z
#    x 1.869430 0.003000 0.004600 
#    y 0.003000 1.828860 0.028300 
#    z 0.004600 0.028300 1.867120 
# 
# From -- ./inp_files/222644.got.cif
#   From: 2010.06.25/outbox.cif.g09.slc.cpg/sg2_112_cif.got.tgz:222644.got - 2010.06.27 13:26:56.
