data_PCOD8024246
_publ_section_title
;
Structure prediction by ZEFSAII (Michael W. Deem and Ramdas Pophale) SiO2 
 PCOD8024246
Probable space group: P -1
;
_chemical_formula_sum "Si O2"
_cell_formula_units_Z 16
_cell_length_a 8.408380
_cell_length_b 16.593963
_cell_length_c 5.078538
_cell_angle_alpha 108.827770
_cell_angle_beta 90.678151
_cell_angle_gamma 78.978957
_cell_volume 657.366766
_symmetry_space_group_name_H-M "P -1"
_symmetry_group_IT_number 2
_symmetry_cell_setting 'triclinic'
loop_
_space_group_symop_operation_xyz
x,y,z
-x,-y,-z
loop_
_atom_site_type_symbol
_atom_site_label
_atom_site_fract_x
_atom_site_fract_y
_atom_site_fract_z
Si Si1 0.618275 0.644457 0.074128
Si Si2 0.375973 0.748790 0.802699
Si Si3 0.366059 0.590913 0.334725
Si Si4 0.879168 0.620607 0.657619
Si Si5 0.321862 0.215148 0.402825
Si Si6 0.219598 0.531911 0.752523
Si Si7 0.903775 0.107693 0.831756
Si Si8 0.114082 0.080601 0.314827
O O1 0.557423 0.578143 0.217920
O O2 0.654595 0.733929 0.278863
O O3 0.462116 0.670874 0.911208
O O4 0.774868 0.593337 0.870391
O O5 0.314643 0.695417 0.502973
O O6 0.506545 0.805373 0.768886
O O7 0.231798 0.809939 0.013794
O O8 0.359797 0.534869 0.540325
O O9 0.252680 0.563303 0.078372
O O10 0.818363 0.722746 0.704214
O O11 0.838064 0.562129 0.346272
O O12 0.067466 0.603266 0.711086
O O13 0.269732 0.125507 0.381599
O O14 0.976841 0.124452 0.566731
O O15 0.826377 0.021185 0.724548
O O16 0.046284 0.092872 0.032151
#
# Coordination Sequence:
#
# PCOD8024246 Si02
#       8
#     2   2   2   2   2   2   2   2
#     4  10  23  43  62  97 130 172 223 262 317 386
#     4  10  23  43  64  98 132 172 218 263 316 388
#     4  11  24  43  65  96 125 171 221 265 322 381
#     4  10  26  43  62  97 130 169 217 275 321 388
#     4  10  24  41  66  94 134 172 215 264 327 382
#     4  11  26  43  67  93 129 169 222 269 329 377
#     4  10  24  43  69  98 133 164 215 267 311 389
#     4  10  24  44  67 102 129 168 212 263 325 379
#
# _framework density 24.339534
#
# number of rings (size 3 to 8) (size 9 to 14) (size 15 to 20)
#    0.000    1.750    1.250    0.000   12.250    2.500 
#    0.000    0.625    0.000    0.000    0.000    0.000 
#    0.000    0.000    0.000    0.000    0.000    0.000 
#
# Total GULP energy -198390.816835 kJ/mol
# GULP energy per Si atom -12399.426052 kJ/mol
# Density = 2.428414 g / cm^3
# Si number density = 24.339534 Si / 1000 Ang^3
#
#
#
# Elastic Constant Matrix: (Units=GPa)
#
#
# Indices 1 2 3 4 5 6 
#
# 1 57.5057 22.0014 26.1086 10.7153 0.9387 9.4679
# 2 22.0014 85.8547 33.5460 0.7751 2.8266 35.6139
# 3 26.1086 33.5460 123.1027 1.3881 6.9686 15.4207
# 4 10.7153 0.7751 1.3881 37.1269 -0.4668 2.7644
# 5 0.9387 2.8266 6.9686 -0.4668 42.1251 8.6218
# 6 9.4679 35.6139 15.4207 2.7644 8.6218 35.1829
#
#
#
# Elastic Compliance Matrix: (Units=1/GPa)
#
#
# Indices 1 2 3 4 5 6 
#
# 1 0.021656 -0.004396 -0.003406 -0.006069 0.000197 0.000543
# 2 -0.004396 0.022688 -0.002768 0.002553 0.003488 -0.021625
# 3 -0.003406 -0.002768 0.009699 0.000682 -0.001279 -0.000273
# 4 -0.006069 0.002553 0.000682 0.028899 0.000939 -0.003750
# 5 0.000197 0.003488 -0.001279 0.000939 0.025642 -0.009380
# 6 0.000543 -0.021625 -0.000273 -0.003750 -0.009380 0.052880
#
#
# Mechanical properties :
#
#
# Convention : Reuss Voigt Hill
#
# Bulk Modulus (GPa) = 30.39134 47.75278 39.07206
# Shear Modulus (GPa) = 25.83040 35.20746 30.51893
#
# Velocity S-wave (km/s) = 3.26122 3.80743 3.54486
# Velocity P-wave (km/s) = 5.16665 6.24426 5.73084
#
# Compressibility (1/GPa) = 0.03290411
#
# Stress axis : x y z
#
# Youngs Moduli (GPa) = 46.17669 44.07591 103.10611
#
# Poissons Ratio (x) = 0.19376 0.35116
# Poissons Ratio (y) = 0.20299 0.28535
# Poissons Ratio (z) = 0.15727 0.12198
#
# Static dielectric constant tensor:
#      x y z
#    x 4.267050 0.122230 0.018870 
#    y 0.122230 4.229030 -0.107540 
#    z 0.018870 -0.107540 4.681190 
# 
# 
# High freq. dielectric constant tensor:
#      x y z
#    x 1.961280 0.014040 0.004930 
#    y 0.014040 1.954700 -0.007460 
#    z 0.004930 -0.007460 1.987510 
# 
# From -- ./inp_files/45720.got.cif
#   From: 2010.06.25/outbox.cif.g09.slc.cpg/sg2_23_cif.got.tgz:45720.got - 2010.06.27 13:26:56.
