data_PCOD8024313
_publ_section_title
;
Structure prediction by ZEFSAII (Michael W. Deem and Ramdas Pophale) SiO2 
 PCOD8024313
Probable space group: P -1
;
_chemical_formula_sum "Si O2"
_cell_formula_units_Z 12
_cell_length_a 9.462233
_cell_length_b 8.656738
_cell_length_c 13.858673
_cell_angle_alpha 99.813044
_cell_angle_beta 91.530769
_cell_angle_gamma 148.621554
_cell_volume 548.641181
_symmetry_space_group_name_H-M "P -1"
_symmetry_group_IT_number 2
_symmetry_cell_setting 'triclinic'
loop_
_space_group_symop_operation_xyz
x,y,z
-x,-y,-z
loop_
_atom_site_type_symbol
_atom_site_label
_atom_site_fract_x
_atom_site_fract_y
_atom_site_fract_z
Si Si1 0.652289 0.789659 0.912675
Si Si2 0.285125 0.617339 0.739340
Si Si3 0.956845 0.776091 0.489671
Si Si4 0.448362 0.780110 0.432378
Si Si5 0.778603 0.320396 0.770840
Si Si6 0.733273 0.529430 0.953870
O O1 0.456923 0.651435 0.805111
O O2 0.668210 0.616669 0.894692
O O3 0.528358 0.740643 0.004870
O O4 0.973996 0.167369 0.947060
O O5 0.081349 0.337546 0.628137
O O6 0.083445 0.524632 0.796741
O O7 0.512687 0.944334 0.722422
O O8 0.310223 0.525076 0.478658
O O9 0.000000 0.000000 0.500000
O O10 0.241701 0.985042 0.568003
O O11 0.244905 0.592167 0.314539
O O12 0.500000 0.000000 0.500000
O O13 0.758198 0.399185 0.876564
#
# Coordination Sequence:
#
# PCOD8024313 Si02
#       6
#     2   2   2   2   2   2
#     4  10  23  43  65  89 133 162 210 268 316 381
#     4  12  24  42  64  99 128 167 215 269 316 377
#     4  12  26  44  66  99 132 172 218 266 324 380
#     4  12  23  46  67  93 136 173 210 269 321 388
#     4  12  25  40  69  96 127 171 217 256 325 383
#     4  10  23  44  63  94 123 172 210 257 327 383
#
# _framework density 21.872219000000001
#
# number of rings (size 3 to 8) (size 9 to 14) (size 15 to 20)
#    0.000    0.667    3.333    4.000    2.333    4.000 
#    6.000    0.000    0.000    0.000    0.000    0.000 
#    0.000    0.000    0.000    0.000    0.000    0.000 
#
# Total GULP energy -148881.576766 kJ/mol
# GULP energy per Si atom -12406.798064 kJ/mol
# Density = 2.182244 g / cm^3
# Si number density = 21.872219 Si / 1000 Ang^3
#
#
#
# Elastic Constant Matrix: (Units=GPa)
#
#
# Indices 1 2 3 4 5 6 
#
# 1 89.4474 33.4619 22.1451 7.3217 12.8172 5.8328
# 2 33.4619 104.5134 8.3803 -1.3050 3.8439 -1.3687
# 3 22.1451 8.3803 57.6595 3.3663 13.6304 -0.2532
# 4 7.3217 -1.3050 3.3663 24.0765 9.9356 6.0539
# 5 12.8172 3.8439 13.6304 9.9356 35.5513 4.8208
# 6 5.8328 -1.3687 -0.2532 6.0539 4.8208 42.4264
#
#
#
# Elastic Compliance Matrix: (Units=1/GPa)
#
#
# Indices 1 2 3 4 5 6 
#
# 1 0.014465 -0.004264 -0.004276 -0.002770 -0.002135 -0.001514
# 2 -0.004264 0.010975 0.000000 0.001818 -0.000253 0.000710
# 3 -0.004276 0.000000 0.020539 0.000879 -0.006762 0.001353
# 4 -0.002770 0.001818 0.000879 0.048783 -0.012477 -0.005099
# 5 -0.002135 -0.000253 -0.006762 -0.012477 0.035274 -0.001983
# 6 -0.001514 0.000710 0.001353 -0.005099 -0.001983 0.024762
#
#
# Mechanical properties :
#
#
# Convention : Reuss Voigt Hill
#
# Bulk Modulus (GPa) = 34.60550 42.17721 38.39136
# Shear Modulus (GPa) = 27.54643 32.91969 30.23306
#
# Velocity S-wave (km/s) = 3.55269 3.88376 3.72191
# Velocity P-wave (km/s) = 5.71706 6.27987 6.00506
#
# Compressibility (1/GPa) = 0.02889714
#
# Stress axis : x y z
#
# Youngs Moduli (GPa) = 69.13210 91.11798 48.68862
#
# Poissons Ratio (x) = 0.38855 0.20819
# Poissons Ratio (y) = 0.29480 0.00002
# Poissons Ratio (z) = 0.29561 0.00004
#
# Static dielectric constant tensor:
#      x y z
#    x 3.803610 -0.000490 0.012840 
#    y -0.000490 3.960460 -0.107800 
#    z 0.012840 -0.107800 3.641160 
# 
# 
# High freq. dielectric constant tensor:
#      x y z
#    x 1.867210 0.009540 0.011990 
#    y 0.009540 1.871260 0.000270 
#    z 0.011990 0.000270 1.853800 
# 
# From -- ./inp_files/32838.got.cif
#   From: 2010.06.25/outbox.cif.g09.slc.cpg/sg2_17_cif.got.tgz:32838.got - 2010.06.27 13:26:56.
