data_PCOD8024114
_publ_section_title
;
Structure prediction by ZEFSAII (Michael W. Deem and Ramdas Pophale) SiO2 
 PCOD8024114
Probable space group: P -1
;
_chemical_formula_sum "Si O2"
_cell_formula_units_Z 16
_cell_length_a 14.571201
_cell_length_b 9.117028
_cell_length_c 13.791386
_cell_angle_alpha 77.289954
_cell_angle_beta 138.554934
_cell_angle_gamma 132.987573
_cell_volume 708.877918
_symmetry_space_group_name_H-M "P -1"
_symmetry_group_IT_number 2
_symmetry_cell_setting 'triclinic'
loop_
_space_group_symop_operation_xyz
x,y,z
-x,-y,-z
loop_
_atom_site_type_symbol
_atom_site_label
_atom_site_fract_x
_atom_site_fract_y
_atom_site_fract_z
Si Si1 0.137627 0.682045 0.206315
Si Si2 0.767716 0.508073 0.443574
Si Si3 0.000995 0.246531 0.206629
Si Si4 0.884655 0.747287 0.906531
Si Si5 0.617654 0.058718 0.440405
Si Si6 0.123722 0.910963 0.515397
Si Si7 0.255046 0.256313 0.887046
Si Si8 0.485725 0.546383 0.201742
O O1 0.225369 0.822885 0.357237
O O2 0.959015 0.386520 0.125158
O O3 0.350236 0.797332 0.294841
O O4 0.019048 0.714138 0.051247
O O5 0.636650 0.238486 0.383032
O O6 0.573044 0.454326 0.264067
O O7 0.845307 0.626382 0.594240
O O8 0.977891 0.680040 0.507121
O O9 0.130466 0.268989 0.219320
O O10 0.770601 0.946755 0.086154
O O11 0.620078 0.514476 0.767427
O O12 0.000000 0.000000 0.000000
O O13 0.710432 0.030595 0.435342
O O14 0.955484 0.872969 0.327422
O O15 0.293548 0.154895 0.683905
O O16 0.500000 0.500000 0.000000
O O17 0.270135 0.371867 0.980490
#
# Coordination Sequence:
#
# PCOD8024114 Si02
#       8
#     2   2   2   2   2   2   2   2
#     4  10  23  45  66 100 142 177 226 285 344 413
#     4  11  23  44  67  98 138 178 227 278 340 412
#     4  11  24  43  66  98 137 181 226 280 346 405
#     4  12  24  41  69 103 138 175 230 284 339 411
#     4  10  23  42  70  98 135 184 223 280 351 401
#     4  12  24  45  70 100 137 177 236 283 331 412
#     4  12  24  43  70  99 135 182 226 283 339 398
#     4  12  24  42  68 103 133 180 227 282 342 401
#
# _framework density 22.570882000000001
#
# number of rings (size 3 to 8) (size 9 to 14) (size 15 to 20)
#    0.000    0.750    3.750    4.125    0.000    0.500 
#    0.000    0.000    0.000    6.000    0.000    0.000 
#    0.000    0.000    0.000    0.000    0.000    0.000 
#
# Total GULP energy -198313.315125 kJ/mol
# GULP energy per Si atom -12394.582195 kJ/mol
# Density = 2.251951 g / cm^3
# Si number density = 22.570882 Si / 1000 Ang^3
#
#
#
# Elastic Constant Matrix: (Units=GPa)
#
#
# Indices 1 2 3 4 5 6 
#
# 1 103.5579 41.9843 27.5663 -8.4190 2.7152 4.2093
# 2 41.9843 129.6898 38.0998 20.6004 -3.2845 10.2348
# 3 27.5663 38.0998 58.3629 14.8991 -9.8557 -6.3311
# 4 -8.4190 20.6004 14.8991 26.6366 2.8163 -2.3526
# 5 2.7152 -3.2845 -9.8557 2.8163 37.1629 4.4685
# 6 4.2093 10.2348 -6.3311 -2.3526 4.4685 32.2823
#
#
#
# Elastic Compliance Matrix: (Units=1/GPa)
#
#
# Indices 1 2 3 4 5 6 
#
# 1 0.014974 -0.004609 -0.008328 0.013405 -0.004666 -0.000502
# 2 -0.004609 0.012201 -0.003596 -0.009502 0.001772 -0.004910
# 3 -0.008328 -0.003596 0.029850 -0.016984 0.008818 0.005622
# 4 0.013405 -0.009502 -0.016984 0.060172 -0.011351 0.003890
# 5 -0.004666 0.001772 0.008818 -0.011351 0.031007 -0.003343
# 6 -0.000502 -0.004910 0.005622 0.003890 -0.003343 0.034448
#
#
# Mechanical properties :
#
#
# Convention : Reuss Voigt Hill
#
# Bulk Modulus (GPa) = 41.73735 56.32349 49.03042
# Shear Modulus (GPa) = 22.35109 31.48038 26.91573
#
# Velocity S-wave (km/s) = 3.15026 3.73867 3.45700
# Velocity P-wave (km/s) = 5.63595 6.60644 6.14040
#
# Compressibility (1/GPa) = 0.02395936
#
# Stress axis : x y z
#
# Youngs Moduli (GPa) = 66.78088 81.96246 33.50115
#
# Poissons Ratio (x) = 0.37774 0.27901
# Poissons Ratio (y) = 0.30777 0.12045
# Poissons Ratio (z) = 0.55618 0.29470
#
# Static dielectric constant tensor:
#      x y z
#    x 4.454280 0.191800 -0.436720 
#    y 0.191800 4.433010 0.000740 
#    z -0.436720 0.000740 4.245730 
# 
# 
# High freq. dielectric constant tensor:
#      x y z
#    x 1.898900 0.010920 -0.021180 
#    y 0.010920 1.904050 0.013400 
#    z -0.021180 0.013400 1.879920 
# 
# From -- ./inp_files/529687.got.cif
#   From: 2010.06.25/outbox.cif.g09.slc.cpg/sg2_265_cif.got.tgz:529687.got - 2010.06.27 13:26:56.
