data_PCOD8024123
_publ_section_title
;
Structure prediction by ZEFSAII (Michael W. Deem and Ramdas Pophale) SiO2 
 PCOD8024123
Probable space group: P -1
;
_chemical_formula_sum "Si O2"
_cell_formula_units_Z 16
_cell_length_a 5.363274
_cell_length_b 14.489860
_cell_length_c 9.310367
_cell_angle_alpha 82.029498
_cell_angle_beta 85.093557
_cell_angle_gamma 104.487046
_cell_volume 688.290215
_symmetry_space_group_name_H-M "P -1"
_symmetry_group_IT_number 2
_symmetry_cell_setting 'triclinic'
loop_
_space_group_symop_operation_xyz
x,y,z
-x,-y,-z
loop_
_atom_site_type_symbol
_atom_site_label
_atom_site_fract_x
_atom_site_fract_y
_atom_site_fract_z
Si Si1 0.814787 0.396614 0.695044
Si Si2 0.714561 0.441121 0.389552
Si Si3 0.309068 0.776418 0.054819
Si Si4 0.835259 0.122725 0.437731
Si Si5 0.346157 0.456799 0.154513
Si Si6 0.292804 0.097415 0.597131
Si Si7 0.109644 0.702821 0.794323
Si Si8 0.128325 0.109302 0.924773
O O1 0.631517 0.398791 0.563685
O O2 0.746006 0.287745 0.783127
O O3 0.804764 0.464141 0.817392
O O4 0.110500 0.447483 0.619284
O O5 0.479058 0.446429 0.300869
O O6 0.839683 0.364256 0.322224
O O7 0.601234 0.845867 0.014753
O O8 0.087944 0.833871 0.047830
O O9 0.286351 0.710816 0.926122
O O10 0.600488 0.141943 0.542371
O O11 0.872090 0.190020 0.282896
O O12 0.111408 0.146942 0.499808
O O13 0.767806 0.015462 0.405063
O O14 0.181744 0.351656 0.132777
O O15 0.500000 0.500000 0.000000
O O16 0.218095 0.115860 0.756020
O O17 0.000000 0.000000 0.000000
#
# Coordination Sequence:
#
# PCOD8024123 Si02
#       8
#     2   2   2   2   2   2   2   2
#     4  10  24  44  65 106 135 189 237 291 352 422
#     4  10  23  43  69  95 147 180 237 294 354 411
#     4  12  28  45  75 103 143 188 240 290 352 435
#     4  10  23  42  71 100 138 176 232 287 346 426
#     4  11  23  42  70  98 146 186 234 293 358 420
#     4  10  23  45  68 100 136 182 225 292 355 404
#     4  11  26  41  66 105 134 187 237 288 353 417
#     4  12  28  48  73 103 145 187 236 295 360 420
#
# _framework density 23.246009000000001
#
# number of rings (size 3 to 8) (size 9 to 14) (size 15 to 20)
#    0.000    1.250    0.000    3.750   10.500    5.000 
#    0.000    0.000    0.000    0.000    0.000    0.000 
#    0.000    0.000    0.000    0.000    0.000    0.000 
#
# Total GULP energy -198230.949775 kJ/mol
# GULP energy per Si atom -12389.434361 kJ/mol
# Density = 2.319310 g / cm^3
# Si number density = 23.246009 Si / 1000 Ang^3
#
#
#
# Elastic Constant Matrix: (Units=GPa)
#
#
# Indices 1 2 3 4 5 6 
#
# 1 133.5775 48.8732 31.6219 -7.5483 5.9581 14.3432
# 2 48.8732 82.5818 62.0951 -22.4370 5.9774 21.6453
# 3 31.6219 62.0951 135.7766 -6.4525 5.2043 12.7358
# 4 -7.5483 -22.4370 -6.4525 46.3234 2.4918 2.9109
# 5 5.9581 5.9774 5.2043 2.4918 31.5384 3.5548
# 6 14.3432 21.6453 12.7358 2.9109 3.5548 32.5173
#
#
#
# Elastic Compliance Matrix: (Units=1/GPa)
#
#
# Indices 1 2 3 4 5 6 
#
# 1 0.009688 -0.006692 0.000745 -0.001534 -0.000574 0.000090
# 2 -0.006692 0.032432 -0.011071 0.014169 -0.002450 -0.015301
# 3 0.000745 -0.011071 0.011818 -0.003767 -0.000005 0.002750
# 4 -0.001534 0.014169 -0.003767 0.028431 -0.002949 -0.009502
# 5 -0.000574 -0.002450 -0.000005 -0.002949 0.032674 -0.001422
# 6 0.000090 -0.015301 0.002750 -0.009502 -0.001422 0.040827
#
#
# Mechanical properties :
#
#
# Convention : Reuss Voigt Hill
#
# Bulk Modulus (GPa) = 50.24895 70.79070 60.51983
# Shear Modulus (GPa) = 25.43995 36.03219 30.73607
#
# Velocity S-wave (km/s) = 3.31173 3.94132 3.64016
# Velocity P-wave (km/s) = 6.02383 7.15758 6.61504
#
# Compressibility (1/GPa) = 0.01990091
#
# Stress axis : x y z
#
# Youngs Moduli (GPa) = 103.22280 30.83367 84.61745
#
# Poissons Ratio (x) = 0.20635 -0.06305
# Poissons Ratio (y) = 0.69081 0.93681
# Poissons Ratio (z) = -0.07691 0.34136
#
# Static dielectric constant tensor:
#      x y z
#    x 4.024400 -0.027230 0.286810 
#    y -0.027230 4.289540 0.169220 
#    z 0.286810 0.169220 4.012250 
# 
# 
# High freq. dielectric constant tensor:
#      x y z
#    x 1.916380 0.003050 -0.000870 
#    y 0.003050 1.926000 0.003270 
#    z -0.000870 0.003270 1.934600 
# 
# From -- ./inp_files/98038.got.cif
#   From: 2010.06.25/outbox.cif.g09.slc.cpg/sg2_50_cif.got.tgz:98038.got - 2010.06.27 13:26:56.
