data_PCOD8024415
_publ_section_title
;
Structure prediction by ZEFSAII (Michael W. Deem and Ramdas Pophale) SiO2 
 PCOD8024415
Probable space group: P -1
;
_chemical_formula_sum "Si O2"
_cell_formula_units_Z 12
_cell_length_a 15.902533
_cell_length_b 11.848622
_cell_length_c 9.938087
_cell_angle_alpha 131.328418
_cell_angle_beta 27.552010
_cell_angle_gamma 139.313235
_cell_volume 564.230068
_symmetry_space_group_name_H-M "P -1"
_symmetry_group_IT_number 2
_symmetry_cell_setting 'triclinic'
loop_
_space_group_symop_operation_xyz
x,y,z
-x,-y,-z
loop_
_atom_site_type_symbol
_atom_site_label
_atom_site_fract_x
_atom_site_fract_y
_atom_site_fract_z
Si Si1 0.642419 0.467519 0.673661
Si Si2 0.515164 0.060316 0.872665
Si Si3 0.818119 0.821550 0.563445
Si Si4 0.634704 0.863273 0.369178
Si Si5 0.040939 0.155412 0.914855
Si Si6 0.887611 0.355984 0.438092
O O1 0.798964 0.654608 0.535129
O O2 0.498225 0.326797 0.655611
O O3 0.767270 0.396551 0.525395
O O4 0.500000 0.500000 0.000000
O O5 0.750350 0.192661 0.599091
O O6 0.462536 0.905252 0.716827
O O7 0.388585 0.162328 0.114436
O O8 0.500000 0.000000 0.000000
O O9 0.870390 0.794199 0.318782
O O10 0.000000 0.000000 0.500000
O O11 0.797291 0.885734 0.272427
O O12 0.793703 0.001571 0.141405
O O13 0.057034 0.324387 0.095502
O O14 0.000000 0.500000 0.500000
#
# Coordination Sequence:
#
# PCOD8024415 Si02
#       6
#     2   2   2   2   2   2
#     4  12  25  44  68  98 132 179 225 275 326 398
#     4  11  24  45  70  99 131 181 215 276 333 398
#     4  12  27  43  68 100 139 173 223 278 333 390
#     4  10  23  44  71  95 135 174 226 269 336 397
#     4  10  23  43  67 100 134 177 216 279 333 394
#     4  11  26  44  69  98 136 177 224 273 335 394
#
# _framework density 21.267921000000001
#
# number of rings (size 3 to 8) (size 9 to 14) (size 15 to 20)
#    0.000    1.000    3.333    2.000    4.667    4.000 
#    0.000    0.000    0.000    0.000    0.000    0.000 
#    0.000    0.000    0.000    0.000    0.000    0.000 
#
# Total GULP energy -148709.738491 kJ/mol
# GULP energy per Si atom -12392.478208 kJ/mol
# Density = 2.121951 g / cm^3
# Si number density = 21.267921 Si / 1000 Ang^3
#
#
#
# Elastic Constant Matrix: (Units=GPa)
#
#
# Indices 1 2 3 4 5 6 
#
# 1 80.3294 42.2527 32.7802 -4.5600 15.0192 -9.7564
# 2 42.2527 143.6115 41.3957 11.2257 21.5943 8.8237
# 3 32.7802 41.3957 133.8925 23.7067 28.7096 -3.3792
# 4 -4.5600 11.2257 23.7067 34.0928 0.7356 3.8677
# 5 15.0192 21.5943 28.7096 0.7356 34.3346 4.3512
# 6 -9.7564 8.8237 -3.3792 3.8677 4.3512 44.4720
#
#
#
# Elastic Compliance Matrix: (Units=1/GPa)
#
#
# Indices 1 2 3 4 5 6 
#
# 1 0.017474 -0.004505 -0.003161 0.005595 -0.002829 0.004277
# 2 -0.004505 0.009298 -0.000697 -0.002849 -0.002935 -0.002351
# 3 -0.003161 -0.000697 0.011707 -0.008370 -0.008022 0.001847
# 4 0.005595 -0.002849 -0.008370 0.037011 0.005885 -0.002638
# 5 -0.002829 -0.002935 -0.008022 0.005885 0.039427 -0.005017
# 6 0.004277 -0.002351 0.001847 -0.002638 -0.005017 0.024752
#
#
# Mechanical properties :
#
#
# Convention : Reuss Voigt Hill
#
# Bulk Modulus (GPa) = 45.97110 65.63229 55.80170
# Shear Modulus (GPa) = 30.55369 38.67353 34.61361
#
# Velocity S-wave (km/s) = 3.79437 4.26889 4.03861
# Velocity P-wave (km/s) = 6.39207 7.43133 6.93121
#
# Compressibility (1/GPa) = 0.02175279
#
# Stress axis : x y z
#
# Youngs Moduli (GPa) = 57.22690 107.54874 85.41823
#
# Poissons Ratio (x) = 0.48447 0.27004
# Poissons Ratio (y) = 0.25779 0.05956
# Poissons Ratio (z) = 0.18092 0.07500
#
# Static dielectric constant tensor:
#      x y z
#    x 5.430820 -0.364310 -0.991850 
#    y -0.364310 5.845820 1.324620 
#    z -0.991850 1.324620 5.287110 
# 
# 
# High freq. dielectric constant tensor:
#      x y z
#    x 1.832120 -0.007160 0.010730 
#    y -0.007160 1.840660 0.018690 
#    z 0.010730 0.018690 1.853710 
# 
# From -- ./inp_files/144495.got.cif
#   From: 2010.06.25/outbox.cif.g09.slc.cpg/sg2_73_cif.got.tgz:144495.got - 2010.06.27 13:26:56.
