data_PCOD8024110
_publ_section_title
;
Structure prediction by ZEFSAII (Michael W. Deem and Ramdas Pophale) SiO2 
 PCOD8024110
Probable space group: P -1
;
_chemical_formula_sum "Si O2"
_cell_formula_units_Z 16
_cell_length_a 11.556629
_cell_length_b 14.224109
_cell_length_c 14.454297
_cell_angle_alpha 136.211593
_cell_angle_beta 28.516180
_cell_angle_gamma 120.603604
_cell_volume 726.380226
_symmetry_space_group_name_H-M "P -1"
_symmetry_group_IT_number 2
_symmetry_cell_setting 'triclinic'
loop_
_space_group_symop_operation_xyz
x,y,z
-x,-y,-z
loop_
_atom_site_type_symbol
_atom_site_label
_atom_site_fract_x
_atom_site_fract_y
_atom_site_fract_z
Si Si1 0.852761 0.699201 0.929961
Si Si2 0.259434 0.812009 0.405050
Si Si3 0.842248 0.630936 0.272938
Si Si4 0.987497 0.624847 0.376696
Si Si5 0.502860 0.872658 0.975497
Si Si6 0.170409 0.095578 0.074350
Si Si7 0.993459 0.124501 0.743796
Si Si8 0.753875 0.219298 0.176005
O O1 0.939265 0.527067 0.726974
O O2 0.902846 0.789789 0.875208
O O3 0.023975 0.720067 0.908990
O O4 0.546266 0.758070 0.209218
O O5 0.206591 0.694020 0.291678
O O6 0.075181 0.840833 0.641951
O O7 0.207686 0.962157 0.492846
O O8 0.535248 0.655542 0.514973
O O9 0.979266 0.599486 0.254476
O O10 0.847203 0.778638 0.329981
O O11 0.000000 0.500000 0.000000
O O12 0.706101 0.722886 0.684134
O O13 0.573883 0.904155 0.051387
O O14 0.213105 0.871842 0.188489
O O15 0.500000 0.000000 0.000000
O O16 0.215991 0.929222 0.894075
O O17 0.803427 0.182867 0.007397
#
# Coordination Sequence:
#
# PCOD8024110 Si02
#       8
#     2   2   2   2   2   2   2   2
#     4  12  26  41  65  94 143 187 207 258 337 398
#     4  10  24  44  66 102 127 172 224 273 322 391
#     4  12  27  42  66 103 131 173 224 272 333 393
#     4  11  24  44  66  96 142 165 221 282 318 396
#     4  11  19  43  72 100 128 166 222 286 328 374
#     4  10  23  42  70  98 131 174 223 271 323 395
#     4  11  23  42  75  96 128 174 219 283 335 370
#     4  11  24  46  66  97 137 171 224 276 319 397
#
# _framework density 22.027031000000001
#
# number of rings (size 3 to 8) (size 9 to 14) (size 15 to 20)
#    0.000    1.000    5.000    2.250    3.500    7.500 
#    0.000    0.000    0.000    0.000    0.000    0.000 
#    0.000    0.000    0.000    0.000    0.000    0.000 
#
# Total GULP energy -198414.025266 kJ/mol
# GULP energy per Si atom -12400.876579 kJ/mol
# Density = 2.197690 g / cm^3
# Si number density = 22.027031 Si / 1000 Ang^3
#
#
#
# Elastic Constant Matrix: (Units=GPa)
#
#
# Indices 1 2 3 4 5 6 
#
# 1 78.6524 24.7678 37.9104 -6.3306 -14.6835 28.5257
# 2 24.7678 87.0139 13.6341 17.7665 -11.3747 8.1550
# 3 37.9104 13.6341 99.2331 10.4772 -19.0598 18.5475
# 4 -6.3306 17.7665 10.4772 33.0585 6.3902 -4.1080
# 5 -14.6835 -11.3747 -19.0598 6.3902 37.2920 -7.3695
# 6 28.5257 8.1550 18.5475 -4.1080 -7.3695 44.0441
#
#
#
# Elastic Compliance Matrix: (Units=1/GPa)
#
#
# Indices 1 2 3 4 5 6 
#
# 1 0.021944 -0.006001 -0.006640 0.008328 0.000110 -0.009510
# 2 -0.006001 0.015961 0.002472 -0.011645 0.005717 -0.000239
# 3 -0.006640 0.002472 0.014937 -0.008929 0.006883 -0.002129
# 4 0.008328 -0.011645 -0.008929 0.043534 -0.011780 0.002612
# 5 0.000110 0.005717 0.006883 -0.011780 0.034259 0.000605
# 6 -0.009510 -0.000239 -0.002129 0.002612 0.000605 0.030149
#
#
# Mechanical properties :
#
#
# Convention : Reuss Voigt Hill
#
# Bulk Modulus (GPa) = 30.76471 46.39155 38.57813
# Shear Modulus (GPa) = 26.04777 35.45140 30.74959
#
# Velocity S-wave (km/s) = 3.44253 4.01615 3.74035
# Velocity P-wave (km/s) = 5.45880 6.52785 6.01711
#
# Compressibility (1/GPa) = 0.03250478
#
# Stress axis : x y z
#
# Youngs Moduli (GPa) = 45.57049 62.65434 66.94848
#
# Poissons Ratio (x) = 0.37597 0.44451
# Poissons Ratio (y) = 0.27345 -0.16549
# Poissons Ratio (z) = 0.30257 -0.15487
#
# Static dielectric constant tensor:
#      x y z
#    x 4.583370 0.137900 -0.763100 
#    y 0.137900 3.814560 -0.285230 
#    z -0.763100 -0.285230 3.935470 
# 
# 
# High freq. dielectric constant tensor:
#      x y z
#    x 1.866330 0.007770 -0.009270 
#    y 0.007770 1.875500 0.003740 
#    z -0.009270 0.003740 1.868110 
# 
# From -- ./inp_files/405222.got.cif
#   From: 2010.06.25/outbox.cif.g09.slc.cpg/sg2_203_cif.got.tgz:405222.got - 2010.06.27 13:26:56.
