data_PCOD8024569
_publ_section_title
;
Structure prediction by ZEFSAII (Michael W. Deem and Ramdas Pophale) SiO2 
 PCOD8024569
Probable space group: P -1
;
_chemical_formula_sum "Si O2"
_cell_formula_units_Z 14
_cell_length_a 8.512564
_cell_length_b 9.063478
_cell_length_c 11.710714
_cell_angle_alpha 122.117895
_cell_angle_beta 103.102002
_cell_angle_gamma 52.649923
_cell_volume 602.127012
_symmetry_space_group_name_H-M "P -1"
_symmetry_group_IT_number 2
_symmetry_cell_setting 'triclinic'
loop_
_space_group_symop_operation_xyz
x,y,z
-x,-y,-z
loop_
_atom_site_type_symbol
_atom_site_label
_atom_site_fract_x
_atom_site_fract_y
_atom_site_fract_z
Si Si1 0.094238 0.568248 0.306941
Si Si2 0.635275 0.952365 0.394665
Si Si3 0.545469 0.216832 0.847891
Si Si4 0.822470 0.164124 0.451297
Si Si5 0.210254 0.855378 0.824701
Si Si6 0.900565 0.836858 0.879361
Si Si7 0.387648 0.494376 0.150322
O O1 0.213946 0.605688 0.439015
O O2 0.149785 0.330593 0.223830
O O3 0.168889 0.597768 0.209784
O O4 0.859557 0.739089 0.359018
O O5 0.543694 0.911572 0.255010
O O6 0.500000 0.000000 0.500000
O O7 0.635951 0.159481 0.453835
O O8 0.577274 0.321609 0.786722
O O9 0.758703 0.052909 0.872182
O O10 0.393884 0.397723 0.988440
O O11 0.867100 0.102805 0.300551
O O12 0.000000 0.000000 0.500000
O O13 0.449309 0.686302 0.807695
O O14 0.122120 0.747546 0.838130
O O15 0.134172 0.087978 0.962512
#
# Coordination Sequence:
#
# PCOD8024569 Si02
#       7
#     2   2   2   2   2   2   2
#     4  11  25  44  68 105 134 177 234 288 342 404
#     4  11  25  44  68  95 139 186 232 279 352 408
#     4  10  23  43  69 100 140 188 223 285 342 411
#     4  10  25  44  66  99 136 186 225 287 341 410
#     4  10  23  45  70  97 145 180 230 278 352 404
#     4  10  24  42  72 105 135 183 226 293 337 404
#     4  10  23  43  69 103 140 178 236 280 341 409
#
# _framework density 23.250909
#
# number of rings (size 3 to 8) (size 9 to 14) (size 15 to 20)
#    0.000    1.714    0.000    1.714   12.000    4.000 
#    2.571    0.000    0.000    0.000    0.000    0.000 
#    0.000    0.000    0.000    0.000    0.000    0.000 
#
# Total GULP energy -173536.389588 kJ/mol
# GULP energy per Si atom -12395.456399 kJ/mol
# Density = 2.319799 g / cm^3
# Si number density = 23.250909 Si / 1000 Ang^3
#
#
#
# Elastic Constant Matrix: (Units=GPa)
#
#
# Indices 1 2 3 4 5 6 
#
# 1 137.3924 28.6758 78.5613 8.9807 1.2405 21.1379
# 2 28.6758 65.7895 54.5849 -3.7267 -0.2906 12.5241
# 3 78.5613 54.5849 169.0403 -3.5710 12.1813 19.3663
# 4 8.9807 -3.7267 -3.5710 32.8219 6.1022 7.3830
# 5 1.2405 -0.2906 12.1813 6.1022 59.2898 11.7188
# 6 21.1379 12.5241 19.3663 7.3830 11.7188 28.2418
#
#
#
# Elastic Compliance Matrix: (Units=1/GPa)
#
#
# Indices 1 2 3 4 5 6 
#
# 1 0.010898 -0.000061 -0.004670 -0.002736 0.002010 -0.005047
# 2 -0.000061 0.022085 -0.006399 0.002973 0.002540 -0.007191
# 3 -0.004670 -0.006399 0.010411 0.002199 -0.002207 -0.000465
# 4 -0.002736 0.002973 0.002199 0.034177 -0.002154 -0.008820
# 5 0.002010 0.002540 -0.002207 -0.002154 0.019196 -0.008519
# 6 -0.005047 -0.007191 -0.000465 -0.008820 -0.008519 0.048534
#
#
# Mechanical properties :
#
#
# Convention : Reuss Voigt Hill
#
# Bulk Modulus (GPa) = 47.31760 77.31847 62.31804
# Shear Modulus (GPa) = 28.63574 38.09736 33.36655
#
# Velocity S-wave (km/s) = 3.51322 4.05227 3.79233
# Velocity P-wave (km/s) = 6.07058 7.43106 6.78501
#
# Compressibility (1/GPa) = 0.02113378
#
# Stress axis : x y z
#
# Youngs Moduli (GPa) = 91.75595 45.28034 96.05031
#
# Poissons Ratio (x) = 0.00277 0.44853
# Poissons Ratio (y) = 0.00562 0.61465
# Poissons Ratio (z) = 0.42848 0.28976
#
# Static dielectric constant tensor:
#      x y z
#    x 4.398830 0.183470 0.337620 
#    y 0.183470 3.840830 0.213030 
#    z 0.337620 0.213030 4.527850 
# 
# 
# High freq. dielectric constant tensor:
#      x y z
#    x 1.930420 0.005200 0.008560 
#    y 0.005200 1.891180 0.006150 
#    z 0.008560 0.006150 1.932790 
# 
# From -- ./inp_files/377117.got.cif
#   From: 2010.06.25/outbox.cif.g09.slc.cpg/sg2_189_cif.got.tgz:377117.got - 2010.06.27 13:26:56.
