data_PCOD8024652
_publ_section_title
;
Structure prediction by ZEFSAII (Michael W. Deem and Ramdas Pophale) SiO2 
 PCOD8024652
Probable space group: P -1
;
_chemical_formula_sum "Si O2"
_cell_formula_units_Z 16
_cell_length_a 16.997339
_cell_length_b 9.161115
_cell_length_c 11.745484
_cell_angle_alpha 37.861413
_cell_angle_beta 140.522658
_cell_angle_gamma 139.416905
_cell_volume 658.779078
_symmetry_space_group_name_H-M "P -1"
_symmetry_group_IT_number 2
_symmetry_cell_setting 'triclinic'
loop_
_space_group_symop_operation_xyz
x,y,z
-x,-y,-z
loop_
_atom_site_type_symbol
_atom_site_label
_atom_site_fract_x
_atom_site_fract_y
_atom_site_fract_z
Si Si1 0.009662 0.656550 0.245686
Si Si2 0.092316 0.946201 0.540993
Si Si3 0.671822 0.044056 0.598686
Si Si4 0.532505 0.210387 0.663651
Si Si5 0.715667 0.933382 0.956272
Si Si6 0.998023 0.051107 0.147940
Si Si7 0.606337 0.736283 0.316657
Si Si8 0.417811 0.500489 0.792747
O O1 0.170701 0.803866 0.337482
O O2 0.962992 0.353087 0.369936
O O3 0.958726 0.753356 0.243833
O O4 0.936811 0.749624 0.004416
O O5 0.091614 0.107422 0.327442
O O6 0.247762 0.051299 0.684614
O O7 0.000000 0.000000 0.500000
O O8 0.645914 0.855923 0.798363
O O9 0.602801 0.245511 0.426803
O O10 0.601401 0.887746 0.504679
O O11 0.632501 0.068181 0.847439
O O12 0.617421 0.510411 0.548802
O O13 0.483030 0.149467 0.777801
O O14 0.868643 0.115389 0.996423
O O15 0.722830 0.705832 0.186198
O O16 0.533546 0.613219 0.192736
O O17 0.500000 0.500000 0.000000
#
# Coordination Sequence:
#
# PCOD8024652 Si02
#       8
#     2   2   2   2   2   2   2   2
#     4  10  23  44  72 102 137 180 237 293 334 405
#     4  12  25  45  69 101 144 186 225 284 352 416
#     4  11  21  43  72  98 135 179 233 288 340 400
#     4  11  23  44  68  97 138 185 220 287 353 398
#     4  11  22  39  70  97 134 176 228 287 335 409
#     4  10  23  43  70 102 132 183 241 282 340 404
#     4  11  26  44  67 100 142 180 227 281 351 419
#     4  12  23  42  67 100 128 175 234 274 345 419
#
# _framework density 24.287351999999998
#
# number of rings (size 3 to 8) (size 9 to 14) (size 15 to 20)
#    0.000    1.000    2.500    4.500    1.750    2.000 
#    2.250    0.000    0.000    0.000    0.000    0.000 
#    0.000    0.000    0.000    0.000    0.000    0.000 
#
# Total GULP energy -198237.329095 kJ/mol
# GULP energy per Si atom -12389.833068 kJ/mol
# Density = 2.423207 g / cm^3
# Si number density = 24.287352 Si / 1000 Ang^3
#
#
#
# Elastic Constant Matrix: (Units=GPa)
#
#
# Indices 1 2 3 4 5 6 
#
# 1 154.6773 47.7553 27.0596 9.7899 -4.6355 -25.1385
# 2 47.7553 87.6194 20.9028 1.3524 3.9079 -13.7780
# 3 27.0596 20.9028 74.5771 3.2967 -10.8839 -21.0228
# 4 9.7899 1.3524 3.2967 29.4703 -0.0019 -8.2053
# 5 -4.6355 3.9079 -10.8839 -0.0019 43.5956 9.3374
# 6 -25.1385 -13.7780 -21.0228 -8.2053 9.3374 25.7478
#
#
#
# Elastic Compliance Matrix: (Units=1/GPa)
#
#
# Indices 1 2 3 4 5 6 
#
# 1 0.008698 -0.003693 -0.000437 -0.001037 -0.000110 0.005869
# 2 -0.003693 0.014722 -0.002117 0.001993 -0.003168 0.004328
# 3 -0.000437 -0.002117 0.018039 0.001871 0.001842 0.013098
# 4 -0.001037 0.001993 0.001871 0.038099 -0.002992 0.014808
# 5 -0.000110 -0.003168 0.001842 -0.002992 0.025954 -0.010665
# 6 0.005869 0.004328 0.013098 0.014808 -0.010665 0.066165
#
#
# Mechanical properties :
#
#
# Convention : Reuss Voigt Hill
#
# Bulk Modulus (GPa) = 34.52304 56.47882 45.50093
# Shear Modulus (GPa) = 25.79659 34.50646 30.15152
#
# Velocity S-wave (km/s) = 3.26259 3.77338 3.52724
# Velocity P-wave (km/s) = 5.33272 6.50304 5.94674
#
# Compressibility (1/GPa) = 0.02896616
#
# Stress axis : x y z
#
# Youngs Moduli (GPa) = 114.97340 67.92734 55.43531
#
# Poissons Ratio (x) = 0.25082 0.02421
# Poissons Ratio (y) = 0.42454 0.11734
# Poissons Ratio (z) = 0.05022 0.14379
#
# Static dielectric constant tensor:
#      x y z
#    x 5.049510 0.331470 -0.684950 
#    y 0.331470 4.680120 -0.434760 
#    z -0.684950 -0.434760 4.951000 
# 
# 
# High freq. dielectric constant tensor:
#      x y z
#    x 1.983660 -0.000980 -0.016690 
#    y -0.000980 1.951560 -0.000030 
#    z -0.016690 -0.000030 1.965520 
# 
# From -- ./inp_files/461826.got.cif
#   From: 2010.06.25/outbox.cif.g09.slc.cpg/sg2_231_cif.got.tgz:461826.got - 2010.06.27 13:26:56.
