data_PCOD8024803
_publ_section_title
;
Structure prediction by ZEFSAII (Michael W. Deem and Ramdas Pophale) SiO2 
 PCOD8024803
Probable space group: P -1
;
_chemical_formula_sum "Si O2"
_cell_formula_units_Z 12
_cell_length_a 6.932610
_cell_length_b 8.485029
_cell_length_c 12.394002
_cell_angle_alpha 73.472134
_cell_angle_beta 100.939612
_cell_angle_gamma 53.416336
_cell_volume 496.344179
_symmetry_space_group_name_H-M "P -1"
_symmetry_group_IT_number 2
_symmetry_cell_setting 'triclinic'
loop_
_space_group_symop_operation_xyz
x,y,z
-x,-y,-z
loop_
_atom_site_type_symbol
_atom_site_label
_atom_site_fract_x
_atom_site_fract_y
_atom_site_fract_z
Si Si1 0.043648 0.849175 0.131263
Si Si2 0.556048 0.581883 0.388269
Si Si3 0.256580 0.267202 0.943397
Si Si4 0.175297 0.638270 0.739932
Si Si5 0.555380 0.005901 0.627060
Si Si6 0.432127 0.805844 0.821096
O O1 0.328973 0.706561 0.246981
O O2 0.021959 0.676398 0.111688
O O3 0.819085 0.999843 0.169350
O O4 0.000000 0.000000 0.000000
O O5 0.500000 0.500000 0.500000
O O6 0.819557 0.365905 0.390964
O O7 0.602867 0.739163 0.403651
O O8 0.268370 0.404025 0.830821
O O9 0.289652 0.328462 0.054371
O O10 0.500000 0.000000 0.000000
O O11 0.392536 0.641866 0.810309
O O12 0.875775 0.853113 0.709255
O O13 0.441655 0.918212 0.697566
O O14 0.500000 0.000000 0.500000
#
# Coordination Sequence:
#
# PCOD8024803 Si02
#       6
#     2   2   2   2   2   2
#     4  11  23  46  78 107 152 196 245 309 372 444
#     4  12  27  47  77 111 150 198 249 310 376 439
#     4  10  23  43  73 108 146 189 244 300 369 440
#     4  12  27  48  77 108 149 196 247 306 375 440
#     4  12  29  50  75 108 148 196 253 304 367 452
#     4  11  24  48  74 106 150 192 246 308 368 440
#
# _framework density 24.176770999999999
#
# number of rings (size 3 to 8) (size 9 to 14) (size 15 to 20)
#    0.000    0.667    1.667    6.500    7.000    2.667 
#    0.000    0.000    0.000    0.000    0.000    0.000 
#    0.000    0.000    0.000    0.000    0.000    0.000 
#
# Total GULP energy -148819.206987 kJ/mol
# GULP energy per Si atom -12401.600582 kJ/mol
# Density = 2.412174 g / cm^3
# Si number density = 24.176771 Si / 1000 Ang^3
#
#
#
# Elastic Constant Matrix: (Units=GPa)
#
#
# Indices 1 2 3 4 5 6 
#
# 1 140.8938 34.8458 53.8167 11.7037 -17.1399 40.7504
# 2 34.8458 82.4346 19.1863 23.2195 -6.8210 26.9491
# 3 53.8167 19.1863 141.9188 18.4470 -26.9590 14.5688
# 4 11.7037 23.2195 18.4470 41.8700 4.1941 0.4919
# 5 -17.1399 -6.8210 -26.9590 4.1941 55.5651 5.0778
# 6 40.7504 26.9491 14.5688 0.4919 5.0778 53.3085
#
#
#
# Elastic Compliance Matrix: (Units=1/GPa)
#
#
# Indices 1 2 3 4 5 6 
#
# 1 0.010916 -0.000888 -0.002494 -0.001658 0.002856 -0.007470
# 2 -0.000888 0.018754 0.000972 -0.010889 0.004177 -0.009365
# 3 -0.002494 0.000972 0.009429 -0.004418 0.004399 -0.001539
# 4 -0.001658 -0.010889 -0.004418 0.032959 -0.007244 0.008365
# 5 0.002856 0.004177 0.004399 -0.007244 0.022766 -0.007598
# 6 -0.007470 -0.009365 -0.001539 0.008365 -0.007598 0.030271
#
#
# Mechanical properties :
#
#
# Convention : Reuss Voigt Hill
#
# Bulk Modulus (GPa) = 29.17427 64.54942 46.86185
# Shear Modulus (GPa) = 35.37516 47.30861 41.34189
#
# Velocity S-wave (km/s) = 3.82931 4.42835 4.13968
# Velocity P-wave (km/s) = 5.62537 7.27351 6.50187
#
# Compressibility (1/GPa) = 0.03427678
#
# Stress axis : x y z
#
# Youngs Moduli (GPa) = 91.61096 53.32101 106.05908
#
# Poissons Ratio (x) = 0.04736 0.26456
# Poissons Ratio (y) = 0.08137 -0.10305
# Poissons Ratio (z) = 0.22852 -0.05181
#
# Static dielectric constant tensor:
#      x y z
#    x 5.215840 0.088710 0.238400 
#    y 0.088710 4.508620 0.293800 
#    z 0.238400 0.293800 4.457250 
# 
# 
# High freq. dielectric constant tensor:
#      x y z
#    x 1.978890 0.007940 -0.003450 
#    y 0.007940 1.969330 0.020490 
#    z -0.003450 0.020490 1.962710 
# 
# From -- ./inp_files/32296.got.cif
#   From: 2010.06.25/outbox.cif.g09.slc.cpg/sg2_17_cif.got.tgz:32296.got - 2010.06.27 13:26:56.
