data_PCOD8024699
_publ_section_title
;
Structure prediction by ZEFSAII (Michael W. Deem and Ramdas Pophale) SiO2 
 PCOD8024699
Probable space group: P -1
;
_chemical_formula_sum "Si O2"
_cell_formula_units_Z 16
_cell_length_a 15.258730
_cell_length_b 14.414354
_cell_length_c 11.964003
_cell_angle_alpha 38.521075
_cell_angle_beta 56.188419
_cell_angle_gamma 28.920092
_cell_volume 716.965573
_symmetry_space_group_name_H-M "P -1"
_symmetry_group_IT_number 2
_symmetry_cell_setting 'triclinic'
loop_
_space_group_symop_operation_xyz
x,y,z
-x,-y,-z
loop_
_atom_site_type_symbol
_atom_site_label
_atom_site_fract_x
_atom_site_fract_y
_atom_site_fract_z
Si Si1 0.371531 0.907241 0.806860
Si Si2 0.850637 0.019073 0.254940
Si Si3 0.171967 0.067280 0.007432
Si Si4 0.696112 0.778112 0.144947
Si Si5 0.238858 0.383499 0.507909
Si Si6 0.994997 0.816646 0.585365
Si Si7 0.231493 0.551275 0.142595
Si Si8 0.739676 0.222457 0.579970
O O1 0.344905 0.839221 0.777749
O O2 0.606415 0.665515 0.866802
O O3 0.325904 0.858572 0.992596
O O4 0.235557 0.218675 0.618722
O O5 0.865322 0.013211 0.383040
O O6 0.851433 0.181025 0.045909
O O7 0.018851 0.713560 0.368399
O O8 0.242845 0.125020 0.972231
O O9 0.947599 0.349102 0.852205
O O10 0.175392 0.920678 0.223869
O O11 0.652035 0.747927 0.323975
O O12 0.890919 0.476463 0.230090
O O13 0.500000 0.000000 0.000000
O O14 0.335007 0.375675 0.352471
O O15 0.178593 0.712584 0.570786
O O16 0.836221 0.998263 0.628549
O O17 0.500000 0.500000 0.500000
#
# Coordination Sequence:
#
# PCOD8024699 Si02
#       8
#     2   2   2   2   2   2   2   2
#     4  11  25  42  68 100 139 177 223 275 339 407
#     4  11  22  44  67 100 141 173 222 285 337 398
#     4  11  25  43  70  96 139 176 218 282 339 392
#     4  10  23  45  70  99 135 180 225 279 334 406
#     4  10  23  43  70  97 141 178 218 281 340 401
#     4  10  24  44  67  97 137 171 228 285 328 400
#     4  12  24  42  68 103 133 179 227 275 341 399
#     4  11  24  44  68  94 131 182 228 274 338 399
#
# _framework density 22.316275000000001
#
# number of rings (size 3 to 8) (size 9 to 14) (size 15 to 20)
#    0.000    1.250    2.500    2.250    5.250    2.500 
#    6.750    1.250    0.000    0.000    0.000    0.000 
#    0.000    0.000    0.000    0.000    0.000    0.000 
#
# Total GULP energy -198313.225938 kJ/mol
# GULP energy per Si atom -12394.576621 kJ/mol
# Density = 2.226548 g / cm^3
# Si number density = 22.316275 Si / 1000 Ang^3
#
#
#
# Elastic Constant Matrix: (Units=GPa)
#
#
# Indices 1 2 3 4 5 6 
#
# 1 99.5545 37.5500 31.6029 -9.6260 14.5155 -0.4835
# 2 37.5500 160.0090 39.0513 7.9420 13.9695 -4.1029
# 3 31.6029 39.0513 113.8258 12.0243 7.2998 3.4586
# 4 -9.6260 7.9420 12.0243 28.5814 8.1364 -1.1958
# 5 14.5155 13.9695 7.2998 8.1364 27.5439 0.6577
# 6 -0.4835 -4.1029 3.4586 -1.1958 0.6577 26.8038
#
#
#
# Elastic Compliance Matrix: (Units=1/GPa)
#
#
# Indices 1 2 3 4 5 6 
#
# 1 0.014098 -0.002137 -0.003667 0.009241 -0.008128 0.001012
# 2 -0.002137 0.007435 -0.001725 -0.001500 -0.001775 0.001299
# 3 -0.003667 -0.001725 0.010976 -0.005944 0.001703 -0.002053
# 4 0.009241 -0.001500 -0.005944 0.045738 -0.016119 0.003140
# 5 -0.008128 -0.001775 0.001703 -0.016119 0.045859 -0.002482
# 6 0.001012 0.001299 -0.002053 0.003140 -0.002482 0.037991
#
#
# Mechanical properties :
#
#
# Convention : Reuss Voigt Hill
#
# Bulk Modulus (GPa) = 57.29706 65.53307 61.41507
# Shear Modulus (GPa) = 27.32669 34.26483 30.79576
#
# Velocity S-wave (km/s) = 3.50311 3.92269 3.71882
# Velocity P-wave (km/s) = 6.48792 7.06725 6.78377
#
# Compressibility (1/GPa) = 0.01745290
#
# Stress axis : x y z
#
# Youngs Moduli (GPa) = 70.93092 134.50378 91.10612
#
# Poissons Ratio (x) = 0.28739 0.33408
# Poissons Ratio (y) = 0.15156 0.15712
# Poissons Ratio (z) = 0.26010 0.23196
#
# Static dielectric constant tensor:
#      x y z
#    x 3.945410 0.172170 0.053440 
#    y 0.172170 3.969740 0.154160 
#    z 0.053440 0.154160 4.136300 
# 
# 
# High freq. dielectric constant tensor:
#      x y z
#    x 1.875720 0.010080 -0.000240 
#    y 0.010080 1.878010 0.004550 
#    z -0.000240 0.004550 1.881550 
# 
# From -- ./inp_files/455477.got.cif
#   From: 2010.06.25/outbox.cif.g09.slc.cpg/sg2_228_cif.got.tgz:455477.got - 2010.06.27 13:26:56.
