data_PCOD8024011
_publ_section_title
;
Structure prediction by ZEFSAII (Michael W. Deem and Ramdas Pophale) SiO2 
 PCOD8024011
Probable space group: P -1
;
_chemical_formula_sum "Si O2"
_cell_formula_units_Z 14
_cell_length_a 9.576889
_cell_length_b 8.483846
_cell_length_c 9.348215
_cell_angle_alpha 98.703550
_cell_angle_beta 73.369368
_cell_angle_gamma 121.089317
_cell_volume 623.221477
_symmetry_space_group_name_H-M "P -1"
_symmetry_group_IT_number 2
_symmetry_cell_setting 'triclinic'
loop_
_space_group_symop_operation_xyz
x,y,z
-x,-y,-z
loop_
_atom_site_type_symbol
_atom_site_label
_atom_site_fract_x
_atom_site_fract_y
_atom_site_fract_z
Si Si1 0.098797 0.695531 0.574434
Si Si2 0.163219 0.894735 0.030110
Si Si3 0.639030 0.203160 0.250064
Si Si4 0.515743 0.484031 0.326083
Si Si5 0.214554 0.256728 0.917357
Si Si6 0.707109 0.137869 0.719982
Si Si7 0.233510 0.456222 0.212914
O O1 0.257461 0.721418 0.623076
O O2 0.176101 0.849988 0.448065
O O3 0.000000 0.500000 0.500000
O O4 0.961466 0.703423 0.719622
O O5 0.234987 0.780337 0.910712
O O6 0.210539 0.076146 0.951829
O O7 0.243553 0.944580 0.171116
O O8 0.963324 0.773028 0.088397
O O9 0.558155 0.326841 0.250373
O O10 0.488167 0.993144 0.280459
O O11 0.500000 0.500000 0.500000
O O12 0.661090 0.676229 0.245041
O O13 0.338166 0.434622 0.305715
O O14 0.287149 0.412542 0.039808
O O15 0.738713 0.339918 0.774463
#
# Coordination Sequence:
#
# PCOD8024011 Si02
#       7
#     2   2   2   2   2   2   2
#     4  10  23  42  69 100 140 183 232 283 343 413
#     4  11  25  44  72 106 137 188 233 288 350 408
#     4  12  24  46  70 104 139 185 235 279 356 412
#     4  12  27  43  71 104 140 178 233 288 351 407
#     4  11  25  46  69 102 146 180 234 290 345 417
#     4  11  24  41  73 103 142 182 237 286 343 417
#     4  11  23  46  68 103 141 188 230 285 349 410
#
# _framework density 22.463923999999999
#
# number of rings (size 3 to 8) (size 9 to 14) (size 15 to 20)
#    0.000    0.857    1.429    5.571    6.000    2.286 
#    0.000    1.429    0.000    0.000    0.000    0.000 
#    0.000    0.000    0.000    0.000    0.000    0.000 
#
# Total GULP energy -173642.369162 kJ/mol
# GULP energy per Si atom -12403.026369 kJ/mol
# Density = 2.241280 g / cm^3
# Si number density = 22.463924 Si / 1000 Ang^3
#
#
#
# Elastic Constant Matrix: (Units=GPa)
#
#
# Indices 1 2 3 4 5 6 
#
# 1 129.9793 37.0931 45.5722 -9.1209 9.0124 13.9436
# 2 37.0931 63.6771 27.0742 -2.2616 6.5018 11.4214
# 3 45.5722 27.0742 127.6839 -18.5368 9.2793 13.7240
# 4 -9.1209 -2.2616 -18.5368 32.3390 4.4882 -1.5307
# 5 9.0124 6.5018 9.2793 4.4882 35.7306 8.5597
# 6 13.9436 11.4214 13.7240 -1.5307 8.5597 42.3829
#
#
#
# Elastic Compliance Matrix: (Units=1/GPa)
#
#
# Indices 1 2 3 4 5 6 
#
# 1 0.010062 -0.004560 -0.002239 0.001327 -0.001030 -0.001101
# 2 -0.004560 0.019967 -0.002401 -0.001268 -0.000994 -0.002948
# 3 -0.002239 -0.002401 0.010190 0.005255 -0.001987 -0.001325
# 4 0.001327 -0.001268 0.005255 0.035091 -0.006042 0.000691
# 5 -0.001030 -0.000994 -0.001987 -0.006042 0.030953 -0.005219
# 6 -0.001101 -0.002948 -0.001325 0.000691 -0.005219 0.026259
#
#
# Mechanical properties :
#
#
# Convention : Reuss Voigt Hill
#
# Bulk Modulus (GPa) = 45.83169 60.09105 52.96137
# Shear Modulus (GPa) = 31.60662 36.19723 33.90193
#
# Velocity S-wave (km/s) = 3.75506 4.01852 3.88902
# Velocity P-wave (km/s) = 6.26477 6.95265 6.61765
#
# Compressibility (1/GPa) = 0.02181896
#
# Stress axis : x y z
#
# Youngs Moduli (GPa) = 99.38037 50.08357 98.13848
#
# Poissons Ratio (x) = 0.22838 0.21971
# Poissons Ratio (y) = 0.45317 0.23565
# Poissons Ratio (z) = 0.22249 0.12026
#
# Static dielectric constant tensor:
#      x y z
#    x 4.320990 0.228180 -0.262440 
#    y 0.228180 3.909870 -0.147760 
#    z -0.262440 -0.147760 4.408050 
# 
# 
# High freq. dielectric constant tensor:
#      x y z
#    x 1.897730 0.013990 -0.000590 
#    y 0.013990 1.876390 -0.003920 
#    z -0.000590 -0.003920 1.898900 
# 
# From -- ./inp_files/156935.got.cif
#   From: 2010.06.25/outbox.cif.g09.slc.cpg/sg2_79_cif.got.tgz:156935.got - 2010.06.27 13:26:56.
