data_PCOD8024890
_publ_section_title
;
Structure prediction by ZEFSAII (Michael W. Deem and Ramdas Pophale) SiO2 
 PCOD8024890
Probable space group: P -1
;
_chemical_formula_sum "Si O2"
_cell_formula_units_Z 16
_cell_length_a 19.612949
_cell_length_b 5.563411
_cell_length_c 8.290575
_cell_angle_alpha 114.993388
_cell_angle_beta 49.342565
_cell_angle_gamma 100.791778
_cell_volume 616.881018
_symmetry_space_group_name_H-M "P -1"
_symmetry_group_IT_number 2
_symmetry_cell_setting 'triclinic'
loop_
_space_group_symop_operation_xyz
x,y,z
-x,-y,-z
loop_
_atom_site_type_symbol
_atom_site_label
_atom_site_fract_x
_atom_site_fract_y
_atom_site_fract_z
Si Si1 0.501318 0.209758 0.846908
Si Si2 0.040141 0.193113 0.615548
Si Si3 0.827174 0.988625 0.382689
Si Si4 0.681018 0.372507 0.302785
Si Si5 0.360050 0.154022 0.296772
Si Si6 0.141908 0.477357 0.025003
Si Si7 0.805038 0.547360 0.699695
Si Si8 0.633025 0.779774 0.195461
O O1 0.469961 0.216430 0.709900
O O2 0.597918 0.027899 0.666978
O O3 0.500000 0.500000 0.000000
O O4 0.423776 0.068547 0.022053
O O5 0.074764 0.070849 0.698619
O O6 0.131204 0.252198 0.408325
O O7 0.962315 0.438565 0.840412
O O8 0.000000 0.000000 0.500000
O O9 0.743491 0.895917 0.588666
O O10 0.807484 0.308740 0.496750
O O11 0.832348 0.836435 0.157673
O O12 0.639495 0.533371 0.569629
O O13 0.647446 0.562341 0.254598
O O14 0.650186 0.083282 0.290166
O O15 0.790968 0.348378 0.125594
O O16 0.154774 0.535243 0.209424
O O17 0.701367 0.678530 0.914369
#
# Coordination Sequence:
#
# PCOD8024890 Si02
#       8
#     2   2   2   2   2   2   2   2
#     4  11  25  42  70 101 138 181 232 288 345 429
#     4  12  23  41  68  98 137 181 232 292 347 412
#     4  11  24  45  68  97 134 183 229 286 354 412
#     4  10  25  47  69 103 138 187 230 291 346 418
#     4  10  25  45  68 100 139 178 234 286 350 421
#     4  10  23  44  65 101 138 177 239 283 342 416
#     4  11  24  43  68  95 138 183 228 288 350 413
#     4  11  25  44  74  98 141 184 232 286 355 410
#
# _framework density 25.936931000000001
#
# number of rings (size 3 to 8) (size 9 to 14) (size 15 to 20)
#    0.000    1.250    1.250    3.000   10.500    1.500 
#   15.750    0.000    0.000    0.000    0.000    0.000 
#    0.000    0.000    0.000    0.000    0.000    0.000 
#
# Total GULP energy -198287.754367 kJ/mol
# GULP energy per Si atom -12392.984648 kJ/mol
# Density = 2.587790 g / cm^3
# Si number density = 25.936931 Si / 1000 Ang^3
#
#
#
# Elastic Constant Matrix: (Units=GPa)
#
#
# Indices 1 2 3 4 5 6 
#
# 1 124.3006 16.9956 16.2971 14.1449 -20.6931 5.7642
# 2 16.9956 88.4552 12.5562 24.2160 7.5969 7.7848
# 3 16.2971 12.5562 89.7531 19.1505 1.1170 1.9032
# 4 14.1449 24.2160 19.1505 41.2438 0.1357 6.4825
# 5 -20.6931 7.5969 1.1170 0.1357 27.2255 14.5389
# 6 5.7642 7.7848 1.9032 6.4825 14.5389 33.1245
#
#
#
# Elastic Compliance Matrix: (Units=1/GPa)
#
#
# Indices 1 2 3 4 5 6 
#
# 1 0.011059 -0.002190 -0.001553 -0.000769 0.012682 -0.006736
# 2 -0.002190 0.014294 0.000132 -0.007893 -0.006335 0.001339
# 3 -0.001553 0.000132 0.012611 -0.005674 -0.002664 0.001794
# 4 -0.000769 -0.007893 -0.005674 0.032755 0.005061 -0.006317
# 5 0.012682 -0.006335 -0.002664 0.005061 0.064068 -0.029676
# 6 -0.006736 0.001339 0.001794 -0.006317 -0.029676 0.045205
#
#
# Mechanical properties :
#
#
# Convention : Reuss Voigt Hill
#
# Bulk Modulus (GPa) = 32.52748 43.80075 38.16411
# Shear Modulus (GPa) = 25.32154 37.42945 31.37549
#
# Velocity S-wave (km/s) = 3.12793 3.80293 3.48182
# Velocity P-wave (km/s) = 5.06097 6.01723 5.55970
#
# Compressibility (1/GPa) = 0.03074324
#
# Stress axis : x y z
#
# Youngs Moduli (GPa) = 90.42322 69.95881 79.29689
#
# Poissons Ratio (x) = 0.15323 0.12312
# Poissons Ratio (y) = 0.19806 -0.01051
# Poissons Ratio (z) = 0.14039 -0.00927
#
# Static dielectric constant tensor:
#      x y z
#    x 5.746850 -0.098170 -0.400300 
#    y -0.098170 4.390650 0.049430 
#    z -0.400300 0.049430 5.062420 
# 
# 
# High freq. dielectric constant tensor:
#      x y z
#    x 2.050920 0.003840 -0.010620 
#    y 0.003840 2.020780 0.009220 
#    z -0.010620 0.009220 2.050700 
# 
# From -- ./inp_files/138954.got.cif
#   From: 2010.06.25/outbox.cif.g09.slc.cpg/sg2_70_cif.got.tgz:138954.got - 2010.06.27 13:26:56.
