data_PCOD8024409
_publ_section_title
;
Structure prediction by ZEFSAII (Michael W. Deem and Ramdas Pophale) SiO2 
 PCOD8024409
Probable space group: P -1
;
_chemical_formula_sum "Si O2"
_cell_formula_units_Z 16
_cell_length_a 5.490215
_cell_length_b 18.359168
_cell_length_c 20.348893
_cell_angle_alpha 20.698529
_cell_angle_beta 74.839866
_cell_angle_gamma 75.569115
_cell_volume 699.664463
_symmetry_space_group_name_H-M "P -1"
_symmetry_group_IT_number 2
_symmetry_cell_setting 'triclinic'
loop_
_space_group_symop_operation_xyz
x,y,z
-x,-y,-z
loop_
_atom_site_type_symbol
_atom_site_label
_atom_site_fract_x
_atom_site_fract_y
_atom_site_fract_z
Si Si1 0.390772 0.553318 0.223558
Si Si2 0.137978 0.284931 0.014041
Si Si3 0.174332 0.673255 0.369663
Si Si4 0.501549 0.726738 0.779389
Si Si5 0.983309 0.877765 0.976243
Si Si6 0.939230 0.914025 0.677597
Si Si7 0.601582 0.575441 0.325126
Si Si8 0.176173 0.334406 0.309110
O O1 0.614826 0.589012 0.126943
O O2 0.469969 0.469796 0.360251
O O3 0.221372 0.382509 0.343043
O O4 0.254379 0.774589 0.058245
O O5 0.919334 0.455729 0.896110
O O6 0.074944 0.129472 0.090868
O O7 0.174419 0.155894 0.186161
O O8 0.414077 0.692426 0.289337
O O9 0.255129 0.610950 0.490392
O O10 0.000000 0.500000 0.500000
O O11 0.017355 0.886047 0.200713
O O12 0.731286 0.852754 0.690250
O O13 0.570305 0.729820 0.694359
O O14 0.221941 0.822624 0.724309
O O15 0.500000 0.500000 0.000000
O O16 0.783742 0.751275 0.138878
O O17 0.963095 0.160483 0.467898
#
# Coordination Sequence:
#
# PCOD8024409 Si02
#       8
#     2   2   2   2   2   2   2   2
#     4  10  23  44  71  93 138 182 229 288 348 418
#     4  10  24  43  66  95 134 184 225 287 346 416
#     4  11  24  41  69 100 136 174 229 282 348 414
#     4  12  25  46  74 101 143 184 237 294 356 420
#     4  10  23  44  64  97 135 179 228 278 352 411
#     4  12  27  44  71 106 137 188 235 297 353 419
#     4  10  23  43  66  99 131 180 222 283 346 415
#     4  11  25  44  69  99 136 178 231 286 354 416
#
# _framework density 22.868105
#
# number of rings (size 3 to 8) (size 9 to 14) (size 15 to 20)
#    0.000    1.250    1.250    3.000    5.250   10.000 
#    0.000    1.250    0.000    0.000    0.000    0.000 
#    0.000    0.000    0.000    0.000    0.000    0.000 
#
# Total GULP energy -198393.866616 kJ/mol
# GULP energy per Si atom -12399.616663 kJ/mol
# Density = 2.281606 g / cm^3
# Si number density = 22.868105 Si / 1000 Ang^3
#
#
#
# Elastic Constant Matrix: (Units=GPa)
#
#
# Indices 1 2 3 4 5 6 
#
# 1 102.2185 43.5088 11.0625 -4.2363 -1.2351 5.2829
# 2 43.5088 124.2081 59.3465 3.5848 12.0999 13.9160
# 3 11.0625 59.3465 75.7781 2.9068 -13.7493 12.9705
# 4 -4.2363 3.5848 2.9068 21.9570 20.5025 12.0544
# 5 -1.2351 12.0999 -13.7493 20.5025 15.4238 -11.3611
# 6 5.2829 13.9160 12.9705 12.0544 -11.3611 26.5914
#
#
#
# Elastic Compliance Matrix: (Units=1/GPa)
#
#
# Indices 1 2 3 4 5 6 
#
# 1 0.012102 -0.005425 0.002829 0.004152 0.000211 -0.002738
# 2 -0.005425 0.012605 -0.008507 -0.014883 0.008519 0.009017
# 3 0.002829 -0.008507 0.020231 0.015575 -0.007841 -0.016388
# 4 0.004152 -0.014883 0.015575 -0.001782 0.041426 0.017874
# 5 0.000211 0.008519 -0.007841 0.041426 -0.026583 -0.030812
# 6 -0.002738 0.009017 -0.016388 0.017874 -0.030812 0.020158
#
#
# Mechanical properties :
#
#
# Convention : Reuss Voigt Hill
#
# Bulk Modulus (GPa) = 43.98835 58.89338 51.44086
# Shear Modulus (GPa) = 75.17312 25.34692 50.26002
#
# Velocity S-wave (km/s) = 5.73967 3.33287 4.69318
# Velocity P-wave (km/s) = 7.95000 6.37339 7.20495
#
# Compressibility (1/GPa) = 0.02273329
#
# Stress axis : x y z
#
# Youngs Moduli (GPa) = 82.63210 79.33226 49.42987
#
# Poissons Ratio (x) = 0.43034 -0.13985
# Poissons Ratio (y) = 0.44824 0.42049
# Poissons Ratio (z) = -0.23378 0.67487
#
# Static dielectric constant tensor:
#      x y z
#    x 4.422940 -0.221060 0.237300 
#    y -0.221060 4.556530 -0.118640 
#    z 0.237300 -0.118640 4.183060 
# 
# 
# High freq. dielectric constant tensor:
#      x y z
#    x 1.906850 -0.002500 -0.000050 
#    y -0.002500 1.918610 0.006040 
#    z -0.000050 0.006040 1.895070 
# 
# From -- ./inp_files/143174.got.cif
#   From: 2010.06.25/outbox.cif.g09.slc.cpg/sg2_72_cif.got.tgz:143174.got - 2010.06.27 13:26:56.
