data_PCOD8024595
_publ_section_title
;
Structure prediction by ZEFSAII (Michael W. Deem and Ramdas Pophale) SiO2 
 PCOD8024595
Probable space group: P -1
;
_chemical_formula_sum "Si O2"
_cell_formula_units_Z 12
_cell_length_a 12.046623
_cell_length_b 6.492218
_cell_length_c 11.574482
_cell_angle_alpha 115.875197
_cell_angle_beta 130.786361
_cell_angle_gamma 96.503082
_cell_volume 500.274323
_symmetry_space_group_name_H-M "P -1"
_symmetry_group_IT_number 2
_symmetry_cell_setting 'triclinic'
loop_
_space_group_symop_operation_xyz
x,y,z
-x,-y,-z
loop_
_atom_site_type_symbol
_atom_site_label
_atom_site_fract_x
_atom_site_fract_y
_atom_site_fract_z
Si Si1 0.458461 0.404188 0.079034
Si Si2 0.786280 0.654840 0.705741
Si Si3 0.910569 0.076896 0.361542
Si Si4 0.253698 0.607611 0.611006
Si Si5 0.883431 0.237272 0.940170
Si Si6 0.403653 0.712547 0.294022
O O1 0.578371 0.290541 0.164372
O O2 0.520645 0.659622 0.274872
O O3 0.500000 0.500000 0.000000
O O4 0.240236 0.179344 0.886119
O O5 0.682699 0.417305 0.478849
O O6 0.692997 0.538652 0.738453
O O7 0.791058 0.928283 0.741802
O O8 0.991842 0.742733 0.867103
O O9 0.794588 0.169643 0.368531
O O10 0.071640 0.307439 0.447341
O O11 0.000000 0.000000 0.500000
O O12 0.728249 0.272020 0.881579
O O13 0.000000 0.500000 0.000000
O O14 0.500000 0.000000 0.500000
#
# Coordination Sequence:
#
# PCOD8024595 Si02
#       6
#     2   2   2   2   2   2
#     4  12  27  48  73 104 149 192 243 300 363 433
#     4  10  23  43  69 103 138 184 237 302 359 429
#     4  11  26  47  73 105 143 192 245 294 363 440
#     4  11  26  46  74 105 144 189 243 301 364 429
#     4   9  21  40  66  99 138 183 231 288 359 429
#     4  11  26  44  69 105 143 188 240 298 366 431
#
# _framework density 23.986841999999999
#
# number of rings (size 3 to 8) (size 9 to 14) (size 15 to 20)
#    0.000    1.333    1.667    1.500   11.667    4.000 
#    0.000    0.000    0.000    0.000    0.000    0.000 
#    0.000    0.000    0.000    0.000    0.000    0.000 
#
# Total GULP energy -148688.776733 kJ/mol
# GULP energy per Si atom -12390.731394 kJ/mol
# Density = 2.393225 g / cm^3
# Si number density = 23.986842 Si / 1000 Ang^3
#
#
#
# Elastic Constant Matrix: (Units=GPa)
#
#
# Indices 1 2 3 4 5 6 
#
# 1 100.6971 50.5482 37.2949 -12.7903 -15.8119 -13.9572
# 2 50.5482 144.2115 37.9939 -9.5469 -6.7058 -28.1577
# 3 37.2949 37.9939 104.4118 -4.3514 -3.3509 -7.5041
# 4 -12.7903 -9.5469 -4.3514 45.8325 -5.6894 6.6827
# 5 -15.8119 -6.7058 -3.3509 -5.6894 46.4305 -3.7950
# 6 -13.9572 -28.1577 -7.5041 6.6827 -3.7950 36.4589
#
#
#
# Elastic Compliance Matrix: (Units=1/GPa)
#
#
# Indices 1 2 3 4 5 6 
#
# 1 0.014303 -0.003239 -0.003488 0.003259 0.004726 0.002151
# 2 -0.003239 0.009789 -0.001948 0.000165 0.000678 0.005959
# 3 -0.003488 -0.001948 0.011460 -0.000308 -0.000721 -0.000500
# 4 0.003259 0.000165 -0.000308 0.023585 0.003788 -0.002617
# 5 0.004726 0.000678 -0.000721 0.003788 0.023983 0.003986
# 6 0.002151 0.005959 -0.000500 -0.002617 0.003986 0.033646
#
#
# Mechanical properties :
#
#
# Convention : Reuss Voigt Hill
#
# Bulk Modulus (GPa) = 54.94039 66.77714 60.85876
# Shear Modulus (GPa) = 35.66763 40.64326 38.15545
#
# Velocity S-wave (km/s) = 3.86030 4.12077 3.99266
# Velocity P-wave (km/s) = 6.54396 7.10919 6.83242
#
# Compressibility (1/GPa) = 0.01820155
#
# Stress axis : x y z
#
# Youngs Moduli (GPa) = 69.91696 102.15714 87.25670
#
# Poissons Ratio (x) = 0.33088 0.30436
# Poissons Ratio (y) = 0.22645 0.16999
# Poissons Ratio (z) = 0.24388 0.19902
#
# Static dielectric constant tensor:
#      x y z
#    x 4.319890 -0.454440 0.555040 
#    y -0.454440 4.726620 -0.194030 
#    z 0.555040 -0.194030 4.842970 
# 
# 
# High freq. dielectric constant tensor:
#      x y z
#    x 1.936790 -0.019970 0.013570 
#    y -0.019970 1.965900 -0.006330 
#    z 0.013570 -0.006330 1.957270 
# 
# From -- ./inp_files/100180.got.cif
#   From: 2010.06.25/outbox.cif.g09.slc.cpg/sg2_51_cif.got.tgz:100180.got - 2010.06.27 13:26:56.
