data_PCOD8024034
_publ_section_title
;
Structure prediction by ZEFSAII (Michael W. Deem and Ramdas Pophale) SiO2 
 PCOD8024034
Probable space group: P -1
;
_chemical_formula_sum "Si O2"
_cell_formula_units_Z 14
_cell_length_a 8.647232
_cell_length_b 11.369770
_cell_length_c 9.232480
_cell_angle_alpha 100.470867
_cell_angle_beta 110.897982
_cell_angle_gamma 122.716546
_cell_volume 627.264270
_symmetry_space_group_name_H-M "P -1"
_symmetry_group_IT_number 2
_symmetry_cell_setting 'triclinic'
loop_
_space_group_symop_operation_xyz
x,y,z
-x,-y,-z
loop_
_atom_site_type_symbol
_atom_site_label
_atom_site_fract_x
_atom_site_fract_y
_atom_site_fract_z
Si Si1 0.743797 0.883277 0.373023
Si Si2 0.454912 0.771501 0.508691
Si Si3 0.165732 0.739213 0.830446
Si Si4 0.010031 0.573014 0.170707
Si Si5 0.288120 0.375244 0.813735
Si Si6 0.703258 0.538581 0.494520
Si Si7 0.491131 0.997205 0.213583
O O1 0.642321 0.800289 0.477594
O O2 0.705515 0.764841 0.212904
O O3 0.646267 0.961412 0.303132
O O4 0.000000 0.000000 0.500000
O O5 0.347097 0.627483 0.553536
O O6 0.557952 0.938260 0.654496
O O7 0.263180 0.719114 0.322494
O O8 0.121639 0.576443 0.796225
O O9 0.365069 0.852984 0.812531
O O10 0.932638 0.683668 0.685209
O O11 0.255571 0.842665 0.033839
O O12 0.904391 0.654477 0.163245
O O13 0.000000 0.500000 0.000000
O O14 0.281406 0.417858 0.656729
O O15 0.500000 0.500000 0.000000
O O16 0.500000 0.500000 0.500000
#
# Coordination Sequence:
#
# PCOD8024034 Si02
#       7
#     2   2   2   2   2   2   2
#     4  12  25  42  62  97 142 177 214 280 341 401
#     4  11  23  42  68  96 127 181 231 274 330 400
#     4  10  23  42  69  94 131 177 225 283 325 402
#     4  11  23  42  71  98 132 175 234 280 328 398
#     4  12  25  43  68 103 133 173 220 281 342 392
#     4  11  23  44  70  97 136 173 228 285 336 390
#     4  11  23  42  67  97 135 179 227 269 338 407
#
# _framework density 22.319141999999999
#
# number of rings (size 3 to 8) (size 9 to 14) (size 15 to 20)
#    0.000    0.857    1.429    6.429    2.000    4.571 
#    0.000    0.714    0.000    0.000    0.000    0.000 
#    0.000    0.000    0.000    0.000    0.000    0.000 
#
# Total GULP energy -173501.001501 kJ/mol
# GULP energy per Si atom -12392.928679 kJ/mol
# Density = 2.226834 g / cm^3
# Si number density = 22.319142 Si / 1000 Ang^3
#
#
#
# Elastic Constant Matrix: (Units=GPa)
#
#
# Indices 1 2 3 4 5 6 
#
# 1 136.0528 14.7880 59.2414 18.8401 -7.9280 -3.5077
# 2 14.7880 54.7771 22.6029 15.3305 -0.1157 -3.6152
# 3 59.2414 22.6029 169.8906 26.1753 9.8991 -6.1649
# 4 18.8401 15.3305 26.1753 41.8924 -1.5226 0.4986
# 5 -7.9280 -0.1157 9.8991 -1.5226 48.3217 10.3744
# 6 -3.5077 -3.6152 -6.1649 0.4986 10.3744 36.2739
#
#
#
# Elastic Compliance Matrix: (Units=1/GPa)
#
#
# Indices 1 2 3 4 5 6 
#
# 1 0.009073 -0.000727 -0.002901 -0.001923 0.002075 -0.000255
# 2 -0.000727 0.020995 -0.001444 -0.006492 -0.000403 0.001981
# 3 -0.002901 -0.001444 0.007782 -0.003141 -0.002530 0.001665
# 4 -0.001923 -0.006492 -0.003141 0.029163 0.001716 -0.002258
# 5 0.002075 -0.000403 -0.002530 0.001716 0.023087 -0.006896
# 6 -0.000255 0.001981 0.001665 -0.002258 -0.006896 0.030027
#
#
# Mechanical properties :
#
#
# Convention : Reuss Voigt Hill
#
# Bulk Modulus (GPa) = 36.09350 61.55388 48.82369
# Shear Modulus (GPa) = 35.84100 42.90350 39.37225
#
# Velocity S-wave (km/s) = 4.01164 4.38913 4.20462
# Velocity P-wave (km/s) = 6.13713 7.30238 6.74497
#
# Compressibility (1/GPa) = 0.02770582
#
# Stress axis : x y z
#
# Youngs Moduli (GPa) = 110.21827 47.63097 128.50880
#
# Poissons Ratio (x) = 0.03460 0.37279
# Poissons Ratio (y) = 0.08007 0.18560
# Poissons Ratio (z) = 0.31974 0.06879
#
# Static dielectric constant tensor:
#      x y z
#    x 4.029740 -0.003280 -0.011930 
#    y -0.003280 4.264860 0.096660 
#    z -0.011930 0.096660 4.248790 
# 
# 
# High freq. dielectric constant tensor:
#      x y z
#    x 1.880160 0.000260 -0.000430 
#    y 0.000260 1.888590 0.009610 
#    z -0.000430 0.009610 1.889850 
# 
# From -- ./inp_files/157457.got.cif
#   From: 2010.06.25/outbox.cif.g09.slc.cpg/sg2_79_cif.got.tgz:157457.got - 2010.06.27 13:26:56.
