data_PCOD8024466
_publ_section_title
;
Structure prediction by ZEFSAII (Michael W. Deem and Ramdas Pophale) SiO2 
 PCOD8024466
Probable space group: P -1
;
_chemical_formula_sum "Si O2"
_cell_formula_units_Z 16
_cell_length_a 10.856057
_cell_length_b 20.016246
_cell_length_c 16.507631
_cell_angle_alpha 21.005864
_cell_angle_beta 146.708597
_cell_angle_gamma 135.639649
_cell_volume 665.683132
_symmetry_space_group_name_H-M "P -1"
_symmetry_group_IT_number 2
_symmetry_cell_setting 'triclinic'
loop_
_space_group_symop_operation_xyz
x,y,z
-x,-y,-z
loop_
_atom_site_type_symbol
_atom_site_label
_atom_site_fract_x
_atom_site_fract_y
_atom_site_fract_z
Si Si1 0.745610 0.870355 0.661605
Si Si2 0.805781 0.274684 0.224219
Si Si3 0.864698 0.217530 0.148268
Si Si4 0.235052 0.098606 0.771721
Si Si5 0.531644 0.400694 0.216651
Si Si6 0.050704 0.761858 0.102248
Si Si7 0.670834 0.666614 0.303849
Si Si8 0.016144 0.214190 0.776789
O O1 0.517160 0.808145 0.583235
O O2 0.969626 0.737174 0.880645
O O3 0.679778 0.105117 0.345742
O O4 0.815482 0.816287 0.855206
O O5 0.823015 0.352772 0.053611
O O6 0.070671 0.174251 0.517806
O O7 0.658494 0.461007 0.983574
O O8 0.611442 0.240710 0.943042
O O9 0.000000 0.000000 0.500000
O O10 0.206211 0.283992 0.604356
O O11 0.500000 0.000000 0.000000
O O12 0.155637 0.940197 0.958042
O O13 0.792610 0.366479 0.433807
O O14 0.500000 0.500000 0.000000
O O15 0.252546 0.567829 0.399306
O O16 0.983100 0.724529 0.198572
O O17 0.746178 0.767889 0.152565
O O18 0.000000 0.000000 0.000000
#
# Coordination Sequence:
#
# PCOD8024466 Si02
#       8
#     2   2   2   2   2   2   2   2
#     4  10  24  44  70  99 137 178 226 279 339 408
#     4  10  23  43  67  97 138 179 225 281 340 397
#     4  10  23  43  68  99 130 178 227 275 344 401
#     4  11  23  41  69 102 140 183 227 282 339 408
#     4  12  27  46  69 103 139 181 233 278 341 413
#     4  11  24  43  68 104 133 181 232 275 352 404
#     4  12  24  45  70  94 141 176 224 290 335 413
#     4  12  27  46  71 103 138 181 232 286 348 408
#
# _framework density 24.03546
#
# number of rings (size 3 to 8) (size 9 to 14) (size 15 to 20)
#    0.000    1.000    1.250    5.625    5.250    6.000 
#    0.000    0.000    0.000    0.000    0.000    0.000 
#    0.000    0.000    0.000    0.000    0.000    0.000 
#
# Total GULP energy -198464.698071 kJ/mol
# GULP energy per Si atom -12404.043629 kJ/mol
# Density = 2.398075 g / cm^3
# Si number density = 24.035460 Si / 1000 Ang^3
#
#
#
# Elastic Constant Matrix: (Units=GPa)
#
#
# Indices 1 2 3 4 5 6 
#
# 1 84.7858 21.9051 -20.5679 12.3078 -11.3167 -23.4839
# 2 21.9051 98.7019 5.4462 -2.7707 -5.1548 -16.6253
# 3 -20.5679 5.4462 48.4695 -2.1478 -0.6186 -7.9783
# 4 12.3078 -2.7707 -2.1478 29.6447 -9.0226 6.8291
# 5 -11.3167 -5.1548 -0.6186 -9.0226 34.6684 5.1035
# 6 -23.4839 -16.6253 -7.9783 6.8291 5.1035 43.7333
#
#
#
# Elastic Compliance Matrix: (Units=1/GPa)
#
#
# Indices 1 2 3 4 5 6 
#
# 1 0.020752 -0.003160 0.010916 -0.010674 0.001749 0.013396
# 2 -0.003160 0.011362 -0.002220 0.002073 0.000894 0.001789
# 3 0.010916 -0.002220 0.027053 -0.004966 0.000859 0.010628
# 4 -0.010674 0.002073 -0.004966 0.044367 0.010341 -0.013985
# 5 0.001749 0.000894 0.000859 0.010341 0.032846 -0.004012
# 6 0.013396 0.001789 0.010628 -0.013985 -0.004012 0.035331
#
#
# Mechanical properties :
#
#
# Convention : Reuss Voigt Hill
#
# Bulk Modulus (GPa) = 14.23703 27.28048 20.75875
# Shear Modulus (GPa) = 27.16636 36.62087 31.89361
#
# Velocity S-wave (km/s) = 3.36558 3.90759 3.64667
# Velocity P-wave (km/s) = 4.58684 5.63327 5.13677
#
# Compressibility (1/GPa) = 0.07023936
#
# Stress axis : x y z
#
# Youngs Moduli (GPa) = 48.18781 88.01625 36.96418
#
# Poissons Ratio (x) = 0.27810 -0.40348
# Poissons Ratio (y) = 0.15226 0.08205
# Poissons Ratio (z) = -0.52600 0.19536
#
# Static dielectric constant tensor:
#      x y z
#    x 5.041790 -0.487950 -0.163720 
#    y -0.487950 4.619920 0.097600 
#    z -0.163720 0.097600 4.280620 
# 
# 
# High freq. dielectric constant tensor:
#      x y z
#    x 1.962310 -0.016200 0.002030 
#    y -0.016200 1.962110 0.002050 
#    z 0.002030 0.002050 1.947110 
# 
# From -- ./inp_files/307154.got.cif
#   From: 2010.06.25/outbox.cif.g09.slc.cpg/sg2_154_cif.got.tgz:307154.got - 2010.06.27 13:26:56.
