data_PCOD8024369
_publ_section_title
;
Structure prediction by ZEFSAII (Michael W. Deem and Ramdas Pophale) SiO2 
 PCOD8024369
Probable space group: P -1
;
_chemical_formula_sum "Si O2"
_cell_formula_units_Z 14
_cell_length_a 11.293376
_cell_length_b 7.990519
_cell_length_c 11.039612
_cell_angle_alpha 121.683774
_cell_angle_beta 60.639930
_cell_angle_gamma 137.001470
_cell_volume 568.385077
_symmetry_space_group_name_H-M "P -1"
_symmetry_group_IT_number 2
_symmetry_cell_setting 'triclinic'
loop_
_space_group_symop_operation_xyz
x,y,z
-x,-y,-z
loop_
_atom_site_type_symbol
_atom_site_label
_atom_site_fract_x
_atom_site_fract_y
_atom_site_fract_z
Si Si1 0.957856 0.686782 0.617010
Si Si2 0.828619 0.109907 0.633534
Si Si3 0.384304 0.612220 0.941787
Si Si4 0.625646 0.577387 0.658990
Si Si5 0.033520 0.362198 0.140822
Si Si6 0.489246 0.884869 0.588468
Si Si7 0.687703 0.108098 0.102745
O O1 0.749860 0.545057 0.661476
O O2 0.023887 0.792145 0.760712
O O3 0.000000 0.500000 0.500000
O O4 0.058637 0.891145 0.532313
O O5 0.933055 0.370991 0.757637
O O6 0.746153 0.873919 0.674899
O O7 0.670725 0.086557 0.644017
O O8 0.453496 0.486986 0.785856
O O9 0.329728 0.736560 0.926814
O O10 0.207320 0.403301 0.026134
O O11 0.544341 0.811545 0.028338
O O12 0.550442 0.384860 0.509794
O O13 0.884827 0.198667 0.048380
O O14 0.335556 0.833764 0.727134
O O15 0.500000 0.000000 0.500000
#
# Coordination Sequence:
#
# PCOD8024369 Si02
#       7
#     2   2   2   2   2   2   2
#     4  10  23  43  66 101 137 186 235 289 358 414
#     4  11  21  42  69 104 143 179 244 295 337 419
#     4  11  24  44  69 108 145 182 236 289 350 433
#     4  12  25  43  70 105 144 182 240 304 349 413
#     4  11  22  45  73 100 145 193 230 282 359 427
#     4  12  23  43  72 103 139 188 237 291 358 419
#     4  11  23  45  73 101 144 190 234 281 360 426
#
# _framework density 24.631187000000001
#
# number of rings (size 3 to 8) (size 9 to 14) (size 15 to 20)
#    0.000    0.857    2.857    6.429    0.000    0.571 
#    2.571    0.714    0.000    0.000    0.000    0.000 
#    0.000    0.000    0.000    0.000    0.000    0.000 
#
# Total GULP energy -173558.717818 kJ/mol
# GULP energy per Si atom -12397.051273 kJ/mol
# Density = 2.457513 g / cm^3
# Si number density = 24.631187 Si / 1000 Ang^3
#
#
#
# Elastic Constant Matrix: (Units=GPa)
#
#
# Indices 1 2 3 4 5 6 
#
# 1 120.5599 31.8125 25.4316 -8.1282 3.2512 33.2647
# 2 31.8125 64.0359 39.4290 -8.6491 2.4136 21.6398
# 3 25.4316 39.4290 107.5526 -20.2791 -5.2746 3.0215
# 4 -8.1282 -8.6491 -20.2791 37.0620 7.5614 1.5228
# 5 3.2512 2.4136 -5.2746 7.5614 40.0599 -2.5982
# 6 33.2647 21.6398 3.0215 1.5228 -2.5982 43.7677
#
#
#
# Elastic Compliance Matrix: (Units=1/GPa)
#
#
# Indices 1 2 3 4 5 6 
#
# 1 0.011451 -0.001689 -0.001589 0.001966 -0.001923 -0.007941
# 2 -0.001689 0.025980 -0.008571 0.002222 -0.003707 -0.011267
# 3 -0.001589 -0.008571 0.013640 0.004550 0.001872 0.004457
# 4 0.001966 0.002222 0.004550 0.031821 -0.005984 -0.004370
# 5 -0.001923 -0.003707 0.001872 -0.005984 0.027041 0.004979
# 6 -0.007941 -0.011267 0.004457 -0.004370 0.004979 0.034594
#
#
# Mechanical properties :
#
#
# Convention : Reuss Voigt Hill
#
# Bulk Modulus (GPa) = 36.53220 53.94384 45.23802
# Shear Modulus (GPa) = 28.19272 37.20961 32.70116
#
# Velocity S-wave (km/s) = 3.38686 3.89095 3.64762
# Velocity P-wave (km/s) = 5.49165 6.49108 6.01217
#
# Compressibility (1/GPa) = 0.02737312
#
# Stress axis : x y z
#
# Youngs Moduli (GPa) = 87.32908 38.49061 73.31238
#
# Poissons Ratio (x) = 0.06500 0.11649
# Poissons Ratio (y) = 0.14748 0.62839
# Poissons Ratio (z) = 0.13877 0.32992
#
# Static dielectric constant tensor:
#      x y z
#    x 4.553640 0.257710 -0.155910 
#    y 0.257710 4.545730 -0.453990 
#    z -0.155910 -0.453990 4.932360 
# 
# 
# High freq. dielectric constant tensor:
#      x y z
#    x 1.985970 0.014150 0.003270 
#    y 0.014150 1.962790 -0.017850 
#    z 0.003270 -0.017850 1.982400 
# 
# From -- ./inp_files/418074.got.cif
#   From: 2010.06.25/outbox.cif.g09.slc.cpg/sg2_210_cif.got.tgz:418074.got - 2010.06.27 13:26:56.
