data_PCOD8024167
_publ_section_title
;
Structure prediction by ZEFSAII (Michael W. Deem and Ramdas Pophale) SiO2 
 PCOD8024167
Probable space group: P -1
;
_chemical_formula_sum "Si O2"
_cell_formula_units_Z 16
_cell_length_a 17.705126
_cell_length_b 12.097080
_cell_length_c 9.345963
_cell_angle_alpha 37.604717
_cell_angle_beta 138.323938
_cell_angle_gamma 141.853532
_cell_volume 712.561380
_symmetry_space_group_name_H-M "P -1"
_symmetry_group_IT_number 2
_symmetry_cell_setting 'triclinic'
loop_
_space_group_symop_operation_xyz
x,y,z
-x,-y,-z
loop_
_atom_site_type_symbol
_atom_site_label
_atom_site_fract_x
_atom_site_fract_y
_atom_site_fract_z
Si Si1 0.625993 0.068202 0.704706
Si Si2 0.833515 0.119065 0.518920
Si Si3 0.838756 0.503816 0.022370
Si Si4 0.412688 0.305254 0.768688
Si Si5 0.659362 0.687535 0.658421
Si Si6 0.975413 0.878714 0.438227
Si Si7 0.894621 0.150100 0.881314
Si Si8 0.246375 0.512513 0.388600
O O1 0.751609 0.119401 0.735307
O O2 0.656635 0.283242 0.600695
O O3 0.500000 0.000000 0.500000
O O4 0.599089 0.896459 0.963363
O O5 0.796270 0.300972 0.265754
O O6 0.926103 0.172089 0.733679
O O7 0.893143 0.085922 0.489015
O O8 0.706363 0.900097 0.594639
O O9 0.994744 0.644919 0.094597
O O10 0.780672 0.645905 0.853745
O O11 0.779179 0.417255 0.872466
O O12 0.553090 0.502097 0.793048
O O13 0.398338 0.275883 0.607850
O O14 0.304615 0.355976 0.623945
O O15 0.893544 0.630634 0.591554
O O16 0.000000 0.000000 0.500000
O O17 0.897480 0.950286 0.149922
#
# Coordination Sequence:
#
# PCOD8024167 Si02
#       8
#     2   2   2   2   2   2   2   2
#     4  12  29  45  68 100 143 187 238 285 342 423
#     4  12  26  42  69 103 145 182 219 291 359 409
#     4  11  24  43  73 105 137 176 236 290 353 415
#     4  10  23  46  68  99 137 184 239 288 335 415
#     4  10  23  42  72 100 136 181 233 289 346 412
#     4  12  23  45  77 104 142 180 234 289 351 420
#     4  12  26  46  68 104 145 180 228 290 354 416
#     4  11  24  44  75 103 131 188 237 289 351 406
#
# _framework density 22.454205999999999
#
# number of rings (size 3 to 8) (size 9 to 14) (size 15 to 20)
#    0.000    0.750    3.750    3.000    5.250    2.500 
#    0.000    3.750    0.000    0.000    0.000    0.000 
#    0.000    0.000    0.000    0.000    0.000    0.000 
#
# Total GULP energy -198396.991432 kJ/mol
# GULP energy per Si atom -12399.811965 kJ/mol
# Density = 2.240310 g / cm^3
# Si number density = 22.454206 Si / 1000 Ang^3
#
#
#
# Elastic Constant Matrix: (Units=GPa)
#
#
# Indices 1 2 3 4 5 6 
#
# 1 50.0195 16.3573 17.1002 5.4999 -8.3597 8.3994
# 2 16.3573 158.1778 51.7107 -5.3667 -4.9142 7.7269
# 3 17.1002 51.7107 139.2543 -8.1424 -9.6693 -5.0436
# 4 5.4999 -5.3667 -8.1424 40.9467 7.0673 -0.4365
# 5 -8.3597 -4.9142 -9.6693 7.0673 26.9439 7.8722
# 6 8.3994 7.7269 -5.0436 -0.4365 7.8722 32.9861
#
#
#
# Elastic Compliance Matrix: (Units=1/GPa)
#
#
# Indices 1 2 3 4 5 6 
#
# 1 0.025335 -0.001181 -0.002599 -0.006075 0.011018 -0.009282
# 2 -0.001181 0.007428 -0.002621 0.000507 0.000485 -0.001949
# 3 -0.002599 -0.002621 0.008707 0.001644 0.000689 0.002464
# 4 -0.006075 0.000507 0.001644 0.027342 -0.009643 0.004343
# 5 0.011018 0.000485 0.000689 -0.009643 0.047574 -0.014295
# 6 -0.009282 -0.001949 0.002464 0.004343 -0.014295 0.036982
#
#
# Mechanical properties :
#
#
# Convention : Reuss Voigt Hill
#
# Bulk Modulus (GPa) = 34.88094 57.53200 46.20647
# Shear Modulus (GPa) = 28.45360 37.66091 33.05725
#
# Velocity S-wave (km/s) = 3.56361 4.09984 3.84110
# Velocity P-wave (km/s) = 5.70092 6.93464 6.34782
#
# Compressibility (1/GPa) = 0.02866895
#
# Stress axis : x y z
#
# Youngs Moduli (GPa) = 39.47141 134.62000 114.85416
#
# Poissons Ratio (x) = 0.15894 0.29851
# Poissons Ratio (y) = 0.04660 0.30101
# Poissons Ratio (z) = 0.10259 0.35281
#
# Static dielectric constant tensor:
#      x y z
#    x 3.929220 0.159210 -0.061370 
#    y 0.159210 4.121780 -0.048800 
#    z -0.061370 -0.048800 4.069530 
# 
# 
# High freq. dielectric constant tensor:
#      x y z
#    x 1.869480 0.010170 -0.003480 
#    y 0.010170 1.898400 -0.007690 
#    z -0.003480 -0.007690 1.892020 
# 
# From -- ./inp_files/273651.got.cif
#   From: 2010.06.25/outbox.cif.g09.slc.cpg/sg2_137_cif.got.tgz:273651.got - 2010.06.27 13:26:56.
