data_PCOD8024953
_publ_section_title
;
Structure prediction by ZEFSAII (Michael W. Deem and Ramdas Pophale) SiO2 
 PCOD8024953
Probable space group: P -1
;
_chemical_formula_sum "Si O2"
_cell_formula_units_Z 12
_cell_length_a 6.834272
_cell_length_b 17.801039
_cell_length_c 8.370114
_cell_angle_alpha 50.603192
_cell_angle_beta 97.406413
_cell_angle_gamma 129.510691
_cell_volume 538.711568
_symmetry_space_group_name_H-M "P -1"
_symmetry_group_IT_number 2
_symmetry_cell_setting 'triclinic'
loop_
_space_group_symop_operation_xyz
x,y,z
-x,-y,-z
loop_
_atom_site_type_symbol
_atom_site_label
_atom_site_fract_x
_atom_site_fract_y
_atom_site_fract_z
Si Si1 0.695664 0.234625 0.562772
Si Si2 0.807696 0.737817 0.013574
Si Si3 0.709884 0.877238 0.044119
Si Si4 0.461042 0.963835 0.729713
Si Si5 0.502309 0.345426 0.210816
Si Si6 0.319058 0.436026 0.290955
O O1 0.554263 0.218547 0.733107
O O2 0.665521 0.306043 0.327724
O O3 0.030084 0.336275 0.498926
O O4 0.549037 0.085206 0.685244
O O5 0.737394 0.765146 0.799201
O O6 0.135272 0.821460 0.932452
O O7 0.734484 0.782375 0.090858
O O8 0.598759 0.569335 0.241237
O O9 0.659233 0.942624 0.819200
O O10 0.000000 0.000000 0.000000
O O11 0.500000 0.000000 0.500000
O O12 0.353586 0.338534 0.361731
O O13 0.719444 0.503822 0.946556
#
# Coordination Sequence:
#
# PCOD8024953 Si02
#       6
#     2   2   2   2   2   2
#     4  12  24  40  71  95 137 177 219 267 344 390
#     4  10  23  44  66  97 135 169 223 275 319 395
#     4  12  28  44  65  99 143 174 215 276 337 393
#     4  12  27  43  72  99 128 178 231 270 327 396
#     4   9  21  42  70  98 133 173 222 275 328 385
#     4   9  22  41  70  99 133 171 227 275 323 392
#
# _framework density 22.275372000000001
#
# number of rings (size 3 to 8) (size 9 to 14) (size 15 to 20)
#    1.000    0.333    1.667    3.000    4.667    3.333 
#    0.000    1.667    0.000    0.000    0.000    0.000 
#    0.000    0.000    0.000    0.000    0.000    0.000 
#
# Total GULP energy -148784.707360 kJ/mol
# GULP energy per Si atom -12398.725613 kJ/mol
# Density = 2.222467 g / cm^3
# Si number density = 22.275372 Si / 1000 Ang^3
#
#
#
# Elastic Constant Matrix: (Units=GPa)
#
#
# Indices 1 2 3 4 5 6 
#
# 1 77.3889 42.8428 20.5922 -3.0548 -35.9372 15.8127
# 2 42.8428 139.1457 24.8591 -9.1691 -28.9468 -0.1756
# 3 20.5922 24.8591 64.4607 -2.6467 -32.4735 13.8388
# 4 -3.0548 -9.1691 -2.6467 31.2633 6.3211 -11.8371
# 5 -35.9372 -28.9468 -32.4735 6.3211 46.9255 3.8330
# 6 15.8127 -0.1756 13.8388 -11.8371 3.8330 38.3435
#
#
#
# Elastic Compliance Matrix: (Units=1/GPa)
#
#
# Indices 1 2 3 4 5 6 
#
# 1 0.036536 -0.007089 0.017206 -0.016742 0.040261 -0.030503
# 2 -0.007089 0.009738 -0.004634 0.005040 -0.003846 0.006581
# 3 0.017206 -0.004634 0.038665 -0.016310 0.041746 -0.030280
# 4 -0.016742 0.005040 -0.016310 0.048122 -0.029987 0.030668
# 5 0.040261 -0.003846 0.041746 -0.029987 0.086753 -0.049617
# 6 -0.030503 0.006581 -0.030280 0.030668 -0.049617 0.064045
#
#
# Mechanical properties :
#
#
# Convention : Reuss Voigt Hill
#
# Bulk Modulus (GPa) = 10.42707 50.84262 30.63485
# Shear Modulus (GPa) = 16.40083 36.15321 26.27702
#
# Velocity S-wave (km/s) = 2.71639 4.03303 3.43832
# Velocity P-wave (km/s) = 3.81176 6.67542 5.43557
#
# Compressibility (1/GPa) = 0.09590421
#
# Stress axis : x y z
#
# Youngs Moduli (GPa) = 27.37039 102.69227 25.86287
#
# Poissons Ratio (x) = 0.72803 -0.44499
# Poissons Ratio (y) = 0.19404 0.11985
# Poissons Ratio (z) = -0.47093 0.47587
#
# Static dielectric constant tensor:
#      x y z
#    x 4.055920 -0.067490 -0.049000 
#    y -0.067490 4.086090 0.047420 
#    z -0.049000 0.047420 3.828090 
# 
# 
# High freq. dielectric constant tensor:
#      x y z
#    x 1.881080 -0.003900 -0.007240 
#    y -0.003900 1.876470 0.001480 
#    z -0.007240 0.001480 1.870550 
# 
# From -- ./inp_files/137215.got.cif
#   From: 2010.06.25/outbox.cif.g09.slc.cpg/sg2_69_cif.got.tgz:137215.got - 2010.06.27 13:26:56.
