data_PCOD8024516
_publ_section_title
;
Structure prediction by ZEFSAII (Michael W. Deem and Ramdas Pophale) SiO2 
 PCOD8024516
Probable space group: P -1
;
_chemical_formula_sum "Si O2"
_cell_formula_units_Z 14
_cell_length_a 9.456906
_cell_length_b 23.691738
_cell_length_c 8.624552
_cell_angle_alpha 30.192308
_cell_angle_beta 130.313475
_cell_angle_gamma 139.579732
_cell_volume 629.728409
_symmetry_space_group_name_H-M "P -1"
_symmetry_group_IT_number 2
_symmetry_cell_setting 'triclinic'
loop_
_space_group_symop_operation_xyz
x,y,z
-x,-y,-z
loop_
_atom_site_type_symbol
_atom_site_label
_atom_site_fract_x
_atom_site_fract_y
_atom_site_fract_z
Si Si1 0.815709 0.455354 0.848034
Si Si2 0.528632 0.823081 0.119915
Si Si3 0.399040 0.203592 0.121090
Si Si4 0.399817 0.930644 0.253471
Si Si5 0.073693 0.638236 0.151564
Si Si6 0.904921 0.714822 0.376259
Si Si7 0.305630 0.358408 0.258769
O O1 0.853585 0.374764 0.936236
O O2 0.836482 0.594213 0.492629
O O3 0.567154 0.347486 0.975121
O O4 0.000000 0.500000 0.000000
O O5 0.266944 0.748290 0.135218
O O6 0.624819 0.748823 0.461681
O O7 0.562035 0.817553 0.977018
O O8 0.640035 0.973435 0.895674
O O9 0.416225 0.094499 0.488885
O O10 0.162929 0.190149 0.982127
O O11 0.165101 0.795316 0.397613
O O12 0.500000 0.000000 0.000000
O O13 0.000000 0.500000 0.500000
O O14 0.893209 0.677500 0.913225
O O15 0.767368 0.648413 0.596491
O O16 0.500000 0.500000 0.000000
#
# Coordination Sequence:
#
# PCOD8024516 Si02
#       7
#     2   2   2   2   2   2   2
#     4  11  20  41  70  93 133 171 207 271 334 379
#     4  10  24  43  66  94 129 174 220 263 323 395
#     4  10  23  43  68  94 126 175 221 267 325 390
#     4  12  27  45  66  93 133 176 220 271 326 387
#     4  11  22  38  64  96 131 165 211 266 323 378
#     4  11  24  43  67  97 133 173 219 267 331 386
#     4  11  22  40  67 100 131 165 215 271 327 387
#
# _framework density 22.231805999999999
#
# number of rings (size 3 to 8) (size 9 to 14) (size 15 to 20)
#    0.000    1.143    4.286    1.714    2.000    5.143 
#    2.571    0.000    0.000    0.000    0.000    0.000 
#    0.000    0.000    0.000    0.000    0.000    0.000 
#
# Total GULP energy -173442.141253 kJ/mol
# GULP energy per Si atom -12388.724375 kJ/mol
# Density = 2.218121 g / cm^3
# Si number density = 22.231806 Si / 1000 Ang^3
#
#
#
# Elastic Constant Matrix: (Units=GPa)
#
#
# Indices 1 2 3 4 5 6 
#
# 1 49.3749 27.5582 32.3594 4.6268 9.5024 14.9254
# 2 27.5582 85.6115 34.4337 3.7216 16.5484 3.4512
# 3 32.3594 34.4337 155.4938 22.3849 25.3627 8.0754
# 4 4.6268 3.7216 22.3849 49.8773 7.8681 15.5452
# 5 9.5024 16.5484 25.3627 7.8681 45.2723 -0.9505
# 6 14.9254 3.4512 8.0754 15.5452 -0.9505 30.4411
#
#
#
# Elastic Compliance Matrix: (Units=1/GPa)
#
#
# Indices 1 2 3 4 5 6 
#
# 1 0.032579 -0.007696 -0.004511 0.005198 -0.002751 -0.016645
# 2 -0.007696 0.015222 -0.001376 -0.000040 -0.003122 0.002335
# 3 -0.004511 -0.001376 0.008514 -0.003430 -0.002687 0.001777
# 4 0.005198 -0.000040 -0.003430 0.026525 -0.004086 -0.015307
# 5 -0.002751 -0.003122 -0.002687 -0.004086 0.026134 0.005318
# 6 -0.016645 0.002335 0.001777 -0.015307 0.005318 0.048258
#
#
# Mechanical properties :
#
#
# Convention : Reuss Voigt Hill
#
# Bulk Modulus (GPa) = 34.30476 53.24254 43.77365
# Shear Modulus (GPa) = 25.75801 38.19339 31.97570
#
# Velocity S-wave (km/s) = 3.40753 4.14933 3.79659
# Velocity P-wave (km/s) = 5.56288 6.85250 6.24109
#
# Compressibility (1/GPa) = 0.02915048
#
# Stress axis : x y z
#
# Youngs Moduli (GPa) = 30.69481 65.69263 117.44999
#
# Poissons Ratio (x) = 0.50557 0.52980
# Poissons Ratio (y) = 0.23623 0.16157
# Poissons Ratio (z) = 0.13846 0.09037
#
# Static dielectric constant tensor:
#      x y z
#    x 4.049350 0.165270 0.538210 
#    y 0.165270 5.028950 -0.653330 
#    z 0.538210 -0.653330 5.417980 
# 
# 
# High freq. dielectric constant tensor:
#      x y z
#    x 1.856620 0.011230 0.019840 
#    y 0.011230 1.877380 0.011060 
#    z 0.019840 0.011060 1.886280 
# 
# From -- ./inp_files/225899.got.cif
#   From: 2010.06.25/outbox.cif.g09.slc.cpg/sg2_113_cif.got.tgz:225899.got - 2010.06.27 13:26:56.
