data_PCOD8024612
_publ_section_title
;
Structure prediction by ZEFSAII (Michael W. Deem and Ramdas Pophale) SiO2 
 PCOD8024612
Probable space group: P -1
;
_chemical_formula_sum "Si O2"
_cell_formula_units_Z 14
_cell_length_a 8.730108
_cell_length_b 18.115604
_cell_length_c 8.980798
_cell_angle_alpha 58.726038
_cell_angle_beta 107.747080
_cell_angle_gamma 147.321818
_cell_volume 627.984209
_symmetry_space_group_name_H-M "P -1"
_symmetry_group_IT_number 2
_symmetry_cell_setting 'triclinic'
loop_
_space_group_symop_operation_xyz
x,y,z
-x,-y,-z
loop_
_atom_site_type_symbol
_atom_site_label
_atom_site_fract_x
_atom_site_fract_y
_atom_site_fract_z
Si Si1 0.058243 0.262190 0.458640
Si Si2 0.008377 0.565215 0.162824
Si Si3 0.372062 0.452295 0.848678
Si Si4 0.943409 0.825472 0.132380
Si Si5 0.264457 0.721734 0.757594
Si Si6 0.058023 0.974011 0.398252
Si Si7 0.640132 0.844020 0.150045
O O1 0.376102 0.442211 0.313372
O O2 0.066542 0.239243 0.657622
O O3 0.802953 0.217835 0.405243
O O4 0.984593 0.146515 0.455416
O O5 0.287783 0.681202 0.234472
O O6 0.785048 0.525917 0.227113
O O7 0.855931 0.405162 0.256879
O O8 0.105459 0.650097 0.945253
O O9 0.139936 0.270415 0.934763
O O10 0.500000 0.500000 0.000000
O O11 0.722234 0.808392 0.088296
O O12 0.268020 0.016221 0.014388
O O13 0.612494 0.863484 0.738035
O O14 0.000000 0.000000 0.500000
O O15 0.807430 0.893344 0.297057
#
# Coordination Sequence:
#
# PCOD8024612 Si02
#       7
#     2   2   2   2   2   2   2
#     4  11  23  43  65 100 136 180 224 276 335 397
#     4  11  24  41  68 100 129 183 223 273 340 394
#     4  12  25  41  66 103 136 171 225 287 329 393
#     4  10  23  43  69  93 137 178 224 271 341 395
#     4  11  23  42  69  95 137 177 227 272 334 406
#     4  11  25  42  69 102 135 176 225 283 333 395
#     4  10  23  44  69  95 135 179 221 271 341 407
#
# _framework density 22.293555000000001
#
# number of rings (size 3 to 8) (size 9 to 14) (size 15 to 20)
#    0.000    1.143    1.429    5.143    6.000    2.857 
#    0.000    4.286    0.000    0.000    0.000    0.000 
#    0.000    0.000    0.000    0.000    0.000    0.000 
#
# Total GULP energy -173621.121420 kJ/mol
# GULP energy per Si atom -12401.508673 kJ/mol
# Density = 2.224281 g / cm^3
# Si number density = 22.293555 Si / 1000 Ang^3
#
#
#
# Elastic Constant Matrix: (Units=GPa)
#
#
# Indices 1 2 3 4 5 6 
#
# 1 115.9783 63.6333 28.8308 17.2271 15.4234 -13.9494
# 2 63.6333 150.3014 32.3838 12.1557 18.8801 -6.8612
# 3 28.8308 32.3838 70.8572 8.6241 25.2398 -6.7934
# 4 17.2271 12.1557 8.6241 29.3077 -1.1053 1.5494
# 5 15.4234 18.8801 25.2398 -1.1053 31.4195 -0.2347
# 6 -13.9494 -6.8612 -6.7934 1.5494 -0.2347 51.6460
#
#
#
# Elastic Compliance Matrix: (Units=1/GPa)
#
#
# Indices 1 2 3 4 5 6 
#
# 1 0.012824 -0.004193 -0.001295 -0.005681 -0.002914 0.002894
# 2 -0.004193 0.009113 -0.001579 -0.000927 -0.002182 -0.000112
# 3 -0.001295 -0.001579 0.022149 -0.005850 -0.016396 0.002455
# 4 -0.005681 -0.000927 -0.005850 0.040111 0.009429 -0.003587
# 5 -0.002914 -0.002182 -0.016396 0.009429 0.048047 -0.003298
# 6 0.002894 -0.000112 0.002455 -0.003587 -0.003298 0.020545
#
#
# Mechanical properties :
#
#
# Convention : Reuss Voigt Hill
#
# Bulk Modulus (GPa) = 33.38720 65.20364 49.29542
# Shear Modulus (GPa) = 28.26355 36.62723 32.44539
#
# Velocity S-wave (km/s) = 3.56447 4.05773 3.81907
# Velocity P-wave (km/s) = 5.65237 7.15995 6.45035
#
# Compressibility (1/GPa) = 0.02995160
#
# Stress axis : x y z
#
# Youngs Moduli (GPa) = 77.97917 109.73740 45.14850
#
# Poissons Ratio (x) = 0.46010 0.05847
# Poissons Ratio (y) = 0.32695 0.07130
# Poissons Ratio (z) = 0.10098 0.17331
#
# Static dielectric constant tensor:
#      x y z
#    x 4.116060 -0.125620 0.104320 
#    y -0.125620 4.339190 -0.162420 
#    z 0.104320 -0.162420 3.825750 
# 
# 
# High freq. dielectric constant tensor:
#      x y z
#    x 1.877390 -0.006420 0.012980 
#    y -0.006420 1.894090 -0.002510 
#    z 0.012980 -0.002510 1.865770 
# 
# From -- ./inp_files/217137.got.cif
#   From: 2010.06.25/outbox.cif.g09.slc.cpg/sg2_109_cif.got.tgz:217137.got - 2010.06.27 13:26:56.
