data_PCOD8024720
_publ_section_title
;
Structure prediction by ZEFSAII (Michael W. Deem and Ramdas Pophale) SiO2 
 PCOD8024720
Probable space group: P -1
;
_chemical_formula_sum "Si O2"
_cell_formula_units_Z 12
_cell_length_a 7.116879
_cell_length_b 12.914986
_cell_length_c 7.160347
_cell_angle_alpha 102.312377
_cell_angle_beta 99.350059
_cell_angle_gamma 133.896269
_cell_volume 415.905299
_symmetry_space_group_name_H-M "P -1"
_symmetry_group_IT_number 2
_symmetry_cell_setting 'triclinic'
loop_
_space_group_symop_operation_xyz
x,y,z
-x,-y,-z
loop_
_atom_site_type_symbol
_atom_site_label
_atom_site_fract_x
_atom_site_fract_y
_atom_site_fract_z
Si Si1 0.682341 0.179425 0.555799
Si Si2 0.747155 0.668226 0.707251
Si Si3 0.828849 0.918645 0.676166
Si Si4 0.083439 0.416251 0.015584
Si Si5 0.414659 0.271076 0.930994
Si Si6 0.431941 0.854114 0.870685
O O1 0.446532 0.177079 0.547021
O O2 0.792527 0.233579 0.377400
O O3 0.500000 0.000000 0.500000
O O4 0.961053 0.297139 0.777356
O O5 0.500000 0.500000 0.500000
O O6 0.893963 0.819468 0.657753
O O7 0.980715 0.678669 0.837056
O O8 0.618151 0.677552 0.863953
O O9 0.735491 0.930809 0.867353
O O10 0.116200 0.102300 0.725021
O O11 0.434977 0.579195 0.123948
O O12 0.000000 0.500000 0.000000
O O13 0.628703 0.255810 0.008729
O O14 0.500000 0.000000 0.000000
#
# Coordination Sequence:
#
# PCOD8024720 Si02
#       6
#     2   2   2   2   2   2
#     4  10  23  43  71 101 141 179 233 284 348 409
#     4  11  23  47  72 101 142 187 230 288 354 414
#     4   9  22  46  75  94 141 183 235 275 349 419
#     4  12  28  45  71 103 147 179 236 296 350 408
#     4  11  24  45  72 101 139 186 234 288 343 423
#     4   9  21  41  74 103 137 182 236 286 349 412
#
# _framework density 28.852720000000001
#
# number of rings (size 3 to 8) (size 9 to 14) (size 15 to 20)
#    1.000    0.667    0.000    4.500    4.667    0.667 
#    6.000    3.333    0.000    1.000    0.000    0.000 
#    0.000    0.000    0.000    0.000    0.000    0.000 
#
# Total GULP energy -148683.255093 kJ/mol
# GULP energy per Si atom -12390.271258 kJ/mol
# Density = 2.878705 g / cm^3
# Si number density = 28.852720 Si / 1000 Ang^3
#
#
#
# Elastic Constant Matrix: (Units=GPa)
#
#
# Indices 1 2 3 4 5 6 
#
# 1 80.2450 35.0844 8.9090 4.2910 25.2597 -38.2105
# 2 35.0844 226.1967 57.0366 7.9425 26.6518 -0.9720
# 3 8.9090 57.0366 136.7383 18.8308 46.9102 7.1007
# 4 4.2910 7.9425 18.8308 54.9389 -4.4119 4.1526
# 5 25.2597 26.6518 46.9102 -4.4119 36.4872 -9.4708
# 6 -38.2105 -0.9720 7.1007 4.1526 -9.4708 46.9032
#
#
#
# Elastic Compliance Matrix: (Units=1/GPa)
#
#
# Indices 1 2 3 4 5 6 
#
# 1 0.030631 -0.003485 0.008256 -0.008203 -0.025269 0.019256
# 2 -0.003485 0.005406 -0.002282 0.000513 0.000876 -0.002250
# 3 0.008256 -0.002282 0.019786 -0.009461 -0.031087 -0.001756
# 4 -0.008203 0.000513 -0.009461 0.023833 0.019461 -0.003420
# 5 -0.025269 0.000876 -0.031087 0.019461 0.086553 -0.000107
# 6 0.019256 -0.002250 -0.001756 -0.003420 -0.000107 0.037508
#
#
# Mechanical properties :
#
#
# Convention : Reuss Voigt Hill
#
# Bulk Modulus (GPa) = 16.44699 71.69335 44.07017
# Shear Modulus (GPa) = 22.83058 50.47584 36.65321
#
# Velocity S-wave (km/s) = 2.81602 4.18716 3.56807
# Velocity P-wave (km/s) = 4.03559 6.94826 5.68174
#
# Compressibility (1/GPa) = 0.06080139
#
# Stress axis : x y z
#
# Youngs Moduli (GPa) = 32.64719 184.97866 50.54027
#
# Poissons Ratio (x) = 0.64461 -0.41728
# Poissons Ratio (y) = 0.11377 0.11535
# Poissons Ratio (z) = -0.26955 0.42218
#
# Static dielectric constant tensor:
#      x y z
#    x 7.268770 1.731380 0.321770 
#    y 1.731380 9.007070 0.110330 
#    z 0.321770 0.110330 4.676960 
# 
# 
# High freq. dielectric constant tensor:
#      x y z
#    x 2.206330 -0.001910 0.004750 
#    y -0.001910 2.201810 -0.008600 
#    z 0.004750 -0.008600 2.163450 
# 
# From -- ./inp_files/180643.got.cif
#   From: 2010.06.25/outbox.cif.g09.slc.cpg/sg2_91_cif.got.tgz:180643.got - 2010.06.27 13:26:56.
