data_PCOD8024506
_publ_section_title
;
Structure prediction by ZEFSAII (Michael W. Deem and Ramdas Pophale) SiO2 
 PCOD8024506
Probable space group: P -1
;
_chemical_formula_sum "Si O2"
_cell_formula_units_Z 12
_cell_length_a 4.900423
_cell_length_b 8.826456
_cell_length_c 15.935758
_cell_angle_alpha 133.685953
_cell_angle_beta 58.065975
_cell_angle_gamma 100.233150
_cell_volume 402.736622
_symmetry_space_group_name_H-M "P -1"
_symmetry_group_IT_number 2
_symmetry_cell_setting 'triclinic'
loop_
_space_group_symop_operation_xyz
x,y,z
-x,-y,-z
loop_
_atom_site_type_symbol
_atom_site_label
_atom_site_fract_x
_atom_site_fract_y
_atom_site_fract_z
Si Si1 0.554276 0.858586 0.797333
Si Si2 0.310367 0.503950 0.244821
Si Si3 0.601509 0.058264 0.595126
Si Si4 0.886158 0.470115 0.897819
Si Si5 0.995812 0.868818 0.127128
Si Si6 0.722127 0.662162 0.532551
O O1 0.470203 0.736955 0.847092
O O2 0.827810 0.691601 0.624842
O O3 0.237281 0.932214 0.813866
O O4 0.660808 0.068241 0.890034
O O5 0.534527 0.671580 0.264648
O O6 0.110991 0.494302 0.188345
O O7 0.036260 0.588729 0.393325
O O8 0.500000 0.000000 0.500000
O O9 0.507004 0.912829 0.630540
O O10 0.000000 0.000000 0.500000
O O11 0.088155 0.212270 0.796048
O O12 0.500000 0.500000 0.000000
O O13 0.063667 0.639525 0.976807
O O14 0.500000 0.500000 0.500000
#
# Coordination Sequence:
#
# PCOD8024506 Si02
#       6
#     2   2   2   2   2   2
#     4  12  25  46  75 113 155 195 249 319 387 456
#     4  11  26  48  76 115 154 204 256 315 385 461
#     4  10  23  43  68 106 145 196 248 300 368 455
#     4  11  25  54  77 109 150 204 263 318 379 458
#     4  11  26  50  78 108 151 200 256 321 382 447
#     4  11  24  47  75 114 159 201 249 314 387 462
#
# _framework density 29.796150999999998
#
# number of rings (size 3 to 8) (size 9 to 14) (size 15 to 20)
#    0.000    1.000    1.667    3.500    0.000    9.333 
#   18.000    0.000    0.000    0.000    0.000    0.000 
#    0.000    0.000    0.000    0.000    0.000    0.000 
#
# Total GULP energy -148759.911692 kJ/mol
# GULP energy per Si atom -12396.659308 kJ/mol
# Density = 2.972833 g / cm^3
# Si number density = 29.796151 Si / 1000 Ang^3
#
#
#
# Elastic Constant Matrix: (Units=GPa)
#
#
# Indices 1 2 3 4 5 6 
#
# 1 138.4439 83.4834 23.8118 -1.1432 39.9922 -7.3815
# 2 83.4834 306.8747 52.1480 9.3443 23.5563 -18.7434
# 3 23.8118 52.1480 86.9663 7.0745 30.2648 -7.6320
# 4 -1.1432 9.3443 7.0745 35.7508 -0.2193 19.8505
# 5 39.9922 23.5563 30.2648 -0.2193 62.2745 -2.3854
# 6 -7.3815 -18.7434 -7.6320 19.8505 -2.3854 78.6011
#
#
#
# Elastic Compliance Matrix: (Units=1/GPa)
#
#
# Indices 1 2 3 4 5 6 
#
# 1 0.010363 -0.002494 0.000707 0.000768 -0.006050 0.000070
# 2 -0.002494 0.004309 -0.002058 -0.001325 0.001004 0.000958
# 3 0.000707 -0.002058 0.015462 -0.003513 -0.007135 0.001748
# 4 0.000768 -0.001325 -0.003513 0.034132 0.001485 -0.009160
# 5 -0.006050 0.001004 -0.007135 0.001485 0.023009 -0.000698
# 6 0.000070 0.000958 0.001748 -0.009160 -0.000698 0.015419
#
#
# Mechanical properties :
#
#
# Convention : Reuss Voigt Hill
#
# Bulk Modulus (GPa) = 44.55757 94.57458 69.56607
# Shear Modulus (GPa) = 42.42093 60.18139 51.30116
#
# Velocity S-wave (km/s) = 3.77729 4.49906 4.15388
# Velocity P-wave (km/s) = 5.83186 7.66800 6.81207
#
# Compressibility (1/GPa) = 0.02244288
#
# Stress axis : x y z
#
# Youngs Moduli (GPa) = 96.49496 232.08633 64.67653
#
# Poissons Ratio (x) = 0.57885 -0.04574
# Poissons Ratio (y) = 0.24067 0.13313
# Poissons Ratio (z) = -0.06824 0.47773
#
# Static dielectric constant tensor:
#      x y z
#    x 5.866730 -1.260380 -0.523100 
#    y -1.260380 10.417990 1.380990 
#    z -0.523100 1.380990 6.187450 
# 
# 
# High freq. dielectric constant tensor:
#      x y z
#    x 2.227970 -0.015970 -0.020110 
#    y -0.015970 2.271640 0.000520 
#    z -0.020110 0.000520 2.247090 
# 
# From -- ./inp_files/479453.got.cif
#   From: 2010.06.25/outbox.cif.g09.slc.cpg/sg2_240_cif.got.tgz:479453.got - 2010.06.27 13:26:56.
