data_PCOD8024933
_publ_section_title
;
Structure prediction by ZEFSAII (Michael W. Deem and Ramdas Pophale) SiO2 
 PCOD8024933
Probable space group: P -1
;
_chemical_formula_sum "Si O2"
_cell_formula_units_Z 14
_cell_length_a 9.613528
_cell_length_b 8.664296
_cell_length_c 9.887823
_cell_angle_alpha 69.575516
_cell_angle_beta 117.216038
_cell_angle_gamma 110.168025
_cell_volume 669.215887
_symmetry_space_group_name_H-M "P -1"
_symmetry_group_IT_number 2
_symmetry_cell_setting 'triclinic'
loop_
_space_group_symop_operation_xyz
x,y,z
-x,-y,-z
loop_
_atom_site_type_symbol
_atom_site_label
_atom_site_fract_x
_atom_site_fract_y
_atom_site_fract_z
Si Si1 0.035659 0.141755 0.361326
Si Si2 0.913244 0.490658 0.606295
Si Si3 0.439179 0.952384 0.206044
Si Si4 0.113339 0.452598 0.948834
Si Si5 0.714981 0.811957 0.763154
Si Si6 0.452295 0.659811 0.495839
Si Si7 0.287177 0.814165 0.902841
O O1 0.091868 0.323989 0.399782
O O2 0.177134 0.107888 0.340051
O O3 0.879133 0.128064 0.204001
O O4 0.000000 0.000000 0.500000
O O5 0.735707 0.378163 0.544365
O O6 0.000000 0.500000 0.500000
O O7 0.006942 0.398470 0.784129
O O8 0.500995 0.818980 0.368240
O O9 0.313741 0.036274 0.204111
O O10 0.590209 0.097023 0.184017
O O11 0.351124 0.855606 0.068370
O O12 0.257255 0.612951 0.930512
O O13 0.192557 0.301151 0.072905
O O14 0.000000 0.500000 0.000000
O O15 0.546391 0.702550 0.665656
O O16 0.500000 0.500000 0.500000
#
# Coordination Sequence:
#
# PCOD8024933 Si02
#       7
#     2   2   2   2   2   2   2
#     4  11  24  43  66  97 136 179 221 279 338 402
#     4  11  26  43  70 101 132 179 226 277 336 404
#     4  11  26  42  66 102 131 177 224 287 337 399
#     4  11  21  48  69  95 135 182 224 276 339 409
#     4  12  25  42  72 100 131 180 229 279 340 395
#     4  12  24  46  68  95 136 176 222 275 340 409
#     4  10  23  44  66  91 140 174 225 275 343 405
#
# _framework density 20.920005
#
# number of rings (size 3 to 8) (size 9 to 14) (size 15 to 20)
#    0.000    0.857    4.286    3.000    6.000    2.286 
#    2.571    0.000    0.000    0.000    0.000    0.000 
#    0.000    0.000    0.000    0.000    0.000    0.000 
#
# Total GULP energy -173679.816563 kJ/mol
# GULP energy per Si atom -12405.701183 kJ/mol
# Density = 2.087239 g / cm^3
# Si number density = 20.920005 Si / 1000 Ang^3
#
#
#
# Elastic Constant Matrix: (Units=GPa)
#
#
# Indices 1 2 3 4 5 6 
#
# 1 126.2675 44.1237 54.9552 0.1862 -10.5922 4.6662
# 2 44.1237 51.5167 28.7055 -27.9466 5.9555 0.1504
# 3 54.9552 28.7055 134.6571 -14.4240 7.3785 0.2994
# 4 0.1862 -27.9466 -14.4240 38.6807 1.4348 5.0677
# 5 -10.5922 5.9555 7.3785 1.4348 38.1267 1.7050
# 6 4.6662 0.1504 0.2994 5.0677 1.7050 43.8440
#
#
#
# Elastic Compliance Matrix: (Units=1/GPa)
#
#
# Indices 1 2 3 4 5 6 
#
# 1 0.022759 -0.031645 -0.006034 -0.025744 0.013394 0.000182
# 2 -0.031645 0.080270 0.003648 0.060800 -0.024189 -0.003019
# 3 -0.006034 0.003648 0.010060 0.006584 -0.004440 -0.000027
# 4 -0.025744 0.060800 0.006584 0.073806 -0.020466 -0.005249
# 5 0.013394 -0.024189 -0.004440 -0.020466 0.035372 -0.000322
# 6 0.000182 -0.003019 -0.000027 -0.005249 -0.000322 0.023418
#
#
# Mechanical properties :
#
#
# Convention : Reuss Voigt Hill
#
# Bulk Modulus (GPa) = 22.20929 63.11225 42.66077
# Shear Modulus (GPa) = 15.20886 36.44074 25.82480
#
# Velocity S-wave (km/s) = 2.69922 4.17815 3.51729
# Velocity P-wave (km/s) = 4.51151 7.31504 6.07715
#
# Compressibility (1/GPa) = 0.04502621
#
# Stress axis : x y z
#
# Youngs Moduli (GPa) = 43.93868 12.45802 99.40484
#
# Poissons Ratio (x) = 0.39423 0.59983
# Poissons Ratio (y) = 1.39043 -0.36263
# Poissons Ratio (z) = 0.26514 -0.04545
#
# Static dielectric constant tensor:
#      x y z
#    x 4.139980 0.207070 0.479180 
#    y 0.207070 4.077990 -0.166630 
#    z 0.479180 -0.166630 4.744240 
# 
# 
# High freq. dielectric constant tensor:
#      x y z
#    x 1.823670 0.014470 0.004480 
#    y 0.014470 1.820210 -0.002690 
#    z 0.004480 -0.002690 1.837020 
# 
# From -- ./inp_files/157128.got.cif
#   From: 2010.06.25/outbox.cif.g09.slc.cpg/sg2_79_cif.got.tgz:157128.got - 2010.06.27 13:26:56.
