data_PCOD8024418
_publ_section_title
;
Structure prediction by ZEFSAII (Michael W. Deem and Ramdas Pophale) SiO2 
 PCOD8024418
Probable space group: P -1
;
_chemical_formula_sum "Si O2"
_cell_formula_units_Z 14
_cell_length_a 11.844433
_cell_length_b 7.748553
_cell_length_c 7.675903
_cell_angle_alpha 122.855559
_cell_angle_beta 86.000253
_cell_angle_gamma 106.905144
_cell_volume 562.809019
_symmetry_space_group_name_H-M "P -1"
_symmetry_group_IT_number 2
_symmetry_cell_setting 'triclinic'
loop_
_space_group_symop_operation_xyz
x,y,z
-x,-y,-z
loop_
_atom_site_type_symbol
_atom_site_label
_atom_site_fract_x
_atom_site_fract_y
_atom_site_fract_z
Si Si1 0.685555 0.455847 0.113802
Si Si2 0.521222 0.048194 0.823065
Si Si3 0.908095 0.070832 0.383284
Si Si4 0.725202 0.866027 0.564747
Si Si5 0.924280 0.649349 0.024992
Si Si6 0.128331 0.343713 0.350981
Si Si7 0.267357 0.794686 0.707632
O O1 0.669228 0.654948 0.333666
O O2 0.723752 0.286628 0.143158
O O3 0.785278 0.531182 0.999618
O O4 0.566062 0.311076 0.948176
O O5 0.617475 0.949558 0.676877
O O6 0.393728 0.934665 0.685116
O O7 0.500000 0.000000 0.000000
O O8 0.826839 0.052187 0.554536
O O9 0.821289 0.059481 0.218459
O O10 0.960497 0.868023 0.256299
O O11 0.022916 0.286081 0.479553
O O12 0.783156 0.797343 0.693717
O O13 0.940356 0.712550 0.855153
O O14 0.000000 0.500000 0.000000
O O15 0.205143 0.592178 0.479239
#
# Coordination Sequence:
#
# PCOD8024418 Si02
#       7
#     2   2   2   2   2   2   2
#     4   9  22  44  65 101 138 182 225 285 338 404
#     4  10  23  43  75  97 140 184 231 285 341 401
#     4  11  24  43  65 102 139 181 224 286 348 409
#     4  10  24  44  69 104 138 180 236 276 348 409
#     4  11  25  42  67 102 139 178 230 283 345 414
#     4  11  24  41  71 100 137 183 224 288 342 410
#     4  10  23  43  67 100 138 176 235 274 342 409
#
# _framework density 24.875225
#
# number of rings (size 3 to 8) (size 9 to 14) (size 15 to 20)
#    0.000    1.714    0.000    2.143    8.000    8.000 
#    0.000    1.429    0.000    0.000    0.000    0.000 
#    0.000    0.000    0.000    0.000    0.000    0.000 
#
# Total GULP energy -173494.650895 kJ/mol
# GULP energy per Si atom -12392.475064 kJ/mol
# Density = 2.481861 g / cm^3
# Si number density = 24.875225 Si / 1000 Ang^3
#
#
#
# Elastic Constant Matrix: (Units=GPa)
#
#
# Indices 1 2 3 4 5 6 
#
# 1 116.6241 37.6465 43.2947 15.4122 -2.5109 23.7316
# 2 37.6465 103.3454 35.1523 11.1750 0.0577 22.1996
# 3 43.2947 35.1523 74.0713 5.5490 -14.2543 16.1292
# 4 15.4122 11.1750 5.5490 31.9107 6.1228 9.3043
# 5 -2.5109 0.0577 -14.2543 6.1228 33.5374 6.0276
# 6 23.7316 22.1996 16.1292 9.3043 6.0276 47.8020
#
#
#
# Elastic Compliance Matrix: (Units=1/GPa)
#
#
# Indices 1 2 3 4 5 6 
#
# 1 0.012156 -0.001574 -0.005571 -0.003500 -0.000331 -0.002701
# 2 -0.001574 0.012632 -0.004500 -0.001758 -0.001178 -0.003076
# 3 -0.005571 -0.004500 0.021490 -0.000244 0.009404 -0.003534
# 4 -0.003500 -0.001758 -0.000244 0.035931 -0.006282 -0.003565
# 5 -0.000331 -0.001178 0.009404 -0.006282 0.035977 -0.005775
# 6 -0.002701 -0.003076 -0.003534 -0.003565 -0.005775 0.026303
#
#
# Mechanical properties :
#
#
# Convention : Reuss Voigt Hill
#
# Bulk Modulus (GPa) = 43.50347 58.46975 50.98661
# Shear Modulus (GPa) = 28.49943 34.51319 31.50631
#
# Velocity S-wave (km/s) = 3.38848 3.72889 3.56276
# Velocity P-wave (km/s) = 5.73025 6.48813 6.12093
#
# Compressibility (1/GPa) = 0.02298667
#
# Stress axis : x y z
#
# Youngs Moduli (GPa) = 82.26355 79.16530 46.53312
#
# Poissons Ratio (x) = 0.12463 0.25926
# Poissons Ratio (y) = 0.12950 0.20940
# Poissons Ratio (z) = 0.45832 0.35624
#
# Static dielectric constant tensor:
#      x y z
#    x 5.016920 0.295580 0.372700 
#    y 0.295580 4.981350 0.317450 
#    z 0.372700 0.317450 4.356970 
# 
# 
# High freq. dielectric constant tensor:
#      x y z
#    x 1.990720 0.009470 0.011040 
#    y 0.009470 2.008940 0.008500 
#    z 0.011040 0.008500 1.969690 
# 
# From -- ./inp_files/241375.got.cif
#   From: 2010.06.25/outbox.cif.g09.slc.cpg/sg2_121_cif.got.tgz:241375.got - 2010.06.27 13:26:56.
