data_PCOD8024666
_publ_section_title
;
Structure prediction by ZEFSAII (Michael W. Deem and Ramdas Pophale) SiO2 
 PCOD8024666
Probable space group: P -1
;
_chemical_formula_sum "Si O2"
_cell_formula_units_Z 16
_cell_length_a 9.319733
_cell_length_b 9.871849
_cell_length_c 10.721293
_cell_angle_alpha 95.794760
_cell_angle_beta 84.126172
_cell_angle_gamma 47.516491
_cell_volume 703.899539
_symmetry_space_group_name_H-M "P -1"
_symmetry_group_IT_number 2
_symmetry_cell_setting 'triclinic'
loop_
_space_group_symop_operation_xyz
x,y,z
-x,-y,-z
loop_
_atom_site_type_symbol
_atom_site_label
_atom_site_fract_x
_atom_site_fract_y
_atom_site_fract_z
Si Si1 0.940310 0.162873 0.677306
Si Si2 0.893607 0.122889 0.145083
Si Si3 0.846465 0.454514 0.253536
Si Si4 0.320244 0.304708 0.474120
Si Si5 0.269567 0.034766 0.479808
Si Si6 0.530576 0.331421 0.041128
Si Si7 0.832008 0.529406 0.769378
Si Si8 0.587750 0.218412 0.768059
O O1 0.950183 0.311267 0.735046
O O2 0.711569 0.260494 0.692254
O O3 0.055545 0.001904 0.754644
O O4 0.069682 0.076842 0.529240
O O5 0.941108 0.246318 0.194518
O O6 0.658322 0.262754 0.149006
O O7 0.000000 0.000000 0.000000
O O8 0.779657 0.515663 0.410421
O O9 0.648960 0.604446 0.201590
O O10 0.015570 0.452653 0.201952
O O11 0.557839 0.131892 0.457328
O O12 0.276351 0.370142 0.342630
O O13 0.219309 0.227083 0.515526
O O14 0.342569 0.964707 0.324185
O O15 0.330958 0.380481 0.098269
O O16 0.500000 0.500000 0.000000
O O17 0.643990 0.172323 0.905540
#
# Coordination Sequence:
#
# PCOD8024666 Si02
#       8
#     2   2   2   2   2   2   2   2
#     4  12  24  43  72 105 137 182 231 286 346 400
#     4  12  25  46  69 100 141 179 230 287 337 402
#     4  11  25  45  72 101 137 186 229 280 349 414
#     4  10  23  45  69 102 148 171 227 292 351 399
#     4  10  23  43  70 109 136 177 229 295 337 409
#     4  12  23  49  68  98 140 185 229 283 341 415
#     4  12  25  44  75 102 136 189 229 279 348 418
#     4  11  24  44  71  97 144 181 225 284 345 404
#
# _framework density 22.730515
#
# number of rings (size 3 to 8) (size 9 to 14) (size 15 to 20)
#    0.000    0.750    5.000    1.500    1.750    1.500 
#    0.000    4.375    0.000    0.000    0.000    0.000 
#    0.000    0.000    0.000    0.000    0.000    0.000 
#
# Total GULP energy -198352.927176 kJ/mol
# GULP energy per Si atom -12397.057949 kJ/mol
# Density = 2.267878 g / cm^3
# Si number density = 22.730515 Si / 1000 Ang^3
#
#
#
# Elastic Constant Matrix: (Units=GPa)
#
#
# Indices 1 2 3 4 5 6 
#
# 1 151.9279 46.2844 43.5946 -4.5939 -9.5665 3.9857
# 2 46.2844 101.7728 34.6252 4.7190 8.9881 19.7948
# 3 43.5946 34.6252 102.1056 10.1206 -3.6634 10.1461
# 4 -4.5939 4.7190 10.1206 31.8612 -1.8687 10.4766
# 5 -9.5665 8.9881 -3.6634 -1.8687 43.2573 4.9043
# 6 3.9857 19.7948 10.1461 10.4766 4.9043 28.2043
#
#
#
# Elastic Compliance Matrix: (Units=1/GPa)
#
#
# Indices 1 2 3 4 5 6 
#
# 1 0.008640 -0.003492 -0.002752 0.002491 0.002411 0.000875
# 2 -0.003492 0.014155 -0.002674 0.000790 -0.002970 -0.008256
# 3 -0.002752 -0.002674 0.012363 -0.003530 0.000959 -0.001037
# 4 0.002491 0.000790 -0.003530 0.037608 0.003320 -0.014183
# 5 0.002411 -0.002970 0.000959 0.003320 0.024966 -0.004176
# 6 0.000875 -0.008256 -0.001037 -0.014183 -0.004176 0.047494
#
#
# Mechanical properties :
#
#
# Convention : Reuss Voigt Hill
#
# Bulk Modulus (GPa) = 57.72774 67.20164 62.46469
# Shear Modulus (GPa) = 29.61477 36.08470 32.84974
#
# Velocity S-wave (km/s) = 3.61344 3.98867 3.80568
# Velocity P-wave (km/s) = 6.54683 7.13031 6.84479
#
# Compressibility (1/GPa) = 0.01732269
#
# Stress axis : x y z
#
# Youngs Moduli (GPa) = 115.74575 70.64741 80.88709
#
# Poissons Ratio (x) = 0.24667 0.22260
# Poissons Ratio (y) = 0.40413 0.21627
# Poissons Ratio (z) = 0.31854 0.18890
#
# Static dielectric constant tensor:
#      x y z
#    x 4.470880 -0.087450 0.139990 
#    y -0.087450 4.079990 0.136960 
#    z 0.139990 0.136960 4.295990 
# 
# 
# High freq. dielectric constant tensor:
#      x y z
#    x 1.907880 -0.009540 0.003950 
#    y -0.009540 1.893430 0.015940 
#    z 0.003950 0.015940 1.897820 
# 
# From -- ./inp_files/382263.got.cif
#   From: 2010.06.25/outbox.cif.g09.slc.cpg/sg2_192_cif.got.tgz:382263.got - 2010.06.27 13:26:56.
