data_PCOD8024399
_publ_section_title
;
Structure prediction by ZEFSAII (Michael W. Deem and Ramdas Pophale) SiO2 
 PCOD8024399
Probable space group: P -1
;
_chemical_formula_sum "Si O2"
_cell_formula_units_Z 14
_cell_length_a 20.129831
_cell_length_b 17.495383
_cell_length_c 7.468205
_cell_angle_alpha 51.467744
_cell_angle_beta 135.201346
_cell_angle_gamma 160.036304
_cell_volume 622.074895
_symmetry_space_group_name_H-M "P -1"
_symmetry_group_IT_number 2
_symmetry_cell_setting 'triclinic'
loop_
_space_group_symop_operation_xyz
x,y,z
-x,-y,-z
loop_
_atom_site_type_symbol
_atom_site_label
_atom_site_fract_x
_atom_site_fract_y
_atom_site_fract_z
Si Si1 0.548481 0.144267 0.161437
Si Si2 0.881938 0.162699 0.371102
Si Si3 0.051129 0.349285 0.794603
Si Si4 0.661574 0.447522 0.443964
Si Si5 0.590293 0.966869 0.548646
Si Si6 0.669583 0.556769 0.919864
Si Si7 0.624939 0.732393 0.549719
O O1 0.753258 0.401441 0.112795
O O2 0.549432 0.156667 0.358652
O O3 0.588378 0.069244 0.293374
O O4 0.319860 0.966773 0.904869
O O5 0.975377 0.309741 0.506202
O O6 0.079807 0.334955 0.354637
O O7 0.811649 0.988562 0.554996
O O8 0.130864 0.311610 0.991595
O O9 0.838462 0.164776 0.782187
O O10 0.522236 0.216898 0.529406
O O11 0.582933 0.442802 0.461609
O O12 0.616663 0.456892 0.153691
O O13 0.731279 0.727932 0.812667
O O14 0.452146 0.342098 0.695491
#
# Coordination Sequence:
#
# PCOD8024399 Si02
#       7
#     2   2   2   2   2   2   2
#     4  11  24  43  63  94 131 167 218 274 311 396
#     4  11  23  41  65  93 132 165 222 267 315 395
#     4  11  22  43  63  93 130 167 214 272 317 386
#     4  11  23  43  64 100 131 171 220 264 323 397
#     4  11  23  42  65  91 130 172 210 267 336 365
#     4  10  23  43  66  95 135 163 223 269 320 393
#     4  11  22  44  66  95 130 178 209 270 333 377
#
# _framework density 22.505329
#
# number of rings (size 3 to 8) (size 9 to 14) (size 15 to 20)
#    0.000    1.143    5.714    0.857    2.000    3.429 
#    2.571    1.429    0.000    0.000    0.000    0.000 
#    0.000    0.000    0.000    0.000    0.000    0.000 
#
# Total GULP energy -173618.809419 kJ/mol
# GULP energy per Si atom -12401.343530 kJ/mol
# Density = 2.245411 g / cm^3
# Si number density = 22.505329 Si / 1000 Ang^3
#
#
#
# Elastic Constant Matrix: (Units=GPa)
#
#
# Indices 1 2 3 4 5 6 
#
# 1 74.2782 37.8405 34.6175 -8.2559 26.4728 -5.8265
# 2 37.8405 107.3694 48.3939 17.8118 28.7468 2.1062
# 3 34.6175 48.3939 108.1046 11.7808 26.4844 -20.7151
# 4 -8.2559 17.8118 11.7808 31.8883 -3.7962 8.9924
# 5 26.4728 28.7468 26.4844 -3.7962 41.5914 3.0890
# 6 -5.8265 2.1062 -20.7151 8.9924 3.0890 31.4661
#
#
#
# Elastic Compliance Matrix: (Units=1/GPa)
#
#
# Indices 1 2 3 4 5 6 
#
# 1 0.021461 -0.005682 -0.003835 0.009452 -0.006410 -0.000242
# 2 -0.005682 0.015976 -0.002679 -0.010093 -0.006615 -0.000351
# 3 -0.003835 -0.002679 0.018421 -0.011961 -0.009715 0.015969
# 4 0.009452 -0.010093 -0.011961 0.051759 0.014913 -0.021705
# 5 -0.006410 -0.006615 -0.009715 0.014913 0.041391 -0.015465
# 6 -0.000242 -0.000351 0.015969 -0.021705 -0.015465 0.049992
#
#
# Mechanical properties :
#
#
# Convention : Reuss Voigt Hill
#
# Bulk Modulus (GPa) = 31.78036 59.05066 45.41551
# Shear Modulus (GPa) = 21.37828 32.24917 26.81372
#
# Velocity S-wave (km/s) = 3.08542 3.78955 3.45547
# Velocity P-wave (km/s) = 5.18122 6.74115 6.01199
#
# Compressibility (1/GPa) = 0.03146598
#
# Stress axis : x y z
#
# Youngs Moduli (GPa) = 46.59632 62.59347 54.28543
#
# Poissons Ratio (x) = 0.35567 0.20817
# Poissons Ratio (y) = 0.26477 0.14544
# Poissons Ratio (z) = 0.17868 0.16770
#
# Static dielectric constant tensor:
#      x y z
#    x 4.147710 -0.081230 0.228690 
#    y -0.081230 3.981350 -0.007710 
#    z 0.228690 -0.007710 4.028470 
# 
# 
# High freq. dielectric constant tensor:
#      x y z
#    x 1.890600 -0.004240 0.009840 
#    y -0.004240 1.878490 0.008550 
#    z 0.009840 0.008550 1.887460 
# 
# From -- ./inp_files/314939.got.cif
#   From: 2010.06.25/outbox.cif.g09.slc.cpg/sg2_158_cif.got.tgz:314939.got - 2010.06.27 13:26:56.
