data_PCOD8024620
_publ_section_title
;
Structure prediction by ZEFSAII (Michael W. Deem and Ramdas Pophale) SiO2 
 PCOD8024620
Probable space group: P -1
;
_chemical_formula_sum "Si O2"
_cell_formula_units_Z 16
_cell_length_a 11.971682
_cell_length_b 11.704682
_cell_length_c 14.853590
_cell_angle_alpha 54.515796
_cell_angle_beta 148.248537
_cell_angle_gamma 102.886404
_cell_volume 691.551875
_symmetry_space_group_name_H-M "P -1"
_symmetry_group_IT_number 2
_symmetry_cell_setting 'triclinic'
loop_
_space_group_symop_operation_xyz
x,y,z
-x,-y,-z
loop_
_atom_site_type_symbol
_atom_site_label
_atom_site_fract_x
_atom_site_fract_y
_atom_site_fract_z
Si Si1 0.200383 0.867789 0.865353
Si Si2 0.460337 0.370403 0.950514
Si Si3 0.072781 0.734639 0.096767
Si Si4 0.442859 0.145204 0.743634
Si Si5 0.354304 0.174295 0.103013
Si Si6 0.778656 0.864714 0.657069
Si Si7 0.397063 0.334061 0.463817
Si Si8 0.065357 0.750425 0.554627
O O1 0.052387 0.780504 0.822837
O O2 0.457347 0.750119 0.026697
O O3 0.313440 0.872638 0.035184
O O4 0.968069 0.075236 0.579468
O O5 0.215692 0.583330 0.662209
O O6 0.365418 0.319984 0.995477
O O7 0.740286 0.333769 0.185929
O O8 0.243639 0.544216 0.246628
O O9 0.275023 0.775978 0.248520
O O10 0.944785 0.727714 0.104353
O O11 0.839808 0.876129 0.799041
O O12 0.286733 0.311430 0.490968
O O13 0.235468 0.178616 0.661821
O O14 0.580944 0.961345 0.869198
O O15 0.559136 0.068879 0.376101
O O16 0.670065 0.749456 0.623555
#
# Coordination Sequence:
#
# PCOD8024620 Si02
#       8
#     2   2   2   2   2   2   2   2
#     4  12  23  44  66  97 138 174 223 274 335 398
#     4  11  23  41  68  97 132 178 219 276 333 403
#     4  11  23  45  67  99 132 171 229 275 337 397
#     4  11  23  42  66  93 136 176 219 280 333 395
#     4  11  23  41  67  94 131 176 220 277 334 397
#     4  11  23  43  69  95 132 178 219 278 336 397
#     4  10  23  43  69  96 131 177 219 285 333 391
#     4  11  23  41  65  98 132 176 225 270 336 395
#
# _framework density 23.136368999999998
#
# number of rings (size 3 to 8) (size 9 to 14) (size 15 to 20)
#    0.000    1.000    3.750    3.750    0.000    3.500 
#    4.500    0.000    0.000    0.000    0.000    0.000 
#    0.000    0.000    0.000    0.000    0.000    0.000 
#
# Total GULP energy -198314.680720 kJ/mol
# GULP energy per Si atom -12394.667545 kJ/mol
# Density = 2.308371 g / cm^3
# Si number density = 23.136369 Si / 1000 Ang^3
#
#
#
# Elastic Constant Matrix: (Units=GPa)
#
#
# Indices 1 2 3 4 5 6 
#
# 1 88.8723 36.0118 20.1898 2.1095 18.3882 -0.8961
# 2 36.0118 106.3546 51.2215 1.0804 9.0735 3.7601
# 3 20.1898 51.2215 65.4464 13.0447 11.5325 -17.0451
# 4 2.1095 1.0804 13.0447 46.3759 3.4627 8.8847
# 5 18.3882 9.0735 11.5325 3.4627 28.8801 5.5970
# 6 -0.8961 3.7601 -17.0451 8.8847 5.5970 29.4704
#
#
#
# Elastic Compliance Matrix: (Units=1/GPa)
#
#
# Indices 1 2 3 4 5 6 
#
# 1 0.015187 -0.006638 0.004511 -0.002290 -0.010386 0.006580
# 2 -0.006638 0.025509 -0.029145 0.012054 0.011468 -0.026126
# 3 0.004511 -0.029145 0.058435 -0.023631 -0.023769 0.049292
# 4 -0.002290 0.012054 -0.023631 0.032517 0.008377 -0.026670
# 5 -0.010386 0.011468 -0.023769 0.008377 0.051517 -0.027836
# 6 0.006580 -0.026126 0.049292 -0.026670 -0.027836 0.079302
#
#
# Mechanical properties :
#
#
# Convention : Reuss Voigt Hill
#
# Bulk Modulus (GPa) = 27.33255 52.83550 40.08403
# Shear Modulus (GPa) = 14.82765 31.16197 22.99481
#
# Velocity S-wave (km/s) = 2.53431 3.67397 3.15601
# Velocity P-wave (km/s) = 4.51696 6.39402 5.53563
#
# Compressibility (1/GPa) = 0.03658641
#
# Stress axis : x y z
#
# Youngs Moduli (GPa) = 65.84689 39.20113 17.11307
#
# Poissons Ratio (x) = 0.26021 -0.07719
# Poissons Ratio (y) = 0.43708 0.49876
# Poissons Ratio (z) = -0.29700 1.14251
#
# Static dielectric constant tensor:
#      x y z
#    x 4.079420 0.209890 0.064340 
#    y 0.209890 4.127350 0.035790 
#    z 0.064340 0.035790 4.092360 
# 
# 
# High freq. dielectric constant tensor:
#      x y z
#    x 1.909090 0.012530 0.008260 
#    y 0.012530 1.907360 0.008630 
#    z 0.008260 0.008630 1.912300 
# 
# From -- ./inp_files/462089.got.cif
#   From: 2010.06.25/outbox.cif.g09.slc.cpg/sg2_232_cif.got.tgz:462089.got - 2010.06.27 13:26:56.
