data_PCOD8024056
_publ_section_title
;
Structure prediction by ZEFSAII (Michael W. Deem and Ramdas Pophale) SiO2 
 PCOD8024056
Probable space group: P -1
;
_chemical_formula_sum "Si O2"
_cell_formula_units_Z 14
_cell_length_a 8.031865
_cell_length_b 18.777048
_cell_length_c 12.007147
_cell_angle_alpha 144.330117
_cell_angle_beta 43.781243
_cell_angle_gamma 111.458860
_cell_volume 611.605905
_symmetry_space_group_name_H-M "P -1"
_symmetry_group_IT_number 2
_symmetry_cell_setting 'triclinic'
loop_
_space_group_symop_operation_xyz
x,y,z
-x,-y,-z
loop_
_atom_site_type_symbol
_atom_site_label
_atom_site_fract_x
_atom_site_fract_y
_atom_site_fract_z
Si Si1 0.163127 0.103445 0.303722
Si Si2 0.568598 0.626809 0.429952
Si Si3 0.024787 0.306313 0.808926
Si Si4 0.090777 0.254814 0.149437
Si Si5 0.896843 0.647210 0.491283
Si Si6 0.830595 0.032183 0.236481
Si Si7 0.256022 0.318917 0.922922
O O1 0.050813 0.165686 0.561456
O O2 0.035041 0.243754 0.462377
O O3 0.045371 0.004466 0.199123
O O4 0.500000 0.000000 0.000000
O O5 0.702724 0.690962 0.365111
O O6 0.238493 0.695307 0.645897
O O7 0.630213 0.654422 0.563855
O O8 0.725563 0.454147 0.110966
O O9 0.056183 0.285871 0.901041
O O10 0.164208 0.311017 0.296182
O O11 0.197369 0.310164 0.068951
O O12 0.275822 0.077755 0.838288
O O13 0.176100 0.481381 0.138622
O O14 0.579676 0.201016 0.581757
O O15 0.000000 0.000000 0.000000
#
# Coordination Sequence:
#
# PCOD8024056 Si02
#       7
#     2   2   2   2   2   2   2
#     4  11  22  40  68  97 124 168 226 273 323 377
#     4   9  20  41  65  95 126 170 221 267 320 371
#     4   9  20  39  63  93 129 164 218 276 311 382
#     4  12  24  43  68  95 138 177 210 269 328 395
#     4  10  23  42  69  98 130 172 220 270 318 394
#     4  12  24  42  66  94 128 174 217 271 323 380
#     4  11  25  43  63 101 133 168 219 264 332 397
#
# _framework density 22.890559
#
# number of rings (size 3 to 8) (size 9 to 14) (size 15 to 20)
#    0.000    1.429    1.429    5.143    2.000    2.857 
#    2.571    0.714    0.000    0.000    0.000    0.000 
#    0.000    0.000    0.000    0.000    0.000    0.000 
#
# Total GULP energy -173510.465423 kJ/mol
# GULP energy per Si atom -12393.604673 kJ/mol
# Density = 2.283846 g / cm^3
# Si number density = 22.890559 Si / 1000 Ang^3
#
#
#
# Elastic Constant Matrix: (Units=GPa)
#
#
# Indices 1 2 3 4 5 6 
#
# 1 113.3226 9.1970 39.4690 6.5473 34.9163 -14.2644
# 2 9.1970 55.6126 22.2952 7.1904 2.8274 -16.1209
# 3 39.4690 22.2952 109.4744 17.3333 15.7119 -4.6172
# 4 6.5473 7.1904 17.3333 27.6638 -3.4637 5.5045
# 5 34.9163 2.8274 15.7119 -3.4637 49.2967 -3.9219
# 6 -14.2644 -16.1209 -4.6172 5.5045 -3.9219 30.6631
#
#
#
# Elastic Compliance Matrix: (Units=1/GPa)
#
#
# Indices 1 2 3 4 5 6 
#
# 1 0.013358 0.001812 -0.003082 -0.004012 -0.008359 0.006354
# 2 0.001812 0.024304 -0.003708 -0.007373 -0.000878 0.014273
# 3 -0.003082 -0.003708 0.012216 -0.006068 -0.001981 -0.000707
# 4 -0.004012 -0.007373 -0.006068 0.046537 0.007349 -0.014071
# 5 -0.008359 -0.000878 -0.001981 0.007349 0.027206 -0.002488
# 6 0.006354 0.014273 -0.000707 -0.014071 -0.002488 0.045174
#
#
# Mechanical properties :
#
#
# Convention : Reuss Voigt Hill
#
# Bulk Modulus (GPa) = 25.04833 46.70356 35.87594
# Shear Modulus (GPa) = 26.03400 35.35460 30.69430
#
# Velocity S-wave (km/s) = 3.37608 3.93428 3.66582
# Velocity P-wave (km/s) = 5.11504 6.40979 5.79867
#
# Compressibility (1/GPa) = 0.03992282
#
# Stress axis : x y z
#
# Youngs Moduli (GPa) = 74.86179 41.14595 81.85991
#
# Poissons Ratio (x) = -0.07456 0.25229
# Poissons Ratio (y) = -0.13566 0.30350
# Poissons Ratio (z) = 0.23073 0.15255
#
# Static dielectric constant tensor:
#      x y z
#    x 4.453960 -0.260160 0.381270 
#    y -0.260160 3.831020 0.387290 
#    z 0.381270 0.387290 4.351520 
# 
# 
# High freq. dielectric constant tensor:
#      x y z
#    x 1.915880 -0.021410 0.020990 
#    y -0.021410 1.863480 0.026840 
#    z 0.020990 0.026840 1.913960 
# 
# From -- ./inp_files/298578.got.cif
#   From: 2010.06.25/outbox.cif.g09.slc.cpg/sg2_150_cif.got.tgz:298578.got - 2010.06.27 13:26:56.
