data_PCOD8024869
_publ_section_title
;
Structure prediction by ZEFSAII (Michael W. Deem and Ramdas Pophale) SiO2 
 PCOD8024869
Probable space group: P -1
;
_chemical_formula_sum "Si O2"
_cell_formula_units_Z 12
_cell_length_a 12.451228
_cell_length_b 5.016608
_cell_length_c 15.230185
_cell_angle_alpha 59.304530
_cell_angle_beta 140.770356
_cell_angle_gamma 117.292930
_cell_volume 513.853585
_symmetry_space_group_name_H-M "P -1"
_symmetry_group_IT_number 2
_symmetry_cell_setting 'triclinic'
loop_
_space_group_symop_operation_xyz
x,y,z
-x,-y,-z
loop_
_atom_site_type_symbol
_atom_site_label
_atom_site_fract_x
_atom_site_fract_y
_atom_site_fract_z
Si Si1 0.090299 0.595533 0.677431
Si Si2 0.173015 0.235065 0.139152
Si Si3 0.221819 0.294246 0.648901
Si Si4 0.444536 0.803014 0.221069
Si Si5 0.444063 0.837091 0.401952
Si Si6 0.142799 0.127539 0.941969
O O1 0.219212 0.509436 0.697082
O O2 0.089992 0.358745 0.796438
O O3 0.896584 0.576696 0.522499
O O4 0.152051 0.942251 0.691620
O O5 0.313974 0.502745 0.220683
O O6 0.245418 0.895399 0.254523
O O7 0.140106 0.298740 0.005145
O O8 0.992741 0.192355 0.085604
O O9 0.414091 0.310401 0.733630
O O10 0.525373 0.961372 0.336810
O O11 0.333146 0.035016 0.058827
O O12 0.500000 0.500000 0.500000
O O13 0.500000 0.000000 0.500000
#
# Coordination Sequence:
#
# PCOD8024869 Si02
#       6
#     2   2   2   2   2   2
#     4  10  24  48  68  99 131 184 222 287 339 394
#     4  10  23  44  64 105 139 180 225 277 340 415
#     4  10  25  46  71  98 135 171 240 279 334 400
#     4  11  24  43  70 100 142 175 229 285 331 409
#     4  11  23  41  64 101 133 178 223 273 342 396
#     4  10  24  42  69  98 142 183 223 278 343 404
#
# _framework density 23.352957
#
# number of rings (size 3 to 8) (size 9 to 14) (size 15 to 20)
#    0.000    1.667    1.667    0.500    9.333    1.333 
#    6.000    0.000    0.000    0.000    0.000    0.000 
#    0.000    0.000    0.000    0.000    0.000    0.000 
#
# Total GULP energy -148676.398467 kJ/mol
# GULP energy per Si atom -12389.699872 kJ/mol
# Density = 2.329981 g / cm^3
# Si number density = 23.352957 Si / 1000 Ang^3
#
#
#
# Elastic Constant Matrix: (Units=GPa)
#
#
# Indices 1 2 3 4 5 6 
#
# 1 116.3079 16.4578 65.8430 -8.0094 15.1060 -1.7418
# 2 16.4578 57.8125 38.6603 -10.8575 -13.6579 -8.8154
# 3 65.8430 38.6603 133.4856 -22.9447 -12.8077 13.3099
# 4 -8.0094 -10.8575 -22.9447 32.4119 2.2008 -3.6597
# 5 15.1060 -13.6579 -12.8077 2.2008 38.3345 -3.1918
# 6 -1.7418 -8.8154 13.3099 -3.6597 -3.1918 32.4793
#
#
#
# Elastic Compliance Matrix: (Units=1/GPa)
#
#
# Indices 1 2 3 4 5 6 
#
# 1 0.014395 -0.000222 -0.008407 -0.001553 -0.008207 0.003175
# 2 -0.000222 0.026640 -0.007217 0.004520 0.007862 0.011458
# 3 -0.008407 -0.007217 0.015955 0.005570 0.005101 -0.007819
# 4 -0.001553 0.004520 0.005570 0.036129 0.002272 0.003155
# 5 -0.008207 0.007862 0.005101 0.002272 0.033962 0.003197
# 6 0.003175 0.011458 -0.007819 0.003155 0.003197 0.037943
#
#
# Mechanical properties :
#
#
# Convention : Reuss Voigt Hill
#
# Bulk Modulus (GPa) = 39.52956 61.05869 50.29413
# Shear Modulus (GPa) = 24.37244 33.08813 28.73029
#
# Velocity S-wave (km/s) = 3.23407 3.76822 3.51132
# Velocity P-wave (km/s) = 5.55962 6.71829 6.16623
#
# Compressibility (1/GPa) = 0.02529752
#
# Stress axis : x y z
#
# Youngs Moduli (GPa) = 69.46719 37.53712 62.67528
#
# Poissons Ratio (x) = 0.00834 0.52693
# Poissons Ratio (y) = 0.01544 0.45234
# Poissons Ratio (z) = 0.58403 0.27091
#
# Static dielectric constant tensor:
#      x y z
#    x 4.190000 -0.348870 0.133140 
#    y -0.348870 3.929440 -0.170980 
#    z 0.133140 -0.170980 4.598750 
# 
# 
# High freq. dielectric constant tensor:
#      x y z
#    x 1.917540 -0.029870 0.008310 
#    y -0.029870 1.908700 -0.014110 
#    z 0.008310 -0.014110 1.944500 
# 
# From -- ./inp_files/510220.got.cif
#   From: 2010.06.25/outbox.cif.g09.slc.cpg/sg2_256_cif.got.tgz:510220.got - 2010.06.27 13:26:56.
