data_PCOD8024407
_publ_section_title
;
Structure prediction by ZEFSAII (Michael W. Deem and Ramdas Pophale) SiO2 
 PCOD8024407
Probable space group: P -1
;
_chemical_formula_sum "Si O2"
_cell_formula_units_Z 14
_cell_length_a 10.197505
_cell_length_b 26.139567
_cell_length_c 9.572950
_cell_angle_alpha 143.091734
_cell_angle_beta 44.988483
_cell_angle_gamma 155.998220
_cell_volume 620.513385
_symmetry_space_group_name_H-M "P -1"
_symmetry_group_IT_number 2
_symmetry_cell_setting 'triclinic'
loop_
_space_group_symop_operation_xyz
x,y,z
-x,-y,-z
loop_
_atom_site_type_symbol
_atom_site_label
_atom_site_fract_x
_atom_site_fract_y
_atom_site_fract_z
Si Si1 0.840877 0.361757 0.898677
Si Si2 0.236668 0.359752 0.491011
Si Si3 0.996865 0.364033 0.074228
Si Si4 0.333516 0.328310 0.634947
Si Si5 0.297663 0.170544 0.686374
Si Si6 0.441881 0.187963 0.323510
Si Si7 0.833022 0.093053 0.017435
O O1 0.486465 0.212576 0.775486
O O2 0.075926 0.372827 0.726312
O O3 0.000000 0.500000 0.000000
O O4 0.827778 0.360193 0.073929
O O5 0.500000 0.500000 0.500000
O O6 0.400727 0.364285 0.497120
O O7 0.952692 0.202946 0.283593
O O8 0.338700 0.533765 0.225129
O O9 0.766492 0.283683 0.207034
O O10 0.052609 0.285662 0.814486
O O11 0.242118 0.193633 0.424965
O O12 0.537025 0.255134 0.557227
O O13 0.000000 0.000000 0.500000
O O14 0.125030 0.196956 0.908362
O O15 0.212271 0.018265 0.125804
O O16 0.500000 0.000000 0.000000
#
# Coordination Sequence:
#
# PCOD8024407 Si02
#       7
#     2   2   2   2   2   2   2
#     4  11  23  43  70 101 136 181 238 283 345 418
#     4  11  25  42  70 103 138 185 235 291 342 425
#     4  10  24  43  69 105 140 187 228 297 346 413
#     4  10  24  43  67 105 143 178 240 282 359 407
#     4  10  23  43  66  98 133 181 228 279 342 421
#     4  11  24  43  73  97 142 184 230 290 351 413
#     4  11  26  45  71 102 139 186 234 289 358 415
#
# _framework density 22.561964
#
# number of rings (size 3 to 8) (size 9 to 14) (size 15 to 20)
#    0.000    1.429    0.000    3.857   10.000    1.714 
#    2.571    1.429    0.000    0.000    0.000    0.000 
#    0.000    0.000    0.000    0.000    0.000    0.000 
#
# Total GULP energy -173443.258999 kJ/mol
# GULP energy per Si atom -12388.804214 kJ/mol
# Density = 2.251061 g / cm^3
# Si number density = 22.561964 Si / 1000 Ang^3
#
#
#
# Elastic Constant Matrix: (Units=GPa)
#
#
# Indices 1 2 3 4 5 6 
#
# 1 160.9299 53.1153 56.6093 7.4757 15.6146 0.1794
# 2 53.1153 96.3479 41.1038 -17.3992 5.8234 0.3321
# 3 56.6093 41.1038 85.8203 -2.8889 -0.9880 -10.3999
# 4 7.4757 -17.3992 -2.8889 52.1953 -0.3183 0.4733
# 5 15.6146 5.8234 -0.9880 -0.3183 51.6780 7.3254
# 6 0.1794 0.3321 -10.3999 0.4733 7.3254 33.5093
#
#
#
# Elastic Compliance Matrix: (Units=1/GPa)
#
#
# Indices 1 2 3 4 5 6 
#
# 1 0.009414 -0.003512 -0.004761 -0.002789 -0.002426 -0.000924
# 2 -0.003512 0.015525 -0.005148 0.005406 -0.000513 -0.001697
# 3 -0.004761 -0.005148 0.017915 -0.000081 0.001612 0.005285
# 4 -0.002789 0.005406 -0.000081 0.021363 0.000429 -0.000459
# 5 -0.002426 -0.000513 0.001612 0.000429 0.020745 -0.004023
# 6 -0.000924 -0.001697 0.005285 -0.000459 -0.004023 0.032390
#
#
# Mechanical properties :
#
#
# Convention : Reuss Voigt Hill
#
# Bulk Modulus (GPa) = 62.46141 71.63943 67.05042
# Shear Modulus (GPa) = 33.43760 40.29450 36.86605
#
# Velocity S-wave (km/s) = 3.85390 4.23063 4.04665
# Velocity P-wave (km/s) = 6.89549 7.46228 7.18448
#
# Compressibility (1/GPa) = 0.01600989
#
# Stress axis : x y z
#
# Youngs Moduli (GPa) = 106.22536 64.41297 55.81935
#
# Poissons Ratio (x) = 0.22625 0.26576
# Poissons Ratio (y) = 0.37311 0.28738
# Poissons Ratio (z) = 0.50575 0.33162
#
# Static dielectric constant tensor:
#      x y z
#    x 4.599050 -1.602720 1.586320 
#    y -1.602720 9.294640 -5.833870 
#    z 1.586320 -5.833870 10.240830 
# 
# 
# High freq. dielectric constant tensor:
#      x y z
#    x 1.893950 0.000320 -0.000500 
#    y 0.000320 1.876700 -0.017580 
#    z -0.000500 -0.017580 1.907740 
# 
# From -- ./inp_files/226612.got.cif
#   From: 2010.06.25/outbox.cif.g09.slc.cpg/sg2_114_cif.got.tgz:226612.got - 2010.06.27 13:26:56.
