data_PCOD8024384
_publ_section_title
;
Structure prediction by ZEFSAII (Michael W. Deem and Ramdas Pophale) SiO2 
 PCOD8024384
Probable space group: P -1
;
_chemical_formula_sum "Si O2"
_cell_formula_units_Z 16
_cell_length_a 11.208486
_cell_length_b 18.901242
_cell_length_c 9.209524
_cell_angle_alpha 136.776229
_cell_angle_beta 37.714524
_cell_angle_gamma 136.915922
_cell_volume 760.226214
_symmetry_space_group_name_H-M "P -1"
_symmetry_group_IT_number 2
_symmetry_cell_setting 'triclinic'
loop_
_space_group_symop_operation_xyz
x,y,z
-x,-y,-z
loop_
_atom_site_type_symbol
_atom_site_label
_atom_site_fract_x
_atom_site_fract_y
_atom_site_fract_z
Si Si1 0.430391 0.312885 0.095569
Si Si2 0.340184 0.822718 0.832846
Si Si3 0.247103 0.703090 0.446491
Si Si4 0.781897 0.340096 0.030995
Si Si5 0.227531 0.034196 0.271531
Si Si6 0.105638 0.423658 0.597701
Si Si7 0.122866 0.092372 0.170419
Si Si8 0.258344 0.925987 0.631792
O O1 0.579561 0.329061 0.114813
O O2 0.321093 0.402986 0.341906
O O3 0.252632 0.190215 0.082430
O O4 0.560007 0.329767 0.845354
O O5 0.267627 0.729521 0.637323
O O6 0.262931 0.765979 0.978910
O O7 0.592180 0.887019 0.678629
O O8 0.251829 0.919267 0.032453
O O9 0.248555 0.807044 0.507748
O O10 0.027175 0.606334 0.470147
O O11 0.838693 0.446735 0.238374
O O12 0.974719 0.352642 0.755260
O O13 0.234398 0.114931 0.251419
O O14 0.000000 0.000000 0.500000
O O15 0.878292 0.084077 0.400358
O O16 0.132750 0.974681 0.936085
O O17 0.500000 0.000000 0.500000
#
# Coordination Sequence:
#
# PCOD8024384 Si02
#       8
#     2   2   2   2   2   2   2   2
#     4  11  21  39  65  92 119 156 213 262 303 361
#     4  11  25  42  61  90 134 165 204 249 316 370
#     4  11  23  38  60  92 127 162 199 261 311 365
#     4  10  23  43  67  89 119 166 204 264 313 366
#     4  11  26  39  59  91 130 170 205 246 303 379
#     4  10  23  43  66  92 118 155 219 263 309 361
#     4  11  22  36  60  89 117 163 208 243 299 360
#     4  11  22  35  58  87 123 156 200 250 298 358
#
# _framework density 21.046367
#
# number of rings (size 3 to 8) (size 9 to 14) (size 15 to 20)
#    0.000    1.250    5.000    0.375    3.500    1.500 
#    0.000    0.625    0.000    0.000    0.000    0.000 
#    0.000    0.000    0.000    0.000    0.000    0.000 
#
# Total GULP energy -198318.249336 kJ/mol
# GULP energy per Si atom -12394.890584 kJ/mol
# Density = 2.099846 g / cm^3
# Si number density = 21.046367 Si / 1000 Ang^3
#
#
#
# Elastic Constant Matrix: (Units=GPa)
#
#
# Indices 1 2 3 4 5 6 
#
# 1 108.3976 17.4597 38.2589 -11.8004 -4.1145 22.2110
# 2 17.4597 56.7549 2.7323 -1.3947 -0.5351 15.3825
# 3 38.2589 2.7323 80.6943 -5.6233 -6.9200 13.3396
# 4 -11.8004 -1.3947 -5.6233 28.2846 11.8052 4.1393
# 5 -4.1145 -0.5351 -6.9200 11.8052 40.0991 0.0496
# 6 22.2110 15.3825 13.3396 4.1393 0.0496 35.2730
#
#
#
# Elastic Compliance Matrix: (Units=1/GPa)
#
#
# Indices 1 2 3 4 5 6 
#
# 1 0.013115 -0.001974 -0.004814 0.005844 -0.001224 -0.006261
# 2 -0.001974 0.020515 0.001778 0.001867 -0.000161 -0.008595
# 3 -0.004814 0.001778 0.015453 0.000882 0.001942 -0.003695
# 4 0.005844 0.001867 0.000882 0.044695 -0.012369 -0.010055
# 5 -0.001224 -0.000161 0.001942 -0.012369 0.028785 0.001518
# 6 -0.006261 -0.008595 -0.003695 -0.010055 0.001518 0.038616
#
#
# Mechanical properties :
#
#
# Convention : Reuss Voigt Hill
#
# Bulk Modulus (GPa) = 25.59854 40.30541 32.95198
# Shear Modulus (GPa) = 27.14146 33.22439 30.18293
#
# Velocity S-wave (km/s) = 3.59500 3.97751 3.79108
# Velocity P-wave (km/s) = 5.42415 6.34716 5.90372
#
# Compressibility (1/GPa) = 0.03906472
#
# Stress axis : x y z
#
# Youngs Moduli (GPa) = 76.24859 48.74451 64.71095
#
# Poissons Ratio (x) = 0.09621 0.31151
# Poissons Ratio (y) = 0.15050 -0.11508
# Poissons Ratio (z) = 0.36705 -0.08668
#
# Static dielectric constant tensor:
#      x y z
#    x 3.765630 0.137130 -0.109120 
#    y 0.137130 5.253970 -0.045220 
#    z -0.109120 -0.045220 3.844560 
# 
# 
# High freq. dielectric constant tensor:
#      x y z
#    x 1.829820 0.022610 -0.010260 
#    y 0.022610 1.815880 0.010510 
#    z -0.010260 0.010510 1.820150 
# 
# From -- ./inp_files/81019.got.cif
#   From: 2010.06.25/outbox.cif.g09.slc.cpg/sg2_41_cif.got.tgz:81019.got - 2010.06.27 13:26:56.
