data_PCOD8024645
_publ_section_title
;
Structure prediction by ZEFSAII (Michael W. Deem and Ramdas Pophale) SiO2 
 PCOD8024645
Probable space group: P -1
;
_chemical_formula_sum "Si O2"
_cell_formula_units_Z 16
_cell_length_a 8.610473
_cell_length_b 19.934757
_cell_length_c 10.956416
_cell_angle_alpha 141.174048
_cell_angle_beta 141.375267
_cell_angle_gamma 43.345956
_cell_volume 701.401235
_symmetry_space_group_name_H-M "P -1"
_symmetry_group_IT_number 2
_symmetry_cell_setting 'triclinic'
loop_
_space_group_symop_operation_xyz
x,y,z
-x,-y,-z
loop_
_atom_site_type_symbol
_atom_site_label
_atom_site_fract_x
_atom_site_fract_y
_atom_site_fract_z
Si Si1 0.092850 0.535559 0.386935
Si Si2 0.727901 0.855681 0.173956
Si Si3 0.163849 0.641481 0.076961
Si Si4 0.237140 0.828732 0.712976
Si Si5 0.342076 0.578738 0.363615
Si Si6 0.622287 0.063888 0.265426
Si Si7 0.615927 0.737687 0.426686
Si Si8 0.676500 0.874594 0.443642
O O1 0.168385 0.532274 0.285122
O O2 0.361655 0.503851 0.583832
O O3 0.914188 0.657511 0.494886
O O4 0.930526 0.447510 0.186531
O O5 0.739373 0.820446 0.271999
O O6 0.937949 0.759236 0.094023
O O7 0.775280 0.975038 0.336980
O O8 0.432506 0.874791 0.975680
O O9 0.206160 0.592677 0.169836
O O10 0.426575 0.660232 0.212895
O O11 0.360729 0.695647 0.593683
O O12 0.190432 0.880850 0.619042
O O13 0.958058 0.867995 0.665415
O O14 0.413531 0.170266 0.353625
O O15 0.500000 0.000000 0.000000
O O16 0.544441 0.802408 0.344921
O O17 0.500000 0.000000 0.500000
#
# Coordination Sequence:
#
# PCOD8024645 Si02
#       8
#     2   2   2   2   2   2   2   2
#     4  11  25  44  68  99 139 178 228 285 337 399
#     4  11  23  43  71  97 135 180 227 272 341 411
#     4  12  24  42  71  98 137 180 230 275 339 410
#     4  11  22  45  69  98 133 181 226 273 342 409
#     4  11  22  44  72  97 133 183 228 276 341 405
#     4  10  23  43  70 101 133 179 227 277 339 413
#     4  12  24  44  67 104 141 177 228 284 340 403
#     4  12  25  42  66 102 140 176 222 284 339 397
#
# _framework density 22.81148
#
# number of rings (size 3 to 8) (size 9 to 14) (size 15 to 20)
#    0.000    0.750    6.250    0.750    1.750    2.000 
#    0.000    2.500    0.000    0.000    0.000    0.000 
#    0.000    0.000    0.000    0.000    0.000    0.000 
#
# Total GULP energy -198387.933767 kJ/mol
# GULP energy per Si atom -12399.245860 kJ/mol
# Density = 2.275956 g / cm^3
# Si number density = 22.811480 Si / 1000 Ang^3
#
#
#
# Elastic Constant Matrix: (Units=GPa)
#
#
# Indices 1 2 3 4 5 6 
#
# 1 100.5192 36.7625 32.3917 1.0464 10.3296 3.8238
# 2 36.7625 136.1965 26.0105 11.1089 9.3127 -13.7341
# 3 32.3917 26.0105 55.8357 8.1609 8.0148 -4.8310
# 4 1.0464 11.1089 8.1609 35.5342 -2.8845 -0.8611
# 5 10.3296 9.3127 8.0148 -2.8845 25.5945 4.4878
# 6 3.8238 -13.7341 -4.8310 -0.8611 4.4878 43.0188
#
#
#
# Elastic Compliance Matrix: (Units=1/GPa)
#
#
# Indices 1 2 3 4 5 6 
#
# 1 0.013328 -0.002595 -0.006765 0.001775 -0.001667 -0.002563
# 2 -0.002595 0.009065 -0.001715 -0.002494 -0.002547 0.003148
# 3 -0.006765 -0.001715 0.024469 -0.005249 -0.005472 0.003267
# 4 0.001775 -0.002494 -0.005249 0.030488 0.005536 -0.001511
# 5 -0.001667 -0.002547 -0.005472 0.005536 0.044018 -0.005761
# 6 -0.002563 0.003148 0.003267 -0.001511 -0.005761 0.025416
#
#
# Mechanical properties :
#
#
# Convention : Reuss Voigt Hill
#
# Bulk Modulus (GPa) = 40.46622 53.65344 47.05983
# Shear Modulus (GPa) = 28.22141 33.98860 31.10500
#
# Velocity S-wave (km/s) = 3.52114 3.86421 3.69666
# Velocity P-wave (km/s) = 5.85740 6.59401 6.23659
#
# Compressibility (1/GPa) = 0.02471197
#
# Stress axis : x y z
#
# Youngs Moduli (GPa) = 75.03233 110.31026 40.86871
#
# Poissons Ratio (x) = 0.28623 0.27647
# Poissons Ratio (y) = 0.19469 0.07010
# Poissons Ratio (z) = 0.50758 0.18920
#
# Static dielectric constant tensor:
#      x y z
#    x 4.351420 0.217100 0.169390 
#    y 0.217100 4.354490 0.089280 
#    z 0.169390 0.089280 3.795600 
# 
# 
# High freq. dielectric constant tensor:
#      x y z
#    x 1.904870 0.007700 0.017380 
#    y 0.007700 1.919780 0.003980 
#    z 0.017380 0.003980 1.877670 
# 
# From -- ./inp_files/283325.got.cif
#   From: 2010.06.25/outbox.cif.g09.slc.cpg/sg2_142_cif.got.tgz:283325.got - 2010.06.27 13:26:56.
