data_PCOD8024792
_publ_section_title
;
Structure prediction by ZEFSAII (Michael W. Deem and Ramdas Pophale) SiO2 
 PCOD8024792
Probable space group: P -1
;
_chemical_formula_sum "Si O2"
_cell_formula_units_Z 14
_cell_length_a 8.134812
_cell_length_b 18.736760
_cell_length_c 11.393210
_cell_angle_alpha 134.454455
_cell_angle_beta 65.857303
_cell_angle_gamma 146.764498
_cell_volume 606.074742
_symmetry_space_group_name_H-M "P -1"
_symmetry_group_IT_number 2
_symmetry_cell_setting 'triclinic'
loop_
_space_group_symop_operation_xyz
x,y,z
-x,-y,-z
loop_
_atom_site_type_symbol
_atom_site_label
_atom_site_fract_x
_atom_site_fract_y
_atom_site_fract_z
Si Si1 0.664332 0.300617 0.912576
Si Si2 0.403396 0.338685 0.196505
Si Si3 0.556238 0.039372 0.702887
Si Si4 0.790247 0.717605 0.556410
Si Si5 0.781157 0.446758 0.607430
Si Si6 0.376789 0.148188 0.584978
Si Si7 0.170160 0.828385 0.973849
O O1 0.767408 0.232980 0.821912
O O2 0.417007 0.211972 0.776007
O O3 0.548889 0.301109 0.066916
O O4 0.000000 0.500000 0.000000
O O5 0.695850 0.557231 0.384172
O O6 0.252522 0.252722 0.269534
O O7 0.126167 0.242776 0.073174
O O8 0.588677 0.954711 0.520551
O O9 0.701185 0.073977 0.826000
O O10 0.185032 0.911363 0.648863
O O11 0.571668 0.678029 0.482884
O O12 0.659480 0.317156 0.600583
O O13 0.000000 0.500000 0.500000
O O14 0.027670 0.648624 0.816147
O O15 0.000000 0.000000 0.500000
O O16 0.500000 0.000000 0.000000
#
# Coordination Sequence:
#
# PCOD8024792 Si02
#       7
#     2   2   2   2   2   2   2
#     4  12  27  44  68 101 140 186 235 287 354 428
#     4  10  23  44  68 102 142 183 227 290 350 418
#     4  12  25  44  72 102 139 184 240 294 348 421
#     4  10  23  43  73 104 139 180 239 288 349 412
#     4  11  26  44  74 103 143 189 236 294 355 419
#     4  12  27  49  71 102 146 190 238 290 361 431
#     4  11  22  41  66 107 140 178 229 295 357 412
#
# _framework density 23.099461000000002
#
# number of rings (size 3 to 8) (size 9 to 14) (size 15 to 20)
#    0.000    0.857    1.429    4.714    8.000    4.000 
#    0.000    5.000    0.000    0.000    0.000    0.000 
#    0.000    0.000    0.000    0.000    0.000    0.000 
#
# Total GULP energy -173450.476650 kJ/mol
# GULP energy per Si atom -12389.319761 kJ/mol
# Density = 2.304689 g / cm^3
# Si number density = 23.099461 Si / 1000 Ang^3
#
#
#
# Elastic Constant Matrix: (Units=GPa)
#
#
# Indices 1 2 3 4 5 6 
#
# 1 92.7178 27.7007 36.4634 3.7627 -11.9936 3.3549
# 2 27.7007 99.0241 43.4953 3.1682 -19.6781 -5.5848
# 3 36.4634 43.4953 116.5904 -7.3312 -0.9940 10.4691
# 4 3.7627 3.1682 -7.3312 45.1084 -2.1264 1.1422
# 5 -11.9936 -19.6781 -0.9940 -2.1264 52.9120 4.3743
# 6 3.3549 -5.5848 10.4691 1.1422 4.3743 27.9444
#
#
#
# Elastic Compliance Matrix: (Units=1/GPa)
#
#
# Indices 1 2 3 4 5 6 
#
# 1 0.013023 -0.001692 -0.003428 -0.001394 0.002278 -0.000917
# 2 -0.001692 0.013975 -0.005134 -0.001581 0.004297 0.004311
# 3 -0.003428 -0.005134 0.012162 0.002658 -0.001940 -0.004976
# 4 -0.001394 -0.001581 0.002658 0.022893 0.000241 -0.002118
# 5 0.002278 0.004297 -0.001940 0.000241 0.021153 -0.002009
# 6 -0.000917 0.004311 -0.004976 -0.002118 -0.002009 0.039022
#
#
# Mechanical properties :
#
#
# Convention : Reuss Voigt Hill
#
# Bulk Modulus (GPa) = 53.61308 58.18346 55.89827
# Shear Modulus (GPa) = 33.56750 38.57115 36.06932
#
# Velocity S-wave (km/s) = 3.81619 4.09073 3.95584
# Velocity P-wave (km/s) = 6.53282 6.89602 6.71687
#
# Compressibility (1/GPa) = 0.01865217
#
# Stress axis : x y z
#
# Youngs Moduli (GPa) = 76.78492 71.55779 82.22473
#
# Poissons Ratio (x) = 0.12107 0.28184
# Poissons Ratio (y) = 0.12992 0.42216
# Poissons Ratio (z) = 0.26320 0.36739
#
# Static dielectric constant tensor:
#      x y z
#    x 4.315420 0.302360 -0.912460 
#    y 0.302360 4.560250 -0.956840 
#    z -0.912460 -0.956840 6.772020 
# 
# 
# High freq. dielectric constant tensor:
#      x y z
#    x 1.917940 -0.004070 0.013820 
#    y -0.004070 1.911990 0.004930 
#    z 0.013820 0.004930 1.937330 
# 
# From -- ./inp_files/405567.got.cif
#   From: 2010.06.25/outbox.cif.g09.slc.cpg/sg2_203_cif.got.tgz:405567.got - 2010.06.27 13:26:56.
