data_PCOD8024070
_publ_section_title
;
Structure prediction by ZEFSAII (Michael W. Deem and Ramdas Pophale) SiO2 
 PCOD8024070
Probable space group: P -1
;
_chemical_formula_sum "Si O2"
_cell_formula_units_Z 16
_cell_length_a 8.408707
_cell_length_b 19.134822
_cell_length_c 5.438944
_cell_angle_alpha 91.552528
_cell_angle_beta 54.808107
_cell_angle_gamma 84.258003
_cell_volume 707.707911
_symmetry_space_group_name_H-M "P -1"
_symmetry_group_IT_number 2
_symmetry_cell_setting 'triclinic'
loop_
_space_group_symop_operation_xyz
x,y,z
-x,-y,-z
loop_
_atom_site_type_symbol
_atom_site_label
_atom_site_fract_x
_atom_site_fract_y
_atom_site_fract_z
Si Si1 0.047008 0.601981 0.706515
Si Si2 0.258192 0.041342 0.942668
Si Si3 0.280402 0.350497 0.646752
Si Si4 0.985027 0.283270 0.637232
Si Si5 0.386372 0.483561 0.349300
Si Si6 0.938619 0.162834 0.330127
Si Si7 0.713044 0.039180 0.590174
Si Si8 0.295337 0.709398 0.725197
O O1 0.987110 0.645009 0.519319
O O2 0.164010 0.524920 0.540400
O O3 0.201929 0.642856 0.709227
O O4 0.843465 0.598545 0.036556
O O5 0.480245 0.055223 0.771073
O O6 0.211525 0.995935 0.740816
O O7 0.121149 0.115717 0.031678
O O8 0.208863 0.006844 0.244337
O O9 0.353010 0.401270 0.375823
O O10 0.478746 0.302595 0.558035
O O11 0.149512 0.288343 0.698133
O O12 0.036977 0.209647 0.444873
O O13 0.759015 0.287834 0.935321
O O14 0.500000 0.500000 0.500000
O O15 0.500000 0.500000 0.000000
O O16 0.794219 0.112577 0.569022
O O17 0.809529 0.215571 0.268082
#
# Coordination Sequence:
#
# PCOD8024070 Si02
#       8
#     2   2   2   2   2   2   2   2
#     4  10  23  44  66  99 134 177 233 278 349 405
#     4  10  23  43  67 103 134 173 227 279 333 403
#     4  11  24  44  70  96 140 178 231 288 340 407
#     4  10  25  41  65  98 134 180 230 282 337 418
#     4  12  26  44  77 102 136 181 231 288 352 407
#     4  11  24  40  69  94 134 178 227 269 347 398
#     4  10  23  42  69  99 138 172 223 282 336 396
#     4  10  23  43  63  96 136 178 228 281 337 410
#
# _framework density 22.608194999999998
#
# number of rings (size 3 to 8) (size 9 to 14) (size 15 to 20)
#    0.000    1.500    1.250    1.875    7.000    6.500 
#    2.250    0.000    0.000    0.000    0.000    0.000 
#    0.000    0.000    0.000    0.000    0.000    0.000 
#
# Total GULP energy -198215.923675 kJ/mol
# GULP energy per Si atom -12388.495230 kJ/mol
# Density = 2.255674 g / cm^3
# Si number density = 22.608195 Si / 1000 Ang^3
#
#
#
# Elastic Constant Matrix: (Units=GPa)
#
#
# Indices 1 2 3 4 5 6 
#
# 1 71.6446 43.7869 66.8595 14.4403 -2.1354 10.0426
# 2 43.7869 107.2871 26.2589 3.4341 -13.6953 -23.1784
# 3 66.8595 26.2589 123.0087 -13.1200 -19.3184 -45.2445
# 4 14.4403 3.4341 -13.1200 20.6202 -11.1974 -24.5946
# 5 -2.1354 -13.6953 -19.3184 -11.1974 38.3376 -2.5530
# 6 10.0426 -23.1784 -45.2445 -24.5946 -2.5530 -1.4295
#
#
#
# Elastic Compliance Matrix: (Units=1/GPa)
#
#
# Indices 1 2 3 4 5 6 
#
# 1 0.012723 -0.002236 -0.000621 0.007445 0.002607 0.012544
# 2 -0.002236 0.010431 -0.002735 -0.005564 0.000383 -0.003236
# 3 -0.000621 -0.002735 0.005099 -0.006471 -0.000897 -0.008483
# 4 0.007445 -0.005564 -0.006471 0.021093 0.000259 -0.016047
# 5 0.002607 0.000383 -0.000897 0.000259 0.025372 -0.009272
# 6 0.012544 -0.003236 -0.008483 -0.016047 -0.009272 0.002206
#
#
# Mechanical properties :
#
#
# Convention : Reuss Voigt Hill
#
# Bulk Modulus (GPa) = 58.58552 63.97234 61.27893
# Shear Modulus (GPa) = 53.30695 22.50800 37.90748
#
# Velocity S-wave (km/s) = 4.86105 3.15869 4.09921
# Velocity P-wave (km/s) = 7.58130 6.45450 7.04048
#
# Compressibility (1/GPa) = 0.01706906
#
# Stress axis : x y z
#
# Youngs Moduli (GPa) = 78.59998 95.87213 196.10230
#
# Poissons Ratio (x) = 0.21439 0.12172
# Poissons Ratio (y) = 0.17576 0.53632
# Poissons Ratio (z) = 0.04879 0.26220
#
# Static dielectric constant tensor:
#      x y z
#    x 3.897480 0.234460 0.032800 
#    y 0.234460 3.663450 0.002530 
#    z 0.032800 0.002530 4.382020 
# 
# 
# High freq. dielectric constant tensor:
#      x y z
#    x 1.893780 -0.000060 -0.010460 
#    y -0.000060 1.890180 -0.001570 
#    z -0.010460 -0.001570 1.899580 
# 
# From -- ./inp_files/47698.got.cif
#   From: 2010.06.25/outbox.cif.g09.slc.cpg/sg2_24_cif.got.tgz:47698.got - 2010.06.27 13:26:56.
