data_PCOD8024685
_publ_section_title
;
Structure prediction by ZEFSAII (Michael W. Deem and Ramdas Pophale) SiO2 
 PCOD8024685
Probable space group: P -1
;
_chemical_formula_sum "Si O2"
_cell_formula_units_Z 16
_cell_length_a 9.159079
_cell_length_b 15.174739
_cell_length_c 15.711686
_cell_angle_alpha 36.704638
_cell_angle_beta 141.899121
_cell_angle_gamma 140.765076
_cell_volume 741.749390
_symmetry_space_group_name_H-M "P -1"
_symmetry_group_IT_number 2
_symmetry_cell_setting 'triclinic'
loop_
_space_group_symop_operation_xyz
x,y,z
-x,-y,-z
loop_
_atom_site_type_symbol
_atom_site_label
_atom_site_fract_x
_atom_site_fract_y
_atom_site_fract_z
Si Si1 0.373698 0.455507 0.884620
Si Si2 0.981923 0.417509 0.465934
Si Si3 0.844417 0.899933 0.428106
Si Si4 0.880030 0.902331 0.915024
Si Si5 0.431479 0.047881 0.121296
Si Si6 0.460541 0.456482 0.418189
Si Si7 0.699900 0.409870 0.921150
Si Si8 0.802325 0.060519 0.604352
O O1 0.220273 0.565771 0.706937
O O2 0.573418 0.483448 0.877721
O O3 0.500000 0.500000 0.000000
O O4 0.174543 0.273176 0.939311
O O5 0.923587 0.227556 0.584457
O O6 0.000000 0.500000 0.500000
O O7 0.260521 0.535074 0.476714
O O8 0.756386 0.718287 0.558258
O O9 0.037960 0.927471 0.417097
O O10 0.591694 0.937115 0.264805
O O11 0.000000 0.000000 0.500000
O O12 0.688152 0.968729 0.825509
O O13 0.827576 0.915778 0.781542
O O14 0.183271 0.003250 0.982743
O O15 0.627156 0.224717 0.050303
O O16 0.500000 0.500000 0.500000
O O17 0.388487 0.570511 0.230895
O O18 0.000000 0.500000 0.000000
O O19 0.500000 0.000000 0.500000
#
# Coordination Sequence:
#
# PCOD8024685 Si02
#       8
#     2   2   2   2   2   2   2   2
#     4  11  25  43  68 102 134 176 227 280 344 408
#     4  12  26  46  75 101 137 182 235 288 345 405
#     4  12  27  45  68 101 140 185 227 279 347 408
#     4  10  23  43  70  97 131 172 226 280 335 403
#     4  10  23  43  70  96 131 175 223 277 340 403
#     4  12  26  47  70 102 140 181 231 288 343 409
#     4  11  25  44  68  98 138 179 223 279 342 410
#     4  12  27  45  68 102 139 180 232 284 338 416
#
# _framework density 21.570630000000001
#
# number of rings (size 3 to 8) (size 9 to 14) (size 15 to 20)
#    0.000    0.750    2.500    3.750    8.750    5.500 
#    0.000    0.000    0.000    0.000    0.000    0.000 
#    0.000    0.000    0.000    0.000    0.000    0.000 
#
# Total GULP energy -198257.885406 kJ/mol
# GULP energy per Si atom -12391.117838 kJ/mol
# Density = 2.152153 g / cm^3
# Si number density = 21.570630 Si / 1000 Ang^3
#
#
#
# Elastic Constant Matrix: (Units=GPa)
#
#
# Indices 1 2 3 4 5 6 
#
# 1 141.8976 53.3519 48.8863 11.2036 -3.6930 11.4278
# 2 53.3519 117.1226 26.9684 15.8807 -3.5113 11.1282
# 3 48.8863 26.9684 114.1522 11.8141 -11.6013 7.1344
# 4 11.2036 15.8807 11.8141 32.1795 -6.4357 -0.7292
# 5 -3.6930 -3.5113 -11.6013 -6.4357 37.1481 8.5524
# 6 11.4278 11.1282 7.1344 -0.7292 8.5524 47.1815
#
#
#
# Elastic Compliance Matrix: (Units=1/GPa)
#
#
# Indices 1 2 3 4 5 6 
#
# 1 0.009562 -0.003466 -0.003185 -0.000519 -0.000235 -0.000982
# 2 -0.003466 0.010961 -0.000558 -0.003991 0.000232 -0.001765
# 3 -0.003185 -0.000558 0.010850 -0.002035 0.002967 -0.001307
# 4 -0.000519 -0.003991 -0.002035 0.034947 0.004747 0.001054
# 5 -0.000235 0.000232 0.002967 0.004747 0.030005 -0.005812
# 6 -0.000982 -0.001765 -0.001307 0.001054 -0.005812 0.023116
#
#
# Mechanical properties :
#
#
# Convention : Reuss Voigt Hill
#
# Bulk Modulus (GPa) = 58.97990 70.17617 64.57803
# Shear Modulus (GPa) = 35.83976 39.56621 37.70298
#
# Velocity S-wave (km/s) = 4.08058 4.28748 4.18531
# Velocity P-wave (km/s) = 7.04298 7.55736 7.30470
#
# Compressibility (1/GPa) = 0.01695493
#
# Stress axis : x y z
#
# Youngs Moduli (GPa) = 104.58584 91.23139 92.16607
#
# Poissons Ratio (x) = 0.31616 0.29354
# Poissons Ratio (y) = 0.36245 0.05147
# Poissons Ratio (z) = 0.33309 0.05095
#
# Static dielectric constant tensor:
#      x y z
#    x 4.075860 0.077640 0.032560 
#    y 0.077640 4.195070 -0.123960 
#    z 0.032560 -0.123960 4.054630 
# 
# 
# High freq. dielectric constant tensor:
#      x y z
#    x 1.860310 0.014910 -0.005670 
#    y 0.014910 1.859830 0.005450 
#    z -0.005670 0.005450 1.854700 
# 
# From -- ./inp_files/505326.got.cif
#   From: 2010.06.25/outbox.cif.g09.slc.cpg/sg2_253_cif.got.tgz:505326.got - 2010.06.27 13:26:56.
