data_PCOD8024888
_publ_section_title
;
Structure prediction by ZEFSAII (Michael W. Deem and Ramdas Pophale) SiO2 
 PCOD8024888
Probable space group: P -1
;
_chemical_formula_sum "Si O2"
_cell_formula_units_Z 16
_cell_length_a 17.758386
_cell_length_b 15.032917
_cell_length_c 12.850871
_cell_angle_alpha 131.485472
_cell_angle_beta 28.449794
_cell_angle_gamma 150.180907
_cell_volume 736.102350
_symmetry_space_group_name_H-M "P -1"
_symmetry_group_IT_number 2
_symmetry_cell_setting 'triclinic'
loop_
_space_group_symop_operation_xyz
x,y,z
-x,-y,-z
loop_
_atom_site_type_symbol
_atom_site_label
_atom_site_fract_x
_atom_site_fract_y
_atom_site_fract_z
Si Si1 0.702352 0.793227 0.726136
Si Si2 0.455512 0.067065 0.721417
Si Si3 0.252198 0.295429 0.196439
Si Si4 0.542239 0.942121 0.045048
Si Si5 0.927870 0.293576 0.701107
Si Si6 0.634758 0.560187 0.273682
Si Si7 0.033418 0.989722 0.072133
Si Si8 0.887360 0.334475 0.252987
O O1 0.659686 0.758000 0.875431
O O2 0.546361 0.813837 0.888107
O O3 0.599690 0.612933 0.654520
O O4 0.000000 0.000000 0.500000
O O5 0.765092 0.264996 0.465705
O O6 0.352727 0.870611 0.676743
O O7 0.429912 0.066551 0.874445
O O8 0.281772 0.056217 0.855349
O O9 0.053908 0.124758 0.217651
O O10 0.140013 0.324124 0.435404
O O11 0.500000 0.500000 0.000000
O O12 0.779524 0.167010 0.889264
O O13 0.265126 0.827980 0.258263
O O14 0.059916 0.500294 0.721624
O O15 0.500000 0.500000 0.500000
O O16 0.760738 0.762185 0.252540
O O17 0.852296 0.587301 0.019530
O O18 0.000000 0.000000 0.000000
#
# Coordination Sequence:
#
# PCOD8024888 Si02
#       8
#     2   2   2   2   2   2   2   2
#     4  12  23  44  69  98 138 179 233 278 340 415
#     4  10  23  44  71  96 134 185 220 276 346 403
#     4  12  25  41  69 104 136 181 229 283 340 398
#     4  11  24  43  69  97 133 181 225 279 338 401
#     4  11  25  42  66 102 137 172 229 283 333 403
#     4  11  25  42  71 100 134 184 227 281 345 400
#     4  11  24  45  68  99 140 177 232 283 337 407
#     4  10  23  44  65 100 138 174 225 278 339 411
#
# _framework density 21.736108000000002
#
# number of rings (size 3 to 8) (size 9 to 14) (size 15 to 20)
#    0.000    1.000    3.750    2.250    1.750    5.000 
#    0.000    0.000    0.000    0.000    0.000    0.000 
#    0.000    0.000    0.000    0.000    0.000    0.000 
#
# Total GULP energy -198264.500876 kJ/mol
# GULP energy per Si atom -12391.531305 kJ/mol
# Density = 2.168664 g / cm^3
# Si number density = 21.736108 Si / 1000 Ang^3
#
#
#
# Elastic Constant Matrix: (Units=GPa)
#
#
# Indices 1 2 3 4 5 6 
#
# 1 123.6769 38.5464 49.3293 -4.8190 25.9294 -3.7458
# 2 38.5464 160.4025 47.1689 -14.5920 17.5541 -8.9445
# 3 49.3293 47.1689 117.9019 -17.6651 13.7739 -7.4645
# 4 -4.8190 -14.5920 -17.6651 36.9925 -6.3564 3.6425
# 5 25.9294 17.5541 13.7739 -6.3564 32.8971 -0.6304
# 6 -3.7458 -8.9445 -7.4645 3.6425 -0.6304 35.0244
#
#
#
# Elastic Compliance Matrix: (Units=1/GPa)
#
#
# Indices 1 2 3 4 5 6 
#
# 1 0.011347 -0.000991 -0.003792 -0.001984 -0.007207 0.000229
# 2 -0.000991 0.007496 -0.002062 0.001371 -0.002068 0.001189
# 3 -0.003792 -0.002062 0.011574 0.004121 0.000061 0.001107
# 4 -0.001984 0.001371 0.004121 0.030331 0.004929 -0.002050
# 5 -0.007207 -0.002068 0.000061 0.004929 0.038087 -0.001113
# 6 0.000229 0.001189 0.001107 -0.002050 -0.001113 0.029309
#
#
# Mechanical properties :
#
#
# Convention : Reuss Voigt Hill
#
# Bulk Modulus (GPa) = 59.78421 74.67448 67.22935
# Shear Modulus (GPa) = 33.91898 38.77859 36.34879
#
# Velocity S-wave (km/s) = 3.95459 4.22840 4.09378
# Velocity P-wave (km/s) = 6.95816 7.63340 7.30359
#
# Compressibility (1/GPa) = 0.01672682
#
# Stress axis : x y z
#
# Youngs Moduli (GPa) = 88.12568 133.40169 86.40323
#
# Poissons Ratio (x) = 0.13218 0.32766
# Poissons Ratio (y) = 0.08732 0.17818
# Poissons Ratio (z) = 0.33419 0.27510
#
# Static dielectric constant tensor:
#      x y z
#    x 3.930800 -0.221610 -0.057330 
#    y -0.221610 4.285650 0.147860 
#    z -0.057330 0.147860 4.182410 
# 
# 
# High freq. dielectric constant tensor:
#      x y z
#    x 1.840500 -0.009290 0.006660 
#    y -0.009290 1.876010 -0.003630 
#    z 0.006660 -0.003630 1.859660 
# 
# From -- ./inp_files/261431.got.cif
#   From: 2010.06.25/outbox.cif.g09.slc.cpg/sg2_131_cif.got.tgz:261431.got - 2010.06.27 13:26:56.
