data_PCOD8024942
_publ_section_title
;
Structure prediction by ZEFSAII (Michael W. Deem and Ramdas Pophale) SiO2 
 PCOD8024942
Probable space group: P -1
;
_chemical_formula_sum "Si O2"
_cell_formula_units_Z 14
_cell_length_a 9.307185
_cell_length_b 16.987336
_cell_length_c 14.027552
_cell_angle_alpha 22.878287
_cell_angle_beta 80.782995
_cell_angle_gamma 68.033245
_cell_volume 687.051297
_symmetry_space_group_name_H-M "P -1"
_symmetry_group_IT_number 2
_symmetry_cell_setting 'triclinic'
loop_
_space_group_symop_operation_xyz
x,y,z
-x,-y,-z
loop_
_atom_site_type_symbol
_atom_site_label
_atom_site_fract_x
_atom_site_fract_y
_atom_site_fract_z
Si Si1 0.230332 0.192805 0.373499
Si Si2 0.795599 0.656241 0.306346
Si Si3 0.515235 0.912541 0.375436
Si Si4 0.318225 0.464869 0.724139
Si Si5 0.523582 0.236727 0.649720
Si Si6 0.334302 0.782816 0.683592
Si Si7 0.830072 0.418999 0.182880
O O1 0.304515 0.199271 0.459989
O O2 0.020714 0.368593 0.219134
O O3 0.285665 0.923039 0.633700
O O4 0.296062 0.305103 0.161869
O O5 0.819010 0.510802 0.367770
O O6 0.652559 0.654362 0.388937
O O7 0.000000 0.500000 0.500000
O O8 0.701343 0.953134 0.969102
O O9 0.546984 0.736265 0.480594
O O10 0.366269 0.935002 0.434464
O O11 0.465286 0.171997 0.051230
O O12 0.416422 0.582390 0.542695
O O13 0.222363 0.594250 0.689540
O O14 0.172828 0.780454 0.659409
O O15 0.500000 0.500000 0.000000
#
# Coordination Sequence:
#
# PCOD8024942 Si02
#       7
#     2   2   2   2   2   2   2
#     4  11  24  38  57  91 131 167 207 258 301 361
#     4  10  24  45  69  95 123 157 204 263 319 386
#     4  11  22  38  61  90 122 164 211 249 305 374
#     4  11  22  42  65  91 123 164 204 257 313 376
#     4  10  23  44  66  94 127 159 205 258 320 379
#     4  12  21  38  60  84 122 174 211 248 303 360
#     4  11  23  39  59  90 130 165 209 256 304 365
#
# _framework density 20.376935
#
# number of rings (size 3 to 8) (size 9 to 14) (size 15 to 20)
#    0.000    1.143    4.286    2.143    2.000    0.571 
#    2.571    0.000    0.000    0.000    0.000    0.000 
#    0.000    0.000    0.000    0.000    0.000    0.000 
#
# Total GULP energy -173514.793416 kJ/mol
# GULP energy per Si atom -12393.913815 kJ/mol
# Density = 2.033056 g / cm^3
# Si number density = 20.376935 Si / 1000 Ang^3
#
#
#
# Elastic Constant Matrix: (Units=GPa)
#
#
# Indices 1 2 3 4 5 6 
#
# 1 135.2562 32.3636 57.6242 12.1554 -0.5339 22.6216
# 2 32.3636 76.4918 27.5750 8.9758 9.7190 18.4909
# 3 57.6242 27.5750 95.1470 6.9152 -8.8747 9.9490
# 4 12.1554 8.9758 6.9152 29.0621 2.6627 -0.8491
# 5 -0.5339 9.7190 -8.8747 2.6627 36.2277 4.9107
# 6 22.6216 18.4909 9.9490 -0.8491 4.9107 38.2174
#
#
#
# Elastic Compliance Matrix: (Units=1/GPa)
#
#
# Indices 1 2 3 4 5 6 
#
# 1 0.011157 -0.001177 -0.005718 -0.003071 -0.000071 -0.004605
# 2 -0.001177 0.017490 -0.003850 -0.003762 -0.004527 -0.006266
# 3 -0.005718 -0.003850 0.015503 -0.000522 0.004704 0.000595
# 4 -0.003071 -0.003762 -0.000522 0.037360 -0.002579 0.004935
# 5 -0.000071 -0.004527 0.004704 -0.002579 0.030562 -0.002977
# 6 -0.004605 -0.006266 0.000595 0.004935 -0.002977 0.032261
#
#
# Mechanical properties :
#
#
# Convention : Reuss Voigt Hill
#
# Bulk Modulus (GPa) = 44.12788 60.22451 52.17619
# Shear Modulus (GPa) = 28.83914 33.32360 31.08137
#
# Velocity S-wave (km/s) = 3.76611 4.04834 3.90977
# Velocity P-wave (km/s) = 6.37293 7.17437 6.78549
#
# Compressibility (1/GPa) = 0.02266141
#
# Stress axis : x y z
#
# Youngs Moduli (GPa) = 89.63130 57.17462 64.50283
#
# Poissons Ratio (x) = 0.06727 0.36882
# Poissons Ratio (y) = 0.10546 0.24834
# Poissons Ratio (z) = 0.51250 0.22012
#
# Static dielectric constant tensor:
#      x y z
#    x 3.763310 0.280210 -0.190320 
#    y 0.280210 3.904630 0.203950 
#    z -0.190320 0.203950 3.703980 
# 
# 
# High freq. dielectric constant tensor:
#      x y z
#    x 1.802940 0.019610 -0.016560 
#    y 0.019610 1.799990 0.007140 
#    z -0.016560 0.007140 1.790700 
# 
# From -- ./inp_files/38368.got.cif
#   From: 2010.06.25/outbox.cif.g09.slc.cpg/sg2_20_cif.got.tgz:38368.got - 2010.06.27 13:26:56.
