data_PCOD8024520
_publ_section_title
;
Structure prediction by ZEFSAII (Michael W. Deem and Ramdas Pophale) SiO2 
 PCOD8024520
Probable space group: P -1
;
_chemical_formula_sum "Si O2"
_cell_formula_units_Z 16
_cell_length_a 15.644977
_cell_length_b 27.899084
_cell_length_c 9.312235
_cell_angle_alpha 144.400354
_cell_angle_beta 133.037910
_cell_angle_gamma 19.766830
_cell_volume 726.143836
_symmetry_space_group_name_H-M "P -1"
_symmetry_group_IT_number 2
_symmetry_cell_setting 'triclinic'
loop_
_space_group_symop_operation_xyz
x,y,z
-x,-y,-z
loop_
_atom_site_type_symbol
_atom_site_label
_atom_site_fract_x
_atom_site_fract_y
_atom_site_fract_z
Si Si1 0.599214 0.324216 0.310892
Si Si2 0.667024 0.957782 0.495448
Si Si3 0.266780 0.504502 0.081049
Si Si4 0.396486 0.591187 0.946751
Si Si5 0.790225 0.038928 0.974902
Si Si6 0.202047 0.370516 0.552682
Si Si7 0.333764 0.133400 0.271387
Si Si8 0.212808 0.031650 0.897505
O O1 0.407410 0.418195 0.188047
O O2 0.453429 0.487390 0.635745
O O3 0.884832 0.176579 0.214813
O O4 0.661247 0.209228 0.206836
O O5 0.611892 0.084824 0.797763
O O6 0.993892 0.733943 0.331279
O O7 0.500000 0.000000 0.500000
O O8 0.560905 0.023178 0.371831
O O9 0.465408 0.411795 0.955909
O O10 0.171686 0.472704 0.857971
O O11 0.500000 0.500000 0.000000
O O12 0.066657 0.815502 0.133701
O O13 0.749821 0.050736 0.124924
O O14 0.121056 0.343380 0.494764
O O15 0.000000 0.500000 0.500000
O O16 0.524456 0.152518 0.350834
O O17 0.181908 0.148263 0.193833
O O18 0.500000 0.000000 0.000000
#
# Coordination Sequence:
#
# PCOD8024520 Si02
#       8
#     2   2   2   2   2   2   2   2
#     4  11  25  46  70 101 142 181 230 289 344 414
#     4  12  24  43  70 100 135 183 233 280 347 420
#     4  12  25  47  71 100 143 184 231 289 353 409
#     4  12  28  43  72 106 139 186 232 290 350 415
#     4  11  23  44  72  99 139 182 229 287 347 408
#     4  11  27  45  70 103 143 182 233 290 347 413
#     4  10  23  43  68  94 135 182 223 280 346 401
#     4  11  24  45  70 100 140 179 234 289 344 415
#
# _framework density 22.034202000000001
#
# number of rings (size 3 to 8) (size 9 to 14) (size 15 to 20)
#    0.000    0.750    3.750    3.375    7.000    2.500 
#    0.000    1.250    0.000    0.000    0.000    0.000 
#    0.000    0.000    0.000    0.000    0.000    0.000 
#
# Total GULP energy -198429.933899 kJ/mol
# GULP energy per Si atom -12401.870869 kJ/mol
# Density = 2.198405 g / cm^3
# Si number density = 22.034202 Si / 1000 Ang^3
#
#
#
# Elastic Constant Matrix: (Units=GPa)
#
#
# Indices 1 2 3 4 5 6 
#
# 1 89.4391 19.8665 7.0146 -2.8793 10.2329 15.3842
# 2 19.8665 121.9090 4.4425 -10.0355 -5.1838 19.7543
# 3 7.0146 4.4425 55.9044 -12.9176 9.9655 7.8873
# 4 -2.8793 -10.0355 -12.9176 42.9880 -0.8099 -7.7468
# 5 10.2329 -5.1838 9.9655 -0.8099 37.1234 -4.3808
# 6 15.3842 19.7543 7.8873 -7.7468 -4.3808 43.9127
#
#
#
# Elastic Compliance Matrix: (Units=1/GPa)
#
#
# Indices 1 2 3 4 5 6 
#
# 1 0.012740 -0.001601 -0.000233 -0.000425 -0.004177 -0.004193
# 2 -0.001601 0.009157 0.000019 0.001492 0.001374 -0.003161
# 3 -0.000233 0.000019 0.020669 0.005508 -0.005744 -0.003241
# 4 -0.000425 0.001492 0.005508 0.025776 -0.000235 0.003012
# 5 -0.004177 0.001374 -0.005744 -0.000235 0.030391 0.004867
# 6 -0.004193 -0.003161 -0.003241 0.003012 0.004867 0.027263
#
#
# Mechanical properties :
#
#
# Convention : Reuss Voigt Hill
#
# Bulk Modulus (GPa) = 25.68348 36.65553 31.16950
# Shear Modulus (GPa) = 35.06213 40.53340 37.79776
#
# Velocity S-wave (km/s) = 3.99339 4.29367 4.14625
# Velocity P-wave (km/s) = 5.73972 6.42282 6.09085
#
# Compressibility (1/GPa) = 0.03893554
#
# Stress axis : x y z
#
# Youngs Moduli (GPa) = 78.49249 109.21123 48.38132
#
# Poissons Ratio (x) = 0.17482 0.01129
# Poissons Ratio (y) = 0.12565 -0.00092
# Poissons Ratio (z) = 0.01832 -0.00209
#
# Static dielectric constant tensor:
#      x y z
#    x 4.602340 -0.037280 0.365180 
#    y -0.037280 4.005760 -0.077960 
#    z 0.365180 -0.077960 3.928480 
# 
# 
# High freq. dielectric constant tensor:
#      x y z
#    x 1.885850 0.004070 0.010870 
#    y 0.004070 1.877030 -0.006720 
#    z 0.010870 -0.006720 1.859880 
# 
# From -- ./inp_files/320750.got.cif
#   From: 2010.06.25/outbox.cif.g09.slc.cpg/sg2_161_cif.got.tgz:320750.got - 2010.06.27 13:26:56.
