data_PCOD8024435
_publ_section_title
;
Structure prediction by ZEFSAII (Michael W. Deem and Ramdas Pophale) SiO2 
 PCOD8024435
Probable space group: P -1
;
_chemical_formula_sum "Si O2"
_cell_formula_units_Z 16
_cell_length_a 8.431048
_cell_length_b 8.889584
_cell_length_c 12.534296
_cell_angle_alpha 53.815994
_cell_angle_beta 95.279008
_cell_angle_gamma 87.304974
_cell_volume 748.993043
_symmetry_space_group_name_H-M "P -1"
_symmetry_group_IT_number 2
_symmetry_cell_setting 'triclinic'
loop_
_space_group_symop_operation_xyz
x,y,z
-x,-y,-z
loop_
_atom_site_type_symbol
_atom_site_label
_atom_site_fract_x
_atom_site_fract_y
_atom_site_fract_z
Si Si1 0.328419 0.494616 0.253146
Si Si2 0.515382 0.314308 0.144173
Si Si3 0.878651 0.141105 0.866596
Si Si4 0.855977 0.818047 0.550824
Si Si5 0.199878 0.777732 0.650637
Si Si6 0.661583 0.599870 0.265332
Si Si7 0.072820 0.293162 0.624125
Si Si8 0.613510 0.889654 0.965650
O O1 0.387455 0.364909 0.210221
O O2 0.193714 0.673515 0.146436
O O3 0.254879 0.347869 0.386515
O O4 0.473588 0.585576 0.281792
O O5 0.696695 0.258467 0.219985
O O6 0.477661 0.148929 0.132820
O O7 0.500000 0.500000 0.000000
O O8 0.959621 0.208993 0.737491
O O9 0.741171 0.017642 0.877416
O O10 0.000000 0.000000 0.000000
O O11 0.917814 0.836686 0.425210
O O12 0.008094 0.779356 0.657101
O O13 0.763070 0.025126 0.482951
O O14 0.250210 0.611660 0.640256
O O15 0.746388 0.710541 0.315048
O O16 0.685817 0.696186 0.110484
O O17 0.000000 0.500000 0.500000
O O18 0.500000 0.000000 0.000000
#
# Coordination Sequence:
#
# PCOD8024435 Si02
#       8
#     2   2   2   2   2   2   2   2
#     4  11  24  44  67  99 136 180 234 282 342 411
#     4  11  23  43  70  96 135 183 220 282 355 404
#     4  12  25  43  70 101 140 182 232 284 345 411
#     4  11  25  44  68  98 138 183 237 281 339 412
#     4  10  23  43  67  91 139 179 224 284 339 404
#     4  11  22  43  69  95 140 176 222 295 334 407
#     4  12  24  44  70  97 139 184 226 283 348 403
#     4  12  24  44  69 103 139 172 227 286 345 418
#
# _framework density 21.362013000000001
#
# number of rings (size 3 to 8) (size 9 to 14) (size 15 to 20)
#    0.000    0.750    7.500    0.000    1.750    5.500 
#    2.250    1.250    0.000    0.000    0.000    0.000 
#    0.000    0.000    0.000    0.000    0.000    0.000 
#
# Total GULP energy -198278.583897 kJ/mol
# GULP energy per Si atom -12392.411494 kJ/mol
# Density = 2.131339 g / cm^3
# Si number density = 21.362013 Si / 1000 Ang^3
#
#
#
# Elastic Constant Matrix: (Units=GPa)
#
#
# Indices 1 2 3 4 5 6 
#
# 1 127.0257 59.2649 72.8303 -2.6564 -5.1584 18.6420
# 2 59.2649 118.3187 43.5284 1.4257 6.0859 7.9315
# 3 72.8303 43.5284 124.2727 -13.5713 2.1883 6.7447
# 4 -2.6564 1.4257 -13.5713 49.5032 4.7642 4.3397
# 5 -5.1584 6.0859 2.1883 4.7642 41.3622 -6.4768
# 6 18.6420 7.9315 6.7447 4.3397 -6.4768 43.7361
#
#
#
# Elastic Compliance Matrix: (Units=1/GPa)
#
#
# Indices 1 2 3 4 5 6 
#
# 1 0.014631 -0.004652 -0.006868 -0.000849 0.002359 -0.003900
# 2 -0.004652 0.011385 -0.001296 -0.000717 -0.002124 -0.000125
# 3 -0.006868 -0.001296 0.012882 0.003305 -0.001633 0.000606
# 4 -0.000849 -0.000717 0.003305 0.021607 -0.003074 -0.002617
# 5 0.002359 -0.002124 -0.001633 -0.003074 0.025812 0.003759
# 6 -0.003900 -0.000125 0.000606 -0.002617 0.003759 0.025272
#
#
# Mechanical properties :
#
#
# Convention : Reuss Voigt Hill
#
# Bulk Modulus (GPa) = 75.37123 80.09603 77.73363
# Shear Modulus (GPa) = 35.30045 39.85320 37.57683
#
# Velocity S-wave (km/s) = 4.06949 4.32396 4.19865
# Velocity P-wave (km/s) = 7.57895 7.90600 7.74420
#
# Compressibility (1/GPa) = 0.01326766
#
# Stress axis : x y z
#
# Youngs Moduli (GPa) = 68.35007 87.83771 77.62650
#
# Poissons Ratio (x) = 0.40858 0.53311
# Poissons Ratio (y) = 0.31793 0.10058
# Poissons Ratio (z) = 0.46940 0.11382
#
# Static dielectric constant tensor:
#      x y z
#    x 3.883260 0.301030 0.489590 
#    y 0.301030 3.699570 -0.375480 
#    z 0.489590 -0.375480 3.681720 
# 
# 
# High freq. dielectric constant tensor:
#      x y z
#    x 1.836600 0.012500 0.014120 
#    y 0.012500 1.848000 -0.023950 
#    z 0.014120 -0.023950 1.834090 
# 
# From -- ./inp_files/381070.got.cif
#   From: 2010.06.25/outbox.cif.g09.slc.cpg/sg2_191_cif.got.tgz:381070.got - 2010.06.27 13:26:56.
