data_PCOD8024151
_publ_section_title
;
Structure prediction by ZEFSAII (Michael W. Deem and Ramdas Pophale) SiO2 
 PCOD8024151
Probable space group: P -1
;
_chemical_formula_sum "Si O2"
_cell_formula_units_Z 16
_cell_length_a 7.997798
_cell_length_b 19.118468
_cell_length_c 5.335100
_cell_angle_alpha 112.923432
_cell_angle_beta 116.865540
_cell_angle_gamma 86.885002
_cell_volume 662.859525
_symmetry_space_group_name_H-M "P -1"
_symmetry_group_IT_number 2
_symmetry_cell_setting 'triclinic'
loop_
_space_group_symop_operation_xyz
x,y,z
-x,-y,-z
loop_
_atom_site_type_symbol
_atom_site_label
_atom_site_fract_x
_atom_site_fract_y
_atom_site_fract_z
Si Si1 0.618117 0.840507 0.850451
Si Si2 0.309609 0.800496 0.199023
Si Si3 0.150008 0.657599 0.134485
Si Si4 0.734417 0.568002 0.845042
Si Si5 0.885983 0.976874 0.139908
Si Si6 0.781356 0.482725 0.273636
Si Si7 0.402821 0.937328 0.157639
Si Si8 0.475587 0.693844 0.791722
O O1 0.445035 0.847095 0.558227
O O2 0.620628 0.751017 0.792305
O O3 0.820064 0.884208 0.950955
O O4 0.572962 0.892717 0.127283
O O5 0.136863 0.742650 0.130891
O O6 0.246436 0.868830 0.082181
O O7 0.435654 0.744443 0.070053
O O8 0.277080 0.664287 0.478914
O O9 0.255927 0.608866 0.933068
O O10 0.943096 0.614943 0.007005
O O11 0.675579 0.509587 0.487632
O O12 0.579196 0.623671 0.844025
O O13 0.725863 0.524749 0.043587
O O14 0.000000 0.000000 0.500000
O O15 0.702824 0.021946 0.075761
O O16 0.000000 0.000000 0.000000
O O17 0.000000 0.500000 0.500000
O O18 0.500000 0.000000 0.500000
#
# Coordination Sequence:
#
# PCOD8024151 Si02
#       8
#     2   2   2   2   2   2   2   2
#     4  10  23  46  65  94 136 178 223 278 341 409
#     4  10  23  42  71  95 132 179 232 282 334 411
#     4  10  23  43  68 100 137 177 233 281 338 416
#     4  11  25  44  71  98 136 187 223 284 349 398
#     4  12  27  42  68 105 137 167 225 291 339 402
#     4  10  23  43  70 100 137 180 227 285 344 403
#     4  11  22  44  75  92 130 188 226 270 350 416
#     4  10  25  43  67  99 138 179 229 282 341 407
#
# _framework density 24.137844000000001
#
# number of rings (size 3 to 8) (size 9 to 14) (size 15 to 20)
#    0.000    1.500    1.250    2.625   12.250    2.000 
#    4.500    0.000    0.000    0.000    0.000    0.000 
#    0.000    0.000    0.000    0.000    0.000    0.000 
#
# Total GULP energy -198271.870281 kJ/mol
# GULP energy per Si atom -12391.991893 kJ/mol
# Density = 2.408291 g / cm^3
# Si number density = 24.137844 Si / 1000 Ang^3
#
#
#
# Elastic Constant Matrix: (Units=GPa)
#
#
# Indices 1 2 3 4 5 6 
#
# 1 35.2904 -5.0186 17.0988 4.5396 -4.9552 4.9894
# 2 -5.0186 121.6550 48.4635 -5.8515 12.3738 12.2220
# 3 17.0988 48.4635 117.6059 1.0688 -9.5617 7.6156
# 4 4.5396 -5.8515 1.0688 43.1557 3.6255 2.2766
# 5 -4.9552 12.3738 -9.5617 3.6255 38.3168 6.9987
# 6 4.9894 12.2220 7.6156 2.2766 6.9987 44.5805
#
#
#
# Elastic Compliance Matrix: (Units=1/GPa)
#
#
# Indices 1 2 3 4 5 6 
#
# 1 0.032967 0.003670 -0.005809 -0.002837 0.002622 -0.003970
# 2 0.003670 0.011246 -0.005405 0.001739 -0.004308 -0.001983
# 3 -0.005809 -0.005405 0.011952 -0.000738 0.004142 -0.000522
# 4 -0.002837 0.001739 -0.000738 0.024037 -0.003250 -0.000750
# 5 0.002622 -0.004308 0.004142 -0.003250 0.029966 -0.004358
# 6 -0.003970 -0.001983 -0.000522 -0.000750 -0.004358 0.024231
#
#
# Mechanical properties :
#
#
# Convention : Reuss Voigt Hill
#
# Bulk Modulus (GPa) = 24.34519 43.95983 34.15251
# Shear Modulus (GPa) = 30.64073 39.47777 35.05925
#
# Velocity S-wave (km/s) = 3.56674 4.04854 3.81525
# Velocity P-wave (km/s) = 5.20288 6.33291 5.79550
#
# Compressibility (1/GPa) = 0.04107587
#
# Stress axis : x y z
#
# Youngs Moduli (GPa) = 30.33291 88.92204 83.66507
#
# Poissons Ratio (x) = -0.32634 0.48605
# Poissons Ratio (y) = -0.11132 0.45225
# Poissons Ratio (z) = 0.17622 0.48067
#
# Static dielectric constant tensor:
#      x y z
#    x 4.484720 0.219200 -0.129740 
#    y 0.219200 5.086140 0.268710 
#    z -0.129740 0.268710 4.569220 
# 
# 
# High freq. dielectric constant tensor:
#      x y z
#    x 1.939910 0.027940 -0.005660 
#    y 0.027940 1.979070 0.012220 
#    z -0.005660 0.012220 1.968570 
# 
# From -- ./inp_files/52051.got.cif
#   From: 2010.06.25/outbox.cif.g09.slc.cpg/sg2_27_cif.got.tgz:52051.got - 2010.06.27 13:26:56.
