data_PCOD8024309
_publ_section_title
;
Structure prediction by ZEFSAII (Michael W. Deem and Ramdas Pophale) SiO2 
 PCOD8024309
Probable space group: P -1
;
_chemical_formula_sum "Si O2"
_cell_formula_units_Z 14
_cell_length_a 11.141722
_cell_length_b 16.177415
_cell_length_c 6.586322
_cell_angle_alpha 136.193836
_cell_angle_beta 59.210046
_cell_angle_gamma 134.942511
_cell_volume 581.654928
_symmetry_space_group_name_H-M "P -1"
_symmetry_group_IT_number 2
_symmetry_cell_setting 'triclinic'
loop_
_space_group_symop_operation_xyz
x,y,z
-x,-y,-z
loop_
_atom_site_type_symbol
_atom_site_label
_atom_site_fract_x
_atom_site_fract_y
_atom_site_fract_z
Si Si1 0.953429 0.195120 0.453689
Si Si2 0.756369 0.257184 0.412506
Si Si3 0.407449 0.554259 0.541172
Si Si4 0.193398 0.251682 0.014362
Si Si5 0.589706 0.811777 0.523266
Si Si6 0.147694 0.500937 0.973614
Si Si7 0.122405 0.880510 0.197982
O O1 0.818491 0.204282 0.452750
O O2 0.850377 0.076904 0.509487
O O3 0.072200 0.166691 0.164175
O O4 0.083600 0.333883 0.733186
O O5 0.554879 0.167813 0.395180
O O6 0.815037 0.422763 0.701344
O O7 0.839281 0.240069 0.108286
O O8 0.500000 0.500000 0.500000
O O9 0.271948 0.422160 0.277290
O O10 0.531449 0.693440 0.542020
O O11 0.312528 0.595272 0.853604
O O12 0.344851 0.232282 0.807247
O O13 0.069982 0.182380 0.805345
O O14 0.740014 0.967077 0.761154
O O15 0.000000 0.500000 0.000000
#
# Coordination Sequence:
#
# PCOD8024309 Si02
#       7
#     2   2   2   2   2   2   2
#     4   9  22  43  69  98 138 177 230 274 333 405
#     4  10  23  43  65 103 136 177 224 280 336 393
#     4  11  25  45  70 102 135 175 229 289 340 396
#     4  10  24  47  69  98 133 183 228 279 334 406
#     4  12  26  43  68 104 140 177 225 285 344 396
#     4   9  20  41  67 101 126 179 225 275 330 399
#     4  11  25  46  68  99 143 181 226 274 332 421
#
# _framework density 24.069254000000001
#
# number of rings (size 3 to 8) (size 9 to 14) (size 15 to 20)
#    0.000    1.714    0.000    3.000   10.000    1.714 
#   10.286    0.000    0.000    0.000    0.000    0.000 
#    0.000    0.000    0.000    0.000    0.000    0.000 
#
# Total GULP energy -173436.781068 kJ/mol
# GULP energy per Si atom -12388.341505 kJ/mol
# Density = 2.401447 g / cm^3
# Si number density = 24.069254 Si / 1000 Ang^3
#
#
#
# Elastic Constant Matrix: (Units=GPa)
#
#
# Indices 1 2 3 4 5 6 
#
# 1 87.9951 55.5102 30.3237 -27.3806 5.7850 21.8745
# 2 55.5102 105.6751 28.4218 -14.9817 8.0832 0.2074
# 3 30.3237 28.4218 114.2721 -29.6869 -14.8952 2.4246
# 4 -27.3806 -14.9817 -29.6869 41.8108 12.7347 1.3604
# 5 5.7850 8.0832 -14.8952 12.7347 39.5653 -9.4007
# 6 21.8745 0.2074 2.4246 1.3604 -9.4007 27.7721
#
#
#
# Elastic Compliance Matrix: (Units=1/GPa)
#
#
# Indices 1 2 3 4 5 6 
#
# 1 0.045218 -0.016825 -0.001976 0.031172 -0.024691 -0.045203
# 2 -0.016825 0.017252 -0.001599 -0.007820 0.004451 0.015152
# 3 -0.001976 -0.001599 0.011439 0.005092 0.003653 0.001557
# 4 0.031172 -0.007820 0.005092 0.054694 -0.027414 -0.036897
# 5 -0.024691 0.004451 0.003653 -0.027414 0.046794 0.036278
# 6 -0.045203 0.015152 0.001557 -0.036897 0.036278 0.085449
#
#
# Mechanical properties :
#
#
# Convention : Reuss Voigt Hill
#
# Bulk Modulus (GPa) = 30.20273 59.60597 44.90435
# Shear Modulus (GPa) = 15.99064 34.74210 25.36637
#
# Velocity S-wave (km/s) = 2.58031 3.80336 3.24989
# Velocity P-wave (km/s) = 4.63172 6.64120 5.72531
#
# Compressibility (1/GPa) = 0.03310959
#
# Stress axis : x y z
#
# Youngs Moduli (GPa) = 22.11497 57.96385 87.41958
#
# Poissons Ratio (x) = 0.97523 0.17273
# Poissons Ratio (y) = 0.37208 0.13981
# Poissons Ratio (z) = 0.04370 0.09270
#
# Static dielectric constant tensor:
#      x y z
#    x 4.110020 0.383650 0.027210 
#    y 0.383650 4.569910 0.473040 
#    z 0.027210 0.473040 5.378660 
# 
# 
# High freq. dielectric constant tensor:
#      x y z
#    x 1.944250 0.024970 -0.007410 
#    y 0.024970 1.939480 -0.001730 
#    z -0.007410 -0.001730 1.972570 
# 
# From -- ./inp_files/81674.got.cif
#   From: 2010.06.25/outbox.cif.g09.slc.cpg/sg2_41_cif.got.tgz:81674.got - 2010.06.27 13:26:56.
