data_PCOD8024390
_publ_section_title
;
Structure prediction by ZEFSAII (Michael W. Deem and Ramdas Pophale) SiO2 
 PCOD8024390
Probable space group: P -1
;
_chemical_formula_sum "Si O2"
_cell_formula_units_Z 14
_cell_length_a 9.522684
_cell_length_b 20.474956
_cell_length_c 8.608065
_cell_angle_alpha 128.779442
_cell_angle_beta 118.530763
_cell_angle_gamma 27.257634
_cell_volume 584.326937
_symmetry_space_group_name_H-M "P -1"
_symmetry_group_IT_number 2
_symmetry_cell_setting 'triclinic'
loop_
_space_group_symop_operation_xyz
x,y,z
-x,-y,-z
loop_
_atom_site_type_symbol
_atom_site_label
_atom_site_fract_x
_atom_site_fract_y
_atom_site_fract_z
Si Si1 0.821972 0.386861 0.430466
Si Si2 0.175360 0.281059 0.870560
Si Si3 0.294038 0.808205 0.541035
Si Si4 0.611870 0.124825 0.583792
Si Si5 0.524381 0.981903 0.800124
Si Si6 0.394781 0.575062 0.220333
Si Si7 0.162428 0.433844 0.321491
O O1 0.500000 0.500000 0.500000
O O2 0.732559 0.426369 0.261032
O O3 0.907521 0.443551 0.610006
O O4 0.112283 0.193453 0.323674
O O5 0.365376 0.230462 0.749973
O O6 0.869890 0.370347 0.771945
O O7 0.389596 0.124126 0.856014
O O8 0.060540 0.409804 0.108460
O O9 0.494698 0.758545 0.428896
O O10 0.238671 0.735737 0.373732
O O11 0.466098 0.744447 0.702873
O O12 0.944901 0.005492 0.654094
O O13 0.660865 0.015659 0.354512
O O14 0.500000 0.000000 0.000000
O O15 0.500000 0.500000 0.000000
O O16 0.000000 0.500000 0.500000
#
# Coordination Sequence:
#
# PCOD8024390 Si02
#       7
#     2   2   2   2   2   2   2
#     4  11  26  44  69  99 142 175 227 287 348 407
#     4  12  25  43  76 102 136 181 241 286 337 414
#     4  10  23  43  66  93 141 177 224 283 345 406
#     4  11  24  42  69 101 135 176 233 292 337 399
#     4  12  24  44  72 105 139 186 230 287 352 417
#     4  11  23  43  68  99 131 183 225 280 344 414
#     4  11  24  47  68  98 139 188 222 280 353 420
#
# _framework density 23.95919
#
# number of rings (size 3 to 8) (size 9 to 14) (size 15 to 20)
#    0.000    0.857    1.429    6.429    4.000    1.714 
#    2.571    4.286    0.000    0.000    0.000    0.000 
#    0.000    0.000    0.000    0.000    0.000    0.000 
#
# Total GULP energy -173573.390072 kJ/mol
# GULP energy per Si atom -12398.099291 kJ/mol
# Density = 2.390466 g / cm^3
# Si number density = 23.959190 Si / 1000 Ang^3
#
#
#
# Elastic Constant Matrix: (Units=GPa)
#
#
# Indices 1 2 3 4 5 6 
#
# 1 129.1556 0.5729 30.0603 4.9400 7.0705 -13.5926
# 2 0.5729 81.9796 -1.4123 3.4649 10.8243 -2.7973
# 3 30.0603 -1.4123 100.4290 -3.5572 21.1056 -4.2205
# 4 4.9400 3.4649 -3.5572 27.3092 -3.6879 -1.0460
# 5 7.0705 10.8243 21.1056 -3.6879 39.7188 1.2440
# 6 -13.5926 -2.7973 -4.2205 -1.0460 1.2440 39.0318
#
#
#
# Elastic Compliance Matrix: (Units=1/GPa)
#
#
# Indices 1 2 3 4 5 6 
#
# 1 0.008700 0.000143 -0.002437 -0.001879 -0.000553 0.002744
# 2 0.000143 0.012912 0.001021 -0.002069 -0.004316 0.001168
# 3 -0.002437 0.001021 0.012070 0.001078 -0.006182 0.000756
# 4 -0.001879 -0.002069 0.001078 0.037887 0.003837 0.000207
# 5 -0.000553 -0.004316 -0.006182 0.003837 0.030156 -0.002029
# 6 0.002744 0.001168 0.000756 0.000207 -0.002029 0.026811
#
#
# Mechanical properties :
#
#
# Convention : Reuss Voigt Hill
#
# Bulk Modulus (GPa) = 32.11559 41.11178 36.61368
# Shear Modulus (GPa) = 35.34564 40.03486 37.69025
#
# Velocity S-wave (km/s) = 3.84506 4.09217 3.97054
# Velocity P-wave (km/s) = 5.75726 6.28683 6.02786
#
# Compressibility (1/GPa) = 0.03113753
#
# Stress axis : x y z
#
# Youngs Moduli (GPa) = 114.94130 77.44796 82.84877
#
# Poissons Ratio (x) = -0.01110 0.20191
# Poissons Ratio (y) = -0.01647 -0.08463
# Poissons Ratio (z) = 0.28012 -0.07911
#
# Static dielectric constant tensor:
#      x y z
#    x 4.500720 0.125240 -0.053070 
#    y 0.125240 4.865650 -0.406130 
#    z -0.053070 -0.406130 4.131230 
# 
# 
# High freq. dielectric constant tensor:
#      x y z
#    x 1.959510 -0.002370 0.000990 
#    y -0.002370 1.979810 -0.015610 
#    z 0.000990 -0.015610 1.935320 
# 
# From -- ./inp_files/222906.got.cif
#   From: 2010.06.25/outbox.cif.g09.slc.cpg/sg2_112_cif.got.tgz:222906.got - 2010.06.27 13:26:56.
