data_PCOD8024427
_publ_section_title
;
Structure prediction by ZEFSAII (Michael W. Deem and Ramdas Pophale) SiO2 
 PCOD8024427
Probable space group: P -1
;
_chemical_formula_sum "Si O2"
_cell_formula_units_Z 16
_cell_length_a 13.810868
_cell_length_b 14.030827
_cell_length_c 6.582870
_cell_angle_alpha 94.708442
_cell_angle_beta 110.751070
_cell_angle_gamma 137.714871
_cell_volume 671.829589
_symmetry_space_group_name_H-M "P -1"
_symmetry_group_IT_number 2
_symmetry_cell_setting 'triclinic'
loop_
_space_group_symop_operation_xyz
x,y,z
-x,-y,-z
loop_
_atom_site_type_symbol
_atom_site_label
_atom_site_fract_x
_atom_site_fract_y
_atom_site_fract_z
Si Si1 0.839525 0.581443 0.605316
Si Si2 0.091417 0.209492 0.992354
Si Si3 0.314655 0.915778 0.327427
Si Si4 0.245092 0.175814 0.393146
Si Si5 0.215408 0.676965 0.939123
Si Si6 0.897141 0.312620 0.508363
Si Si7 0.545097 0.260935 0.585421
Si Si8 0.296492 0.368946 0.771041
O O1 0.942016 0.722770 0.879835
O O2 0.715325 0.404084 0.584063
O O3 0.700402 0.543105 0.372559
O O4 0.984174 0.651001 0.566433
O O5 0.221422 0.228077 0.192131
O O6 0.183933 0.316352 0.874070
O O7 0.894027 0.017707 0.757724
O O8 0.212653 0.844411 0.457949
O O9 0.500000 0.000000 0.500000
O O10 0.380114 0.071140 0.331889
O O11 0.190901 0.760332 0.052104
O O12 0.453637 0.293809 0.574986
O O13 0.205618 0.205232 0.573931
O O14 0.244218 0.726334 0.729960
O O15 0.023228 0.473876 0.776829
O O16 0.380118 0.735862 0.155297
O O17 0.500000 0.500000 0.000000
#
# Coordination Sequence:
#
# PCOD8024427 Si02
#       8
#     2   2   2   2   2   2   2   2
#     4  11  27  42  69 105 134 179 232 274 337 413
#     4  10  23  46  69  97 143 178 225 281 337 401
#     4  10  25  47  68  98 137 176 221 289 343 393
#     4  10  23  43  67 103 133 183 225 281 335 406
#     4  10  26  45  71  94 136 177 226 284 335 404
#     4  11  26  45  72 100 130 185 232 271 343 414
#     4  11  25  44  68 100 140 175 227 283 344 395
#     4  11  23  42  71  99 141 179 228 278 340 401
#
# _framework density 23.815562
#
# number of rings (size 3 to 8) (size 9 to 14) (size 15 to 20)
#    0.000    1.500    0.000    2.250   15.750    4.000 
#    0.000    0.000    0.000    0.000    0.000    0.000 
#    0.000    0.000    0.000    0.000    0.000    0.000 
#
# Total GULP energy -198351.673357 kJ/mol
# GULP energy per Si atom -12396.979585 kJ/mol
# Density = 2.376136 g / cm^3
# Si number density = 23.815562 Si / 1000 Ang^3
#
#
#
# Elastic Constant Matrix: (Units=GPa)
#
#
# Indices 1 2 3 4 5 6 
#
# 1 103.2515 28.4584 37.2673 8.3052 -13.8268 7.2200
# 2 28.4584 142.5974 42.6991 11.8884 -29.4295 -1.0919
# 3 37.2673 42.6991 119.2783 12.3875 -15.0749 -2.4404
# 4 8.3052 11.8884 12.3875 21.7837 -3.9663 -4.8440
# 5 -13.8268 -29.4295 -15.0749 -3.9663 37.0658 -5.0937
# 6 7.2200 -1.0919 -2.4404 -4.8440 -5.0937 35.0340
#
#
#
# Elastic Compliance Matrix: (Units=1/GPa)
#
#
# Indices 1 2 3 4 5 6 
#
# 1 0.011604 -0.000890 -0.002866 -0.002583 0.001807 -0.002713
# 2 -0.000890 0.009240 -0.002010 -0.002255 0.006069 0.000902
# 3 -0.002866 -0.002010 0.010542 -0.003326 0.001405 0.001007
# 4 -0.002583 -0.002255 -0.003326 0.052217 0.002556 0.007822
# 5 0.001807 0.006069 0.001405 0.002556 0.034034 0.005216
# 6 -0.002713 0.000902 0.001007 0.007822 0.005216 0.031041
#
#
# Mechanical properties :
#
#
# Convention : Reuss Voigt Hill
#
# Bulk Modulus (GPa) = 50.36629 64.66408 57.51518
# Shear Modulus (GPa) = 29.97091 35.89018 32.93054
#
# Velocity S-wave (km/s) = 3.55133 3.88623 3.72254
# Velocity P-wave (km/s) = 6.16525 6.88099 6.53293
#
# Compressibility (1/GPa) = 0.01985455
#
# Stress axis : x y z
#
# Youngs Moduli (GPa) = 86.17460 108.22845 94.85673
#
# Poissons Ratio (x) = 0.09635 0.27184
# Poissons Ratio (y) = 0.07671 0.19064
# Poissons Ratio (z) = 0.24696 0.21752
#
# Static dielectric constant tensor:
#      x y z
#    x 4.486800 -0.390850 -0.212170 
#    y -0.390850 4.461780 0.216200 
#    z -0.212170 0.216200 4.856060 
# 
# 
# High freq. dielectric constant tensor:
#      x y z
#    x 1.948760 -0.014590 0.004880 
#    y -0.014590 1.935630 0.005870 
#    z 0.004880 0.005870 1.954850 
# 
# From -- ./inp_files/98215.got.cif
#   From: 2010.06.25/outbox.cif.g09.slc.cpg/sg2_50_cif.got.tgz:98215.got - 2010.06.27 13:26:56.
