data_PCOD8024997
_publ_section_title
;
Structure prediction by ZEFSAII (Michael W. Deem and Ramdas Pophale) SiO2 
 PCOD8024997
Probable space group: P -1
;
_chemical_formula_sum "Si O2"
_cell_formula_units_Z 10
_cell_length_a 4.920599
_cell_length_b 12.430686
_cell_length_c 9.679740
_cell_angle_alpha 45.890756
_cell_angle_beta 63.255129
_cell_angle_gamma 81.465368
_cell_volume 366.882442
_symmetry_space_group_name_H-M "P -1"
_symmetry_group_IT_number 2
_symmetry_cell_setting 'triclinic'
loop_
_space_group_symop_operation_xyz
x,y,z
-x,-y,-z
loop_
_atom_site_type_symbol
_atom_site_label
_atom_site_fract_x
_atom_site_fract_y
_atom_site_fract_z
Si Si1 0.566626 0.312827 0.292484
Si Si2 0.749684 0.159291 0.785591
Si Si3 0.080289 0.023386 0.620670
Si Si4 0.837985 0.747053 0.134601
Si Si5 0.893894 0.509339 0.803578
O O1 0.447241 0.123847 0.472330
O O2 0.296158 0.396750 0.334672
O O3 0.877402 0.361531 0.268976
O O4 0.642070 0.379236 0.061549
O O5 0.543416 0.285524 0.733509
O O6 0.897694 0.146869 0.612524
O O7 0.012236 0.174571 0.828719
O O8 0.500000 0.000000 0.000000
O O9 0.000000 0.000000 0.500000
O O10 0.985374 0.859999 0.870375
O O11 0.903039 0.579553 0.254090
#
# Coordination Sequence:
#
# PCOD8024997 Si02
#       5
#     2   2   2   2   2
#     4  10  24  42  64 102 138 169 227 282 331 392
#     4  10  23  45  65 100 140 178 215 279 343 406
#     4  11  26  43  72 107 134 172 236 288 324 391
#     4  11  24  46  72  96 136 184 223 266 352 404
#     4  10  23  44  67  94 138 185 212 273 349 405
#
# _framework density 27.256686999999999
#
# number of rings (size 3 to 8) (size 9 to 14) (size 15 to 20)
#    0.000    1.600    0.000    3.600   14.000    5.600 
#    0.000    6.000    0.000    0.000    0.000    0.000 
#    0.000    0.000    0.000    0.000    0.000    0.000 
#
# Total GULP energy -123916.099292 kJ/mol
# GULP energy per Si atom -12391.609929 kJ/mol
# Density = 2.719465 g / cm^3
# Si number density = 27.256687 Si / 1000 Ang^3
#
#
#
# Elastic Constant Matrix: (Units=GPa)
#
#
# Indices 1 2 3 4 5 6 
#
# 1 109.2367 6.6974 13.8681 7.1704 7.8096 15.8448
# 2 6.6974 100.9623 42.0079 15.6925 7.0614 17.7676
# 3 13.8681 42.0079 99.3640 -0.8486 7.8166 20.4543
# 4 7.1704 15.6925 -0.8486 44.6706 11.4183 9.1423
# 5 7.8096 7.0614 7.8166 11.4183 28.0342 -14.4859
# 6 15.8448 17.7676 20.4543 9.1423 -14.4859 39.3826
#
#
#
# Elastic Compliance Matrix: (Units=1/GPa)
#
#
# Indices 1 2 3 4 5 6 
#
# 1 0.010778 0.000856 0.000630 0.001990 -0.008707 -0.008714
# 2 0.000856 0.013250 -0.004569 -0.003116 -0.003334 -0.004452
# 3 0.000630 -0.004569 0.015739 0.007929 -0.013437 -0.013150
# 4 0.001990 -0.003116 0.007929 0.034706 -0.027280 -0.021604
# 5 -0.008707 -0.003334 -0.013437 -0.027280 0.078104 0.047048
# 6 -0.008714 -0.004452 -0.013150 -0.021604 0.047048 0.060057
#
#
# Mechanical properties :
#
#
# Convention : Reuss Voigt Hill
#
# Bulk Modulus (GPa) = 29.76113 48.30108 39.03111
# Shear Modulus (GPa) = 21.73903 38.88343 30.31123
#
# Velocity S-wave (km/s) = 2.82719 3.78109 3.33838
# Velocity P-wave (km/s) = 4.64756 6.06807 5.40469
#
# Compressibility (1/GPa) = 0.03360087
#
# Stress axis : x y z
#
# Youngs Moduli (GPa) = 92.78270 75.47266 63.53445
#
# Poissons Ratio (x) = -0.06463 -0.04000
# Poissons Ratio (y) = -0.07945 0.29029
# Poissons Ratio (z) = -0.05841 0.34483
#
# Static dielectric constant tensor:
#      x y z
#    x 9.028890 -2.300930 -1.202100 
#    y -2.300930 5.888740 0.323070 
#    z -1.202100 0.323070 4.926680 
# 
# 
# High freq. dielectric constant tensor:
#      x y z
#    x 2.105060 -0.014260 -0.014220 
#    y -0.014260 2.100970 -0.012070 
#    z -0.014220 -0.012070 2.103100 
# 
# From -- ./inp_files/129498.got.cif
#   From: 2010.06.25/outbox.cif.g09.slc.cpg/sg2_65_cif.got.tgz:129498.got - 2010.06.27 13:26:56.
