data_PCOD8024938
_publ_section_title
;
Structure prediction by ZEFSAII (Michael W. Deem and Ramdas Pophale) SiO2 
 PCOD8024938
Probable space group: P -1
;
_chemical_formula_sum "Si O2"
_cell_formula_units_Z 12
_cell_length_a 10.833058
_cell_length_b 13.060610
_cell_length_c 11.157982
_cell_angle_alpha 148.216037
_cell_angle_beta 134.403109
_cell_angle_gamma 65.325976
_cell_volume 523.985405
_symmetry_space_group_name_H-M "P -1"
_symmetry_group_IT_number 2
_symmetry_cell_setting 'triclinic'
loop_
_space_group_symop_operation_xyz
x,y,z
-x,-y,-z
loop_
_atom_site_type_symbol
_atom_site_label
_atom_site_fract_x
_atom_site_fract_y
_atom_site_fract_z
Si Si1 0.711485 0.209690 0.338127
Si Si2 0.347402 0.455461 0.244023
Si Si3 0.888393 0.597278 0.665090
Si Si4 0.943908 0.947446 0.234465
Si Si5 0.354589 0.291919 0.839991
Si Si6 0.750746 0.453287 0.172444
O O1 0.729492 0.363031 0.618070
O O2 0.740035 0.359005 0.386932
O O3 0.879640 0.137950 0.377255
O O4 0.500000 0.000000 0.000000
O O5 0.500000 0.500000 0.500000
O O6 0.158937 0.213701 0.884140
O O7 0.438094 0.456071 0.175956
O O8 0.848905 0.605156 0.506316
O O9 0.114957 0.649625 0.886954
O O10 0.869439 0.796153 0.913862
O O11 0.177909 0.052931 0.514896
O O12 0.263587 0.392921 0.785037
O O13 0.532955 0.265640 0.876097
#
# Coordination Sequence:
#
# PCOD8024938 Si02
#       6
#     2   2   2   2   2   2
#     4  11  22  40  69 100 124 169 220 269 326 381
#     4  11  23  43  68  96 130 170 217 273 323 388
#     4  10  23  46  69  95 132 171 224 257 319 397
#     4  11  23  41  69  99 127 170 214 275 327 378
#     4  11  23  43  66  98 136 167 217 268 330 375
#     4  10  23  44  66  93 136 177 212 267 310 394
#
# _framework density 22.901402000000001
#
# number of rings (size 3 to 8) (size 9 to 14) (size 15 to 20)
#    0.000    1.333    3.333    2.500    0.000    2.000 
#    3.000    0.000    0.000    0.000    0.000    0.000 
#    0.000    0.000    0.000    0.000    0.000    0.000 
#
# Total GULP energy -148737.052813 kJ/mol
# GULP energy per Si atom -12394.754401 kJ/mol
# Density = 2.284928 g / cm^3
# Si number density = 22.901402 Si / 1000 Ang^3
#
#
#
# Elastic Constant Matrix: (Units=GPa)
#
#
# Indices 1 2 3 4 5 6 
#
# 1 127.7393 38.7972 38.5248 6.2371 13.2154 -1.0771
# 2 38.7972 81.1935 36.1388 3.5522 -7.6505 -5.2284
# 3 38.5248 36.1388 86.4865 10.7286 17.3074 6.4776
# 4 6.2371 3.5522 10.7286 34.8951 -3.8087 -6.7095
# 5 13.2154 -7.6505 17.3074 -3.8087 53.3662 -4.6290
# 6 -1.0771 -5.2284 6.4776 -6.7095 -4.6290 36.4157
#
#
#
# Elastic Compliance Matrix: (Units=1/GPa)
#
#
# Indices 1 2 3 4 5 6 
#
# 1 0.010001 -0.004064 -0.002089 -0.001087 -0.002497 -0.000434
# 2 -0.004064 0.018839 -0.008297 0.003204 0.007109 0.005554
# 3 -0.002089 -0.008297 0.018890 -0.006769 -0.007877 -0.006862
# 4 -0.001087 0.003204 -0.006769 0.032888 0.006004 0.008455
# 5 -0.002497 0.007109 -0.007877 0.006004 0.023922 0.006495
# 6 -0.000434 0.005554 -0.006862 0.008455 0.006495 0.031849
#
#
# Mechanical properties :
#
#
# Convention : Reuss Voigt Hill
#
# Bulk Modulus (GPa) = 53.11425 58.03788 55.57606
# Shear Modulus (GPa) = 29.14310 37.06596 33.10453
#
# Velocity S-wave (km/s) = 3.57115 4.02743 3.80613
# Velocity P-wave (km/s) = 6.34406 6.85743 6.60573
#
# Compressibility (1/GPa) = 0.01882734
#
# Stress axis : x y z
#
# Youngs Moduli (GPa) = 99.99230 53.08182 52.93748
#
# Poissons Ratio (x) = 0.21574 0.11061
# Poissons Ratio (y) = 0.40640 0.43925
# Poissons Ratio (z) = 0.20893 0.44044
#
# Static dielectric constant tensor:
#      x y z
#    x 4.754550 -0.130730 0.158100 
#    y -0.130730 3.910210 0.045320 
#    z 0.158100 0.045320 4.010930 
# 
# 
# High freq. dielectric constant tensor:
#      x y z
#    x 1.939340 -0.004090 0.012190 
#    y -0.004090 1.877170 -0.006800 
#    z 0.012190 -0.006800 1.893040 
# 
# From -- ./inp_files/59045.got.cif
#   From: 2010.06.25/outbox.cif.g09.slc.cpg/sg2_30_cif.got.tgz:59045.got - 2010.06.27 13:26:56.
