data_PCOD8024650
_publ_section_title
;
Structure prediction by ZEFSAII (Michael W. Deem and Ramdas Pophale) SiO2 
 PCOD8024650
Probable space group: P -1
;
_chemical_formula_sum "Si O2"
_cell_formula_units_Z 16
_cell_length_a 14.389028
_cell_length_b 9.416141
_cell_length_c 8.904143
_cell_angle_alpha 65.935554
_cell_angle_beta 50.646796
_cell_angle_gamma 97.425256
_cell_volume 711.801073
_symmetry_space_group_name_H-M "P -1"
_symmetry_group_IT_number 2
_symmetry_cell_setting 'triclinic'
loop_
_space_group_symop_operation_xyz
x,y,z
-x,-y,-z
loop_
_atom_site_type_symbol
_atom_site_label
_atom_site_fract_x
_atom_site_fract_y
_atom_site_fract_z
Si Si1 0.480871 0.282461 0.715002
Si Si2 0.221935 0.320412 0.256512
Si Si3 0.255896 0.002201 0.416097
Si Si4 0.445495 0.661205 0.048988
Si Si5 0.021723 0.680201 0.326356
Si Si6 0.009421 0.676155 0.987501
Si Si7 0.701479 0.127011 0.873969
Si Si8 0.267009 0.398257 0.844157
O O1 0.343852 0.285059 0.796414
O O2 0.615883 0.390252 0.418580
O O3 0.519240 0.371722 0.804204
O O4 0.442422 0.073052 0.854471
O O5 0.197639 0.119372 0.349154
O O6 0.096997 0.285978 0.508453
O O7 0.379010 0.469310 0.105798
O O8 0.216535 0.398007 0.065907
O O9 0.414800 0.158884 0.248716
O O10 0.255754 0.871920 0.343188
O O11 0.155239 0.869051 0.709157
O O12 0.321690 0.705463 0.158087
O O13 0.177873 0.849617 0.145610
O O14 0.000000 0.500000 0.500000
O O15 0.012044 0.658552 0.168837
O O16 0.873874 0.687750 0.077295
O O17 0.000000 0.500000 0.000000
#
# Coordination Sequence:
#
# PCOD8024650 Si02
#       8
#     2   2   2   2   2   2   2   2
#     4  10  23  43  70 101 141 178 233 276 345 406
#     4  12  24  44  72 102 145 179 230 282 343 410
#     4  11  25  44  72 104 137 184 228 280 346 411
#     4  11  23  44  72 103 142 184 226 287 339 408
#     4  12  26  48  67 102 135 184 226 288 351 407
#     4  12  29  47  70  99 139 180 236 286 348 413
#     4  11  23  44  73 100 142 182 230 281 343 412
#     4  11  24  43  68 102 138 181 223 284 342 399
#
# _framework density 22.478190999999999
#
# number of rings (size 3 to 8) (size 9 to 14) (size 15 to 20)
#    0.000    0.750    3.750    4.875    5.250    2.500 
#    2.250    1.250    0.000    0.000    0.000    0.000 
#    0.000    0.000    0.000    0.000    0.000    0.000 
#
# Total GULP energy -198448.180202 kJ/mol
# GULP energy per Si atom -12403.011263 kJ/mol
# Density = 2.242703 g / cm^3
# Si number density = 22.478191 Si / 1000 Ang^3
#
#
#
# Elastic Constant Matrix: (Units=GPa)
#
#
# Indices 1 2 3 4 5 6 
#
# 1 111.1618 5.5337 46.5405 1.5034 0.4922 15.3285
# 2 5.5337 51.8050 33.8159 -4.6790 8.4333 10.1267
# 3 46.5405 33.8159 157.1524 9.6617 16.4711 8.7034
# 4 1.5034 -4.6790 9.6617 26.4939 -1.7697 1.5534
# 5 0.4922 8.4333 16.4711 -1.7697 40.6293 4.6239
# 6 15.3285 10.1267 8.7034 1.5534 4.6239 34.7340
#
#
#
# Elastic Compliance Matrix: (Units=1/GPa)
#
#
# Indices 1 2 3 4 5 6 
#
# 1 0.011089 0.002066 -0.003715 0.001478 0.001558 -0.004839
# 2 0.002066 0.025154 -0.005873 0.006748 -0.001793 -0.006837
# 3 -0.003715 -0.005873 0.009211 -0.004471 -0.002849 0.001623
# 4 0.001478 0.006748 -0.004471 0.040871 0.002592 -0.003672
# 5 0.001558 -0.001793 -0.002849 0.002592 0.026588 -0.003106
# 6 -0.004839 -0.006837 0.001623 -0.003672 -0.003106 0.033090
#
#
# Mechanical properties :
#
#
# Convention : Reuss Voigt Hill
#
# Bulk Modulus (GPa) = 32.88355 54.65550 43.76952
# Shear Modulus (GPa) = 29.20887 35.98672 32.59779
#
# Velocity S-wave (km/s) = 3.60867 4.00554 3.81228
# Velocity P-wave (km/s) = 5.65899 6.76463 6.23636
#
# Compressibility (1/GPa) = 0.03041035
#
# Stress axis : x y z
#
# Youngs Moduli (GPa) = 90.18294 39.75567 108.57021
#
# Poissons Ratio (x) = -0.08213 0.40329
# Poissons Ratio (y) = -0.18632 0.63759
# Poissons Ratio (z) = 0.33499 0.23347
#
# Static dielectric constant tensor:
#      x y z
#    x 4.354880 -0.019380 -0.262910 
#    y -0.019380 3.941390 0.028670 
#    z -0.262910 0.028670 4.366680 
# 
# 
# High freq. dielectric constant tensor:
#      x y z
#    x 1.893440 -0.010270 -0.012190 
#    y -0.010270 1.878910 -0.003210 
#    z -0.012190 -0.003210 1.894560 
# 
# From -- ./inp_files/297792.got.cif
#   From: 2010.06.25/outbox.cif.g09.slc.cpg/sg2_149_cif.got.tgz:297792.got - 2010.06.27 13:26:56.
