data_PCOD8024494
_publ_section_title
;
Structure prediction by ZEFSAII (Michael W. Deem and Ramdas Pophale) SiO2 
 PCOD8024494
Probable space group: P -1
;
_chemical_formula_sum "Si O2"
_cell_formula_units_Z 16
_cell_length_a 9.176123
_cell_length_b 8.301764
_cell_length_c 18.283953
_cell_angle_alpha 122.355281
_cell_angle_beta 45.270183
_cell_angle_gamma 130.709224
_cell_volume 742.544123
_symmetry_space_group_name_H-M "P -1"
_symmetry_group_IT_number 2
_symmetry_cell_setting 'triclinic'
loop_
_space_group_symop_operation_xyz
x,y,z
-x,-y,-z
loop_
_atom_site_type_symbol
_atom_site_label
_atom_site_fract_x
_atom_site_fract_y
_atom_site_fract_z
Si Si1 0.539813 0.959757 0.056985
Si Si2 0.254927 0.692186 0.454000
Si Si3 0.496274 0.185651 0.750512
Si Si4 0.692471 0.454352 0.885106
Si Si5 0.984977 0.921065 0.904990
Si Si6 0.460607 0.178164 0.270402
Si Si7 0.578256 0.590579 0.414205
Si Si8 0.043477 0.994139 0.570427
O O1 0.318006 0.748824 0.115488
O O2 0.582862 0.150888 0.146460
O O3 0.765051 0.932136 0.953955
O O4 0.500000 0.000000 0.000000
O O5 0.403340 0.696928 0.332263
O O6 0.401010 0.678245 0.468337
O O7 0.000000 0.500000 0.500000
O O8 0.220590 0.904023 0.510350
O O9 0.614245 0.381421 0.812537
O O10 0.557939 0.994314 0.703266
O O11 0.217904 0.079362 0.819429
O O12 0.939033 0.670650 0.854704
O O13 0.500000 0.500000 0.000000
O O14 0.000000 0.000000 0.000000
O O15 0.598491 0.418086 0.311254
O O16 0.201901 0.142349 0.336762
O O17 0.500000 0.500000 0.500000
O O18 0.840271 0.771767 0.377194
O O19 0.000000 0.000000 0.500000
#
# Coordination Sequence:
#
# PCOD8024494 Si02
#       8
#     2   2   2   2   2   2   2   2
#     4  10  23  43  68 102 143 177 224 288 342 406
#     4  12  25  47  70 102 137 180 232 289 347 418
#     4  11  23  42  70  99 132 180 231 284 343 413
#     4   9  19  39  68  94 130 177 219 274 343 395
#     4  11  20  43  68  95 134 179 232 279 333 412
#     4  11  23  43  68  99 138 179 225 280 351 403
#     4  12  25  44  70  98 137 182 229 284 349 413
#     4  12  23  46  68  97 140 175 226 288 341 412
#
# _framework density 21.547542
#
# number of rings (size 3 to 8) (size 9 to 14) (size 15 to 20)
#    0.000    1.000    7.500    0.375    0.000    5.000 
#    4.500    0.625    0.000    0.000    0.000    0.000 
#    0.000    0.000    0.000    0.000    0.000    0.000 
#
# Total GULP energy -198236.141094 kJ/mol
# GULP energy per Si atom -12389.758818 kJ/mol
# Density = 2.149850 g / cm^3
# Si number density = 21.547542 Si / 1000 Ang^3
#
#
#
# Elastic Constant Matrix: (Units=GPa)
#
#
# Indices 1 2 3 4 5 6 
#
# 1 128.6046 48.1365 39.9436 -1.1345 14.7575 -7.1250
# 2 48.1365 143.8502 64.7654 10.6471 20.5820 34.4815
# 3 39.9436 64.7654 108.9231 -7.6154 8.7532 0.9329
# 4 -1.1345 10.6471 -7.6154 47.8857 -1.1002 -0.7519
# 5 14.7575 20.5820 8.7532 -1.1002 32.4000 -1.6918
# 6 -7.1250 34.4815 0.9329 -0.7519 -1.6918 40.4994
#
#
#
# Elastic Compliance Matrix: (Units=1/GPa)
#
#
# Indices 1 2 3 4 5 6 
#
# 1 0.010075 -0.003881 -0.001244 0.000949 -0.001491 0.005061
# 2 -0.003881 0.017495 -0.008602 -0.005783 -0.008045 -0.015824
# 3 -0.001244 -0.008602 0.014795 0.004404 0.002546 0.006952
# 4 0.000949 -0.005783 0.004404 0.023051 0.003124 0.005548
# 5 -0.001491 -0.008045 0.002546 0.003124 0.036495 0.008111
# 6 0.005061 -0.015824 0.006952 0.005548 0.008111 0.039336
#
#
# Mechanical properties :
#
#
# Convention : Reuss Voigt Hill
#
# Bulk Modulus (GPa) = 67.06279 76.34099 71.70189
# Shear Modulus (GPa) = 28.78995 39.39249 34.09122
#
# Velocity S-wave (km/s) = 3.65925 4.28034 3.98193
# Velocity P-wave (km/s) = 7.00316 7.74174 7.38169
#
# Compressibility (1/GPa) = 0.01491140
#
# Stress axis : x y z
#
# Youngs Moduli (GPa) = 99.25817 57.15818 67.58960
#
# Poissons Ratio (x) = 0.22185 0.08407
# Poissons Ratio (y) = 0.38526 0.58138
# Poissons Ratio (z) = 0.12346 0.49165
#
# Static dielectric constant tensor:
#      x y z
#    x 3.971230 -0.254380 -0.248240 
#    y -0.254380 5.275040 0.764210 
#    z -0.248240 0.764210 4.199370 
# 
# 
# High freq. dielectric constant tensor:
#      x y z
#    x 1.840290 0.007160 -0.004830 
#    y 0.007160 1.854380 0.008280 
#    z -0.004830 0.008280 1.843980 
# 
# From -- ./inp_files/557431.got.cif
#   From: 2010.06.25/outbox.cif.g09.slc.cpg/sg2_279_cif.got.tgz:557431.got - 2010.06.27 13:26:56.
