data_PCOD8024138
_publ_section_title
;
Structure prediction by ZEFSAII (Michael W. Deem and Ramdas Pophale) SiO2 
 PCOD8024138
Probable space group: P -1
;
_chemical_formula_sum "Si O2"
_cell_formula_units_Z 12
_cell_length_a 15.029230
_cell_length_b 15.359578
_cell_length_c 9.478146
_cell_angle_alpha 131.332728
_cell_angle_beta 130.027863
_cell_angle_gamma 18.981091
_cell_volume 532.808224
_symmetry_space_group_name_H-M "P -1"
_symmetry_group_IT_number 2
_symmetry_cell_setting 'triclinic'
loop_
_space_group_symop_operation_xyz
x,y,z
-x,-y,-z
loop_
_atom_site_type_symbol
_atom_site_label
_atom_site_fract_x
_atom_site_fract_y
_atom_site_fract_z
Si Si1 0.983081 0.651179 0.161612
Si Si2 0.688025 0.005499 0.491430
Si Si3 0.074691 0.701920 0.035221
Si Si4 0.544895 0.613805 0.526308
Si Si5 0.867796 0.497404 0.394191
Si Si6 0.348143 0.734788 0.745542
O O1 0.721485 0.907986 0.271784
O O2 0.250301 0.467034 0.309253
O O3 0.934987 0.748061 0.061444
O O4 0.000000 0.500000 0.000000
O O5 0.961524 0.737726 0.575537
O O6 0.629178 0.191954 0.582929
O O7 0.426989 0.199455 0.521261
O O8 0.163589 0.544965 0.826270
O O9 0.339224 0.527536 0.174651
O O10 0.855772 0.999521 0.088500
O O11 0.323926 0.786301 0.609150
O O12 0.718744 0.340242 0.375916
O O13 0.000000 0.500000 0.500000
#
# Coordination Sequence:
#
# PCOD8024138 Si02
#       6
#     2   2   2   2   2   2
#     4  11  24  43  72 104 134 170 233 286 329 399
#     4  12  24  45  69 100 135 176 230 270 341 398
#     4  11  24  44  67 102 131 183 226 275 335 398
#     4  10  23  42  71 104 133 179 220 286 339 388
#     4  12  27  46  67  96 144 186 216 272 347 406
#     4  10  23  42  72  98 140 171 230 278 335 394
#
# _framework density 22.522175000000001
#
# number of rings (size 3 to 8) (size 9 to 14) (size 15 to 20)
#    0.000    1.000    3.333    2.500    2.333    5.333 
#    0.000    5.000    0.000    0.000    0.000    0.000 
#    0.000    0.000    0.000    0.000    0.000    0.000 
#
# Total GULP energy -148769.455531 kJ/mol
# GULP energy per Si atom -12397.454628 kJ/mol
# Density = 2.247091 g / cm^3
# Si number density = 22.522175 Si / 1000 Ang^3
#
#
#
# Elastic Constant Matrix: (Units=GPa)
#
#
# Indices 1 2 3 4 5 6 
#
# 1 77.8090 30.7299 62.1946 7.8728 -4.1463 15.1083
# 2 30.7299 105.9741 34.1209 20.6845 -2.0509 0.5199
# 3 62.1946 34.1209 106.4491 20.3837 -1.3594 0.5658
# 4 7.8728 20.6845 20.3837 36.6995 -0.1632 -8.7241
# 5 -4.1463 -2.0509 -1.3594 -0.1632 46.5582 10.5301
# 6 15.1083 0.5199 0.5658 -8.7241 10.5301 40.9222
#
#
#
# Elastic Compliance Matrix: (Units=1/GPa)
#
#
# Indices 1 2 3 4 5 6 
#
# 1 0.029688 -0.003566 -0.016486 0.002103 0.004596 -0.011422
# 2 -0.003566 0.011753 -0.000624 -0.005523 0.000173 -0.000046
# 3 -0.016486 -0.000624 0.020369 -0.006243 -0.002056 0.005011
# 4 0.002103 -0.005523 -0.006243 0.035110 -0.001771 0.007321
# 5 0.004596 0.000173 -0.002056 -0.001771 0.023670 -0.008139
# 6 -0.011422 -0.000046 0.005011 0.007321 -0.008139 0.032240
#
#
# Mechanical properties :
#
#
# Convention : Reuss Voigt Hill
#
# Bulk Modulus (GPa) = 48.88059 60.48035 54.68047
# Shear Modulus (GPa) = 24.87570 35.71510 30.29540
#
# Velocity S-wave (km/s) = 3.32700 3.98650 3.67159
# Velocity P-wave (km/s) = 6.04227 6.93553 6.50425
#
# Compressibility (1/GPa) = 0.02045802
#
# Stress axis : x y z
#
# Youngs Moduli (GPa) = 33.68386 85.08683 49.09484
#
# Poissons Ratio (x) = 0.30345 0.80937
# Poissons Ratio (y) = 0.12013 0.03061
# Poissons Ratio (z) = 0.55531 0.05305
#
# Static dielectric constant tensor:
#      x y z
#    x 4.223980 0.177110 -0.141500 
#    y 0.177110 4.169680 0.116240 
#    z -0.141500 0.116240 3.839620 
# 
# 
# High freq. dielectric constant tensor:
#      x y z
#    x 1.893110 0.007570 -0.003640 
#    y 0.007570 1.898950 0.016620 
#    z -0.003640 0.016620 1.871770 
# 
# From -- ./inp_files/23203.got.cif
#   From: 2010.06.25/outbox.cif.g09.slc.cpg/sg2_12_cif.got.tgz:23203.got - 2010.06.27 13:26:56.
