data_PCOD8024492
_publ_section_title
;
Structure prediction by ZEFSAII (Michael W. Deem and Ramdas Pophale) SiO2 
 PCOD8024492
Probable space group: P -1
;
_chemical_formula_sum "Si O2"
_cell_formula_units_Z 12
_cell_length_a 11.683159
_cell_length_b 23.216710
_cell_length_c 11.154850
_cell_angle_alpha 160.041090
_cell_angle_beta 38.125196
_cell_angle_gamma 149.812489
_cell_volume 513.426269
_symmetry_space_group_name_H-M "P -1"
_symmetry_group_IT_number 2
_symmetry_cell_setting 'triclinic'
loop_
_space_group_symop_operation_xyz
x,y,z
-x,-y,-z
loop_
_atom_site_type_symbol
_atom_site_label
_atom_site_fract_x
_atom_site_fract_y
_atom_site_fract_z
Si Si1 0.033069 0.887407 0.603453
Si Si2 0.884134 0.292337 0.610789
Si Si3 0.535210 0.679460 0.523114
Si Si4 0.096568 0.258272 0.148364
Si Si5 0.398591 0.972069 0.306012
Si Si6 0.324370 0.051254 0.272803
O O1 0.074983 0.868189 0.671644
O O2 0.182549 0.827694 0.290195
O O3 0.762715 0.723938 0.481538
O O4 0.141535 0.122505 0.931209
O O5 0.992900 0.346388 0.493550
O O6 0.611327 0.178276 0.601134
O O7 0.000000 0.500000 0.000000
O O8 0.329580 0.442390 0.254011
O O9 0.579567 0.726116 0.434354
O O10 0.488071 0.840146 0.928447
O O11 0.925063 0.126327 0.922924
O O12 0.309330 0.052378 0.431413
O O13 0.500000 0.000000 0.000000
#
# Coordination Sequence:
#
# PCOD8024492 Si02
#       6
#     2   2   2   2   2   2
#     4  11  25  44  67  97 138 174 217 275 324 394
#     4  12  25  44  68  99 133 178 225 266 332 394
#     4  10  23  43  68 102 130 173 218 269 336 385
#     4  11  23  43  71 100 131 176 218 273 333 388
#     4  11  23  46  68  96 138 173 218 279 324 390
#     4   9  19  43  69  97 135 167 221 272 329 387
#
# _framework density 23.372392999999999
#
# number of rings (size 3 to 8) (size 9 to 14) (size 15 to 20)
#    0.000    1.333    5.000    2.000    2.333    6.000 
#    3.000    1.667    0.000    0.000    0.000    0.000 
#    0.000    0.000    0.000    0.000    0.000    0.000 
#
# Total GULP energy -148765.386684 kJ/mol
# GULP energy per Si atom -12397.115557 kJ/mol
# Density = 2.331920 g / cm^3
# Si number density = 23.372393 Si / 1000 Ang^3
#
#
#
# Elastic Constant Matrix: (Units=GPa)
#
#
# Indices 1 2 3 4 5 6 
#
# 1 168.3798 64.4303 38.7851 26.0112 11.4031 3.5923
# 2 64.4303 155.7346 28.4153 37.5167 7.0197 14.2824
# 3 38.7851 28.4153 78.1805 36.3992 7.2076 9.6074
# 4 26.0112 37.5167 36.3992 44.1908 1.3874 -2.9402
# 5 11.4031 7.0197 7.2076 1.3874 19.3194 0.5837
# 6 3.5923 14.2824 9.6074 -2.9402 0.5837 37.2169
#
#
#
# Elastic Compliance Matrix: (Units=1/GPa)
#
#
# Indices 1 2 3 4 5 6 
#
# 1 0.007757 -0.002740 -0.002891 0.000295 -0.002559 0.001112
# 2 -0.002740 0.009855 0.003032 -0.009514 -0.002260 -0.005016
# 3 -0.002891 0.003032 0.025052 -0.021888 -0.006899 -0.008972
# 4 0.000295 -0.009514 -0.021888 0.049192 0.007522 0.013041
# 5 -0.002559 -0.002260 -0.006899 0.007522 0.056048 0.002610
# 6 0.001112 -0.005016 -0.008972 0.013041 0.002610 0.031993
#
#
# Mechanical properties :
#
#
# Convention : Reuss Voigt Hill
#
# Bulk Modulus (GPa) = 26.69018 73.95069 50.32044
# Shear Modulus (GPa) = 25.30558 38.18971 31.74765
#
# Velocity S-wave (km/s) = 3.29403 4.04662 3.68956
# Velocity P-wave (km/s) = 5.09037 7.31727 6.30294
#
# Compressibility (1/GPa) = 0.03746696
#
# Stress axis : x y z
#
# Youngs Moduli (GPa) = 128.91404 101.46728 39.91660
#
# Poissons Ratio (x) = 0.27798 0.11539
# Poissons Ratio (y) = 0.35317 -0.12101
# Poissons Ratio (z) = 0.37267 -0.30760
#
# Static dielectric constant tensor:
#      x y z
#    x 4.297900 -0.479160 -0.004810 
#    y -0.479160 4.549040 -0.048790 
#    z -0.004810 -0.048790 3.781270 
# 
# 
# High freq. dielectric constant tensor:
#      x y z
#    x 1.940350 -0.002530 -0.008680 
#    y -0.002530 1.943430 -0.004580 
#    z -0.008680 -0.004580 1.895460 
# 
# From -- ./inp_files/164500.got.cif
#   From: 2010.06.25/outbox.cif.g09.slc.cpg/sg2_83_cif.got.tgz:164500.got - 2010.06.27 13:26:56.
