data_PCOD8024613
_publ_section_title
;
Structure prediction by ZEFSAII (Michael W. Deem and Ramdas Pophale) SiO2 
 PCOD8024613
Probable space group: P -1
;
_chemical_formula_sum "Si O2"
_cell_formula_units_Z 14
_cell_length_a 8.754655
_cell_length_b 18.893156
_cell_length_c 9.064168
_cell_angle_alpha 144.099514
_cell_angle_beta 116.964333
_cell_angle_gamma 86.817335
_cell_volume 628.857464
_symmetry_space_group_name_H-M "P -1"
_symmetry_group_IT_number 2
_symmetry_cell_setting 'triclinic'
loop_
_space_group_symop_operation_xyz
x,y,z
-x,-y,-z
loop_
_atom_site_type_symbol
_atom_site_label
_atom_site_fract_x
_atom_site_fract_y
_atom_site_fract_z
Si Si1 0.850624 0.141889 0.548758
Si Si2 0.748123 0.598040 0.303849
Si Si3 0.742565 0.653245 0.717835
Si Si4 0.068129 0.568575 0.986563
Si Si5 0.555857 0.075100 0.808847
Si Si6 0.932007 0.102974 0.197793
Si Si7 0.622084 0.376923 0.344674
O O1 0.887817 0.076477 0.308910
O O2 0.653283 0.002065 0.313036
O O3 0.785558 0.249790 0.646940
O O4 0.054519 0.231008 0.896096
O O5 0.815486 0.689323 0.641149
O O6 0.814204 0.485844 0.144762
O O7 0.872007 0.721905 0.439643
O O8 0.500000 0.500000 0.000000
O O9 0.608208 0.468837 0.360670
O O10 0.569095 0.684998 0.727311
O O11 0.848190 0.518384 0.737368
O O12 0.000000 0.500000 0.000000
O O13 0.500000 0.000000 0.500000
O O14 0.731267 0.068351 0.957957
O O15 0.642714 0.244938 0.093743
O O16 0.000000 0.000000 0.000000
#
# Coordination Sequence:
#
# PCOD8024613 Si02
#       7
#     2   2   2   2   2   2   2
#     4  11  26  45  72  98 140 187 226 286 349 414
#     4  12  26  42  72 102 136 180 234 290 344 406
#     4  10  25  43  71 104 132 180 232 294 343 405
#     4  11  21  43  68  96 135 175 232 282 343 405
#     4  12  27  46  72 102 141 188 231 284 350 420
#     4  12  29  48  67 104 146 183 235 285 351 418
#     4  10  23  43  69  93 142 174 233 279 352 403
#
# _framework density 22.262598000000001
#
# number of rings (size 3 to 8) (size 9 to 14) (size 15 to 20)
#    0.000    0.857    2.857    2.143   12.000    1.714 
#    0.000    0.000    0.000    0.000    0.000    0.000 
#    0.000    0.000    0.000    0.000    0.000    0.000 
#
# Total GULP energy -173533.792138 kJ/mol
# GULP energy per Si atom -12395.270867 kJ/mol
# Density = 2.221193 g / cm^3
# Si number density = 22.262598 Si / 1000 Ang^3
#
#
#
# Elastic Constant Matrix: (Units=GPa)
#
#
# Indices 1 2 3 4 5 6 
#
# 1 128.4773 35.8269 46.2911 -16.2038 8.7655 -5.1994
# 2 35.8269 69.6703 39.7109 -7.9871 -7.0341 7.3814
# 3 46.2911 39.7109 102.4811 -12.1042 -3.2503 -2.7506
# 4 -16.2038 -7.9871 -12.1042 47.0596 3.9350 -6.9133
# 5 8.7655 -7.0341 -3.2503 3.9350 39.6401 2.1515
# 6 -5.1994 7.3814 -2.7506 -6.9133 2.1515 47.1103
#
#
#
# Elastic Compliance Matrix: (Units=1/GPa)
#
#
# Indices 1 2 3 4 5 6 
#
# 1 0.010704 -0.004100 -0.002966 0.002869 -0.003744 0.002243
# 2 -0.004100 0.020889 -0.006278 -0.000489 0.004384 -0.004364
# 3 -0.002966 -0.006278 0.013786 0.001673 0.000414 0.001688
# 4 0.002869 -0.000489 0.001673 0.023445 -0.003133 0.004075
# 5 -0.003744 0.004384 0.000414 -0.003133 0.027329 -0.002784
# 6 0.002243 -0.004364 0.001688 0.004075 -0.002784 0.022982
#
#
# Mechanical properties :
#
#
# Convention : Reuss Voigt Hill
#
# Bulk Modulus (GPa) = 53.50269 60.47628 56.98949
# Shear Modulus (GPa) = 32.88315 38.68199 35.78257
#
# Velocity S-wave (km/s) = 3.84742 4.17289 4.01346
# Velocity P-wave (km/s) = 6.61979 7.10221 6.86524
#
# Compressibility (1/GPa) = 0.01869065
#
# Stress axis : x y z
#
# Youngs Moduli (GPa) = 93.42710 47.87145 72.53631
#
# Poissons Ratio (x) = 0.19630 0.21511
# Poissons Ratio (y) = 0.38310 0.45539
# Poissons Ratio (z) = 0.27706 0.30054
#
# Static dielectric constant tensor:
#      x y z
#    x 4.153360 0.016590 -0.030160 
#    y 0.016590 4.105580 0.130550 
#    z -0.030160 0.130550 3.993510 
# 
# 
# High freq. dielectric constant tensor:
#      x y z
#    x 1.889770 -0.000770 0.000280 
#    y -0.000770 1.881880 0.006020 
#    z 0.000280 0.006020 1.877310 
# 
# From -- ./inp_files/156594.got.cif
#   From: 2010.06.25/outbox.cif.g09.slc.cpg/sg2_79_cif.got.tgz:156594.got - 2010.06.27 13:26:56.
