data_PCOD8024260
_publ_section_title
;
Structure prediction by ZEFSAII (Michael W. Deem and Ramdas Pophale) SiO2 
 PCOD8024260
Probable space group: P -1
;
_chemical_formula_sum "Si O2"
_cell_formula_units_Z 16
_cell_length_a 12.073598
_cell_length_b 9.312506
_cell_length_c 16.231155
_cell_angle_alpha 112.184378
_cell_angle_beta 155.628348
_cell_angle_gamma 73.100295
_cell_volume 690.525182
_symmetry_space_group_name_H-M "P -1"
_symmetry_group_IT_number 2
_symmetry_cell_setting 'triclinic'
loop_
_space_group_symop_operation_xyz
x,y,z
-x,-y,-z
loop_
_atom_site_type_symbol
_atom_site_label
_atom_site_fract_x
_atom_site_fract_y
_atom_site_fract_z
Si Si1 0.032582 0.207779 0.740173
Si Si2 0.889907 0.515514 0.262105
Si Si3 0.478988 0.391661 0.836859
Si Si4 0.775851 0.978525 0.774031
Si Si5 0.393665 0.047534 0.660185
Si Si6 0.764783 0.858555 0.974276
Si Si7 0.477847 0.484216 0.284117
Si Si8 0.569512 0.343326 0.555563
O O1 0.826706 0.294094 0.673465
O O2 0.169048 0.326037 0.789740
O O3 0.894255 0.059565 0.562632
O O4 0.256091 0.155583 0.943549
O O5 0.747238 0.516222 0.254628
O O6 0.200292 0.497580 0.478719
O O7 0.733166 0.379595 0.067945
O O8 0.336868 0.218746 0.682020
O O9 0.589723 0.481505 0.848491
O O10 0.683895 0.796887 0.648928
O O11 0.521886 0.051175 0.655603
O O12 0.000000 0.000000 0.000000
O O13 0.913186 0.080691 0.812648
O O14 0.582209 0.982796 0.843082
O O15 0.658463 0.691712 0.823369
O O16 0.359404 0.608184 0.290656
O O17 0.500000 0.500000 0.500000
#
# Coordination Sequence:
#
# PCOD8024260 Si02
#       8
#     2   2   2   2   2   2   2   2
#     4  11  23  41  66  95 136 170 209 267 328 393
#     4  11  24  48  66  92 136 166 223 281 321 385
#     4  11  27  43  71  97 120 178 226 272 329 379
#     4   9  21  37  61  92 137 168 205 262 321 387
#     4  10  23  43  63  95 130 168 219 265 322 387
#     4  11  23  41  63  95 134 176 206 262 329 385
#     4  12  24  43  68  97 134 171 220 266 332 390
#     4  11  22  38  66 103 133 174 212 266 330 389
#
# _framework density 23.170770999999998
#
# number of rings (size 3 to 8) (size 9 to 14) (size 15 to 20)
#    0.000    1.250    3.750    1.875    7.000    3.000 
#    0.000    0.625    0.000    0.000    0.000    0.000 
#    0.000    0.000    0.000    0.000    0.000    0.000 
#
# Total GULP energy -198373.583409 kJ/mol
# GULP energy per Si atom -12398.348963 kJ/mol
# Density = 2.311803 g / cm^3
# Si number density = 23.170771 Si / 1000 Ang^3
#
#
#
# Elastic Constant Matrix: (Units=GPa)
#
#
# Indices 1 2 3 4 5 6 
#
# 1 75.3554 22.8096 15.7482 13.7097 -16.1073 7.0614
# 2 22.8096 74.6244 19.1947 21.2715 -9.8822 0.3194
# 3 15.7482 19.1947 83.6898 18.8408 -4.7062 -5.7580
# 4 13.7097 21.2715 18.8408 43.4789 5.3087 -4.0253
# 5 -16.1073 -9.8822 -4.7062 5.3087 30.6766 0.6098
# 6 7.0614 0.3194 -5.7580 -4.0253 0.6098 24.0408
#
#
#
# Elastic Compliance Matrix: (Units=1/GPa)
#
#
# Indices 1 2 3 4 5 6 
#
# 1 0.017995 -0.002156 -0.001519 -0.005772 0.009656 -0.006832
# 2 -0.002156 0.017516 -0.001584 -0.008033 0.005687 -0.001468
# 3 -0.001519 -0.001584 0.013953 -0.004710 0.001588 0.002980
# 4 -0.005772 -0.008033 -0.004710 0.032876 -0.012160 0.006487
# 5 0.009656 0.005687 0.001588 -0.012160 0.041960 -0.005632
# 6 -0.006832 -0.001468 0.002980 0.006487 -0.005632 0.045565
#
#
# Mechanical properties :
#
#
# Convention : Reuss Voigt Hill
#
# Bulk Modulus (GPa) = 25.67762 38.79716 32.23739
# Shear Modulus (GPa) = 25.85764 31.36708 28.61236
#
# Velocity S-wave (km/s) = 3.34422 3.68330 3.51785
# Velocity P-wave (km/s) = 5.10076 5.90503 5.51757
#
# Compressibility (1/GPa) = 0.03894442
#
# Stress axis : x y z
#
# Youngs Moduli (GPa) = 55.57118 57.08956 71.66982
#
# Poissons Ratio (x) = 0.12310 0.10888
# Poissons Ratio (y) = 0.11983 0.11355
# Poissons Ratio (z) = 0.08442 0.09045
#
# Static dielectric constant tensor:
#      x y z
#    x 4.499210 0.505070 -0.081570 
#    y 0.505070 4.218190 0.311940 
#    z -0.081570 0.311940 4.323770 
# 
# 
# High freq. dielectric constant tensor:
#      x y z
#    x 1.906050 0.022930 -0.012980 
#    y 0.022930 1.901450 0.019960 
#    z -0.012980 0.019960 1.930350 
# 
# From -- ./inp_files/206088.got.cif
#   From: 2010.06.25/outbox.cif.g09.slc.cpg/sg2_104_cif.got.tgz:206088.got - 2010.06.27 13:26:56.
