data_PCOD8024643
_publ_section_title
;
Structure prediction by ZEFSAII (Michael W. Deem and Ramdas Pophale) SiO2 
 PCOD8024643
Probable space group: P -1
;
_chemical_formula_sum "Si O2"
_cell_formula_units_Z 14
_cell_length_a 12.347618
_cell_length_b 11.620100
_cell_length_c 8.614456
_cell_angle_alpha 106.334040
_cell_angle_beta 148.118243
_cell_angle_gamma 71.371942
_cell_volume 618.495940
_symmetry_space_group_name_H-M "P -1"
_symmetry_group_IT_number 2
_symmetry_cell_setting 'triclinic'
loop_
_space_group_symop_operation_xyz
x,y,z
-x,-y,-z
loop_
_atom_site_type_symbol
_atom_site_label
_atom_site_fract_x
_atom_site_fract_y
_atom_site_fract_z
Si Si1 0.176818 0.272759 0.780527
Si Si2 0.775164 0.255386 0.104818
Si Si3 0.469482 0.608492 0.888645
Si Si4 0.784245 0.017916 0.826695
Si Si5 0.608125 0.369770 0.647923
Si Si6 0.902173 0.390630 0.770669
Si Si7 0.405085 0.143383 0.253960
O O1 0.017689 0.252319 0.443512
O O2 0.060371 0.316574 0.816004
O O3 0.318712 0.367244 0.924980
O O4 0.324463 0.150156 0.977873
O O5 0.639076 0.271656 0.103253
O O6 0.751375 0.128776 0.949909
O O7 0.690651 0.367422 0.926452
O O8 0.316234 0.562543 0.561346
O O9 0.500000 0.500000 0.000000
O O10 0.611549 0.043774 0.489883
O O11 0.766519 0.894949 0.851869
O O12 0.000000 0.000000 0.000000
O O13 0.500000 0.500000 0.500000
O O14 0.820254 0.317820 0.788782
O O15 0.442653 0.278429 0.396425
O O16 0.000000 0.500000 0.000000
#
# Coordination Sequence:
#
# PCOD8024643 Si02
#       7
#     2   2   2   2   2   2   2
#     4  11  25  44  66 101 142 183 227 293 354 418
#     4  10  26  42  69 104 138 182 238 280 362 415
#     4  11  25  44  63  97 150 184 223 285 351 424
#     4  10  24  47  74 102 136 182 238 301 343 421
#     4  11  22  44  68 104 142 185 235 291 349 422
#     4  11  25  38  66  97 134 186 234 276 337 417
#     4  10  23  43  70 100 137 180 233 284 357 407
#
# _framework density 22.635556000000001
#
# number of rings (size 3 to 8) (size 9 to 14) (size 15 to 20)
#    0.000    1.429    1.429    1.714    8.000    6.286 
#    0.000    1.429    0.000    0.000    0.000    0.000 
#    0.000    0.000    0.000    0.000    0.000    0.000 
#
# Total GULP energy -173447.942414 kJ/mol
# GULP energy per Si atom -12389.138744 kJ/mol
# Density = 2.258404 g / cm^3
# Si number density = 22.635556 Si / 1000 Ang^3
#
#
#
# Elastic Constant Matrix: (Units=GPa)
#
#
# Indices 1 2 3 4 5 6 
#
# 1 134.4163 39.5947 50.2645 6.7589 16.8686 19.0335
# 2 39.5947 98.8905 35.8676 5.2861 3.4414 30.2065
# 3 50.2645 35.8676 159.9372 -4.4263 -5.9150 24.3654
# 4 6.7589 5.2861 -4.4263 34.0336 12.5958 -6.9382
# 5 16.8686 3.4414 -5.9150 12.5958 46.3349 2.8242
# 6 19.0335 30.2065 24.3654 -6.9382 2.8242 44.9841
#
#
#
# Elastic Compliance Matrix: (Units=1/GPa)
#
#
# Indices 1 2 3 4 5 6 
#
# 1 0.009719 -0.002530 -0.002486 -0.000806 -0.003389 -0.000979
# 2 -0.002530 0.014374 -0.001172 -0.004155 0.001362 -0.008673
# 3 -0.002486 -0.001172 0.007751 0.000448 0.002007 -0.002417
# 4 -0.000806 -0.004155 0.000448 0.035620 -0.009571 0.008983
# 5 -0.003389 0.001362 0.002007 -0.009571 0.025796 -0.003663
# 6 -0.000979 -0.008673 -0.002417 0.008983 -0.003663 0.031393
#
#
# Mechanical properties :
#
#
# Convention : Reuss Voigt Hill
#
# Bulk Modulus (GPa) = 51.36202 71.63307 61.49755
# Shear Modulus (GPa) = 34.83915 42.90500 38.87208
#
# Velocity S-wave (km/s) = 3.92744 4.35842 4.14853
# Velocity P-wave (km/s) = 6.58076 7.55267 7.08340
#
# Compressibility (1/GPa) = 0.01946964
#
# Stress axis : x y z
#
# Youngs Moduli (GPa) = 102.89549 69.56954 129.01251
#
# Poissons Ratio (x) = 0.17600 0.32067
# Poissons Ratio (y) = 0.26031 0.15117
# Poissons Ratio (z) = 0.25575 0.08152
#
# Static dielectric constant tensor:
#      x y z
#    x 4.737860 0.186460 -0.103440 
#    y 0.186460 3.861510 -0.211970 
#    z -0.103440 -0.211970 4.640420 
# 
# 
# High freq. dielectric constant tensor:
#      x y z
#    x 1.903370 0.018110 0.001720 
#    y 0.018110 1.869170 -0.009020 
#    z 0.001720 -0.009020 1.916410 
# 
# From -- ./inp_files/262748.got.cif
#   From: 2010.06.25/outbox.cif.g09.slc.cpg/sg2_132_cif.got.tgz:262748.got - 2010.06.27 13:26:56.
