data_PCOD8024964
_publ_section_title
;
Structure prediction by ZEFSAII (Michael W. Deem and Ramdas Pophale) SiO2 
 PCOD8024964
Probable space group: P -1
;
_chemical_formula_sum "Si O2"
_cell_formula_units_Z 12
_cell_length_a 5.605172
_cell_length_b 7.183266
_cell_length_c 14.778754
_cell_angle_alpha 81.671157
_cell_angle_beta 118.037584
_cell_angle_gamma 121.530627
_cell_volume 443.618069
_symmetry_space_group_name_H-M "P -1"
_symmetry_group_IT_number 2
_symmetry_cell_setting 'triclinic'
loop_
_space_group_symop_operation_xyz
x,y,z
-x,-y,-z
loop_
_atom_site_type_symbol
_atom_site_label
_atom_site_fract_x
_atom_site_fract_y
_atom_site_fract_z
Si Si1 0.363791 0.705621 0.417611
Si Si2 0.716800 0.880131 0.641406
Si Si3 0.871472 0.233811 0.953443
Si Si4 0.497887 0.732695 0.959387
Si Si5 0.605578 0.790200 0.263792
Si Si6 0.299388 0.585108 0.741216
O O1 0.541670 0.703127 0.541025
O O2 0.566323 0.717248 0.366219
O O3 0.024547 0.480764 0.364303
O O4 0.319146 0.912570 0.396639
O O5 0.585536 0.776870 0.722481
O O6 0.088544 0.962315 0.704393
O O7 0.698635 0.210368 0.828634
O O8 0.740639 0.995312 0.992241
O O9 0.772399 0.356457 0.002690
O O10 0.251941 0.355620 0.988350
O O11 0.302622 0.671723 0.835770
O O12 0.660380 0.624227 0.226039
#
# Coordination Sequence:
#
# PCOD8024964 Si02
#       6
#     2   2   2   2   2   2
#     4  10  23  44  66  99 135 180 231 284 346 414
#     4  10  23  44  68  95 138 181 227 287 346 412
#     4  10  24  43  70 101 139 184 233 282 348 418
#     4  10  24  43  70 102 137 186 231 284 348 414
#     4  11  25  40  69 101 135 180 230 285 347 413
#     4  11  25  40  69 102 136 179 231 285 347 411
#
# _framework density 27.050293
#
# number of rings (size 3 to 8) (size 9 to 14) (size 15 to 20)
#    0.000    1.667    0.000    2.000   14.000    3.333 
#    0.000    0.000    0.000    0.000    0.000    0.000 
#    0.000    0.000    0.000    0.000    0.000    0.000 
#
# Total GULP energy -148879.688071 kJ/mol
# GULP energy per Si atom -12406.640673 kJ/mol
# Density = 2.698873 g / cm^3
# Si number density = 27.050293 Si / 1000 Ang^3
#
#
#
# Elastic Constant Matrix: (Units=GPa)
#
#
# Indices 1 2 3 4 5 6 
#
# 1 174.6836 56.0799 71.2722 16.0650 -0.1211 44.7160
# 2 56.0799 58.4163 30.4566 6.3721 8.0132 27.5429
# 3 71.2722 30.4566 166.4492 10.4378 0.0597 13.4359
# 4 16.0650 6.3721 10.4378 28.9241 0.7217 -1.6821
# 5 -0.1211 8.0132 0.0597 0.7217 51.3037 7.9288
# 6 44.7160 27.5429 13.4359 -1.6821 7.9288 50.3880
#
#
#
# Elastic Compliance Matrix: (Units=1/GPa)
#
#
# Indices 1 2 3 4 5 6 
#
# 1 0.010585 -0.005744 -0.002750 -0.004015 0.001902 -0.005954
# 2 -0.005744 0.029005 -0.001858 -0.003031 -0.002970 -0.009896
# 3 -0.002750 -0.001858 0.007451 -0.000670 0.000062 0.001437
# 4 -0.004015 -0.003031 -0.000670 0.038140 -0.001130 0.006850
# 5 0.001902 -0.002970 0.000062 -0.001130 0.020493 -0.003344
# 6 -0.005954 -0.009896 0.001437 0.006850 -0.003344 0.030911
#
#
# Mechanical properties :
#
#
# Convention : Reuss Voigt Hill
#
# Bulk Modulus (GPa) = 37.96718 79.46295 58.71507
# Shear Modulus (GPa) = 30.10825 42.23917 36.17371
#
# Velocity S-wave (km/s) = 3.33986 3.95588 3.66085
# Velocity P-wave (km/s) = 5.37951 7.09260 6.29461
#
# Compressibility (1/GPa) = 0.02633854
#
# Stress axis : x y z
#
# Youngs Moduli (GPa) = 94.47028 34.47673 134.20506
#
# Poissons Ratio (x) = 0.19803 0.36904
# Poissons Ratio (y) = 0.54262 0.24934
# Poissons Ratio (z) = 0.25978 0.06405
#
# Static dielectric constant tensor:
#      x y z
#    x 5.019900 -0.031870 0.039410 
#    y -0.031870 4.982860 0.351090 
#    z 0.039410 0.351090 4.761240 
# 
# 
# High freq. dielectric constant tensor:
#      x y z
#    x 2.099650 -0.002120 -0.002920 
#    y -0.002120 2.116430 0.016660 
#    z -0.002920 0.016660 2.081730 
# 
# From -- ./inp_files/31895.got.cif
#   From: 2010.06.25/outbox.cif.g09.slc.cpg/sg2_16_cif.got.tgz:31895.got - 2010.06.27 13:26:56.
