data_PCOD8024986
_publ_section_title
;
Structure prediction by ZEFSAII (Michael W. Deem and Ramdas Pophale) SiO2 
 PCOD8024986
Probable space group: P -1
;
_chemical_formula_sum "Si O2"
_cell_formula_units_Z 16
_cell_length_a 9.514629
_cell_length_b 6.864153
_cell_length_c 15.953583
_cell_angle_alpha 104.877890
_cell_angle_beta 96.449546
_cell_angle_gamma 46.373652
_cell_volume 725.782845
_symmetry_space_group_name_H-M "P -1"
_symmetry_group_IT_number 2
_symmetry_cell_setting 'triclinic'
loop_
_space_group_symop_operation_xyz
x,y,z
-x,-y,-z
loop_
_atom_site_type_symbol
_atom_site_label
_atom_site_fract_x
_atom_site_fract_y
_atom_site_fract_z
Si Si1 0.324470 0.901978 0.824971
Si Si2 0.225533 0.921755 0.323076
Si Si3 0.628098 0.820238 0.568071
Si Si4 0.641749 0.346394 0.877681
Si Si5 0.116441 0.749495 0.544784
Si Si6 0.457131 0.638735 0.633519
Si Si7 0.571833 0.990130 0.910655
Si Si8 0.919124 0.419705 0.919382
O O1 0.439898 0.654076 0.873679
O O2 0.328585 0.789882 0.724348
O O3 0.419901 0.033151 0.841748
O O4 0.097793 0.138024 0.855539
O O5 0.241906 0.841342 0.218281
O O6 0.334209 0.659990 0.363110
O O7 0.326346 0.037194 0.353787
O O8 0.001911 0.152261 0.365082
O O9 0.834972 0.516278 0.521257
O O10 0.490556 0.820568 0.615890
O O11 0.500000 0.000000 0.500000
O O12 0.781335 0.370562 0.938982
O O13 0.587020 0.214894 0.920932
O O14 0.333277 0.624224 0.559994
O O15 0.000000 0.000000 0.500000
O O16 0.785675 0.681489 0.875563
O O17 0.500000 0.000000 0.000000
O O18 0.000000 0.500000 0.000000
#
# Coordination Sequence:
#
# PCOD8024986 Si02
#       8
#     2   2   2   2   2   2   2   2
#     4  10  23  44  67  92 132 176 219 266 332 393
#     4  11  23  44  64  96 132 172 223 269 325 391
#     4  12  23  41  66  93 130 172 223 269 324 385
#     4  10  25  43  69  94 132 178 218 269 333 391
#     4  12  23  41  68  95 132 175 219 270 328 380
#     4  11  23  43  64  92 135 173 213 278 327 379
#     4  11  23  45  66  99 132 166 218 274 326 389
#     4  11  23  44  66 101 131 165 218 270 323 399
#
# _framework density 22.045161
#
# number of rings (size 3 to 8) (size 9 to 14) (size 15 to 20)
#    0.000    1.000    3.750    3.000    0.000    3.500 
#    4.500    0.000    0.000    0.000    0.000    0.000 
#    0.000    0.000    0.000    0.000    0.000    0.000 
#
# Total GULP energy -198358.933688 kJ/mol
# GULP energy per Si atom -12397.433355 kJ/mol
# Density = 2.199498 g / cm^3
# Si number density = 22.045161 Si / 1000 Ang^3
#
#
#
# Elastic Constant Matrix: (Units=GPa)
#
#
# Indices 1 2 3 4 5 6 
#
# 1 124.8736 47.5442 19.6465 -9.6099 0.9187 17.6859
# 2 47.5442 125.5508 27.2188 7.7696 -16.5408 6.0188
# 3 19.6465 27.2188 61.6649 0.9036 -0.0105 1.7236
# 4 -9.6099 7.7696 0.9036 33.2615 -1.3421 -5.8025
# 5 0.9187 -16.5408 -0.0105 -1.3421 40.2437 8.9870
# 6 17.6859 6.0188 1.7236 -5.8025 8.9870 47.2521
#
#
#
# Elastic Compliance Matrix: (Units=1/GPa)
#
#
# Indices 1 2 3 4 5 6 
#
# 1 0.010361 -0.003800 -0.001598 0.003408 -0.001080 -0.002712
# 2 -0.003800 0.011098 -0.003600 -0.003611 0.004799 -0.001216
# 3 -0.001598 -0.003600 0.018296 -0.000063 -0.001594 0.000685
# 4 0.003408 -0.003611 -0.000063 0.032439 -0.001241 0.003406
# 5 -0.001080 0.004799 -0.001594 -0.001241 0.028063 -0.005639
# 6 -0.002712 -0.001216 0.000685 0.003406 -0.005639 0.023799
#
#
# Mechanical properties :
#
#
# Convention : Reuss Voigt Hill
#
# Bulk Modulus (GPa) = 45.95842 55.65647 50.80744
# Shear Modulus (GPa) = 33.48835 38.66344 36.07589
#
# Velocity S-wave (km/s) = 3.90177 4.19242 4.04970
# Velocity P-wave (km/s) = 6.41802 6.98116 6.70550
#
# Compressibility (1/GPa) = 0.02175880
#
# Stress axis : x y z
#
# Youngs Moduli (GPa) = 96.51942 90.10249 54.65529
#
# Poissons Ratio (x) = 0.34240 0.08733
# Poissons Ratio (y) = 0.36679 0.19678
# Poissons Ratio (z) = 0.15422 0.32440
#
# Static dielectric constant tensor:
#      x y z
#    x 5.511970 -0.399130 0.027540 
#    y -0.399130 4.296760 0.376280 
#    z 0.027540 0.376280 4.076280 
# 
# 
# High freq. dielectric constant tensor:
#      x y z
#    x 1.874420 -0.000560 0.007410 
#    y -0.000560 1.871260 0.022760 
#    z 0.007410 0.022760 1.866180 
# 
# From -- ./inp_files/47299.got.cif
#   From: 2010.06.25/outbox.cif.g09.slc.cpg/sg2_24_cif.got.tgz:47299.got - 2010.06.27 13:26:56.
