data_PCOD8024696
_publ_section_title
;
Structure prediction by ZEFSAII (Michael W. Deem and Ramdas Pophale) SiO2 
 PCOD8024696
Probable space group: P -1
;
_chemical_formula_sum "Si O2"
_cell_formula_units_Z 12
_cell_length_a 10.025944
_cell_length_b 11.307806
_cell_length_c 7.771637
_cell_angle_alpha 58.707352
_cell_angle_beta 131.861686
_cell_angle_gamma 102.153025
_cell_volume 547.761663
_symmetry_space_group_name_H-M "P -1"
_symmetry_group_IT_number 2
_symmetry_cell_setting 'triclinic'
loop_
_space_group_symop_operation_xyz
x,y,z
-x,-y,-z
loop_
_atom_site_type_symbol
_atom_site_label
_atom_site_fract_x
_atom_site_fract_y
_atom_site_fract_z
Si Si1 0.716905 0.702277 0.784175
Si Si2 0.194012 0.873726 0.938197
Si Si3 0.233693 0.025979 0.529425
Si Si4 0.936744 0.387079 0.649879
Si Si5 0.283782 0.547986 0.258979
Si Si6 0.324347 0.808935 0.474845
O O1 0.692505 0.829246 0.527860
O O2 0.783733 0.550586 0.865214
O O3 0.527078 0.708706 0.716009
O O4 0.880690 0.717916 0.041615
O O5 0.982164 0.946954 0.706578
O O6 0.290668 0.956547 0.817677
O O7 0.223835 0.710804 0.025408
O O8 0.277468 0.883348 0.192106
O O9 0.329652 0.924236 0.536961
O O10 0.000000 0.500000 0.500000
O O11 0.809910 0.472097 0.625279
O O12 0.820042 0.288161 0.525515
O O13 0.500000 0.500000 0.500000
#
# Coordination Sequence:
#
# PCOD8024696 Si02
#       6
#     2   2   2   2   2   2
#     4  12  24  44  71  99 136 181 232 279 349 408
#     4  10  23  43  70  97 134 186 225 277 350 399
#     4  11  24  42  71 102 135 185 226 281 344 415
#     4  11  26  42  68 104 133 183 228 282 351 404
#     4  11  22  47  69  96 140 177 225 293 337 401
#     4  11  24  47  66  99 146 173 229 291 335 410
#
# _framework density 21.907337999999999
#
# number of rings (size 3 to 8) (size 9 to 14) (size 15 to 20)
#    0.000    1.000    6.667    1.500    2.333    4.000 
#    0.000    0.000    0.000    0.000    0.000    0.000 
#    0.000    0.000    0.000    0.000    0.000    0.000 
#
# Total GULP energy -148817.616349 kJ/mol
# GULP energy per Si atom -12401.468029 kJ/mol
# Density = 2.185748 g / cm^3
# Si number density = 21.907338 Si / 1000 Ang^3
#
#
#
# Elastic Constant Matrix: (Units=GPa)
#
#
# Indices 1 2 3 4 5 6 
#
# 1 108.4438 24.8025 61.2319 -11.4618 -1.9701 17.4190
# 2 24.8025 60.4303 7.9509 -16.2193 -8.4822 8.1182
# 3 61.2319 7.9509 60.0480 -12.3634 -8.0760 8.2495
# 4 -11.4618 -16.2193 -12.3634 35.1382 11.7860 2.1570
# 5 -1.9701 -8.4822 -8.0760 11.7860 43.1776 -10.1068
# 6 17.4190 8.1182 8.2495 2.1570 -10.1068 40.9353
#
#
#
# Elastic Compliance Matrix: (Units=1/GPa)
#
#
# Indices 1 2 3 4 5 6 
#
# 1 0.026692 -0.008062 -0.026580 -0.001939 -0.006171 -0.005824
# 2 -0.008062 0.022083 0.007953 0.009780 0.002198 -0.002524
# 3 -0.026580 0.007953 0.045110 0.008430 0.006933 0.001910
# 4 -0.001939 0.009780 0.008430 0.038688 -0.008795 -0.007023
# 5 -0.006171 0.002198 0.006933 -0.008795 0.028976 0.008411
# 6 -0.005824 -0.002524 0.001910 -0.007023 0.008411 0.029469
#
#
# Mechanical properties :
#
#
# Convention : Reuss Voigt Hill
#
# Bulk Modulus (GPa) = 24.68723 46.32144 35.50433
# Shear Modulus (GPa) = 19.38751 32.84599 26.11675
#
# Velocity S-wave (km/s) = 2.97809 3.87630 3.45649
# Velocity P-wave (km/s) = 4.80819 6.42062 5.67200
#
# Compressibility (1/GPa) = 0.04050677
#
# Stress axis : x y z
#
# Youngs Moduli (GPa) = 37.46484 45.28375 22.16820
#
# Poissons Ratio (x) = 0.36509 0.58922
# Poissons Ratio (y) = 0.30205 -0.17631
# Poissons Ratio (z) = 0.99580 -0.36015
#
# Static dielectric constant tensor:
#      x y z
#    x 4.139460 0.022610 0.068660 
#    y 0.022610 4.142610 -0.180320 
#    z 0.068660 -0.180320 4.016520 
# 
# 
# High freq. dielectric constant tensor:
#      x y z
#    x 1.871730 0.007940 0.015290 
#    y 0.007940 1.856980 -0.005400 
#    z 0.015290 -0.005400 1.857250 
# 
# From -- ./inp_files/161481.got.cif
#   From: 2010.06.25/outbox.cif.g09.slc.cpg/sg2_81_cif.got.tgz:161481.got - 2010.06.27 13:26:56.
