data_PCOD8024446
_publ_section_title
;
Structure prediction by ZEFSAII (Michael W. Deem and Ramdas Pophale) SiO2 
 PCOD8024446
Probable space group: P -1
;
_chemical_formula_sum "Si O2"
_cell_formula_units_Z 16
_cell_length_a 10.756251
_cell_length_b 8.757486
_cell_length_c 8.386278
_cell_angle_alpha 74.272392
_cell_angle_beta 113.318092
_cell_angle_gamma 110.130969
_cell_volume 672.746651
_symmetry_space_group_name_H-M "P -1"
_symmetry_group_IT_number 2
_symmetry_cell_setting 'triclinic'
loop_
_space_group_symop_operation_xyz
x,y,z
-x,-y,-z
loop_
_atom_site_type_symbol
_atom_site_label
_atom_site_fract_x
_atom_site_fract_y
_atom_site_fract_z
Si Si1 0.129136 0.406524 0.403296
Si Si2 0.599902 0.460064 0.692725
Si Si3 0.441282 0.910700 0.159375
Si Si4 0.287257 0.932249 0.611480
Si Si5 0.219274 0.040783 0.888423
Si Si6 0.834475 0.451194 0.290464
Si Si7 0.099068 0.099456 0.275385
Si Si8 0.273275 0.330362 0.041974
O O1 0.243500 0.507577 0.308485
O O2 0.185213 0.430990 0.606519
O O3 0.084274 0.213146 0.388173
O O4 0.995498 0.479311 0.313541
O O5 0.500000 0.500000 0.500000
O O6 0.549886 0.275451 0.781276
O O7 0.595958 0.588650 0.798160
O O8 0.540818 0.005838 0.329435
O O9 0.500000 0.000000 0.000000
O O10 0.278837 0.921719 0.074181
O O11 0.239420 0.736379 0.649150
O O12 0.253790 0.018713 0.729719
O O13 0.207164 0.991868 0.406910
O O14 0.303113 0.225116 0.937288
O O15 0.052262 0.014027 0.822113
O O16 0.767211 0.507357 0.085030
O O17 0.151460 0.209211 0.116867
#
# Coordination Sequence:
#
# PCOD8024446 Si02
#       8
#     2   2   2   2   2   2   2   2
#     4  10  24  41  69  98 136 173 225 275 337 395
#     4  11  25  47  70  97 137 179 225 277 339 403
#     4  10  23  43  67  95 132 177 222 272 332 402
#     4  11  23  44  68  95 133 179 224 273 334 403
#     4  11  23  40  65  98 134 173 221 272 335 397
#     4  11  24  43  69 102 133 175 229 277 337 398
#     4  11  23  41  66  98 135 174 221 277 336 395
#     4  11  25  40  67  98 135 171 222 278 333 399
#
# _framework density 23.783099
#
# number of rings (size 3 to 8) (size 9 to 14) (size 15 to 20)
#    0.000    1.250    1.250    4.500    5.250    4.000 
#    0.000    5.625    0.000    0.000    0.000    0.000 
#    0.000    0.000    0.000    0.000    0.000    0.000 
#
# Total GULP energy -198282.499276 kJ/mol
# GULP energy per Si atom -12392.656205 kJ/mol
# Density = 2.372897 g / cm^3
# Si number density = 23.783099 Si / 1000 Ang^3
#
#
#
# Elastic Constant Matrix: (Units=GPa)
#
#
# Indices 1 2 3 4 5 6 
#
# 1 24.8256 20.1953 23.9686 5.9689 13.0459 0.9233
# 2 20.1953 143.2972 64.2830 4.2284 5.1330 -4.7350
# 3 23.9686 64.2830 135.7436 -0.0288 27.8110 -6.1505
# 4 5.9689 4.2284 -0.0288 48.9154 -0.9687 1.6897
# 5 13.0459 5.1330 27.8110 -0.9687 40.6856 9.4169
# 6 0.9233 -4.7350 -6.1505 1.6897 9.4169 32.1000
#
#
#
# Elastic Compliance Matrix: (Units=1/GPa)
#
#
# Indices 1 2 3 4 5 6 
#
# 1 0.058981 -0.005444 -0.004560 -0.007094 -0.015645 0.001590
# 2 -0.005444 0.009538 -0.004295 -0.000082 0.003545 -0.000295
# 3 -0.004560 -0.004295 0.011791 0.000668 -0.006907 0.003748
# 4 -0.007094 -0.000082 0.000668 0.021426 0.002709 -0.001603
# 5 -0.015645 0.003545 -0.006907 0.002709 0.036529 -0.011209
# 6 0.001590 -0.000295 0.003748 -0.001603 -0.011209 0.035154
#
#
# Mechanical properties :
#
#
# Convention : Reuss Voigt Hill
#
# Bulk Modulus (GPa) = 19.33842 57.86227 38.60035
# Shear Modulus (GPa) = 22.80440 37.36816 30.08628
#
# Velocity S-wave (km/s) = 3.09989 3.96814 3.56058
# Velocity P-wave (km/s) = 4.57834 6.73624 5.75926
#
# Compressibility (1/GPa) = 0.05171052
#
# Stress axis : x y z
#
# Youngs Moduli (GPa) = 16.95466 104.83967 84.80815
#
# Poissons Ratio (x) = 0.57078 0.38676
# Poissons Ratio (y) = 0.09231 0.36428
# Poissons Ratio (z) = 0.07732 0.45032
#
# Static dielectric constant tensor:
#      x y z
#    x 4.539320 0.045300 0.444550 
#    y 0.045300 4.424130 0.307310 
#    z 0.444550 0.307310 4.749940 
# 
# 
# High freq. dielectric constant tensor:
#      x y z
#    x 1.922110 0.000100 0.012910 
#    y 0.000100 1.949240 0.012030 
#    z 0.012910 0.012030 1.958930 
# 
# From -- ./inp_files/243200.got.cif
#   From: 2010.06.25/outbox.cif.g09.slc.cpg/sg2_122_cif.got.tgz:243200.got - 2010.06.27 13:26:56.
