data_PCOD8024930
_publ_section_title
;
Structure prediction by ZEFSAII (Michael W. Deem and Ramdas Pophale) SiO2 
 PCOD8024930
Probable space group: P -1
;
_chemical_formula_sum "Si O2"
_cell_formula_units_Z 16
_cell_length_a 14.705938
_cell_length_b 11.335121
_cell_length_c 14.470807
_cell_angle_alpha 132.530159
_cell_angle_beta 151.337909
_cell_angle_gamma 66.643743
_cell_volume 708.391502
_symmetry_space_group_name_H-M "P -1"
_symmetry_group_IT_number 2
_symmetry_cell_setting 'triclinic'
loop_
_space_group_symop_operation_xyz
x,y,z
-x,-y,-z
loop_
_atom_site_type_symbol
_atom_site_label
_atom_site_fract_x
_atom_site_fract_y
_atom_site_fract_z
Si Si1 0.842610 0.209349 0.350972
Si Si2 0.419300 0.793787 0.556870
Si Si3 0.111664 0.749754 0.105035
Si Si4 0.624252 0.607297 0.542728
Si Si5 0.507531 0.786283 0.835125
Si Si6 0.866500 0.195001 0.153430
Si Si7 0.730227 0.826582 0.567772
Si Si8 0.225593 0.583427 0.955043
O O1 0.649528 0.239914 0.232787
O O2 0.874411 0.264179 0.300905
O O3 0.081552 0.350822 0.692752
O O4 0.757925 0.985998 0.172769
O O5 0.191714 0.751684 0.282083
O O6 0.472798 0.633348 0.494857
O O7 0.388948 0.797153 0.641211
O O8 0.630743 0.996420 0.815597
O O9 0.224496 0.963315 0.279169
O O10 0.200517 0.643297 0.066801
O O11 0.838415 0.627663 0.797147
O O12 0.469580 0.395210 0.245813
O O13 0.723598 0.768892 0.637454
O O14 0.891892 0.353048 0.189457
O O15 0.073691 0.169177 0.312027
O O16 0.491919 0.676180 0.223368
#
# Coordination Sequence:
#
# PCOD8024930 Si02
#       8
#     2   2   2   2   2   2   2   2
#     4  10  23  44  66  88 124 177 228 257 303 368
#     4  11  23  40  67  98 131 166 208 262 323 382
#     4  12  22  38  66 102 133 160 200 262 334 388
#     4  12  22  39  67  98 132 168 203 261 328 383
#     4  10  23  45  67  89 125 178 223 260 304 369
#     4  11  22  40  66  96 131 169 208 263 320 379
#     4  12  23  37  67 102 135 158 203 264 333 387
#     4  12  22  39  67  97 131 169 203 264 327 382
#
# _framework density 22.586379999999998
#
# number of rings (size 3 to 8) (size 9 to 14) (size 15 to 20)
#    0.000    0.750    6.250    2.250    0.000    1.000 
#    0.000    0.625    0.000    0.000    0.000    0.000 
#    0.000    0.000    0.000    0.000    0.000    0.000 
#
# Total GULP energy -198478.151590 kJ/mol
# GULP energy per Si atom -12404.884474 kJ/mol
# Density = 2.253497 g / cm^3
# Si number density = 22.586380 Si / 1000 Ang^3
#
#
#
# Elastic Constant Matrix: (Units=GPa)
#
#
# Indices 1 2 3 4 5 6 
#
# 1 96.3577 8.5850 18.0203 -4.4076 -16.4337 -6.1288
# 2 8.5850 57.2711 30.5000 -2.2806 -8.0341 -9.1720
# 3 18.0203 30.5000 138.9145 10.1562 -5.0653 -11.6904
# 4 -4.4076 -2.2806 10.1562 37.9921 -3.5274 0.1529
# 5 -16.4337 -8.0341 -5.0653 -3.5274 30.4996 1.0124
# 6 -6.1288 -9.1720 -11.6904 0.1529 1.0124 23.2343
#
#
#
# Elastic Compliance Matrix: (Units=1/GPa)
#
#
# Indices 1 2 3 4 5 6 
#
# 1 0.011968 0.000305 -0.001362 0.002365 0.006500 0.002293
# 2 0.000305 0.021534 -0.004270 0.002933 0.005262 0.006184
# 3 -0.001362 -0.004270 0.008690 -0.002823 -0.000821 0.002382
# 4 0.002365 0.002933 -0.002823 0.027974 0.004815 -0.000033
# 5 0.006500 0.005262 -0.000821 0.004815 0.038040 0.001689
# 6 0.002293 0.006184 0.002382 -0.000033 0.001689 0.047211
#
#
# Mechanical properties :
#
#
# Convention : Reuss Voigt Hill
#
# Bulk Modulus (GPa) = 31.70814 45.19488 38.45151
# Shear Modulus (GPa) = 28.31508 34.04106 31.17807
#
# Velocity S-wave (km/s) = 3.54451 3.88641 3.71939
# Velocity P-wave (km/s) = 5.55162 6.33973 5.95872
#
# Compressibility (1/GPa) = 0.03153765
#
# Stress axis : x y z
#
# Youngs Moduli (GPa) = 83.55424 46.43743 115.07786
#
# Poissons Ratio (x) = -0.01415 0.15678
# Poissons Ratio (y) = -0.02547 0.49135
# Poissons Ratio (z) = 0.11383 0.19828
#
# Static dielectric constant tensor:
#      x y z
#    x 3.917720 0.025100 -0.029030 
#    y 0.025100 3.915480 0.233180 
#    z -0.029030 0.233180 4.343460 
# 
# 
# High freq. dielectric constant tensor:
#      x y z
#    x 1.890200 0.008120 0.000690 
#    y 0.008120 1.872790 0.019190 
#    z 0.000690 0.019190 1.903460 
# 
# From -- ./inp_files/455493.got.cif
#   From: 2010.06.25/outbox.cif.g09.slc.cpg/sg2_228_cif.got.tgz:455493.got - 2010.06.27 13:26:56.
