data_PCOD8024091
_publ_section_title
;
Structure prediction by ZEFSAII (Michael W. Deem and Ramdas Pophale) SiO2 
 PCOD8024091
Probable space group: P -1
;
_chemical_formula_sum "Si O2"
_cell_formula_units_Z 16
_cell_length_a 19.179232
_cell_length_b 11.588186
_cell_length_c 10.445092
_cell_angle_alpha 120.126000
_cell_angle_beta 40.413696
_cell_angle_gamma 149.196661
_cell_volume 685.091028
_symmetry_space_group_name_H-M "P -1"
_symmetry_group_IT_number 2
_symmetry_cell_setting 'triclinic'
loop_
_space_group_symop_operation_xyz
x,y,z
-x,-y,-z
loop_
_atom_site_type_symbol
_atom_site_label
_atom_site_fract_x
_atom_site_fract_y
_atom_site_fract_z
Si Si1 0.856510 0.231176 0.812477
Si Si2 0.582972 0.092913 0.292886
Si Si3 0.424806 0.472185 0.395121
Si Si4 0.808324 0.210697 0.399494
Si Si5 0.362497 0.105906 0.304027
Si Si6 0.936245 0.802315 0.400978
Si Si7 0.152969 0.978160 0.931138
Si Si8 0.276418 0.506355 0.815774
O O1 0.972766 0.488355 0.749887
O O2 0.022991 0.287941 0.622644
O O3 0.686389 0.025528 0.829089
O O4 0.729369 0.124060 0.062491
O O5 0.713677 0.365333 0.233314
O O6 0.500000 0.000000 0.500000
O O7 0.376422 0.878222 0.376247
O O8 0.329888 0.226131 0.384465
O O9 0.300196 0.430151 0.440518
O O10 0.394804 0.501855 0.594303
O O11 0.667547 0.724415 0.171040
O O12 0.759834 0.076375 0.259988
O O13 0.799553 0.104965 0.476274
O O14 0.598826 0.323942 0.135525
O O15 0.000000 0.000000 0.500000
O O16 0.077032 0.925521 0.149840
O O17 0.959894 0.784472 0.993209
#
# Coordination Sequence:
#
# PCOD8024091 Si02
#       8
#     2   2   2   2   2   2   2   2
#     4  12  26  46  73 104 147 189 228 296 359 415
#     4  11  24  43  70 104 141 185 237 289 351 421
#     4  11  23  47  72 100 143 184 238 294 343 420
#     4  11  25  44  73 106 139 189 237 290 351 422
#     4  11  24  48  69 103 149 186 236 290 350 424
#     4  11  26  48  70 105 142 182 240 288 358 419
#     4  11  23  44  74 103 138 187 231 293 350 414
#     4  10  23  42  70 106 139 182 239 287 349 422
#
# _framework density 23.354559999999999
#
# number of rings (size 3 to 8) (size 9 to 14) (size 15 to 20)
#    0.000    1.000    5.000    1.500    3.500    4.000 
#    6.750    0.000    0.000    0.000    0.000    0.000 
#    0.000    0.000    0.000    0.000    0.000    0.000 
#
# Total GULP energy -198259.697696 kJ/mol
# GULP energy per Si atom -12391.231106 kJ/mol
# Density = 2.330140 g / cm^3
# Si number density = 23.354560 Si / 1000 Ang^3
#
#
#
# Elastic Constant Matrix: (Units=GPa)
#
#
# Indices 1 2 3 4 5 6 
#
# 1 102.7862 54.4740 47.1801 -8.7496 -3.3444 8.3374
# 2 54.4740 138.2876 60.5822 -6.2725 7.6075 5.2636
# 3 47.1801 60.5822 125.7881 -15.1513 -4.7329 2.5747
# 4 -8.7496 -6.2725 -15.1513 44.6694 5.2122 -7.2190
# 5 -3.3444 7.6075 -4.7329 5.2122 27.0182 0.8762
# 6 8.3374 5.2636 2.5747 -7.2190 0.8762 32.6406
#
#
#
# Elastic Compliance Matrix: (Units=1/GPa)
#
#
# Indices 1 2 3 4 5 6 
#
# 1 0.013545 -0.004061 -0.002937 0.000406 0.002310 -0.002546
# 2 -0.004061 0.010736 -0.003815 -0.000148 -0.004155 -0.000314
# 3 -0.002937 -0.003815 0.011265 0.002621 0.002146 0.000999
# 4 0.000406 -0.000148 0.002621 0.024702 -0.004386 0.005294
# 5 0.002310 -0.004155 0.002146 -0.004386 0.039759 -0.002127
# 6 -0.002546 -0.000314 0.000999 0.005294 -0.002127 0.032487
#
#
# Mechanical properties :
#
#
# Convention : Reuss Voigt Hill
#
# Bulk Modulus (GPa) = 71.83725 76.81494 74.32610
# Shear Modulus (GPa) = 31.49391 34.50734 33.00063
#
# Velocity S-wave (km/s) = 3.67619 3.84805 3.76310
# Velocity P-wave (km/s) = 6.98895 7.25986 7.12569
#
# Compressibility (1/GPa) = 0.01392035
#
# Stress axis : x y z
#
# Youngs Moduli (GPa) = 73.82612 93.14173 88.77072
#
# Poissons Ratio (x) = 0.37824 0.26070
# Poissons Ratio (y) = 0.29980 0.33870
# Poissons Ratio (z) = 0.21681 0.35537
#
# Static dielectric constant tensor:
#      x y z
#    x 4.172360 0.044650 -0.220240 
#    y 0.044650 4.221540 0.046210 
#    z -0.220240 0.046210 4.246260 
# 
# 
# High freq. dielectric constant tensor:
#      x y z
#    x 1.911950 0.004110 -0.017180 
#    y 0.004110 1.927050 -0.001330 
#    z -0.017180 -0.001330 1.921330 
# 
# From -- ./inp_files/471205.got.cif
#   From: 2010.06.25/outbox.cif.g09.slc.cpg/sg2_236_cif.got.tgz:471205.got - 2010.06.27 13:26:56.
