data_PCOD8024877
_publ_section_title
;
Structure prediction by ZEFSAII (Michael W. Deem and Ramdas Pophale) SiO2 
 PCOD8024877
Probable space group: P -1
;
_chemical_formula_sum "Si O2"
_cell_formula_units_Z 14
_cell_length_a 7.075813
_cell_length_b 17.060691
_cell_length_c 10.015689
_cell_angle_alpha 64.188003
_cell_angle_beta 37.510625
_cell_angle_gamma 65.290165
_cell_volume 656.919348
_symmetry_space_group_name_H-M "P -1"
_symmetry_group_IT_number 2
_symmetry_cell_setting 'triclinic'
loop_
_space_group_symop_operation_xyz
x,y,z
-x,-y,-z
loop_
_atom_site_type_symbol
_atom_site_label
_atom_site_fract_x
_atom_site_fract_y
_atom_site_fract_z
Si Si1 0.284058 0.901533 0.584537
Si Si2 0.467291 0.334027 0.748642
Si Si3 0.344986 0.952635 0.809778
Si Si4 0.303023 0.172680 0.093443
Si Si5 0.691776 0.278141 0.390256
Si Si6 0.794154 0.406913 0.025272
Si Si7 0.733548 0.442231 0.734360
O O1 0.376677 0.908338 0.680844
O O2 0.460973 0.811295 0.486920
O O3 0.905247 0.899924 0.795285
O O4 0.396166 0.980195 0.377387
O O5 0.556132 0.340622 0.539061
O O6 0.713364 0.370395 0.683152
O O7 0.464852 0.228964 0.850692
O O8 0.141996 0.398112 0.898649
O O9 0.430022 0.875102 0.925707
O O10 0.000000 0.000000 0.000000
O O11 0.059422 0.248633 0.244968
O O12 0.632797 0.330918 0.244921
O O13 0.603861 0.500516 0.098509
O O14 0.817396 0.391336 0.864197
O O15 0.000000 0.500000 0.500000
#
# Coordination Sequence:
#
# PCOD8024877 Si02
#       7
#     2   2   2   2   2   2   2
#     4   9  23  42  61  92 127 164 210 260 313 376
#     4  11  23  42  67  94 123 176 212 261 319 375
#     4  11  23  40  67  94 126 167 210 261 315 377
#     4   9  23  41  62  91 128 164 212 260 312 379
#     4   9  22  42  65  89 130 165 211 260 317 372
#     4  10  23  44  64  93 130 167 211 271 306 384
#     4  11  25  42  66  97 129 167 215 264 320 376
#
# _framework density 21.311595000000001
#
# number of rings (size 3 to 8) (size 9 to 14) (size 15 to 20)
#    0.857    1.143    0.000    1.714    4.000    9.714 
#    5.143    0.000    0.000    0.000    0.000    0.000 
#    0.000    0.000    0.000    0.000    0.000    0.000 
#
# Total GULP energy -173455.527453 kJ/mol
# GULP energy per Si atom -12389.680532 kJ/mol
# Density = 2.126309 g / cm^3
# Si number density = 21.311595 Si / 1000 Ang^3
#
#
#
# Elastic Constant Matrix: (Units=GPa)
#
#
# Indices 1 2 3 4 5 6 
#
# 1 110.1681 55.9833 54.1966 -16.0516 12.2069 -0.3448
# 2 55.9833 78.6654 39.0342 -8.4881 11.1676 -2.2831
# 3 54.1966 39.0342 106.8668 -17.6476 16.6600 5.9350
# 4 -16.0516 -8.4881 -17.6476 28.7088 -1.5441 5.1579
# 5 12.2069 11.1676 16.6600 -1.5441 34.0521 0.1296
# 6 -0.3448 -2.2831 5.9350 5.1579 0.1296 49.8650
#
#
#
# Elastic Compliance Matrix: (Units=1/GPa)
#
#
# Indices 1 2 3 4 5 6 
#
# 1 0.016415 -0.009062 -0.004262 0.003879 -0.000651 -0.000194
# 2 -0.009062 0.020852 -0.002927 -0.001063 -0.002211 0.001356
# 3 -0.004262 -0.002927 0.014343 0.005781 -0.004258 -0.002457
# 4 0.003879 -0.001063 0.005781 0.041022 -0.001991 -0.004948
# 5 -0.000651 -0.002211 -0.004258 -0.001991 0.032316 0.000523
# 6 -0.000194 0.001356 -0.002457 -0.004948 0.000523 0.020918
#
#
# Mechanical properties :
#
#
# Convention : Reuss Voigt Hill
#
# Bulk Modulus (GPa) = 52.33363 66.01429 59.17396
# Shear Modulus (GPa) = 27.06530 32.29092 29.67811
#
# Velocity S-wave (km/s) = 3.56754 3.89676 3.73578
# Velocity P-wave (km/s) = 6.44822 7.16165 6.81428
#
# Compressibility (1/GPa) = 0.01910817
#
# Stress axis : x y z
#
# Youngs Moduli (GPa) = 60.91836 47.95686 69.72050
#
# Poissons Ratio (x) = 0.43459 0.29717
# Poissons Ratio (y) = 0.55204 0.20406
# Poissons Ratio (z) = 0.25965 0.14036
#
# Static dielectric constant tensor:
#      x y z
#    x 3.634570 -0.067280 0.009410 
#    y -0.067280 3.700250 -0.153960 
#    z 0.009410 -0.153960 3.852090 
# 
# 
# High freq. dielectric constant tensor:
#      x y z
#    x 1.826550 -0.006950 0.006590 
#    y -0.006950 1.828550 -0.010940 
#    z 0.006590 -0.010940 1.834870 
# 
# From -- ./inp_files/137429.got.cif
#   From: 2010.06.25/outbox.cif.g09.slc.cpg/sg2_69_cif.got.tgz:137429.got - 2010.06.27 13:26:56.
