data_PCOD8024496
_publ_section_title
;
Structure prediction by ZEFSAII (Michael W. Deem and Ramdas Pophale) SiO2 
 PCOD8024496
Probable space group: P -1
;
_chemical_formula_sum "Si O2"
_cell_formula_units_Z 12
_cell_length_a 16.941753
_cell_length_b 9.300599
_cell_length_c 18.768749
_cell_angle_alpha 42.115770
_cell_angle_beta 163.736729
_cell_angle_gamma 140.748679
_cell_volume 524.008514
_symmetry_space_group_name_H-M "P -1"
_symmetry_group_IT_number 2
_symmetry_cell_setting 'triclinic'
loop_
_space_group_symop_operation_xyz
x,y,z
-x,-y,-z
loop_
_atom_site_type_symbol
_atom_site_label
_atom_site_fract_x
_atom_site_fract_y
_atom_site_fract_z
Si Si1 0.648597 0.801702 0.962380
Si Si2 0.284334 0.927850 0.946205
Si Si3 0.799716 0.342544 0.488246
Si Si4 0.760008 0.804615 0.322764
Si Si5 0.834665 0.512034 0.777863
Si Si6 0.226886 0.957914 0.156382
O O1 0.342536 0.640122 0.719589
O O2 0.846600 0.980598 0.010104
O O3 0.865256 0.665018 0.227039
O O4 0.543844 0.930536 0.888431
O O5 0.979193 0.749811 0.775371
O O6 0.233499 0.117736 0.781508
O O7 0.450450 0.778448 0.103853
O O8 0.820971 0.567407 0.468850
O O9 0.571012 0.119335 0.412437
O O10 0.000000 0.000000 0.500000
O O11 0.500000 0.500000 0.500000
O O12 0.825234 0.309042 0.790344
O O13 0.000000 0.500000 0.000000
O O14 0.000000 0.000000 0.000000
#
# Coordination Sequence:
#
# PCOD8024496 Si02
#       6
#     2   2   2   2   2   2
#     4  10  24  44  70  98 139 181 232 286 353 414
#     4  11  26  48  69 108 143 189 240 290 358 425
#     4  10  24  46  67 102 136 184 235 286 352 414
#     4  11  28  45  74 101 146 191 238 299 350 423
#     4  12  25  45  75 106 141 185 233 291 354 425
#     4  10  23  43  68 103 138 182 231 291 350 417
#
# _framework density 22.900390000000002
#
# number of rings (size 3 to 8) (size 9 to 14) (size 15 to 20)
#    1.000    0.333    1.667    2.000    9.333    2.000 
#    0.000    0.000    0.000    0.000    0.000    0.000 
#    0.000    0.000    0.000    0.000    0.000    0.000 
#
# Total GULP energy -148721.337026 kJ/mol
# GULP energy per Si atom -12393.444752 kJ/mol
# Density = 2.284827 g / cm^3
# Si number density = 22.900390 Si / 1000 Ang^3
#
#
#
# Elastic Constant Matrix: (Units=GPa)
#
#
# Indices 1 2 3 4 5 6 
#
# 1 118.7261 19.7990 23.6646 -5.2608 0.9061 -7.9717
# 2 19.7990 99.0119 18.4960 -2.4299 3.5971 -29.1269
# 3 23.6646 18.4960 131.4638 -1.5027 -8.9756 -8.3914
# 4 -5.2608 -2.4299 -1.5027 35.4891 -11.3216 5.1556
# 5 0.9061 3.5971 -8.9756 -11.3216 18.9689 3.7065
# 6 -7.9717 -29.1269 -8.3914 5.1556 3.7065 36.8395
#
#
#
# Elastic Compliance Matrix: (Units=1/GPa)
#
#
# Indices 1 2 3 4 5 6 
#
# 1 0.009010 -0.001375 -0.001411 0.001020 -0.000312 0.000430
# 2 -0.001375 0.014408 -0.001591 -0.003547 -0.007885 0.012021
# 3 -0.001411 -0.001591 0.008458 0.001891 0.005590 -0.000464
# 4 0.001020 -0.003547 0.001891 0.037979 0.026160 -0.010100
# 5 -0.000312 -0.007885 0.005590 0.026160 0.075672 -0.016303
# 6 0.000430 0.012021 -0.000464 -0.010100 -0.016303 0.039690
#
#
# Mechanical properties :
#
#
# Convention : Reuss Voigt Hill
#
# Bulk Modulus (GPa) = 43.24967 52.56898 47.90933
# Shear Modulus (GPa) = 24.79205 37.40899 31.10052
#
# Velocity S-wave (km/s) = 3.29386 4.04611 3.68921
# Velocity P-wave (km/s) = 5.77867 6.69577 6.25405
#
# Compressibility (1/GPa) = 0.02312156
#
# Stress axis : x y z
#
# Youngs Moduli (GPa) = 110.99184 69.40709 118.22954
#
# Poissons Ratio (x) = 0.09546 0.16677
# Poissons Ratio (y) = 0.15266 0.18811
# Poissons Ratio (z) = 0.15656 0.11043
#
# Static dielectric constant tensor:
#      x y z
#    x 4.015050 -1.018220 1.147890 
#    y -1.018220 3.340000 0.394660 
#    z 1.147890 0.394660 3.857420 
# 
# 
# High freq. dielectric constant tensor:
#      x y z
#    x 1.905300 -0.007990 0.008570 
#    y -0.007990 1.915340 0.001580 
#    z 0.008570 0.001580 1.894710 
# 
# From -- ./inp_files/59570.got.cif
#   From: 2010.06.25/outbox.cif.g09.slc.cpg/sg2_30_cif.got.tgz:59570.got - 2010.06.27 13:26:56.
