data_PCOD8024321
_publ_section_title
;
Structure prediction by ZEFSAII (Michael W. Deem and Ramdas Pophale) SiO2 
 PCOD8024321
Probable space group: P -1
;
_chemical_formula_sum "Si O2"
_cell_formula_units_Z 16
_cell_length_a 25.547178
_cell_length_b 9.617042
_cell_length_c 21.981083
_cell_angle_alpha 36.249344
_cell_angle_beta 18.644374
_cell_angle_gamma 27.404746
_cell_volume 772.202977
_symmetry_space_group_name_H-M "P -1"
_symmetry_group_IT_number 2
_symmetry_cell_setting 'triclinic'
loop_
_space_group_symop_operation_xyz
x,y,z
-x,-y,-z
loop_
_atom_site_type_symbol
_atom_site_label
_atom_site_fract_x
_atom_site_fract_y
_atom_site_fract_z
Si Si1 0.626581 0.174970 0.006817
Si Si2 0.340318 0.531549 0.031176
Si Si3 0.578656 0.107374 0.654270
Si Si4 0.000824 0.558002 0.759197
Si Si5 0.211784 0.184007 0.351521
Si Si6 0.974721 0.868724 0.217169
Si Si7 0.101852 0.715864 0.944418
Si Si8 0.184237 0.819719 0.412155
O O1 0.753974 0.181562 0.919971
O O2 0.500000 0.500000 0.000000
O O3 0.781165 0.917498 0.876316
O O4 0.463320 0.129637 0.228076
O O5 0.356362 0.256139 0.138877
O O6 0.190939 0.671561 0.087512
O O7 0.582177 0.378073 0.803959
O O8 0.360597 0.460622 0.759189
O O9 0.655133 0.074875 0.651092
O O10 0.763188 0.019041 0.436662
O O11 0.989643 0.368375 0.787654
O O12 0.188353 0.566906 0.533582
O O13 0.013376 0.424141 0.860183
O O14 0.000000 0.500000 0.500000
O O15 0.137958 0.073073 0.420384
O O16 0.946164 0.153704 0.117301
O O17 0.000000 0.000000 0.000000
O O18 0.000000 0.000000 0.500000
#
# Coordination Sequence:
#
# PCOD8024321 Si02
#       8
#     2   2   2   2   2   2   2   2
#     4  11  22  39  63  94 135 175 207 263 336 395
#     4  12  25  40  65  99 134 170 219 272 324 391
#     4  11  23  41  72  96 134 176 220 264 332 398
#     4  10  23  43  65  92 130 175 216 262 334 388
#     4  12  25  42  65 101 135 173 216 267 332 399
#     4  11  23  44  69  98 127 170 232 273 320 387
#     4   9  22  43  73  94 127 174 222 277 324 384
#     4  12  27  40  63  96 137 173 215 268 330 395
#
# _framework density 20.719940000000001
#
# number of rings (size 3 to 8) (size 9 to 14) (size 15 to 20)
#    0.000    1.000    2.500    3.750    8.750    0.000 
#    0.000    3.125    2.750    0.000    0.000    0.000 
#    0.000    0.000    0.000    0.000    0.000    0.000 
#
# Total GULP energy -198335.464446 kJ/mol
# GULP energy per Si atom -12395.966528 kJ/mol
# Density = 2.067278 g / cm^3
# Si number density = 20.719940 Si / 1000 Ang^3
#
#
#
# Elastic Constant Matrix: (Units=GPa)
#
#
# Indices 1 2 3 4 5 6 
#
# 1 116.9207 51.9001 55.2586 -6.2604 8.5255 6.3256
# 2 51.9001 121.0905 62.9094 -3.4931 11.3647 -6.4700
# 3 55.2586 62.9094 151.2632 -16.6001 15.0331 -13.5248
# 4 -6.2604 -3.4931 -16.6001 42.7964 -2.7170 2.5809
# 5 8.5255 11.3647 15.0331 -2.7170 27.4777 -13.0240
# 6 6.3256 -6.4700 -13.5248 2.5809 -13.0240 37.3977
#
#
#
# Elastic Compliance Matrix: (Units=1/GPa)
#
#
# Indices 1 2 3 4 5 6 
#
# 1 0.012050 -0.003576 -0.003015 0.000409 -0.002826 -0.004760
# 2 -0.003576 0.011752 -0.003463 -0.001060 -0.001521 0.000929
# 3 -0.003015 -0.003463 0.009855 0.002841 -0.001424 0.002783
# 4 0.000409 -0.001060 0.002841 0.024535 0.000896 -0.000607
# 5 -0.002826 -0.001521 -0.001424 0.000896 0.046225 0.015736
# 6 -0.004760 0.000929 0.002783 -0.000607 0.015736 0.034234
#
#
# Mechanical properties :
#
#
# Convention : Reuss Voigt Hill
#
# Bulk Modulus (GPa) = 73.80561 81.04563 77.42562
# Shear Modulus (GPa) = 30.62294 36.14811 33.38553
#
# Velocity S-wave (km/s) = 3.84858 4.18138 4.01842
# Velocity P-wave (km/s) = 7.44625 7.90643 7.67979
#
# Compressibility (1/GPa) = 0.01354911
#
# Stress axis : x y z
#
# Youngs Moduli (GPa) = 82.98452 85.09158 101.47328
#
# Poissons Ratio (x) = 0.30428 0.30592
# Poissons Ratio (y) = 0.29674 0.35144
# Poissons Ratio (z) = 0.25018 0.29470
#
# Static dielectric constant tensor:
#      x y z
#    x 4.295160 0.163030 0.250410 
#    y 0.163030 4.467370 -0.516320 
#    z 0.250410 -0.516320 4.051430 
# 
# 
# High freq. dielectric constant tensor:
#      x y z
#    x 1.805430 0.003160 0.020000 
#    y 0.003160 1.814610 -0.007480 
#    z 0.020000 -0.007480 1.825480 
# 
# From -- ./inp_files/178681.got.cif
#   From: 2010.06.25/outbox.cif.g09.slc.cpg/sg2_90_cif.got.tgz:178681.got - 2010.06.27 13:26:56.
