data_PCOD8024625
_publ_section_title
;
Structure prediction by ZEFSAII (Michael W. Deem and Ramdas Pophale) SiO2 
 PCOD8024625
Probable space group: P -1
;
_chemical_formula_sum "Si O2"
_cell_formula_units_Z 16
_cell_length_a 9.979895
_cell_length_b 15.649409
_cell_length_c 5.323327
_cell_angle_alpha 96.872033
_cell_angle_beta 119.038089
_cell_angle_gamma 77.812919
_cell_volume 710.360653
_symmetry_space_group_name_H-M "P -1"
_symmetry_group_IT_number 2
_symmetry_cell_setting 'triclinic'
loop_
_space_group_symop_operation_xyz
x,y,z
-x,-y,-z
loop_
_atom_site_type_symbol
_atom_site_label
_atom_site_fract_x
_atom_site_fract_y
_atom_site_fract_z
Si Si1 0.406400 0.032007 0.173616
Si Si2 0.271379 0.460870 0.850396
Si Si3 0.911914 0.035830 0.181292
Si Si4 0.965890 0.222647 0.223939
Si Si5 0.966956 0.647573 0.287822
Si Si6 0.571396 0.618873 0.522114
Si Si7 0.780416 0.374116 0.854915
Si Si8 0.267599 0.225906 0.221259
O O1 0.365551 0.137275 0.165934
O O2 0.500000 0.000000 0.500000
O O3 0.500000 0.000000 0.000000
O O4 0.254954 0.989302 0.999645
O O5 0.116874 0.418565 0.648591
O O6 0.384607 0.440053 0.707649
O O7 0.225949 0.565918 0.877825
O O8 0.345884 0.426726 0.173453
O O9 0.895911 0.139556 0.214826
O O10 0.000000 0.000000 0.500000
O O11 0.000000 0.000000 0.000000
O O12 0.857966 0.272032 0.923356
O O13 0.940437 0.293408 0.443333
O O14 0.149240 0.198425 0.311254
O O15 0.831333 0.714845 0.053970
O O16 0.098941 0.589989 0.212677
O O17 0.613370 0.714795 0.536858
O O18 0.389369 0.625368 0.411828
#
# Coordination Sequence:
#
# PCOD8024625 Si02
#       8
#     2   2   2   2   2   2   2   2
#     4  12  28  45  73 106 140 177 227 290 351 415
#     4  11  24  45  67  96 138 185 224 272 346 401
#     4  12  26  48  75 100 138 184 231 282 343 420
#     4  11  24  43  72  96 136 178 231 277 340 398
#     4  10  23  43  69  97 132 186 225 278 333 402
#     4  11  25  43  70  96 139 183 220 278 345 401
#     4  11  26  40  66 104 134 173 233 289 323 405
#     4  10  23  46  67  96 138 179 223 273 345 410
#
# _framework density 22.523771
#
# number of rings (size 3 to 8) (size 9 to 14) (size 15 to 20)
#    0.000    1.000    2.500    2.625    8.750    1.500 
#    0.000    0.000    0.000    0.000    0.000    0.000 
#    0.000    0.000    0.000    0.000    0.000    0.000 
#
# Total GULP energy -198369.723921 kJ/mol
# GULP energy per Si atom -12398.107745 kJ/mol
# Density = 2.247251 g / cm^3
# Si number density = 22.523771 Si / 1000 Ang^3
#
#
#
# Elastic Constant Matrix: (Units=GPa)
#
#
# Indices 1 2 3 4 5 6 
#
# 1 137.4232 46.2988 52.3480 -4.8011 4.1510 -15.2949
# 2 46.2988 134.5895 28.8427 11.5185 11.0320 -6.6846
# 3 52.3480 28.8427 108.5455 10.3414 -5.8625 -6.7161
# 4 -4.8011 11.5185 10.3414 23.7237 3.2369 -2.8171
# 5 4.1510 11.0320 -5.8625 3.2369 39.0957 10.7194
# 6 -15.2949 -6.6846 -6.7161 -2.8171 10.7194 39.9307
#
#
#
# Elastic Compliance Matrix: (Units=1/GPa)
#
#
# Indices 1 2 3 4 5 6 
#
# 1 0.010917 -0.002810 -0.005049 0.006640 -0.002792 0.004080
# 2 -0.002810 0.009136 -0.000743 -0.004307 -0.002203 0.000616
# 3 -0.005049 -0.000743 0.012602 -0.006806 0.003577 -0.001379
# 4 0.006640 -0.004307 -0.006806 0.050111 -0.006276 0.005898
# 5 -0.002792 -0.002203 0.003577 -0.006276 0.030120 -0.009365
# 6 0.004080 0.000616 -0.001379 0.005898 -0.009365 0.029407
#
#
# Mechanical properties :
#
#
# Convention : Reuss Voigt Hill
#
# Bulk Modulus (GPa) = 64.72605 70.61524 67.67065
# Shear Modulus (GPa) = 30.36788 37.42126 33.89457
#
# Velocity S-wave (km/s) = 3.67585 4.08046 3.88343
# Velocity P-wave (km/s) = 6.84215 7.32255 7.08642
#
# Compressibility (1/GPa) = 0.01544973
#
# Stress axis : x y z
#
# Youngs Moduli (GPa) = 91.59639 109.46090 79.35540
#
# Poissons Ratio (x) = 0.30762 0.40069
# Poissons Ratio (y) = 0.25742 0.05894
# Poissons Ratio (z) = 0.46250 0.08130
#
# Static dielectric constant tensor:
#      x y z
#    x 4.101800 -0.003960 0.129620 
#    y -0.003960 4.028440 0.235880 
#    z 0.129620 0.235880 4.039520 
# 
# 
# High freq. dielectric constant tensor:
#      x y z
#    x 1.896910 0.001890 0.002800 
#    y 0.001890 1.896970 0.005370 
#    z 0.002800 0.005370 1.890570 
# 
# From -- ./inp_files/38966.got.cif
#   From: 2010.06.25/outbox.cif.g09.slc.cpg/sg2_20_cif.got.tgz:38966.got - 2010.06.27 13:26:56.
