data_PCOD8024513
_publ_section_title
;
Structure prediction by ZEFSAII (Michael W. Deem and Ramdas Pophale) SiO2 
 PCOD8024513
Probable space group: P -1
;
_chemical_formula_sum "Si O2"
_cell_formula_units_Z 16
_cell_length_a 8.604556
_cell_length_b 17.458020
_cell_length_c 21.443401
_cell_angle_alpha 19.336281
_cell_angle_beta 46.218410
_cell_angle_gamma 55.308016
_cell_volume 721.287096
_symmetry_space_group_name_H-M "P -1"
_symmetry_group_IT_number 2
_symmetry_cell_setting 'triclinic'
loop_
_space_group_symop_operation_xyz
x,y,z
-x,-y,-z
loop_
_atom_site_type_symbol
_atom_site_label
_atom_site_fract_x
_atom_site_fract_y
_atom_site_fract_z
Si Si1 0.785836 0.654094 0.474196
Si Si2 0.547789 0.311329 0.996697
Si Si3 0.549393 0.820268 0.575743
Si Si4 0.491154 0.832819 0.023017
Si Si5 0.397910 0.829608 0.472886
Si Si6 0.059607 0.465278 0.760551
Si Si7 0.880147 0.987817 0.977588
Si Si8 0.025194 0.833777 0.391089
O O1 0.644599 0.841637 0.367776
O O2 0.915894 0.656945 0.500267
O O3 0.977308 0.741155 0.300266
O O4 0.595354 0.380192 0.736378
O O5 0.593201 0.255580 0.955531
O O6 0.366133 0.078921 0.262481
O O7 0.458965 0.542613 0.842725
O O8 0.788613 0.384916 0.910335
O O9 0.407360 0.823905 0.549514
O O10 0.825279 0.913390 0.417017
O O11 0.500000 0.000000 0.500000
O O12 0.383389 0.037440 0.917121
O O13 0.767392 0.929458 0.873429
O O14 0.194013 0.582551 0.696601
O O15 0.136588 0.685985 0.519164
O O16 0.124576 0.234561 0.895459
O O17 0.000000 0.000000 0.000000
#
# Coordination Sequence:
#
# PCOD8024513 Si02
#       8
#     2   2   2   2   2   2   2   2
#     4  11  23  42  62  92 136 184 229 275 334 392
#     4  11  21  44  67  96 142 176 219 279 348 402
#     4  10  24  48  75 102 134 171 226 286 343 424
#     4  12  22  41  65  92 138 184 225 279 324 397
#     4  11  22  41  72  97 132 184 219 270 357 403
#     4  11  22  40  66  97 134 180 225 275 333 400
#     4  12  24  40  62  99 138 181 243 280 317 385
#     4  10  23  43  68  93 132 181 216 274 360 391
#
# _framework density 22.182566999999999
#
# number of rings (size 3 to 8) (size 9 to 14) (size 15 to 20)
#    0.000    1.000    7.500    0.375    1.750    1.500 
#    2.250    3.125    0.000    0.000    0.000    0.000 
#    0.000    0.000    0.000    0.000    0.000    0.000 
#
# Total GULP energy -198328.754638 kJ/mol
# GULP energy per Si atom -12395.547165 kJ/mol
# Density = 2.213208 g / cm^3
# Si number density = 22.182567 Si / 1000 Ang^3
#
#
#
# Elastic Constant Matrix: (Units=GPa)
#
#
# Indices 1 2 3 4 5 6 
#
# 1 69.7496 32.8191 43.2055 -6.7684 -2.2420 10.4692
# 2 32.8191 100.5340 42.6290 -18.3928 5.1693 4.1306
# 3 43.2055 42.6290 136.6306 -14.5011 1.9639 0.0713
# 4 -6.7684 -18.3928 -14.5011 28.3105 -4.9968 -2.7096
# 5 -2.2420 5.1693 1.9639 -4.9968 37.9009 -2.6724
# 6 10.4692 4.1306 0.0713 -2.7096 -2.6724 23.5758
#
#
#
# Elastic Compliance Matrix: (Units=1/GPa)
#
#
# Indices 1 2 3 4 5 6 
#
# 1 0.020994 -0.004523 -0.005375 -0.001244 0.001374 -0.008501
# 2 -0.004523 0.013542 -0.002092 0.006469 -0.001135 0.000257
# 3 -0.005375 -0.002092 0.009962 0.002755 0.000029 0.003043
# 4 -0.001244 0.006469 0.002755 0.041937 0.004767 0.004771
# 5 0.001374 -0.001135 0.000029 0.004767 0.027477 0.003251
# 6 -0.008501 0.000257 0.003043 0.004771 0.003251 0.047054
#
#
# Mechanical properties :
#
#
# Convention : Reuss Voigt Hill
#
# Bulk Modulus (GPa) = 48.73864 60.46903 54.60384
# Shear Modulus (GPa) = 26.07082 30.50815 28.28948
#
# Velocity S-wave (km/s) = 3.43196 3.71256 3.57501
# Velocity P-wave (km/s) = 6.14197 6.75990 6.45833
#
# Compressibility (1/GPa) = 0.02051760
#
# Stress axis : x y z
#
# Youngs Moduli (GPa) = 47.63222 73.84486 100.38448
#
# Poissons Ratio (x) = 0.33402 0.53955
# Poissons Ratio (y) = 0.21546 0.21000
# Poissons Ratio (z) = 0.25602 0.15448
#
# Static dielectric constant tensor:
#      x y z
#    x 3.764490 0.101630 0.708550 
#    y 0.101630 3.537970 -0.441850 
#    z 0.708550 -0.441850 2.782500 
# 
# 
# High freq. dielectric constant tensor:
#      x y z
#    x 1.881720 0.001580 0.009160 
#    y 0.001580 1.832810 -0.009140 
#    z 0.009160 -0.009140 1.883550 
# 
# From -- ./inp_files/590874.got.cif
#   From: 2010.06.25/outbox.cif.g09.slc.cpg/sg2_296_cif.got.tgz:590874.got - 2010.06.27 13:26:56.
