data_PCOD8024120
_publ_section_title
;
Structure prediction by ZEFSAII (Michael W. Deem and Ramdas Pophale) SiO2 
 PCOD8024120
Probable space group: P -1
;
_chemical_formula_sum "Si O2"
_cell_formula_units_Z 14
_cell_length_a 11.872907
_cell_length_b 12.528234
_cell_length_c 11.623737
_cell_angle_alpha 134.744643
_cell_angle_beta 37.995214
_cell_angle_gamma 144.518174
_cell_volume 608.360400
_symmetry_space_group_name_H-M "P -1"
_symmetry_group_IT_number 2
_symmetry_cell_setting 'triclinic'
loop_
_space_group_symop_operation_xyz
x,y,z
-x,-y,-z
loop_
_atom_site_type_symbol
_atom_site_label
_atom_site_fract_x
_atom_site_fract_y
_atom_site_fract_z
Si Si1 0.053650 0.354141 0.315424
Si Si2 0.657744 0.983579 0.445538
Si Si3 0.935642 0.632611 0.944060
Si Si4 0.484964 0.566970 0.261992
Si Si5 0.998192 0.172367 0.740255
Si Si6 0.666751 0.922502 0.638141
Si Si7 0.750899 0.476217 0.345927
O O1 0.319915 0.456735 0.203328
O O2 0.000000 0.500000 0.500000
O O3 0.913835 0.165149 0.358551
O O4 0.991998 0.288958 0.183592
O O5 0.500000 0.000000 0.500000
O O6 0.624734 0.790153 0.301373
O O7 0.595524 0.986948 0.632561
O O8 0.663229 0.516888 0.089206
O O9 0.060620 0.801098 0.063887
O O10 0.015967 0.502366 0.805199
O O11 0.332328 0.495932 0.445530
O O12 0.114821 0.066831 0.574149
O O13 0.192319 0.368753 0.673768
O O14 0.760674 0.061418 0.776763
O O15 0.448143 0.720937 0.700316
#
# Coordination Sequence:
#
# PCOD8024120 Si02
#       7
#     2   2   2   2   2   2   2
#     4  12  23  43  69  97 133 181 219 276 345 386
#     4  11  21  42  73  97 131 178 220 276 333 393
#     4  12  25  43  66 104 133 172 235 271 323 416
#     4  11  24  45  66 101 135 170 232 275 330 401
#     4  11  23  44  68 100 139 174 225 276 326 407
#     4  10  23  42  71 100 132 179 224 270 340 397
#     4  11  22  44  71  93 137 179 214 277 342 383
#
# _framework density 23.012675999999999
#
# number of rings (size 3 to 8) (size 9 to 14) (size 15 to 20)
#    0.000    0.857    5.714    3.000    0.000    1.143 
#    0.000    2.857    0.000    0.000    0.000    0.000 
#    0.000    0.000    0.000    0.000    0.000    0.000 
#
# Total GULP energy -173578.468715 kJ/mol
# GULP energy per Si atom -12398.462051 kJ/mol
# Density = 2.296030 g / cm^3
# Si number density = 23.012676 Si / 1000 Ang^3
#
#
#
# Elastic Constant Matrix: (Units=GPa)
#
#
# Indices 1 2 3 4 5 6 
#
# 1 153.1559 39.9996 38.5621 2.2021 16.9885 24.4060
# 2 39.9996 118.3677 15.3923 -9.9890 22.2096 13.6796
# 3 38.5621 15.3923 97.2287 -2.1660 1.5066 2.3136
# 4 2.2021 -9.9890 -2.1660 9.9799 6.3569 -1.1310
# 5 16.9885 22.2096 1.5066 6.3569 54.8980 -0.3417
# 6 24.4060 13.6796 2.3136 -1.1310 -0.3417 32.3572
#
#
#
# Elastic Compliance Matrix: (Units=1/GPa)
#
#
# Indices 1 2 3 4 5 6 
#
# 1 0.009032 -0.002086 -0.003193 -0.004566 -0.001371 -0.005877
# 2 -0.002086 0.012058 -0.000561 0.015943 -0.006082 -0.002991
# 3 -0.003193 -0.000561 0.011641 0.002491 0.000619 0.001907
# 4 -0.004566 0.015943 0.002491 0.130695 -0.020234 0.000880
# 5 -0.001371 -0.006082 0.000619 -0.020234 0.023446 0.003102
# 6 -0.005877 -0.002991 0.001907 0.000880 0.003102 0.036530
#
#
# Mechanical properties :
#
#
# Convention : Reuss Voigt Hill
#
# Bulk Modulus (GPa) = 47.50155 61.85115 54.67635
# Shear Modulus (GPa) = 20.65278 37.76691 29.20985
#
# Velocity S-wave (km/s) = 2.99900 4.05549 3.56658
# Velocity P-wave (km/s) = 5.71649 6.99033 6.38525
#
# Compressibility (1/GPa) = 0.02105194
#
# Stress axis : x y z
#
# Youngs Moduli (GPa) = 110.71543 82.92911 85.90591
#
# Poissons Ratio (x) = 0.17298 0.27427
# Poissons Ratio (y) = 0.23094 0.04820
# Poissons Ratio (z) = 0.35348 0.04653
#
# Static dielectric constant tensor:
#      x y z
#    x 4.637180 0.131050 0.073790 
#    y 0.131050 4.043170 0.017660 
#    z 0.073790 0.017660 4.025920 
# 
# 
# High freq. dielectric constant tensor:
#      x y z
#    x 1.939280 0.010080 0.003570 
#    y 0.010080 1.888600 -0.005690 
#    z 0.003570 -0.005690 1.888740 
# 
# From -- ./inp_files/293615.got.cif
#   From: 2010.06.25/outbox.cif.g09.slc.cpg/sg2_147_cif.got.tgz:293615.got - 2010.06.27 13:26:56.
