data_PCOD8024065
_publ_section_title
;
Structure prediction by ZEFSAII (Michael W. Deem and Ramdas Pophale) SiO2 
 PCOD8024065
Probable space group: P -1
;
_chemical_formula_sum "Si O2"
_cell_formula_units_Z 16
_cell_length_a 20.941674
_cell_length_b 6.931741
_cell_length_c 8.628740
_cell_angle_alpha 98.939937
_cell_angle_beta 37.157695
_cell_angle_gamma 93.791037
_cell_volume 743.866815
_symmetry_space_group_name_H-M "P -1"
_symmetry_group_IT_number 2
_symmetry_cell_setting 'triclinic'
loop_
_space_group_symop_operation_xyz
x,y,z
-x,-y,-z
loop_
_atom_site_type_symbol
_atom_site_label
_atom_site_fract_x
_atom_site_fract_y
_atom_site_fract_z
Si Si1 0.246578 0.837789 0.159038
Si Si2 0.803010 0.789742 0.189032
Si Si3 0.407284 0.137352 0.986989
Si Si4 0.906257 0.071510 0.800115
Si Si5 0.434794 0.515839 0.787269
Si Si6 0.912375 0.403839 0.058387
Si Si7 0.120846 0.918384 0.708904
Si Si8 0.578266 0.799973 0.688060
O O1 0.198001 0.842135 0.081542
O O2 0.145136 0.868419 0.476221
O O3 0.319475 0.012493 0.067694
O O4 0.317243 0.629857 0.012189
O O5 0.680822 0.781090 0.373923
O O6 0.804175 0.919072 0.360184
O O7 0.845766 0.567063 0.109215
O O8 0.873781 0.885543 0.936454
O O9 0.375919 0.221886 0.227950
O O10 0.423391 0.302765 0.850699
O O11 0.518620 0.008788 0.784306
O O12 0.955050 0.235775 0.832243
O O13 0.000000 0.000000 0.500000
O O14 0.500000 0.500000 0.500000
O O15 0.502467 0.629211 0.791819
O O16 0.844066 0.288105 0.297642
O O17 0.000000 0.500000 0.000000
O O18 0.000000 0.000000 0.000000
#
# Coordination Sequence:
#
# PCOD8024065 Si02
#       8
#     2   2   2   2   2   2   2   2
#     4  11  25  44  68 102 135 184 224 278 351 406
#     4  11  24  42  72  99 134 181 226 280 346 409
#     4  10  23  45  69  96 133 175 224 284 338 409
#     4  11  28  46  67  99 146 181 228 287 341 413
#     4  11  27  42  68 100 141 175 226 283 343 415
#     4  11  25  43  70  97 130 180 231 281 338 407
#     4  11  22  44  70  98 137 176 230 284 337 405
#     4  10  23  42  69  99 129 173 227 281 340 400
#
# _framework density 21.509228
#
# number of rings (size 3 to 8) (size 9 to 14) (size 15 to 20)
#    0.000    1.250    2.500    1.875    7.000    2.500 
#    0.000    0.000    0.000    0.000    0.000    0.000 
#    0.000    0.000    0.000    0.000    0.000    0.000 
#
# Total GULP energy -198322.729909 kJ/mol
# GULP energy per Si atom -12395.170619 kJ/mol
# Density = 2.146027 g / cm^3
# Si number density = 21.509228 Si / 1000 Ang^3
#
#
#
# Elastic Constant Matrix: (Units=GPa)
#
#
# Indices 1 2 3 4 5 6 
#
# 1 108.0083 38.3794 31.5591 -2.2337 2.0056 -4.9469
# 2 38.3794 145.3421 50.3515 -14.0702 8.2473 -17.7342
# 3 31.5591 50.3515 120.4810 1.3423 0.1075 -14.8022
# 4 -2.2337 -14.0702 1.3423 23.2336 -1.7195 4.3164
# 5 2.0056 8.2473 0.1075 -1.7195 36.5829 -0.7853
# 6 -4.9469 -17.7342 -14.8022 4.3164 -0.7853 30.9516
#
#
#
# Elastic Compliance Matrix: (Units=1/GPa)
#
#
# Indices 1 2 3 4 5 6 
#
# 1 0.010574 -0.002194 -0.001908 -0.000123 -0.000095 -0.000465
# 2 -0.002194 0.009460 -0.003084 0.005041 -0.001705 0.002849
# 3 -0.001908 -0.003084 0.010547 -0.003249 0.000690 0.003443
# 4 -0.000123 0.005041 -0.003249 0.047320 0.000991 -0.005259
# 5 -0.000095 -0.001705 0.000690 0.000991 0.027767 -0.000096
# 6 -0.000465 0.002849 0.003443 -0.005259 -0.000096 0.036244
#
#
# Mechanical properties :
#
#
# Convention : Reuss Voigt Hill
#
# Bulk Modulus (GPa) = 61.69436 68.26795 64.98116
# Shear Modulus (GPa) = 30.92371 35.05637 32.99004
#
# Velocity S-wave (km/s) = 3.79581 4.04149 3.92058
# Velocity P-wave (km/s) = 6.92502 7.32025 7.12538
#
# Compressibility (1/GPa) = 0.01620894
#
# Stress axis : x y z
#
# Youngs Moduli (GPa) = 94.57343 105.70425 94.81180
#
# Poissons Ratio (x) = 0.23194 0.18094
# Poissons Ratio (y) = 0.20752 0.29236
# Poissons Ratio (z) = 0.18049 0.32594
#
# Static dielectric constant tensor:
#      x y z
#    x 4.152590 0.027120 0.088380 
#    y 0.027120 4.107210 0.038710 
#    z 0.088380 0.038710 3.871160 
# 
# 
# High freq. dielectric constant tensor:
#      x y z
#    x 1.854640 0.000050 -0.001200 
#    y 0.000050 1.850930 -0.003220 
#    z -0.001200 -0.003220 1.840030 
# 
# From -- ./inp_files/340384.got.cif
#   From: 2010.06.25/outbox.cif.g09.slc.cpg/sg2_171_cif.got.tgz:340384.got - 2010.06.27 13:26:56.
