data_PCOD8024730
_publ_section_title
;
Structure prediction by ZEFSAII (Michael W. Deem and Ramdas Pophale) SiO2 
 PCOD8024730
Probable space group: P -1
;
_chemical_formula_sum "Si O2"
_cell_formula_units_Z 16
_cell_length_a 14.566974
_cell_length_b 10.753433
_cell_length_c 11.907556
_cell_angle_alpha 120.735440
_cell_angle_beta 38.585196
_cell_angle_gamma 91.577341
_cell_volume 720.029022
_symmetry_space_group_name_H-M "P -1"
_symmetry_group_IT_number 2
_symmetry_cell_setting 'triclinic'
loop_
_space_group_symop_operation_xyz
x,y,z
-x,-y,-z
loop_
_atom_site_type_symbol
_atom_site_label
_atom_site_fract_x
_atom_site_fract_y
_atom_site_fract_z
Si Si1 0.949068 0.366657 0.475782
Si Si2 0.410924 0.425730 0.486241
Si Si3 0.401179 0.505794 0.276531
Si Si4 0.648825 0.033113 0.185372
Si Si5 0.788714 0.083919 0.286343
Si Si6 0.241611 0.179159 0.675770
Si Si7 0.137174 0.766486 0.289738
Si Si8 0.101544 0.570560 0.034819
O O1 0.730200 0.502969 0.686967
O O2 0.955160 0.273300 0.543579
O O3 0.000000 0.500000 0.500000
O O4 0.124086 0.180276 0.144298
O O5 0.500000 0.500000 0.500000
O O6 0.358004 0.488713 0.437193
O O7 0.575203 0.182166 0.220506
O O8 0.205712 0.523113 0.791817
O O9 0.326673 0.721843 0.435086
O O10 0.638547 0.329683 0.933962
O O11 0.640989 0.141981 0.352025
O O12 0.487649 0.012194 0.348228
O O13 0.835990 0.914439 0.238852
O O14 0.000000 0.000000 0.000000
O O15 0.139634 0.260414 0.686198
O O16 0.173118 0.360594 0.906213
O O17 0.163005 0.650223 0.101389
O O18 0.000000 0.000000 0.500000
#
# Coordination Sequence:
#
# PCOD8024730 Si02
#       8
#     2   2   2   2   2   2   2   2
#     4  12  31  47  68  99 148 199 236 282 343 427
#     4  11  20  41  75 107 134 170 226 309 362 403
#     4  12  25  46  75 105 142 178 240 298 356 416
#     4  11  24  44  65 104 137 181 229 284 357 419
#     4  12  23  38  75 107 136 172 223 310 359 407
#     4  10  24  40  71 105 140 173 223 301 367 412
#     4  12  28  48  73 100 143 199 244 284 337 427
#     4  10  23  43  71 105 141 182 231 291 361 421
#
# _framework density 22.221328
#
# number of rings (size 3 to 8) (size 9 to 14) (size 15 to 20)
#    0.000    0.750    3.750    3.000    5.250    3.000 
#    0.000    1.875    0.000    0.000    0.000    0.000 
#    0.000    0.000    0.000    0.000    0.000    0.000 
#
# Total GULP energy -198397.658374 kJ/mol
# GULP energy per Si atom -12399.853648 kJ/mol
# Density = 2.217075 g / cm^3
# Si number density = 22.221328 Si / 1000 Ang^3
#
#
#
# Elastic Constant Matrix: (Units=GPa)
#
#
# Indices 1 2 3 4 5 6 
#
# 1 115.6314 45.8461 32.6571 3.9044 -16.3183 9.7993
# 2 45.8461 164.8050 42.7577 2.8279 -0.5619 7.7140
# 3 32.6571 42.7577 107.3293 6.2915 -23.4363 8.3109
# 4 3.9044 2.8279 6.2915 35.9368 2.1853 1.2320
# 5 -16.3183 -0.5619 -23.4363 2.1853 40.0070 -2.9826
# 6 9.7993 7.7140 8.3109 1.2320 -2.9826 34.8688
#
#
#
# Elastic Compliance Matrix: (Units=1/GPa)
#
#
# Indices 1 2 3 4 5 6 
#
# 1 0.010690 -0.002526 -0.001294 -0.000886 0.003480 -0.001808
# 2 -0.002526 0.007498 -0.002767 0.000345 -0.002604 -0.000524
# 3 -0.001294 -0.002767 0.012530 -0.002202 0.006793 -0.001352
# 4 -0.000886 0.000345 -0.002202 0.028499 -0.003247 -0.000587
# 5 0.003480 -0.002604 0.006793 -0.003247 0.030588 0.000710
# 6 -0.001808 -0.000524 -0.001352 -0.000587 0.000710 0.029707
#
#
# Mechanical properties :
#
#
# Convention : Reuss Voigt Hill
#
# Bulk Modulus (GPa) = 57.00108 70.03193 63.51650
# Shear Modulus (GPa) = 36.09239 39.92951 38.01095
#
# Velocity S-wave (km/s) = 4.03454 4.24358 4.14038
# Velocity P-wave (km/s) = 6.88553 7.45619 7.17653
#
# Compressibility (1/GPa) = 0.01754353
#
# Stress axis : x y z
#
# Youngs Moduli (GPa) = 93.54957 133.36837 79.80744
#
# Poissons Ratio (x) = 0.33691 0.10330
# Poissons Ratio (y) = 0.23632 0.22079
# Poissons Ratio (z) = 0.12109 0.36897
#
# Static dielectric constant tensor:
#      x y z
#    x 3.749520 -0.371700 -0.280480 
#    y -0.371700 3.792190 -0.236640 
#    z -0.280480 -0.236640 4.143420 
# 
# 
# High freq. dielectric constant tensor:
#      x y z
#    x 1.876270 0.004880 -0.025240 
#    y 0.004880 1.887560 0.002710 
#    z -0.025240 0.002710 1.868220 
# 
# From -- ./inp_files/452541.got.cif
#   From: 2010.06.25/outbox.cif.g09.slc.cpg/sg2_227_cif.got.tgz:452541.got - 2010.06.27 13:26:56.
