data_PCOD8024626
_publ_section_title
;
Structure prediction by ZEFSAII (Michael W. Deem and Ramdas Pophale) SiO2 
 PCOD8024626
Probable space group: P -1
;
_chemical_formula_sum "Si O2"
_cell_formula_units_Z 16
_cell_length_a 25.235719
_cell_length_b 9.821005
_cell_length_c 7.773777
_cell_angle_alpha 145.332751
_cell_angle_beta 47.116580
_cell_angle_gamma 146.550441
_cell_volume 603.961320
_symmetry_space_group_name_H-M "P -1"
_symmetry_group_IT_number 2
_symmetry_cell_setting 'triclinic'
loop_
_space_group_symop_operation_xyz
x,y,z
-x,-y,-z
loop_
_atom_site_type_symbol
_atom_site_label
_atom_site_fract_x
_atom_site_fract_y
_atom_site_fract_z
Si Si1 0.266529 0.266261 0.757412
Si Si2 0.632296 0.678905 0.923174
Si Si3 0.811617 0.299458 0.879264
Si Si4 0.876653 0.661984 0.792218
Si Si5 0.623251 0.134716 0.216784
Si Si6 0.999817 0.206850 0.851715
Si Si7 0.826058 0.163035 0.149837
Si Si8 0.539409 0.381984 0.172045
O O1 0.379143 0.574913 0.849996
O O2 0.250433 0.072730 0.417850
O O3 0.227144 0.058886 0.798972
O O4 0.213442 0.397967 0.989938
O O5 0.609992 0.359519 0.576431
O O6 0.592319 0.617746 0.138174
O O7 0.588505 0.815424 0.062680
O O8 0.749553 0.978516 0.969181
O O9 0.886984 0.499770 0.759186
O O10 0.734703 0.345290 0.133875
O O11 0.890285 0.446588 0.015678
O O12 0.849827 0.487749 0.485550
O O13 0.967329 0.029914 0.928252
O O14 0.547746 0.984587 0.069424
O O15 0.000000 0.000000 0.500000
O O16 0.927264 0.250206 0.987038
O O17 0.500000 0.500000 0.500000
#
# Coordination Sequence:
#
# PCOD8024626 Si02
#       8
#     2   2   2   2   2   2   2   2
#     4   9  21  43  68  99 136 179 236 301 350 430
#     4  11  27  48  75 105 153 191 241 297 373 428
#     4  11  24  42  69 101 140 185 243 293 364 425
#     4  10  23  43  69  97 137 189 239 298 361 425
#     4  12  27  49  72 110 148 196 237 306 364 438
#     4  11  24  42  65 103 139 185 241 298 364 433
#     4   9  22  42  69  97 134 190 233 294 354 430
#     4  11  23  48  75 109 141 191 247 297 364 436
#
# _framework density 26.491764
#
# number of rings (size 3 to 8) (size 9 to 14) (size 15 to 20)
#    0.000    1.500    1.250    1.875    8.750    6.000 
#    4.500    3.125    0.000    0.000    0.000    0.000 
#    0.000    0.000    0.000    0.000    0.000    0.000 
#
# Total GULP energy -198235.478443 kJ/mol
# GULP energy per Si atom -12389.717403 kJ/mol
# Density = 2.643147 g / cm^3
# Si number density = 26.491764 Si / 1000 Ang^3
#
#
#
# Elastic Constant Matrix: (Units=GPa)
#
#
# Indices 1 2 3 4 5 6 
#
# 1 36.3268 46.5874 51.8485 22.8133 16.6101 27.3637
# 2 46.5874 114.6252 37.2287 0.1695 6.5950 25.6059
# 3 51.8485 37.2287 194.9466 -2.1105 1.4414 28.5263
# 4 22.8133 0.1695 -2.1105 39.0874 5.5203 7.0117
# 5 16.6101 6.5950 1.4414 5.5203 35.7894 18.1711
# 6 27.3637 25.6059 28.5263 7.0117 18.1711 57.4938
#
#
#
# Elastic Compliance Matrix: (Units=1/GPa)
#
#
# Indices 1 2 3 4 5 6 
#
# 1 -0.134400 0.041061 0.026645 0.072385 0.036417 0.012122
# 2 0.041061 -0.002521 -0.009478 -0.021544 -0.011026 -0.007605
# 3 0.026645 -0.009478 0.000505 -0.013722 -0.005896 -0.005174
# 4 0.072385 -0.021544 -0.013722 -0.012457 -0.022344 -0.009467
# 5 0.036417 -0.011026 -0.005896 -0.022344 0.024053 -0.014373
# 6 0.012122 -0.007605 -0.005174 -0.009467 -0.014373 0.023275
#
#
# Mechanical properties :
#
#
# Convention : Reuss Voigt Hill
#
# Bulk Modulus (GPa) = -50.09689 68.58090 9.24201
# Shear Modulus (GPa) = -22.25655 40.48973 9.11659
#
# Velocity S-wave (km/s) = -2.90165 3.91370 1.85708
# Velocity P-wave (km/s) = 5.49340 6.80930 2.84509
#
# Compressibility (1/GPa) = -0.01996132
#
# Stress axis : x y z
#
# Youngs Moduli (GPa) = -7.44048 -396.69288 1979.27178
#
# Poissons Ratio (x) = 16.28842 -52.73711
# Poissons Ratio (y) = 0.30551 18.75970
# Poissons Ratio (z) = 0.19825 -3.75989
#
# Static dielectric constant tensor:
#      x y z
#    x 5.230570 0.207530 0.203370 
#    y 0.207530 5.664270 0.253480 
#    z 0.203370 0.253480 4.845500 
# 
# 
# High freq. dielectric constant tensor:
#      x y z
#    x 2.066420 -0.010040 0.014670 
#    y -0.010040 2.103660 -0.006930 
#    z 0.014670 -0.006930 2.054080 
# 
# From -- ./inp_files/357118.got.cif
#   From: 2010.06.25/outbox.cif.g09.slc.cpg/sg2_179_cif.got.tgz:357118.got - 2010.06.27 13:26:56.
