data_PCOD8024941
_publ_section_title
;
Structure prediction by ZEFSAII (Michael W. Deem and Ramdas Pophale) SiO2 
 PCOD8024941
Probable space group: P -1
;
_chemical_formula_sum "Si O2"
_cell_formula_units_Z 12
_cell_length_a 9.008958
_cell_length_b 15.742842
_cell_length_c 13.481813
_cell_angle_alpha 27.175247
_cell_angle_beta 66.771951
_cell_angle_gamma 49.944672
_cell_volume 575.172326
_symmetry_space_group_name_H-M "P -1"
_symmetry_group_IT_number 2
_symmetry_cell_setting 'triclinic'
loop_
_space_group_symop_operation_xyz
x,y,z
-x,-y,-z
loop_
_atom_site_type_symbol
_atom_site_label
_atom_site_fract_x
_atom_site_fract_y
_atom_site_fract_z
Si Si1 0.002949 0.288486 0.260087
Si Si2 0.352078 0.703736 0.740937
Si Si3 0.775931 0.403847 0.402303
Si Si4 0.503723 0.686215 0.511802
Si Si5 0.560429 0.012362 0.081136
Si Si6 0.043226 0.753702 0.265541
O O1 0.835834 0.299514 0.226958
O O2 0.933339 0.352287 0.326890
O O3 0.245547 0.990147 0.499985
O O4 0.000000 0.500000 0.000000
O O5 0.511687 0.603305 0.707530
O O6 0.500000 0.500000 0.000000
O O7 0.693394 0.259589 0.554141
O O8 0.918422 0.305786 0.566099
O O9 0.544951 0.705584 0.156304
O O10 0.449869 0.949363 0.250366
O O11 0.744223 0.478450 0.612629
O O12 0.829781 0.803015 0.238137
O O13 0.500000 0.000000 0.000000
O O14 0.000000 0.000000 0.000000
#
# Coordination Sequence:
#
# PCOD8024941 Si02
#       6
#     2   2   2   2   2   2
#     4  10  23  44  66  94 126 166 214 260 313 370
#     4  10  24  43  65  94 126 167 213 261 311 370
#     4  11  24  42  65  92 129 164 204 262 309 370
#     4  11  23  43  63  92 130 163 207 259 308 373
#     4  12  24  41  62  94 128 162 209 252 311 378
#     4  12  24  40  64  94 125 167 205 251 321 371
#
# _framework density 20.863313000000002
#
# number of rings (size 3 to 8) (size 9 to 14) (size 15 to 20)
#    0.000    1.000    3.333    3.000    2.333    2.000 
#    3.000    0.000    0.000    0.000    0.000    0.000 
#    0.000    0.000    0.000    0.000    0.000    0.000 
#
# Total GULP energy -148824.131170 kJ/mol
# GULP energy per Si atom -12402.010931 kJ/mol
# Density = 2.081583 g / cm^3
# Si number density = 20.863313 Si / 1000 Ang^3
#
#
#
# Elastic Constant Matrix: (Units=GPa)
#
#
# Indices 1 2 3 4 5 6 
#
# 1 114.7573 51.7113 62.3106 20.1476 3.9962 -9.6456
# 2 51.7113 132.5406 53.3661 15.7945 13.9230 2.6227
# 3 62.3106 53.3661 141.1139 16.9086 1.1797 1.1177
# 4 20.1476 15.7945 16.9086 30.3998 3.2971 -3.6175
# 5 3.9962 13.9230 1.1797 3.2971 47.6536 7.3797
# 6 -9.6456 2.6227 1.1177 -3.6175 7.3797 25.2472
#
#
#
# Elastic Compliance Matrix: (Units=1/GPa)
#
#
# Indices 1 2 3 4 5 6 
#
# 1 0.013741 -0.003105 -0.004411 -0.004333 -0.000663 0.005340
# 2 -0.003105 0.010145 -0.002198 -0.001958 -0.002240 -0.001768
# 3 -0.004411 -0.002198 0.010116 -0.002008 0.001299 -0.002572
# 4 -0.004333 -0.001958 -0.002008 0.038751 -0.002456 0.004907
# 5 -0.000663 -0.002240 0.001299 -0.002456 0.022937 -0.007135
# 6 0.005340 -0.001768 -0.002572 0.004907 -0.007135 0.044735
#
#
# Mechanical properties :
#
#
# Convention : Reuss Voigt Hill
#
# Bulk Modulus (GPa) = 68.61755 80.35420 74.48587
# Shear Modulus (GPa) = 30.35638 35.39505 32.87571
#
# Velocity S-wave (km/s) = 3.81860 4.12335 3.97390
# Velocity P-wave (km/s) = 7.23898 7.82736 7.53891
#
# Compressibility (1/GPa) = 0.01457353
#
# Stress axis : x y z
#
# Youngs Moduli (GPa) = 72.77631 98.57152 98.85730
#
# Poissons Ratio (x) = 0.30603 0.43604
# Poissons Ratio (y) = 0.22595 0.21732
# Poissons Ratio (z) = 0.32100 0.21669
#
# Static dielectric constant tensor:
#      x y z
#    x 3.793630 -0.015870 -0.026170 
#    y -0.015870 3.978890 -0.061620 
#    z -0.026170 -0.061620 3.944720 
# 
# 
# High freq. dielectric constant tensor:
#      x y z
#    x 1.820310 0.000650 -0.013630 
#    y 0.000650 1.823400 0.003080 
#    z -0.013630 0.003080 1.828730 
# 
# From -- ./inp_files/27369.got.cif
#   From: 2010.06.25/outbox.cif.g09.slc.cpg/sg2_14_cif.got.tgz:27369.got - 2010.06.27 13:26:56.
