data_PCOD8024661
_publ_section_title
;
Structure prediction by ZEFSAII (Michael W. Deem and Ramdas Pophale) SiO2 
 PCOD8024661
Probable space group: P -1
;
_chemical_formula_sum "Si O2"
_cell_formula_units_Z 16
_cell_length_a 8.176929
_cell_length_b 9.635138
_cell_length_c 14.077560
_cell_angle_alpha 70.940311
_cell_angle_beta 138.227849
_cell_angle_gamma 97.195457
_cell_volume 685.918321
_symmetry_space_group_name_H-M "P -1"
_symmetry_group_IT_number 2
_symmetry_cell_setting 'triclinic'
loop_
_space_group_symop_operation_xyz
x,y,z
-x,-y,-z
loop_
_atom_site_type_symbol
_atom_site_label
_atom_site_fract_x
_atom_site_fract_y
_atom_site_fract_z
Si Si1 0.781262 0.614176 0.931002
Si Si2 0.371828 0.855773 0.262794
Si Si3 0.899716 0.872062 0.808677
Si Si4 0.955496 0.671514 0.355613
Si Si5 0.214375 0.632009 0.658768
Si Si6 0.169375 0.263680 0.386663
Si Si7 0.882642 0.399655 0.755390
Si Si8 0.438401 0.885282 0.077179
O O1 0.765692 0.777199 0.844339
O O2 0.509572 0.572703 0.809217
O O3 0.000000 0.500000 0.000000
O O4 0.850993 0.610882 0.073334
O O5 0.642873 0.817969 0.435093
O O6 0.289413 0.695650 0.238884
O O7 0.378698 0.946387 0.145831
O O8 0.182144 0.956964 0.231109
O O9 0.812487 0.846531 0.670111
O O10 0.199263 0.821872 0.950832
O O11 0.945208 0.497625 0.388969
O O12 0.674104 0.755860 0.221429
O O13 0.133298 0.720402 0.504683
O O14 0.080743 0.696354 0.304073
O O15 0.105533 0.721165 0.686934
O O16 0.237930 0.424284 0.348688
O O17 0.500000 0.000000 0.000000
#
# Coordination Sequence:
#
# PCOD8024661 Si02
#       8
#     2   2   2   2   2   2   2   2
#     4  12  25  44  70 109 146 185 230 303 353 417
#     4  12  26  49  70 104 146 187 242 292 347 434
#     4  12  27  45  72 105 146 186 238 294 360 416
#     4  10  23  43  70 105 139 189 233 292 349 426
#     4  10  24  44  71 104 146 180 237 293 356 417
#     4  11  25  47  71 110 139 190 232 297 357 416
#     4  11  25  42  77 105 139 186 238 289 359 421
#     4  12  26  46  72  98 142 191 237 287 355 425
#
# _framework density 23.326391000000001
#
# number of rings (size 3 to 8) (size 9 to 14) (size 15 to 20)
#    0.000    0.750    3.750    2.625    5.250    1.000 
#    2.250    1.250    0.000    0.000    0.000    0.000 
#    0.000    0.000    0.000    0.000    0.000    0.000 
#
# Total GULP energy -198324.134536 kJ/mol
# GULP energy per Si atom -12395.258408 kJ/mol
# Density = 2.327330 g / cm^3
# Si number density = 23.326391 Si / 1000 Ang^3
#
#
#
# Elastic Constant Matrix: (Units=GPa)
#
#
# Indices 1 2 3 4 5 6 
#
# 1 104.6910 34.9169 50.2791 1.3907 -18.2559 -12.6512
# 2 34.9169 68.3465 31.1689 6.3628 -14.4312 -10.5598
# 3 50.2791 31.1689 141.2259 9.2168 -9.9966 -2.7183
# 4 1.3907 6.3628 9.2168 19.7517 -7.3466 -1.4517
# 5 -18.2559 -14.4312 -9.9966 -7.3466 50.8192 -0.6227
# 6 -12.6512 -10.5598 -2.7183 -1.4517 -0.6227 33.5902
#
#
#
# Elastic Compliance Matrix: (Units=1/GPa)
#
#
# Indices 1 2 3 4 5 6 
#
# 1 0.013917 -0.004334 -0.003922 0.003865 0.003602 0.003795
# 2 -0.004334 0.019491 -0.002232 -0.003473 0.003089 0.004222
# 3 -0.003922 -0.002232 0.009122 -0.003678 -0.000800 -0.001615
# 4 0.003865 -0.003473 -0.003678 0.056306 0.007851 0.002645
# 5 0.003602 0.003089 -0.000800 0.007851 0.022863 0.003026
# 6 0.003795 0.004222 -0.001615 0.002645 0.003026 0.032567
#
#
# Mechanical properties :
#
#
# Convention : Reuss Voigt Hill
#
# Bulk Modulus (GPa) = 46.39679 60.77703 53.58691
# Shear Modulus (GPa) = 27.40817 34.02546 30.71682
#
# Velocity S-wave (km/s) = 3.43152 3.82339 3.63275
# Velocity P-wave (km/s) = 5.96942 6.75298 6.37325
#
# Compressibility (1/GPa) = 0.02155321
#
# Stress axis : x y z
#
# Youngs Moduli (GPa) = 71.85701 51.30533 109.62208
#
# Poissons Ratio (x) = 0.22235 0.42997
# Poissons Ratio (y) = 0.31141 0.24471
# Poissons Ratio (z) = 0.28184 0.11453
#
# Static dielectric constant tensor:
#      x y z
#    x 4.415150 -0.092580 -0.408990 
#    y -0.092580 4.032040 0.011500 
#    z -0.408990 0.011500 4.422590 
# 
# 
# High freq. dielectric constant tensor:
#      x y z
#    x 1.928990 -0.006730 -0.013590 
#    y -0.006730 1.898880 0.001950 
#    z -0.013590 0.001950 1.939700 
# 
# From -- ./inp_files/494758.got.cif
#   From: 2010.06.25/outbox.cif.g09.slc.cpg/sg2_248_cif.got.tgz:494758.got - 2010.06.27 13:26:56.
