data_PCOD8024633
_publ_section_title
;
Structure prediction by ZEFSAII (Michael W. Deem and Ramdas Pophale) SiO2 
 PCOD8024633
Probable space group: P -1
;
_chemical_formula_sum "Si O2"
_cell_formula_units_Z 16
_cell_length_a 14.452453
_cell_length_b 12.584696
_cell_length_c 8.800382
_cell_angle_alpha 81.707505
_cell_angle_beta 106.948828
_cell_angle_gamma 150.545215
_cell_volume 732.165791
_symmetry_space_group_name_H-M "P -1"
_symmetry_group_IT_number 2
_symmetry_cell_setting 'triclinic'
loop_
_space_group_symop_operation_xyz
x,y,z
-x,-y,-z
loop_
_atom_site_type_symbol
_atom_site_label
_atom_site_fract_x
_atom_site_fract_y
_atom_site_fract_z
Si Si1 0.662102 0.946285 0.682452
Si Si2 0.756552 0.555057 0.776252
Si Si3 0.591510 0.187726 0.643699
Si Si4 0.677612 0.140977 0.164705
Si Si5 0.948131 0.394447 0.656158
Si Si6 0.417740 0.510989 0.563178
Si Si7 0.441221 0.379400 0.849887
Si Si8 0.793832 0.049042 0.061241
O O1 0.481314 0.844912 0.551681
O O2 0.607591 0.772545 0.641851
O O3 0.870817 0.194840 0.655347
O O4 0.674771 0.964161 0.867794
O O5 0.645765 0.333229 0.760331
O O6 0.756982 0.597389 0.591314
O O7 0.638448 0.521558 0.835875
O O8 0.976260 0.752823 0.908135
O O9 0.777711 0.290792 0.690309
O O10 0.402892 0.946403 0.683153
O O11 0.847786 0.399075 0.190471
O O12 0.779479 0.129900 0.159540
O O13 0.500000 0.000000 0.000000
O O14 0.000000 0.500000 0.500000
O O15 0.500000 0.500000 0.500000
O O16 0.333033 0.366574 0.699189
O O17 0.287642 0.136885 0.862055
O O18 0.500000 0.500000 0.000000
#
# Coordination Sequence:
#
# PCOD8024633 Si02
#       8
#     2   2   2   2   2   2   2   2
#     4  11  24  42  68  99 140 176 228 285 342 408
#     4  10  23  43  69  98 138 178 229 281 342 416
#     4  11  23  47  66  96 139 182 228 282 339 418
#     4  12  27  44  71 102 140 187 226 283 352 409
#     4  12  26  43  70 101 135 183 236 280 341 415
#     4   9  21  44  71  93 133 184 220 285 347 403
#     4  11  22  44  70  98 136 176 229 289 350 396
#     4  12  25  43  70 105 136 179 231 284 346 415
#
# _framework density 21.852975000000001
#
# number of rings (size 3 to 8) (size 9 to 14) (size 15 to 20)
#    0.000    1.000    5.000    1.125    3.500    2.000 
#    0.000    1.250    0.000    0.000    0.000    0.000 
#    0.000    0.000    0.000    0.000    0.000    0.000 
#
# Total GULP energy -198299.915271 kJ/mol
# GULP energy per Si atom -12393.744704 kJ/mol
# Density = 2.180324 g / cm^3
# Si number density = 21.852975 Si / 1000 Ang^3
#
#
#
# Elastic Constant Matrix: (Units=GPa)
#
#
# Indices 1 2 3 4 5 6 
#
# 1 79.5397 35.4427 23.9719 8.5276 -7.9371 7.5992
# 2 35.4427 144.8693 44.8088 2.6796 6.6252 -10.4202
# 3 23.9719 44.8088 112.0055 1.6340 0.5936 1.7499
# 4 8.5276 2.6796 1.6340 41.5768 2.5242 2.9529
# 5 -7.9371 6.6252 0.5936 2.5242 33.1340 2.0516
# 6 7.5992 -10.4202 1.7499 2.9529 2.0516 36.5438
#
#
#
# Elastic Compliance Matrix: (Units=1/GPa)
#
#
# Indices 1 2 3 4 5 6 
#
# 1 0.016103 -0.003879 -0.001810 -0.002982 0.005166 -0.004417
# 2 -0.003879 0.009136 -0.002870 0.000236 -0.002951 0.003696
# 3 -0.001810 -0.002870 0.010476 0.000213 -0.000004 -0.000961
# 4 -0.002982 0.000236 0.000213 0.024881 -0.002587 -0.001188
# 5 0.005166 -0.002951 -0.000004 -0.002587 0.032424 -0.003527
# 6 -0.004417 0.003696 -0.000961 -0.001188 -0.003527 0.029677
#
#
# Mechanical properties :
#
#
# Convention : Reuss Voigt Hill
#
# Bulk Modulus (GPa) = 53.77085 60.54015 57.15550
# Shear Modulus (GPa) = 34.24346 37.73032 35.98689
#
# Velocity S-wave (km/s) = 3.96282 4.15969 4.06245
# Velocity P-wave (km/s) = 6.75261 7.12981 6.94377
#
# Compressibility (1/GPa) = 0.01859744
#
# Stress axis : x y z
#
# Youngs Moduli (GPa) = 62.09905 109.45750 95.45948
#
# Poissons Ratio (x) = 0.42457 0.17274
# Poissons Ratio (y) = 0.24087 0.27400
# Poissons Ratio (z) = 0.11238 0.31418
#
# Static dielectric constant tensor:
#      x y z
#    x 3.854220 -0.255390 -0.128850 
#    y -0.255390 4.181700 0.007090 
#    z -0.128850 0.007090 4.850550 
# 
# 
# High freq. dielectric constant tensor:
#      x y z
#    x 1.841690 -0.021300 -0.004370 
#    y -0.021300 1.865980 0.002820 
#    z -0.004370 0.002820 1.875340 
# 
# From -- ./inp_files/138694.got.cif
#   From: 2010.06.25/outbox.cif.g09.slc.cpg/sg2_70_cif.got.tgz:138694.got - 2010.06.27 13:26:56.
