data_PCOD8024488
_publ_section_title
;
Structure prediction by ZEFSAII (Michael W. Deem and Ramdas Pophale) SiO2 
 PCOD8024488
Probable space group: P -1
;
_chemical_formula_sum "Si O2"
_cell_formula_units_Z 16
_cell_length_a 11.187794
_cell_length_b 20.617584
_cell_length_c 8.667429
_cell_angle_alpha 53.021460
_cell_angle_beta 95.683124
_cell_angle_gamma 140.074905
_cell_volume 725.331149
_symmetry_space_group_name_H-M "P -1"
_symmetry_group_IT_number 2
_symmetry_cell_setting 'triclinic'
loop_
_space_group_symop_operation_xyz
x,y,z
-x,-y,-z
loop_
_atom_site_type_symbol
_atom_site_label
_atom_site_fract_x
_atom_site_fract_y
_atom_site_fract_z
Si Si1 0.263175 0.700048 0.804740
Si Si2 0.439541 0.256187 0.065283
Si Si3 0.342085 0.022182 0.047263
Si Si4 0.018266 0.350286 0.963032
Si Si5 0.745350 0.401220 0.605934
Si Si6 0.983950 0.933880 0.245431
Si Si7 0.398442 0.979614 0.796234
Si Si8 0.495432 0.593007 0.866569
O O1 0.364048 0.821094 0.512338
O O2 0.501028 0.781565 0.754440
O O3 0.000000 0.500000 0.000000
O O4 0.190603 0.705231 0.942057
O O5 0.676626 0.397368 0.769645
O O6 0.438801 0.337472 0.050891
O O7 0.162413 0.079879 0.195348
O O8 0.513903 0.207064 0.784506
O O9 0.276712 0.941660 0.991628
O O10 0.489827 0.044596 0.138113
O O11 0.075766 0.896493 0.271418
O O12 0.208649 0.493290 0.645837
O O13 0.196043 0.436767 0.009648
O O14 0.842742 0.168133 0.145040
O O15 0.000000 0.500000 0.500000
O O16 0.691770 0.750680 0.539610
O O17 0.000000 0.000000 0.000000
O O18 0.500000 0.500000 0.000000
#
# Coordination Sequence:
#
# PCOD8024488 Si02
#       8
#     2   2   2   2   2   2   2   2
#     4  12  24  40  72 103 135 175 223 289 357 406
#     4  11  25  45  75  99 135 181 232 287 338 413
#     4  10  23  43  68 101 137 179 227 285 341 414
#     4  12  24  43  66 103 139 176 225 283 347 414
#     4  11  20  41  70 103 132 172 222 276 354 412
#     4  11  26  49  71  95 136 194 240 273 331 414
#     4  11  25  39  69 106 138 172 219 295 358 401
#     4  12  29  45  67 101 141 184 231 287 334 405
#
# _framework density 22.058888
#
# number of rings (size 3 to 8) (size 9 to 14) (size 15 to 20)
#    0.000    0.750    3.750    3.750    5.250    2.000 
#    0.000    1.875    0.000    0.000    0.000    0.000 
#    0.000    0.000    0.000    0.000    0.000    0.000 
#
# Total GULP energy -198404.092111 kJ/mol
# GULP energy per Si atom -12400.255757 kJ/mol
# Density = 2.200868 g / cm^3
# Si number density = 22.058888 Si / 1000 Ang^3
#
#
#
# Elastic Constant Matrix: (Units=GPa)
#
#
# Indices 1 2 3 4 5 6 
#
# 1 105.4124 51.2066 21.2681 -2.2228 -2.4433 -22.2420
# 2 51.2066 156.3302 34.1230 -11.5311 3.9778 -8.8724
# 3 21.2681 34.1230 95.0170 -4.4452 8.6493 -5.2060
# 4 -2.2228 -11.5311 -4.4452 31.2348 -1.6999 -6.5615
# 5 -2.4433 3.9778 8.6493 -1.6999 33.5738 0.5029
# 6 -22.2420 -8.8724 -5.2060 -6.5615 0.5029 37.3885
#
#
#
# Elastic Compliance Matrix: (Units=1/GPa)
#
#
# Indices 1 2 3 4 5 6 
#
# 1 0.012982 -0.003538 -0.001368 0.000950 0.001662 0.006837
# 2 -0.003538 0.008184 -0.001978 0.002456 -0.000593 0.000001
# 3 -0.001368 -0.001978 0.011873 0.000821 -0.002891 0.000553
# 4 0.000950 0.002456 0.000821 0.034714 0.001214 0.007338
# 5 0.001662 -0.000593 -0.002891 0.001214 0.030779 0.000245
# 6 0.006837 0.000001 0.000553 0.007338 0.000245 0.032175
#
#
# Mechanical properties :
#
#
# Convention : Reuss Voigt Hill
#
# Bulk Modulus (GPa) = 51.89029 63.32833 57.60931
# Shear Modulus (GPa) = 33.13481 37.11687 35.12584
#
# Velocity S-wave (km/s) = 3.87991 4.10643 3.99478
# Velocity P-wave (km/s) = 6.60652 7.15925 6.88843
#
# Compressibility (1/GPa) = 0.01927143
#
# Stress axis : x y z
#
# Youngs Moduli (GPa) = 77.02705 122.19427 84.22640
#
# Poissons Ratio (x) = 0.43234 0.11518
# Poissons Ratio (y) = 0.27253 0.16661
# Poissons Ratio (z) = 0.10534 0.24171
#
# Static dielectric constant tensor:
#      x y z
#    x 4.293170 -0.016990 -0.375310 
#    y -0.016990 4.069520 -0.000960 
#    z -0.375310 -0.000960 4.713530 
# 
# 
# High freq. dielectric constant tensor:
#      x y z
#    x 1.865860 -0.006030 -0.007040 
#    y -0.006030 1.877480 0.000900 
#    z -0.007040 0.000900 1.864070 
# 
# From -- ./inp_files/282904.got.cif
#   From: 2010.06.25/outbox.cif.g09.slc.cpg/sg2_142_cif.got.tgz:282904.got - 2010.06.27 13:26:56.
