data_PCOD8024037
_publ_section_title
;
Structure prediction by ZEFSAII (Michael W. Deem and Ramdas Pophale) SiO2 
 PCOD8024037
Probable space group: P -1
;
_chemical_formula_sum "Si O2"
_cell_formula_units_Z 16
_cell_length_a 8.917072
_cell_length_b 11.963888
_cell_length_c 14.818089
_cell_angle_alpha 67.176725
_cell_angle_beta 117.322593
_cell_angle_gamma 60.151154
_cell_volume 731.150318
_symmetry_space_group_name_H-M "P -1"
_symmetry_group_IT_number 2
_symmetry_cell_setting 'triclinic'
loop_
_space_group_symop_operation_xyz
x,y,z
-x,-y,-z
loop_
_atom_site_type_symbol
_atom_site_label
_atom_site_fract_x
_atom_site_fract_y
_atom_site_fract_z
Si Si1 0.846641 0.858678 0.448423
Si Si2 0.505989 0.526640 0.721289
Si Si3 0.518928 0.252600 0.617989
Si Si4 0.880414 0.248616 0.753018
Si Si5 0.693565 0.783914 0.577925
Si Si6 0.275611 0.358325 0.187395
Si Si7 0.861634 0.718229 0.314992
Si Si8 0.631824 0.171479 0.870541
O O1 0.923224 0.718633 0.595516
O O2 0.745642 0.839273 0.340203
O O3 0.146422 0.757730 0.542339
O O4 0.570247 0.110457 0.316147
O O5 0.668536 0.457395 0.692334
O O6 0.638936 0.549084 0.819269
O O7 0.565362 0.351517 0.819896
O O8 0.662609 0.296473 0.614496
O O9 0.535152 0.157053 0.566231
O O10 0.687900 0.108202 0.799680
O O11 0.182698 0.467190 0.495431
O O12 0.109658 0.190082 0.777037
O O13 0.065853 0.046660 0.929880
O O14 0.832279 0.619795 0.748142
O O15 0.500000 0.000000 0.500000
O O16 0.000000 0.500000 0.000000
O O17 0.642784 0.750627 0.198455
#
# Coordination Sequence:
#
# PCOD8024037 Si02
#       8
#     2   2   2   2   2   2   2   2
#     4  11  23  44  70  97 131 179 222 270 325 404
#     4  11  23  44  68  96 137 175 224 262 330 402
#     4  11  20  40  65  95 131 177 220 264 334 396
#     4  11  25  38  66 104 137 172 216 279 334 380
#     4  10  23  42  69  95 128 178 225 265 328 400
#     4  11  27  47  71  97 131 172 222 284 333 388
#     4  12  22  40  67  99 137 174 223 269 331 395
#     4  11  23  40  66 100 136 176 212 279 330 384
#
# _framework density 21.883326
#
# number of rings (size 3 to 8) (size 9 to 14) (size 15 to 20)
#    0.000    1.000    3.750    4.500    3.500    2.000 
#    4.500    0.625    0.000    0.000    0.000    0.000 
#    0.000    0.000    0.000    0.000    0.000    0.000 
#
# Total GULP energy -198253.206669 kJ/mol
# GULP energy per Si atom -12390.825417 kJ/mol
# Density = 2.183352 g / cm^3
# Si number density = 21.883326 Si / 1000 Ang^3
#
#
#
# Elastic Constant Matrix: (Units=GPa)
#
#
# Indices 1 2 3 4 5 6 
#
# 1 142.9794 73.6917 -34.7312 -8.1509 62.8720 -29.7390
# 2 73.6917 152.0570 17.1955 4.5681 27.2792 0.4517
# 3 -34.7312 17.1955 459.7160 95.2026 -204.0490 166.3952
# 4 -8.1509 4.5681 95.2026 48.8571 -52.5467 49.1012
# 5 62.8720 27.2792 -204.0490 -52.5467 172.6107 -88.3174
# 6 -29.7390 0.4517 166.3952 49.1012 -88.3174 116.6376
#
#
#
# Elastic Compliance Matrix: (Units=1/GPa)
#
#
# Indices 1 2 3 4 5 6 
#
# 1 0.011309 -0.004455 -0.001383 -0.002283 -0.004505 0.002424
# 2 -0.004455 0.009139 -0.000979 -0.000678 -0.001508 -0.000631
# 3 -0.001383 -0.000979 0.006838 -0.002777 0.005428 -0.004825
# 4 -0.002283 -0.000678 -0.002777 0.041128 0.004976 -0.010164
# 5 -0.004505 -0.001508 0.005428 0.004976 0.016301 0.001362
# 6 0.002424 -0.000631 -0.004825 -0.010164 0.001362 0.021388
#
#
# Mechanical properties :
#
#
# Convention : Reuss Voigt Hill
#
# Bulk Modulus (GPa) = 73.24698 96.34048 84.79373
# Shear Modulus (GPa) = 40.22967 114.19418 77.21192
#
# Velocity S-wave (km/s) = 4.29227 7.23163 5.94643
# Velocity P-wave (km/s) = 7.62293 10.67000 9.27248
#
# Compressibility (1/GPa) = 0.01365244
#
# Stress axis : x y z
#
# Youngs Moduli (GPa) = 88.42570 109.42199 146.23734
#
# Poissons Ratio (x) = 0.48744 0.20226
# Poissons Ratio (y) = 0.39391 0.14317
# Poissons Ratio (z) = 0.12230 0.10713
#
# Static dielectric constant tensor:
#      x y z
#    x 4.922360 -0.032430 0.131640 
#    y -0.032430 4.037750 0.202070 
#    z 0.131640 0.202070 3.977140 
# 
# 
# High freq. dielectric constant tensor:
#      x y z
#    x 1.885910 0.009850 0.004980 
#    y 0.009850 1.854810 0.006050 
#    z 0.004980 0.006050 1.846100 
# 
# From -- ./inp_files/500301.got.cif
#   From: 2010.06.25/outbox.cif.g09.slc.cpg/sg2_251_cif.got.tgz:500301.got - 2010.06.27 13:26:56.
