data_PCOD8024742
_publ_section_title
;
Structure prediction by ZEFSAII (Michael W. Deem and Ramdas Pophale) SiO2 
 PCOD8024742
Probable space group: P -1
;
_chemical_formula_sum "Si O2"
_cell_formula_units_Z 16
_cell_length_a 11.581671
_cell_length_b 13.376647
_cell_length_c 9.705280
_cell_angle_alpha 44.238263
_cell_angle_beta 39.604782
_cell_angle_gamma 64.411764
_cell_volume 643.861385
_symmetry_space_group_name_H-M "P -1"
_symmetry_group_IT_number 2
_symmetry_cell_setting 'triclinic'
loop_
_space_group_symop_operation_xyz
x,y,z
-x,-y,-z
loop_
_atom_site_type_symbol
_atom_site_label
_atom_site_fract_x
_atom_site_fract_y
_atom_site_fract_z
Si Si1 0.225147 0.291429 0.541842
Si Si2 0.787800 0.071840 0.493114
Si Si3 0.550079 0.141478 0.412763
Si Si4 0.216755 0.592459 0.227082
Si Si5 0.795058 0.330648 0.535306
Si Si6 0.381270 0.219002 0.946705
Si Si7 0.886609 0.669258 0.098309
Si Si8 0.892819 0.814364 0.540821
O O1 0.366042 0.196601 0.544243
O O2 0.329165 0.464830 0.239638
O O3 0.102363 0.223654 0.587398
O O4 0.093384 0.292562 0.795013
O O5 0.607735 0.092940 0.555741
O O6 0.929354 0.229664 0.251095
O O7 0.915591 0.991583 0.359079
O O8 0.706104 0.962015 0.805705
O O9 0.500000 0.000000 0.500000
O O10 0.720070 0.279191 0.070575
O O11 0.266453 0.675252 0.244042
O O12 0.000000 0.500000 0.500000
O O13 0.607349 0.259933 0.688178
O O14 0.943291 0.233352 0.480353
O O15 0.887240 0.500131 0.236131
O O16 0.305660 0.301545 0.811045
O O17 0.305416 0.266460 0.117764
#
# Coordination Sequence:
#
# PCOD8024742 Si02
#       8
#     2   2   2   2   2   2   2   2
#     4  11  23  42  64 106 129 176 222 281 334 399
#     4  10  24  43  65  95 136 178 218 278 332 398
#     4  12  22  40  65  98 136 177 220 275 335 402
#     4  11  22  39  64  96 143 165 217 279 343 389
#     4  11  22  43  73  98 130 182 224 275 333 405
#     4  10  24  49  67  94 141 179 224 275 334 403
#     4  11  25  45  69  97 136 173 230 279 330 402
#     4  10  23  43  71  97 137 175 220 277 346 390
#
# _framework density 24.850066999999999
#
# number of rings (size 3 to 8) (size 9 to 14) (size 15 to 20)
#    0.750    0.500    2.500    4.125    0.000    4.000 
#    2.250    1.250    0.000    0.000    0.000    0.000 
#    0.000    0.000    0.000    0.000    0.000    0.000 
#
# Total GULP energy -198286.323341 kJ/mol
# GULP energy per Si atom -12392.895209 kJ/mol
# Density = 2.479351 g / cm^3
# Si number density = 24.850067 Si / 1000 Ang^3
#
#
#
# Elastic Constant Matrix: (Units=GPa)
#
#
# Indices 1 2 3 4 5 6 
#
# 1 98.2914 18.1235 13.8514 -3.5140 -0.3305 -28.0773
# 2 18.1235 86.8363 13.1929 -27.3462 -10.3383 -41.1680
# 3 13.8514 13.1929 82.9879 -19.5776 -12.2850 -6.3813
# 4 -3.5140 -27.3462 -19.5776 37.0525 -8.8521 0.6134
# 5 -0.3305 -10.3383 -12.2850 -8.8521 42.2669 -0.3517
# 6 -28.0773 -41.1680 -6.3813 0.6134 -0.3517 49.8093
#
#
#
# Elastic Compliance Matrix: (Units=1/GPa)
#
#
# Indices 1 2 3 4 5 6 
#
# 1 0.012582 0.003371 -0.000865 0.003414 0.001467 0.009736
# 2 0.003371 0.043725 0.008646 0.041849 0.022321 0.038789
# 3 -0.000865 0.008646 0.017351 0.017946 0.010982 0.008738
# 4 0.003414 0.041849 0.017946 0.074554 0.031410 0.038116
# 5 0.001467 0.022321 0.010982 0.031410 0.039072 0.020572
# 6 0.009736 0.038789 0.008738 0.038116 0.020572 0.058420
#
#
# Mechanical properties :
#
#
# Convention : Reuss Voigt Hill
#
# Bulk Modulus (GPa) = 10.42080 39.82789 25.12435
# Shear Modulus (GPa) = 19.57815 40.68894 30.13355
#
# Velocity S-wave (km/s) = 2.80991 4.05084 3.48604
# Velocity P-wave (km/s) = 3.83798 6.15964 5.13182
#
# Compressibility (1/GPa) = 0.09596193
#
# Stress axis : x y z
#
# Youngs Moduli (GPa) = 79.47658 22.87043 57.63323
#
# Poissons Ratio (x) = -0.07709 0.04984
# Poissons Ratio (y) = -0.26790 -0.49829
# Poissons Ratio (z) = 0.06873 -0.19774
#
# Static dielectric constant tensor:
#      x y z
#    x 4.270580 -0.194870 0.192140 
#    y -0.194870 4.715410 -0.381380 
#    z 0.192140 -0.381380 4.226330 
# 
# 
# High freq. dielectric constant tensor:
#      x y z
#    x 1.990510 -0.014800 0.011840 
#    y -0.014800 1.999960 -0.018120 
#    z 0.011840 -0.018120 1.974780 
# 
# From -- ./inp_files/436309.got.cif
#   From: 2010.06.25/outbox.cif.g09.slc.cpg/sg2_219_cif.got.tgz:436309.got - 2010.06.27 13:26:56.
