data_PCOD8024786
_publ_section_title
;
Structure prediction by ZEFSAII (Michael W. Deem and Ramdas Pophale) SiO2 
 PCOD8024786
Probable space group: P -1
;
_chemical_formula_sum "Si O2"
_cell_formula_units_Z 12
_cell_length_a 9.581865
_cell_length_b 9.814956
_cell_length_c 8.808884
_cell_angle_alpha 96.893132
_cell_angle_beta 98.059243
_cell_angle_gamma 136.102011
_cell_volume 538.459952
_symmetry_space_group_name_H-M "P -1"
_symmetry_group_IT_number 2
_symmetry_cell_setting 'triclinic'
loop_
_space_group_symop_operation_xyz
x,y,z
-x,-y,-z
loop_
_atom_site_type_symbol
_atom_site_label
_atom_site_fract_x
_atom_site_fract_y
_atom_site_fract_z
Si Si1 0.400496 0.223747 0.771223
Si Si2 0.668185 0.842414 0.578448
Si Si3 0.945671 0.883171 0.128359
Si Si4 0.259731 0.587537 0.649115
Si Si5 0.840088 0.499499 0.033147
Si Si6 0.184198 0.827980 0.552007
O O1 0.393958 0.280300 0.605181
O O2 0.294168 0.256231 0.872445
O O3 0.259029 0.979761 0.723837
O O4 0.641847 0.366819 0.871235
O O5 0.486093 0.686023 0.655513
O O6 0.705510 0.031624 0.566173
O O7 0.887396 0.944436 0.695111
O O8 0.964615 0.734314 0.085715
O O9 0.000000 0.000000 0.000000
O O10 0.245086 0.604399 0.827976
O O11 0.253203 0.723382 0.572374
O O12 0.071793 0.350837 0.531112
O O13 0.000000 0.500000 0.000000
#
# Coordination Sequence:
#
# PCOD8024786 Si02
#       6
#     2   2   2   2   2   2
#     4  10  25  45  70 101 146 177 239 287 348 417
#     4  10  23  43  73 101 135 186 235 286 345 419
#     4  12  26  48  69 101 149 186 230 292 353 415
#     4  11  22  42  72 103 143 182 229 294 351 406
#     4  12  28  44  71 106 143 185 239 287 349 418
#     4   9  23  40  71 102 144 173 238 282 356 403
#
# _framework density 22.285778000000001
#
# number of rings (size 3 to 8) (size 9 to 14) (size 15 to 20)
#    1.000    0.333    1.667    2.500    9.333    0.667 
#    0.000    2.500    0.000    0.000    0.000    0.000 
#    0.000    0.000    0.000    0.000    0.000    0.000 
#
# Total GULP energy -148758.096537 kJ/mol
# GULP energy per Si atom -12396.508045 kJ/mol
# Density = 2.223505 g / cm^3
# Si number density = 22.285778 Si / 1000 Ang^3
#
#
#
# Elastic Constant Matrix: (Units=GPa)
#
#
# Indices 1 2 3 4 5 6 
#
# 1 133.1195 35.6604 52.8504 -0.6858 -2.8657 25.8291
# 2 35.6604 84.3007 37.3618 -8.6590 -7.0405 17.3441
# 3 52.8504 37.3618 139.9200 -8.2761 17.1925 14.3946
# 4 -0.6858 -8.6590 -8.2761 46.7287 9.2733 -3.8504
# 5 -2.8657 -7.0405 17.1925 9.2733 41.7484 2.0228
# 6 25.8291 17.3441 14.3946 -3.8504 2.0228 33.0106
#
#
#
# Elastic Compliance Matrix: (Units=1/GPa)
#
#
# Indices 1 2 3 4 5 6 
#
# 1 0.010532 -0.001675 -0.003294 -0.001751 0.002490 -0.006281
# 2 -0.001675 0.015660 -0.003404 0.001029 0.003968 -0.005556
# 3 -0.003294 -0.003404 0.010043 0.002231 -0.005460 0.000581
# 4 -0.001751 0.001029 0.002231 0.023439 -0.006216 0.002971
# 5 0.002490 0.003968 -0.005460 -0.006216 0.028622 -0.004132
# 6 -0.006281 -0.005556 0.000581 0.002971 -0.004132 0.038473
#
#
# Mechanical properties :
#
#
# Convention : Reuss Voigt Hill
#
# Bulk Modulus (GPa) = 51.31197 67.67615 59.49406
# Shear Modulus (GPa) = 33.33079 39.72871 36.52975
#
# Velocity S-wave (km/s) = 3.87150 4.22678 4.05303
# Velocity P-wave (km/s) = 6.56195 7.36574 6.97544
#
# Compressibility (1/GPa) = 0.01948863
#
# Stress axis : x y z
#
# Youngs Moduli (GPa) = 94.94998 63.85849 99.56956
#
# Poissons Ratio (x) = 0.10694 0.32801
# Poissons Ratio (y) = 0.15901 0.33894
# Poissons Ratio (z) = 0.31279 0.21738
#
# Static dielectric constant tensor:
#      x y z
#    x 3.704200 0.063610 0.188100 
#    y 0.063610 4.029260 0.087190 
#    z 0.188100 0.087190 4.029520 
# 
# 
# High freq. dielectric constant tensor:
#      x y z
#    x 1.865520 0.007250 0.015120 
#    y 0.007250 1.879610 0.001720 
#    z 0.015120 0.001720 1.880290 
# 
# From -- ./inp_files/159303.got.cif
#   From: 2010.06.25/outbox.cif.g09.slc.cpg/sg2_80_cif.got.tgz:159303.got - 2010.06.27 13:26:56.
