data_PCOD8024994
_publ_section_title
;
Structure prediction by ZEFSAII (Michael W. Deem and Ramdas Pophale) SiO2 
 PCOD8024994
Probable space group: P -1
;
_chemical_formula_sum "Si O2"
_cell_formula_units_Z 16
_cell_length_a 7.340358
_cell_length_b 24.260276
_cell_length_c 5.122145
_cell_angle_alpha 101.752954
_cell_angle_beta 106.521374
_cell_angle_gamma 48.171461
_cell_volume 651.493398
_symmetry_space_group_name_H-M "P -1"
_symmetry_group_IT_number 2
_symmetry_cell_setting 'triclinic'
loop_
_space_group_symop_operation_xyz
x,y,z
-x,-y,-z
loop_
_atom_site_type_symbol
_atom_site_label
_atom_site_fract_x
_atom_site_fract_y
_atom_site_fract_z
Si Si1 0.496985 0.079916 0.696145
Si Si2 0.975787 0.819280 0.676388
Si Si3 0.217874 0.912071 0.570848
Si Si4 0.663828 0.796995 0.884139
Si Si5 0.663245 0.347413 0.429675
Si Si6 0.943692 0.942852 0.982402
Si Si7 0.078886 0.450396 0.234216
Si Si8 0.885564 0.363276 0.029184
O O1 0.208677 0.119994 0.564906
O O2 0.638085 0.061045 0.458434
O O3 0.643971 0.004851 0.857976
O O4 0.484564 0.144167 0.885474
O O5 0.842038 0.807310 0.825742
O O6 0.070555 0.858281 0.883171
O O7 0.192491 0.739674 0.558505
O O8 0.433741 0.822800 0.622493
O O9 0.088172 0.957019 0.840843
O O10 0.001873 0.936655 0.307030
O O11 0.831284 0.713643 0.972501
O O12 0.376582 0.385217 0.308644
O O13 0.760717 0.363863 0.239599
O O14 0.710819 0.378133 0.730436
O O15 0.000000 0.500000 0.500000
O O16 0.920165 0.423303 0.126943
O O17 0.000000 0.500000 0.000000
#
# Coordination Sequence:
#
# PCOD8024994 Si02
#       8
#     2   2   2   2   2   2   2   2
#     4  11  22  43  65  89 137 177 236 288 346 411
#     4  10  25  43  63  99 133 181 236 284 347 414
#     4  11  25  40  60  92 128 174 234 288 353 414
#     4  10  23  44  67  93 135 181 233 285 346 423
#     4  11  25  48  76 106 150 192 239 289 348 433
#     4  12  26  38  63  97 131 179 230 299 351 395
#     4  12  28  49  77 119 148 183 237 286 350 440
#     4  11  25  48  76 108 148 194 230 292 361 409
#
# _framework density 24.558959000000002
#
# number of rings (size 3 to 8) (size 9 to 14) (size 15 to 20)
#    0.000    1.000    2.500    2.625    7.000    3.500 
#    2.250    0.000    0.000    0.000    0.000    0.000 
#    0.000    0.000    0.000    0.000    0.000    0.000 
#
# Total GULP energy -198211.746338 kJ/mol
# GULP energy per Si atom -12388.234146 kJ/mol
# Density = 2.450306 g / cm^3
# Si number density = 24.558959 Si / 1000 Ang^3
#
#
#
# Elastic Constant Matrix: (Units=GPa)
#
#
# Indices 1 2 3 4 5 6 
#
# 1 66.2754 39.4796 32.7661 -2.5189 -3.0451 -6.4779
# 2 39.4796 99.4614 43.0959 0.7825 14.1618 -10.8211
# 3 32.7661 43.0959 150.0771 -2.6529 -1.5763 -7.8800
# 4 -2.5189 0.7825 -2.6529 45.2262 -5.5175 11.2539
# 5 -3.0451 14.1618 -1.5763 -5.5175 29.5285 -0.9405
# 6 -6.4779 -10.8211 -7.8800 11.2539 -0.9405 35.3030
#
#
#
# Elastic Compliance Matrix: (Units=1/GPa)
#
#
# Indices 1 2 3 4 5 6 
#
# 1 0.021683 -0.008590 -0.002141 0.001931 0.006616 0.000429
# 2 -0.008590 0.016415 -0.002804 -0.002943 -0.009346 0.003519
# 3 -0.002141 -0.002804 0.007984 0.000496 0.001656 0.000416
# 4 0.001931 -0.002943 0.000496 0.025098 0.006063 -0.008276
# 5 0.006616 -0.009346 0.001656 0.006063 0.040183 -0.002143
# 6 0.000429 0.003519 0.000416 -0.008276 -0.002143 0.032157
#
#
# Mechanical properties :
#
#
# Convention : Reuss Voigt Hill
#
# Bulk Modulus (GPa) = 52.59612 60.72191 56.65902
# Shear Modulus (GPa) = 28.26016 35.37636 31.81826
#
# Velocity S-wave (km/s) = 3.39589 3.79947 3.60333
# Velocity P-wave (km/s) = 6.06950 6.63525 6.35867
#
# Compressibility (1/GPa) = 0.01901281
#
# Stress axis : x y z
#
# Youngs Moduli (GPa) = 46.11867 60.91916 125.25192
#
# Poissons Ratio (x) = 0.52327 0.26821
# Poissons Ratio (y) = 0.39614 0.35119
# Poissons Ratio (z) = 0.09876 0.17081
#
# Static dielectric constant tensor:
#      x y z
#    x 4.296140 -0.208080 0.022380 
#    y -0.208080 4.821460 -0.180340 
#    z 0.022380 -0.180340 4.770290 
# 
# 
# High freq. dielectric constant tensor:
#      x y z
#    x 1.969140 -0.015090 -0.002720 
#    y -0.015090 1.982310 -0.008150 
#    z -0.002720 -0.008150 1.994750 
# 
# From -- ./inp_files/56516.got.cif
#   From: 2010.06.25/outbox.cif.g09.slc.cpg/sg2_29_cif.got.tgz:56516.got - 2010.06.27 13:26:56.
