data_PCOD8024253
_publ_section_title
;
Structure prediction by ZEFSAII (Michael W. Deem and Ramdas Pophale) SiO2 
 PCOD8024253
Probable space group: P -1
;
_chemical_formula_sum "Si O2"
_cell_formula_units_Z 14
_cell_length_a 16.620494
_cell_length_b 11.348292
_cell_length_c 19.067846
_cell_angle_alpha 31.902778
_cell_angle_beta 29.420646
_cell_angle_gamma 21.751071
_cell_volume 638.734807
_symmetry_space_group_name_H-M "P -1"
_symmetry_group_IT_number 2
_symmetry_cell_setting 'triclinic'
loop_
_space_group_symop_operation_xyz
x,y,z
-x,-y,-z
loop_
_atom_site_type_symbol
_atom_site_label
_atom_site_fract_x
_atom_site_fract_y
_atom_site_fract_z
Si Si1 0.796676 0.782967 0.187743
Si Si2 0.089464 0.173399 0.508624
Si Si3 0.781389 0.256751 0.907888
Si Si4 0.137314 0.617109 0.777374
Si Si5 0.298938 0.344275 0.348905
Si Si6 0.812951 0.619712 0.796768
Si Si7 0.640066 0.884001 0.025703
O O1 0.726933 0.664721 0.243540
O O2 0.014608 0.478280 0.222065
O O3 0.583555 0.067945 0.258643
O O4 0.898796 0.896898 0.009836
O O5 0.217588 0.178915 0.471515
O O6 0.175862 0.183969 0.363913
O O7 0.799104 0.502881 0.575134
O O8 0.175036 0.834865 0.618510
O O9 0.839691 0.322439 0.757754
O O10 0.884747 0.315269 0.860637
O O11 0.500000 0.500000 0.000000
O O12 0.247981 0.453236 0.853451
O O13 0.853685 0.848009 0.873498
O O14 0.545826 0.841728 0.914575
O O15 0.500000 0.000000 0.000000
#
# Coordination Sequence:
#
# PCOD8024253 Si02
#       7
#     2   2   2   2   2   2   2
#     4  11  22  39  64 100 127 168 217 271 327 377
#     4  10  23  43  63  93 126 178 212 261 328 386
#     4   9  19  36  64  89 121 166 215 265 317 370
#     4  11  25  42  71  93 133 171 213 269 331 379
#     4   9  21  40  65  89 126 167 223 261 321 391
#     4  11  23  41  63  94 136 165 220 270 315 391
#     4  11  24  44  65 100 128 167 222 269 320 387
#
# _framework density 21.918330000000001
#
# number of rings (size 3 to 8) (size 9 to 14) (size 15 to 20)
#    0.000    1.714    1.429    3.000    8.000    3.429 
#    2.571    0.000    0.000    0.000    0.000    0.000 
#    0.000    0.000    0.000    0.000    0.000    0.000 
#
# Total GULP energy -173454.709098 kJ/mol
# GULP energy per Si atom -12389.622078 kJ/mol
# Density = 2.186844 g / cm^3
# Si number density = 21.918330 Si / 1000 Ang^3
#
#
#
# Elastic Constant Matrix: (Units=GPa)
#
#
# Indices 1 2 3 4 5 6 
#
# 1 93.5157 19.2424 32.0596 -19.2087 7.2498 -12.7292
# 2 19.2424 64.8573 21.5480 0.0003 9.4066 -0.1674
# 3 32.0596 21.5480 106.5116 -30.5805 -6.8204 8.7578
# 4 -19.2087 0.0003 -30.5805 48.1307 11.4013 -0.1858
# 5 7.2498 9.4066 -6.8204 11.4013 24.1211 0.5329
# 6 -12.7292 -0.1674 8.7578 -0.1858 0.5329 33.1567
#
#
#
# Elastic Compliance Matrix: (Units=1/GPa)
#
#
# Indices 1 2 3 4 5 6 
#
# 1 0.014988 -0.002186 -0.003517 0.005529 -0.007411 0.006822
# 2 -0.002186 0.018406 -0.004066 -0.001841 -0.006810 0.000427
# 3 -0.003517 -0.004066 0.013773 0.006478 0.003586 -0.005030
# 4 0.005529 -0.001841 0.006478 0.030287 -0.013445 0.000788
# 5 -0.007411 -0.006810 0.003586 -0.013445 0.053815 -0.004767
# 6 0.006822 0.000427 -0.005030 0.000788 -0.004767 0.034191
#
#
# Mechanical properties :
#
#
# Convention : Reuss Voigt Hill
#
# Bulk Modulus (GPa) = 36.19220 45.62052 40.90636
# Shear Modulus (GPa) = 25.74572 33.88401 29.81486
#
# Velocity S-wave (km/s) = 3.43099 3.93609 3.69219
# Velocity P-wave (km/s) = 5.67836 6.44330 6.07288
#
# Compressibility (1/GPa) = 0.02763026
#
# Stress axis : x y z
#
# Youngs Moduli (GPa) = 66.72167 54.32869 72.60584
#
# Poissons Ratio (x) = 0.11875 0.25537
# Poissons Ratio (y) = 0.14584 0.29518
# Poissons Ratio (z) = 0.23467 0.22087
#
# Static dielectric constant tensor:
#      x y z
#    x 3.769080 0.095490 0.238920 
#    y 0.095490 4.039500 0.059880 
#    z 0.238920 0.059880 4.482370 
# 
# 
# High freq. dielectric constant tensor:
#      x y z
#    x 1.838600 0.009890 0.007920 
#    y 0.009890 1.858210 0.010480 
#    z 0.007920 0.010480 1.872540 
# 
# From -- ./inp_files/404638.got.cif
#   From: 2010.06.25/outbox.cif.g09.slc.cpg/sg2_203_cif.got.tgz:404638.got - 2010.06.27 13:26:56.
