data_PCOD8024599
_publ_section_title
;
Structure prediction by ZEFSAII (Michael W. Deem and Ramdas Pophale) SiO2 
 PCOD8024599
Probable space group: P -1
;
_chemical_formula_sum "Si O2"
_cell_formula_units_Z 16
_cell_length_a 9.500455
_cell_length_b 8.743225
_cell_length_c 26.317725
_cell_angle_alpha 34.327224
_cell_angle_beta 44.775467
_cell_angle_gamma 68.957125
_cell_volume 712.238975
_symmetry_space_group_name_H-M "P -1"
_symmetry_group_IT_number 2
_symmetry_cell_setting 'triclinic'
loop_
_space_group_symop_operation_xyz
x,y,z
-x,-y,-z
loop_
_atom_site_type_symbol
_atom_site_label
_atom_site_fract_x
_atom_site_fract_y
_atom_site_fract_z
Si Si1 0.983781 0.773122 0.725845
Si Si2 0.560503 0.351597 0.873919
Si Si3 0.109009 0.244529 0.652894
Si Si4 0.856438 0.618075 0.626228
Si Si5 0.422198 0.360665 0.394032
Si Si6 0.601848 0.750151 0.337197
Si Si7 0.219443 0.566962 0.891883
Si Si8 0.876659 0.613686 0.145210
O O1 0.765835 0.641546 0.777984
O O2 0.964975 0.451820 0.839879
O O3 0.943862 0.950563 0.735080
O O4 0.243521 0.009525 0.564850
O O5 0.640241 0.413867 0.777894
O O6 0.317796 0.346853 0.942265
O O7 0.500000 0.000000 0.000000
O O8 0.371332 0.435827 0.507824
O O9 0.147463 0.132376 0.729031
O O10 0.022204 0.480387 0.621340
O O11 0.751092 0.558568 0.612563
O O12 0.000000 0.000000 0.500000
O O13 0.612046 0.650121 0.304366
O O14 0.596841 0.376019 0.301622
O O15 0.564671 0.045477 0.263541
O O16 0.124225 0.521432 0.871995
O O17 0.000000 0.500000 0.000000
O O18 0.000000 0.000000 0.000000
#
# Coordination Sequence:
#
# PCOD8024599 Si02
#       8
#     2   2   2   2   2   2   2   2
#     4  11  25  45  72 106 143 187 237 299 354 425
#     4  12  28  47  71 105 146 187 240 300 365 425
#     4  10  24  43  71 102 140 182 239 294 355 421
#     4  12  25  45  71 103 141 185 234 300 360 430
#     4  11  25  42  72 107 141 187 235 296 356 426
#     4  10  23  43  69 104 137 183 237 293 350 424
#     4  12  26  47  72  97 142 190 237 293 362 430
#     4  12  25  46  70 104 144 187 241 292 355 427
#
# _framework density 22.464369000000001
#
# number of rings (size 3 to 8) (size 9 to 14) (size 15 to 20)
#    0.000    0.750    3.750    2.625    5.250    1.000 
#    0.000    1.250    0.000    0.000    0.000    0.000 
#    0.000    0.000    0.000    0.000    0.000    0.000 
#
# Total GULP energy -198327.381943 kJ/mol
# GULP energy per Si atom -12395.461371 kJ/mol
# Density = 2.241324 g / cm^3
# Si number density = 22.464369 Si / 1000 Ang^3
#
#
#
# Elastic Constant Matrix: (Units=GPa)
#
#
# Indices 1 2 3 4 5 6 
#
# 1 130.4088 51.4521 31.6071 5.5581 16.9768 2.6099
# 2 51.4521 119.2683 43.8598 5.4462 12.8049 3.5527
# 3 31.6071 43.8598 92.5077 1.1831 18.2097 0.4437
# 4 5.5581 5.4462 1.1831 39.9912 -6.1955 0.8197
# 5 16.9768 12.8049 18.2097 -6.1955 33.6432 -5.1016
# 6 2.6099 3.5527 0.4437 0.8197 -5.1016 53.6672
#
#
#
# Elastic Compliance Matrix: (Units=1/GPa)
#
#
# Indices 1 2 3 4 5 6 
#
# 1 0.009771 -0.003386 -0.001040 -0.001384 -0.003416 -0.000546
# 2 -0.003386 0.011514 -0.004143 -0.001074 -0.000722 -0.000616
# 3 -0.001040 -0.004143 0.014278 -0.000604 -0.005788 -0.000334
# 4 -0.001384 -0.001074 -0.000604 0.026337 0.006336 0.000343
# 5 -0.003416 -0.000722 -0.005788 0.006336 0.036574 0.003642
# 6 -0.000546 -0.000616 -0.000334 0.000343 0.003642 0.019044
#
#
# Mechanical properties :
#
#
# Convention : Reuss Voigt Hill
#
# Bulk Modulus (GPa) = 54.27695 66.22476 60.25085
# Shear Modulus (GPa) = 35.51157 39.81138 37.66147
#
# Velocity S-wave (km/s) = 3.98023 4.21432 4.09895
# Velocity P-wave (km/s) = 6.73326 7.29552 7.02002
#
# Compressibility (1/GPa) = 0.01842403
#
# Stress axis : x y z
#
# Youngs Moduli (GPa) = 102.34296 86.85182 70.03628
#
# Poissons Ratio (x) = 0.29412 0.07284
# Poissons Ratio (y) = 0.34658 0.29017
# Poissons Ratio (z) = 0.10644 0.35983
#
# Static dielectric constant tensor:
#      x y z
#    x 4.360970 0.321160 0.295020 
#    y 0.321160 4.203760 -0.068870 
#    z 0.295020 -0.068870 4.032110 
# 
# 
# High freq. dielectric constant tensor:
#      x y z
#    x 1.897810 0.012270 0.017270 
#    y 0.012270 1.890630 -0.004010 
#    z 0.017270 -0.004010 1.879400 
# 
# From -- ./inp_files/606616.got.cif
#   From: 2010.06.25/outbox.cif.g09.slc.cpg/sg2_304_cif.got.tgz:606616.got - 2010.06.27 13:26:56.
