data_PCOD8024571
_publ_section_title
;
Structure prediction by ZEFSAII (Michael W. Deem and Ramdas Pophale) SiO2 
 PCOD8024571
Probable space group: P -1
;
_chemical_formula_sum "Si O2"
_cell_formula_units_Z 16
_cell_length_a 15.323984
_cell_length_b 13.450377
_cell_length_c 12.468170
_cell_angle_alpha 126.731746
_cell_angle_beta 143.959127
_cell_angle_gamma 28.416681
_cell_volume 658.217995
_symmetry_space_group_name_H-M "P -1"
_symmetry_group_IT_number 2
_symmetry_cell_setting 'triclinic'
loop_
_space_group_symop_operation_xyz
x,y,z
-x,-y,-z
loop_
_atom_site_type_symbol
_atom_site_label
_atom_site_fract_x
_atom_site_fract_y
_atom_site_fract_z
Si Si1 0.997713 0.089298 0.906201
Si Si2 0.217389 0.340706 0.382767
Si Si3 0.243451 0.097801 0.003919
Si Si4 0.943869 0.210130 0.344862
Si Si5 0.681348 0.852484 0.427508
Si Si6 0.824939 0.001245 0.343455
Si Si7 0.551417 0.327782 0.765523
Si Si8 0.693489 0.750685 0.987898
O O1 0.715859 0.298524 0.826494
O O2 0.033880 0.193832 0.947424
O O3 0.995956 0.971752 0.749697
O O4 0.244323 0.903648 0.115303
O O5 0.178101 0.337689 0.469113
O O6 0.355406 0.377675 0.533411
O O7 0.927574 0.548273 0.171439
O O8 0.402734 0.106648 0.361494
O O9 0.190909 0.278876 0.031774
O O10 0.176218 0.062249 0.812541
O O11 0.559705 0.863651 0.210203
O O12 0.098641 0.197244 0.413515
O O13 0.618780 0.466767 0.188226
O O14 0.032033 0.174308 0.531792
O O15 0.503478 0.232560 0.210447
O O16 0.000000 0.000000 0.500000
O O17 0.500000 0.000000 0.000000
#
# Coordination Sequence:
#
# PCOD8024571 Si02
#       8
#     2   2   2   2   2   2   2   2
#     4  11  24  46  67 105 149 185 242 301 363 433
#     4  11  24  46  71 109 144 188 250 299 362 432
#     4  11  22  44  72  99 140 194 234 296 362 419
#     4  12  24  46  71 102 143 193 242 297 372 424
#     4  11  25  45  76 103 143 193 241 303 364 435
#     4  11  23  43  66 100 143 184 237 298 350 434
#     4  11  24  42  73 104 145 191 238 310 353 436
#     4  10  23  43  69 100 142 183 238 298 348 428
#
# _framework density 24.308056000000001
#
# number of rings (size 3 to 8) (size 9 to 14) (size 15 to 20)
#    0.000    1.000    5.000    1.875    1.750    3.000 
#    4.500    2.500    0.000    0.000    0.000    0.000 
#    0.000    0.000    0.000    0.000    0.000    0.000 
#
# Total GULP energy -198243.395600 kJ/mol
# GULP energy per Si atom -12390.212225 kJ/mol
# Density = 2.425273 g / cm^3
# Si number density = 24.308056 Si / 1000 Ang^3
#
#
#
# Elastic Constant Matrix: (Units=GPa)
#
#
# Indices 1 2 3 4 5 6 
#
# 1 208.9072 22.3207 81.8157 -21.8260 23.1091 1.5635
# 2 22.3207 54.8457 32.7352 -16.1484 5.3182 -5.4216
# 3 81.8157 32.7352 143.9815 -10.3419 22.7100 9.2347
# 4 -21.8260 -16.1484 -10.3419 32.3258 0.6058 -5.0081
# 5 23.1091 5.3182 22.7100 0.6058 48.7139 -3.9933
# 6 1.5635 -5.4216 9.2347 -5.0081 -3.9933 22.0358
#
#
#
# Elastic Compliance Matrix: (Units=1/GPa)
#
#
# Indices 1 2 3 4 5 6 
#
# 1 0.006684 0.001016 -0.003620 0.004196 -0.001484 0.001978
# 2 0.001016 0.027118 -0.006625 0.014066 0.000509 0.012665
# 3 -0.003620 -0.006625 0.011290 -0.003233 -0.003393 -0.007454
# 4 0.004196 0.014066 -0.003233 0.041923 -0.001410 0.013790
# 5 -0.001484 0.000509 -0.003393 -0.001410 0.023230 0.005542
# 6 0.001978 0.012665 -0.007454 0.013790 0.005542 0.055619
#
#
# Mechanical properties :
#
#
# Convention : Reuss Voigt Hill
#
# Bulk Modulus (GPa) = 37.54853 75.71972 56.63413
# Shear Modulus (GPa) = 25.87989 38.67262 32.27625
#
# Velocity S-wave (km/s) = 3.26646 3.99298 3.64785
# Velocity P-wave (km/s) = 5.45040 7.24405 6.41027
#
# Compressibility (1/GPa) = 0.02663220
#
# Stress axis : x y z
#
# Youngs Moduli (GPa) = 149.61297 36.87626 88.57525
#
# Poissons Ratio (x) = -0.03745 0.32067
# Poissons Ratio (y) = -0.15194 0.58680
# Poissons Ratio (z) = 0.54165 0.24430
#
# Static dielectric constant tensor:
#      x y z
#    x 22.657730 2.707090 8.771350 
#    y 2.707090 4.485120 1.401460 
#    z 8.771350 1.401460 9.016850 
# 
# 
# High freq. dielectric constant tensor:
#      x y z
#    x 1.989190 -0.009750 0.003990 
#    y -0.009750 1.924690 -0.000900 
#    z 0.003990 -0.000900 1.987450 
# 
# From -- ./inp_files/455819.got.cif
#   From: 2010.06.25/outbox.cif.g09.slc.cpg/sg2_228_cif.got.tgz:455819.got - 2010.06.27 13:26:56.
