data_PCOD8024530
_publ_section_title
;
Structure prediction by ZEFSAII (Michael W. Deem and Ramdas Pophale) SiO2 
 PCOD8024530
Probable space group: P -1
;
_chemical_formula_sum "Si O2"
_cell_formula_units_Z 16
_cell_length_a 17.683088
_cell_length_b 8.422999
_cell_length_c 17.353133
_cell_angle_alpha 131.524636
_cell_angle_beta 156.570399
_cell_angle_gamma 49.066497
_cell_volume 759.811669
_symmetry_space_group_name_H-M "P -1"
_symmetry_group_IT_number 2
_symmetry_cell_setting 'triclinic'
loop_
_space_group_symop_operation_xyz
x,y,z
-x,-y,-z
loop_
_atom_site_type_symbol
_atom_site_label
_atom_site_fract_x
_atom_site_fract_y
_atom_site_fract_z
Si Si1 0.972904 0.767790 0.368149
Si Si2 0.599255 0.006827 0.513380
Si Si3 0.700713 0.869025 0.846926
Si Si4 0.536102 0.308236 0.896302
Si Si5 0.193375 0.414536 0.698199
Si Si6 0.749112 0.619841 0.970649
Si Si7 0.052657 0.810063 0.047900
Si Si8 0.618434 0.516460 0.339158
O O1 0.184235 0.639319 0.509182
O O2 0.855897 0.660294 0.288119
O O3 0.844524 0.765618 0.169264
O O4 0.000000 0.000000 0.500000
O O5 0.658849 0.760005 0.465200
O O6 0.500000 0.000000 0.500000
O O7 0.471834 0.157010 0.380598
O O8 0.774235 0.136616 0.722076
O O9 0.672390 0.121868 0.918887
O O10 0.698894 0.747337 0.886102
O O11 0.892342 0.785965 0.952735
O O12 0.346421 0.234548 0.737546
O O13 0.451590 0.498868 0.819173
O O14 0.681251 0.392274 0.118961
O O15 0.000000 0.500000 0.500000
O O16 0.901991 0.407560 0.028882
O O17 0.548158 0.550142 0.784895
O O18 0.000000 0.000000 0.000000
#
# Coordination Sequence:
#
# PCOD8024530 Si02
#       8
#     2   2   2   2   2   2   2   2
#     4  12  29  44  69 100 137 182 228 281 348 398
#     4  11  22  43  72 103 129 176 232 270 333 404
#     4  11  27  41  68 103 140 178 218 278 341 404
#     4  10  23  43  68  96 129 175 229 282 333 392
#     4  11  23  42  69  96 127 173 236 282 326 394
#     4  12  27  46  65 100 147 176 221 280 347 404
#     4  12  23  44  75  99 136 182 224 275 333 410
#     4  11  23  45  68  96 134 181 222 278 333 405
#
# _framework density 21.057849999999998
#
# number of rings (size 3 to 8) (size 9 to 14) (size 15 to 20)
#    0.000    0.750    5.000    1.875    5.250    2.000 
#    0.000    0.000    0.000    0.000    0.000    0.000 
#    0.000    0.000    0.000    0.000    0.000    0.000 
#
# Total GULP energy -198300.757642 kJ/mol
# GULP energy per Si atom -12393.797353 kJ/mol
# Density = 2.100992 g / cm^3
# Si number density = 21.057850 Si / 1000 Ang^3
#
#
#
# Elastic Constant Matrix: (Units=GPa)
#
#
# Indices 1 2 3 4 5 6 
#
# 1 148.4364 39.3208 59.7195 -14.2889 0.0370 4.8229
# 2 39.3208 83.2826 46.9631 -7.3391 -6.3191 -6.8945
# 3 59.7195 46.9631 146.9000 -4.3950 -7.6916 -3.1030
# 4 -14.2889 -7.3391 -4.3950 32.1003 -2.9452 -5.3431
# 5 0.0370 -6.3191 -7.6916 -2.9452 48.1562 -12.4816
# 6 4.8229 -6.8945 -3.1030 -5.3431 -12.4816 38.8525
#
#
#
# Elastic Compliance Matrix: (Units=1/GPa)
#
#
# Indices 1 2 3 4 5 6 
#
# 1 0.008854 -0.002618 -0.002781 0.002564 -0.001101 -0.001787
# 2 -0.002618 0.016204 -0.003792 0.002977 0.002794 0.004205
# 3 -0.002781 -0.003792 0.009204 -0.000630 0.001112 0.000678
# 4 0.002564 0.002977 -0.000630 0.034277 0.003979 0.006152
# 5 -0.001101 0.002794 0.001112 0.003979 0.023871 0.008937
# 6 -0.001787 0.004205 0.000678 0.006152 0.008937 0.030478
#
#
# Mechanical properties :
#
#
# Convention : Reuss Voigt Hill
#
# Bulk Modulus (GPa) = 62.97092 74.51397 68.74245
# Shear Modulus (GPa) = 34.11503 39.32950 36.72227
#
# Velocity S-wave (km/s) = 4.02937 4.32636 4.18050
# Velocity P-wave (km/s) = 7.18446 7.77295 7.48449
#
# Compressibility (1/GPa) = 0.01588034
#
# Stress axis : x y z
#
# Youngs Moduli (GPa) = 112.93729 61.71364 108.64760
#
# Poissons Ratio (x) = 0.16154 0.30220
# Poissons Ratio (y) = 0.29562 0.41199
# Poissons Ratio (z) = 0.31413 0.23402
#
# Static dielectric constant tensor:
#      x y z
#    x -1.232890 2.853660 -13.583100 
#    y 2.853660 2.040450 7.564800 
#    z -13.583100 7.564800 -29.648530 
# 
# 
# High freq. dielectric constant tensor:
#      x y z
#    x 1.847520 -0.012700 -0.004260 
#    y -0.012700 1.808770 -0.010360 
#    z -0.004260 -0.010360 1.840960 
# 
# From -- ./inp_files/528995.got.cif
#   From: 2010.06.25/outbox.cif.g09.slc.cpg/sg2_265_cif.got.tgz:528995.got - 2010.06.27 13:26:56.
