data_PCOD8024189
_publ_section_title
;
Structure prediction by ZEFSAII (Michael W. Deem and Ramdas Pophale) SiO2 
 PCOD8024189
Probable space group: P -1
;
_chemical_formula_sum "Si O2"
_cell_formula_units_Z 16
_cell_length_a 11.027700
_cell_length_b 11.166296
_cell_length_c 20.111849
_cell_angle_alpha 29.180210
_cell_angle_beta 42.760275
_cell_angle_gamma 33.283657
_cell_volume 662.548059
_symmetry_space_group_name_H-M "P -1"
_symmetry_group_IT_number 2
_symmetry_cell_setting 'triclinic'
loop_
_space_group_symop_operation_xyz
x,y,z
-x,-y,-z
loop_
_atom_site_type_symbol
_atom_site_label
_atom_site_fract_x
_atom_site_fract_y
_atom_site_fract_z
Si Si1 0.015975 0.126715 0.566876
Si Si2 0.312127 0.314411 0.955916
Si Si3 0.925464 0.650519 0.846427
Si Si4 0.589167 0.919585 0.619607
Si Si5 0.849398 0.806580 0.129693
Si Si6 0.192836 0.954073 0.716037
Si Si7 0.901811 0.209395 0.838216
Si Si8 0.623194 0.654319 0.386675
O O1 0.271950 0.961963 0.521800
O O2 0.848308 0.441802 0.442641
O O3 0.938678 0.915256 0.685135
O O4 0.016921 0.168903 0.625360
O O5 0.111853 0.422846 0.934269
O O6 0.335556 0.593139 0.815292
O O7 0.293574 0.224008 0.082968
O O8 0.500000 0.000000 0.000000
O O9 0.941800 0.476638 0.856992
O O10 0.359806 0.048976 0.611142
O O11 0.738473 0.562821 0.721942
O O12 0.536194 0.027299 0.665116
O O13 0.675457 0.732777 0.255468
O O14 0.919003 0.874034 0.137610
O O15 0.754512 0.095078 0.978546
O O16 0.041082 0.025743 0.806222
O O17 0.500000 0.500000 0.500000
#
# Coordination Sequence:
#
# PCOD8024189 Si02
#       8
#     2   2   2   2   2   2   2   2
#     4  11  26  47  72 102 150 192 238 311 356 422
#     4  10  23  43  68 107 139 180 240 294 358 429
#     4  10  23  42  72  97 143 190 227 294 368 421
#     4  12  25  45  72 110 139 196 246 298 363 428
#     4  11  23  48  71 102 146 193 238 296 371 422
#     4  11  24  47  75 109 145 187 246 299 371 430
#     4  11  25  46  73 103 149 188 239 312 355 428
#     4  12  28  48  72 108 147 195 252 289 362 438
#
# _framework density 24.149190999999998
#
# number of rings (size 3 to 8) (size 9 to 14) (size 15 to 20)
#    0.000    1.000    3.750    1.125    3.500    7.500 
#    0.000    0.000    0.000    0.000    0.000    0.000 
#    0.000    0.000    0.000    0.000    0.000    0.000 
#
# Total GULP energy -198281.095181 kJ/mol
# GULP energy per Si atom -12392.568449 kJ/mol
# Density = 2.409423 g / cm^3
# Si number density = 24.149191 Si / 1000 Ang^3
#
#
#
# Elastic Constant Matrix: (Units=GPa)
#
#
# Indices 1 2 3 4 5 6 
#
# 1 57.4942 24.5404 7.1504 12.3911 -7.0079 9.0487
# 2 24.5404 128.2167 40.5774 12.4741 0.7290 32.5858
# 3 7.1504 40.5774 120.9911 28.1902 -7.1548 -2.2765
# 4 12.3911 12.4741 28.1902 45.3475 -1.0558 0.8007
# 5 -7.0079 0.7290 -7.1548 -1.0558 39.2441 3.7257
# 6 9.0487 32.5858 -2.2765 0.8007 3.7257 39.1475
#
#
#
# Elastic Compliance Matrix: (Units=1/GPa)
#
#
# Indices 1 2 3 4 5 6 
#
# 1 0.020655 -0.003314 0.001357 -0.005442 0.004061 -0.002212
# 2 -0.003314 0.012150 -0.004169 0.000308 -0.000664 -0.009533
# 3 0.001357 -0.004169 0.011211 -0.006217 0.001840 0.003761
# 4 -0.005442 0.000308 -0.006217 0.027283 -0.001397 0.000215
# 5 0.004061 -0.000664 0.001840 -0.001397 0.026783 -0.002799
# 6 -0.002212 -0.009533 0.003761 0.000215 -0.002799 0.034471
#
#
# Mechanical properties :
#
#
# Convention : Reuss Voigt Hill
#
# Bulk Modulus (GPa) = 31.48291 50.13762 40.81026
# Shear Modulus (GPa) = 32.17663 40.37674 36.27668
#
# Velocity S-wave (km/s) = 3.65418 4.09341 3.88001
# Velocity P-wave (km/s) = 5.55600 6.56872 6.08347
#
# Compressibility (1/GPa) = 0.03176327
#
# Stress axis : x y z
#
# Youngs Moduli (GPa) = 48.41455 82.30723 89.19668
#
# Poissons Ratio (x) = 0.27280 -0.12108
# Poissons Ratio (y) = 0.16047 0.37188
# Poissons Ratio (z) = -0.06572 0.34316
#
# Static dielectric constant tensor:
#      x y z
#    x 4.426280 0.133660 -0.131590 
#    y 0.133660 4.369400 0.292380 
#    z -0.131590 0.292380 4.709640 
# 
# 
# High freq. dielectric constant tensor:
#      x y z
#    x 1.958870 0.018960 -0.008530 
#    y 0.018960 1.950470 0.009960 
#    z -0.008530 0.009960 1.972450 
# 
# From -- ./inp_files/595050.got.cif
#   From: 2010.06.25/outbox.cif.g09.slc.cpg/sg2_298_cif.got.tgz:595050.got - 2010.06.27 13:26:56.
