data_PCOD8024551
_publ_section_title
;
Structure prediction by ZEFSAII (Michael W. Deem and Ramdas Pophale) SiO2 
 PCOD8024551
Probable space group: P -1
;
_chemical_formula_sum "Si O2"
_cell_formula_units_Z 10
_cell_length_a 4.983036
_cell_length_b 16.620621
_cell_length_c 5.040784
_cell_angle_alpha 79.026533
_cell_angle_beta 93.917721
_cell_angle_gamma 78.110774
_cell_volume 398.536936
_symmetry_space_group_name_H-M "P -1"
_symmetry_group_IT_number 2
_symmetry_cell_setting 'triclinic'
loop_
_space_group_symop_operation_xyz
x,y,z
-x,-y,-z
loop_
_atom_site_type_symbol
_atom_site_label
_atom_site_fract_x
_atom_site_fract_y
_atom_site_fract_z
Si Si1 0.498296 0.057958 0.713588
Si Si2 0.708808 0.603559 0.314472
Si Si3 0.084525 0.829095 0.358687
Si Si4 0.740092 0.279868 0.056083
Si Si5 0.243346 0.578932 0.680573
O O1 0.771603 0.094056 0.734849
O O2 0.235733 0.135207 0.625812
O O3 0.500000 0.000000 0.500000
O O4 0.500000 0.000000 0.000000
O O5 0.523278 0.596907 0.565539
O O6 0.726033 0.519503 0.187888
O O7 0.577947 0.686930 0.082698
O O8 0.008731 0.610618 0.424440
O O9 0.242970 0.778995 0.649868
O O10 0.087176 0.769942 0.141021
O O11 0.840352 0.365165 0.093248
#
# Coordination Sequence:
#
# PCOD8024551 Si02
#       5
#     2   2   2   2   2
#     4  12  26  52  76 104 141 180 229 280 352 444
#     4  10  23  43  68  98 141 199 245 286 344 407
#     4  12  28  43  77 110 139 184 227 292 357 419
#     4  12  25  47  68 110 151 180 241 296 356 399
#     4  10  23  43  68  98 141 199 245 286 344 407
#
# _framework density 25.091778999999999
#
# number of rings (size 3 to 8) (size 9 to 14) (size 15 to 20)
#    0.000    0.800    2.000    4.200    2.800    4.800 
#    0.000    6.000    0.000    0.000    0.000    0.000 
#    0.000    0.000    0.000    0.000    0.000    0.000 
#
# Total GULP energy -124036.096734 kJ/mol
# GULP energy per Si atom -12403.609673 kJ/mol
# Density = 2.503467 g / cm^3
# Si number density = 25.091779 Si / 1000 Ang^3
#
#
#
# Elastic Constant Matrix: (Units=GPa)
#
#
# Indices 1 2 3 4 5 6 
#
# 1 60.1522 22.4469 -6.7883 8.4098 -3.1997 -4.1688
# 2 22.4469 174.8247 56.4319 40.8274 10.6877 -4.6273
# 3 -6.7883 56.4319 138.3675 8.1206 8.1258 -5.9340
# 4 8.4098 40.8274 8.1206 56.0799 -3.3486 6.3718
# 5 -3.1997 10.6877 8.1258 -3.3486 15.6214 -4.1626
# 6 -4.1688 -4.6273 -5.9340 6.3718 -4.1626 30.3772
#
#
#
# Elastic Compliance Matrix: (Units=1/GPa)
#
#
# Indices 1 2 3 4 5 6 
#
# 1 0.018677 -0.003103 0.002053 -0.000896 0.005607 0.003448
# 2 -0.003103 0.008910 -0.003032 -0.006040 -0.006249 0.000750
# 3 0.002053 -0.003032 0.008687 0.000408 -0.001614 0.001210
# 4 -0.000896 -0.006040 0.000408 0.023298 0.007444 -0.004830
# 5 0.005607 -0.006249 -0.001614 0.007444 0.074029 0.008085
# 6 0.003448 0.000750 0.001210 -0.004830 0.008085 0.035864
#
#
# Mechanical properties :
#
#
# Convention : Reuss Voigt Hill
#
# Bulk Modulus (GPa) = 35.57605 57.50281 46.53943
# Shear Modulus (GPa) = 26.73816 40.49930 33.61873
#
# Velocity S-wave (km/s) = 3.26792 4.02188 3.66434
# Velocity P-wave (km/s) = 5.33368 6.67339 6.04079
#
# Compressibility (1/GPa) = 0.02810880
#
# Stress axis : x y z
#
# Youngs Moduli (GPa) = 53.54299 112.23632 115.11060
#
# Poissons Ratio (x) = 0.34827 -0.23632
# Poissons Ratio (y) = 0.16614 0.34906
# Poissons Ratio (z) = -0.10992 0.34034
#
# Static dielectric constant tensor:
#      x y z
#    x 4.406560 -0.107170 0.230380 
#    y -0.107170 4.935880 0.050170 
#    z 0.230380 0.050170 4.444870 
# 
# 
# High freq. dielectric constant tensor:
#      x y z
#    x 1.994580 -0.005960 0.016420 
#    y -0.005960 2.020070 0.002900 
#    z 0.016420 0.002900 2.007000 
# 
# From -- ./inp_files/7307.got.cif
#   From: 2010.06.25/outbox.cif.g09.slc.cpg/sg2_4_cif.got.tgz:7307.got - 2010.06.27 13:26:56.
