data_PCOD8024692
_publ_section_title
;
Structure prediction by ZEFSAII (Michael W. Deem and Ramdas Pophale) SiO2 
 PCOD8024692
Probable space group: P -1
;
_chemical_formula_sum "Si O2"
_cell_formula_units_Z 16
_cell_length_a 7.887324
_cell_length_b 12.189805
_cell_length_c 12.815756
_cell_angle_alpha 109.921758
_cell_angle_beta 140.318099
_cell_angle_gamma 85.312195
_cell_volume 705.459787
_symmetry_space_group_name_H-M "P -1"
_symmetry_group_IT_number 2
_symmetry_cell_setting 'triclinic'
loop_
_space_group_symop_operation_xyz
x,y,z
-x,-y,-z
loop_
_atom_site_type_symbol
_atom_site_label
_atom_site_fract_x
_atom_site_fract_y
_atom_site_fract_z
Si Si1 0.110261 0.251891 0.973788
Si Si2 0.890541 0.219159 0.090925
Si Si3 0.185397 0.038566 0.498894
Si Si4 0.573812 0.623482 0.511659
Si Si5 0.794341 0.995041 0.102764
Si Si6 0.394558 0.270143 0.793041
Si Si7 0.672451 0.482011 0.851243
Si Si8 0.192560 0.785506 0.390487
O O1 0.978801 0.252738 0.024904
O O2 0.353301 0.380588 0.112506
O O3 0.870258 0.239164 0.769711
O O4 0.243783 0.142796 0.993947
O O5 0.099112 0.310949 0.298547
O O6 0.886837 0.082215 0.074223
O O7 0.583238 0.236493 0.962788
O O8 0.385848 0.174521 0.661685
O O9 0.011453 0.042501 0.314323
O O10 0.000000 0.000000 0.500000
O O11 0.338505 0.932567 0.522424
O O12 0.500000 0.500000 0.500000
O O13 0.510933 0.594793 0.352586
O O14 0.401439 0.712274 0.503463
O O15 0.500000 0.000000 0.000000
O O16 0.545255 0.408628 0.871721
O O17 0.093418 0.259960 0.693824
O O18 0.000000 0.500000 0.000000
#
# Coordination Sequence:
#
# PCOD8024692 Si02
#       8
#     2   2   2   2   2   2   2   2
#     4  11  23  42  66  95 133 182 219 263 337 403
#     4  12  24  42  70  99 138 175 217 278 345 384
#     4   9  20  41  66  96 131 171 220 269 330 393
#     4  12  24  44  64  98 135 173 220 280 333 390
#     4  11  24  43  67 104 139 168 224 289 330 386
#     4  11  23  44  72  99 130 185 223 273 333 400
#     4  12  22  46  67  94 136 178 226 269 328 417
#     4  10  23  43  70  97 131 176 231 276 321 405
#
# _framework density 22.680243999999998
#
# number of rings (size 3 to 8) (size 9 to 14) (size 15 to 20)
#    0.000    1.000    3.750    3.375    0.000    4.500 
#    2.250    5.000    0.000    0.000    0.000    0.000 
#    0.000    0.000    0.000    0.000    0.000    0.000 
#
# Total GULP energy -198371.824399 kJ/mol
# GULP energy per Si atom -12398.239025 kJ/mol
# Density = 2.262862 g / cm^3
# Si number density = 22.680244 Si / 1000 Ang^3
#
#
#
# Elastic Constant Matrix: (Units=GPa)
#
#
# Indices 1 2 3 4 5 6 
#
# 1 37.9746 21.3796 12.6076 1.2420 -11.4217 12.5449
# 2 21.3796 171.2173 36.9383 6.0375 0.9197 12.7018
# 3 12.6076 36.9383 110.9884 4.2113 -4.6446 -11.3734
# 4 1.2420 6.0375 4.2113 40.6078 -0.8817 1.0123
# 5 -11.4217 0.9197 -4.6446 -0.8817 31.9669 -1.2943
# 6 12.5449 12.7018 -11.3734 1.0123 -1.2943 38.9097
#
#
#
# Elastic Compliance Matrix: (Units=1/GPa)
#
#
# Indices 1 2 3 4 5 6 
#
# 1 0.036799 -0.002970 -0.003883 0.000274 0.012206 -0.011631
# 2 -0.002970 0.006863 -0.002192 -0.000690 -0.001675 -0.001961
# 3 -0.003883 -0.002192 0.010756 -0.000790 0.000425 0.005146
# 4 0.000274 -0.000690 -0.000790 0.024834 0.000659 -0.000718
# 5 0.012206 -0.001675 0.000425 0.000659 0.035687 -0.002094
# 6 -0.011631 -0.001961 0.005146 -0.000718 -0.002094 0.031544
#
#
# Mechanical properties :
#
#
# Convention : Reuss Voigt Hill
#
# Bulk Modulus (GPa) = 27.52658 51.33681 39.43170
# Shear Modulus (GPa) = 28.29950 38.91385 33.60667
#
# Velocity S-wave (km/s) = 3.53620 4.14667 3.85354
# Velocity P-wave (km/s) = 5.36992 6.75356 6.10109
#
# Compressibility (1/GPa) = 0.03632852
#
# Stress axis : x y z
#
# Youngs Moduli (GPa) = 27.17453 145.70880 92.97501
#
# Poissons Ratio (x) = 0.43270 0.36105
# Poissons Ratio (y) = 0.08070 0.20377
# Poissons Ratio (z) = 0.10553 0.31935
#
# Static dielectric constant tensor:
#      x y z
#    x 3.892710 -0.021460 -0.228080 
#    y -0.021460 4.910250 0.231940 
#    z -0.228080 0.231940 4.350660 
# 
# 
# High freq. dielectric constant tensor:
#      x y z
#    x 1.878540 0.010980 -0.009440 
#    y 0.010980 1.920440 0.005790 
#    z -0.009440 0.005790 1.892640 
# 
# From -- ./inp_files/495688.got.cif
#   From: 2010.06.25/outbox.cif.g09.slc.cpg/sg2_248_cif.got.tgz:495688.got - 2010.06.27 13:26:56.
