data_PCOD8024417
_publ_section_title
;
Structure prediction by ZEFSAII (Michael W. Deem and Ramdas Pophale) SiO2 
 PCOD8024417
Probable space group: P -1
;
_chemical_formula_sum "Si O2"
_cell_formula_units_Z 12
_cell_length_a 5.035046
_cell_length_b 14.181588
_cell_length_c 8.142941
_cell_angle_alpha 81.829241
_cell_angle_beta 64.396666
_cell_angle_gamma 111.098227
_cell_volume 457.559462
_symmetry_space_group_name_H-M "P -1"
_symmetry_group_IT_number 2
_symmetry_cell_setting 'triclinic'
loop_
_space_group_symop_operation_xyz
x,y,z
-x,-y,-z
loop_
_atom_site_type_symbol
_atom_site_label
_atom_site_fract_x
_atom_site_fract_y
_atom_site_fract_z
Si Si1 0.203519 0.189173 0.467040
Si Si2 0.577170 0.402645 0.492121
Si Si3 0.559212 0.734990 0.123687
Si Si4 0.263290 0.073812 0.781666
Si Si5 0.202869 0.526964 0.102548
Si Si6 0.769702 0.130638 0.281839
O O1 0.357937 0.316035 0.433059
O O2 0.091110 0.117701 0.682324
O O3 0.897582 0.157794 0.430234
O O4 0.485907 0.165137 0.313920
O O5 0.500000 0.500000 0.500000
O O6 0.470686 0.349662 0.710121
O O7 0.970847 0.451856 0.331562
O O8 0.456750 0.821419 0.215526
O O9 0.321992 0.655785 0.065772
O O10 0.934648 0.803214 0.940611
O O11 0.396005 0.999504 0.672461
O O12 0.000000 0.000000 0.000000
O O13 0.500000 0.500000 0.000000
O O14 0.000000 0.500000 0.000000
#
# Coordination Sequence:
#
# PCOD8024417 Si02
#       6
#     2   2   2   2   2   2
#     4  11  24  44  70 100 136 179 227 280 339 407
#     4  11  25  45  70 102 140 184 231 285 344 409
#     4  10  23  43  67 100 137 179 227 281 341 408
#     4   9  21  43  69 100 136 176 224 280 342 405
#     4  12  25  44  67  96 133 178 225 277 334 400
#     4  11  23  45  69 100 135 178 226 281 341 407
#
# _framework density 26.226099000000001
#
# number of rings (size 3 to 8) (size 9 to 14) (size 15 to 20)
#    0.000    1.333    0.000    4.500    0.000    5.333 
#    0.000   23.333    0.000    0.000    0.000    0.000 
#    0.000    0.000    0.000    0.000    0.000    0.000 
#
# Total GULP energy -148720.904365 kJ/mol
# GULP energy per Si atom -12393.408697 kJ/mol
# Density = 2.616641 g / cm^3
# Si number density = 26.226099 Si / 1000 Ang^3
#
#
#
# Elastic Constant Matrix: (Units=GPa)
#
#
# Indices 1 2 3 4 5 6 
#
# 1 73.4859 41.9759 17.9580 3.4226 -3.3777 13.2155
# 2 41.9759 267.3528 52.3510 12.3017 7.0745 29.7282
# 3 17.9580 52.3510 141.1410 -3.1288 -6.8760 0.2137
# 4 3.4226 12.3017 -3.1288 47.0483 6.4787 4.2418
# 5 -3.3777 7.0745 -6.8760 6.4787 22.8368 -3.0636
# 6 13.2155 29.7282 0.2137 4.2418 -3.0636 39.1297
#
#
#
# Elastic Compliance Matrix: (Units=1/GPa)
#
#
# Indices 1 2 3 4 5 6 
#
# 1 0.015760 -0.001856 -0.001217 -0.000723 0.002255 -0.003651
# 2 -0.001856 0.004804 -0.001677 -0.000602 -0.002519 -0.003146
# 3 -0.001217 -0.001677 0.008009 0.000504 0.002851 0.001810
# 4 -0.000723 -0.000602 0.000504 0.022594 -0.006481 -0.002258
# 5 0.002255 -0.002519 0.002851 -0.006481 0.048355 0.005625
# 6 -0.003651 -0.003146 0.001810 -0.002258 0.005625 0.029854
#
#
# Mechanical properties :
#
#
# Convention : Reuss Voigt Hill
#
# Bulk Modulus (GPa) = 52.43311 78.50549 65.46930
# Shear Modulus (GPa) = 34.42672 46.44927 40.43800
#
# Velocity S-wave (km/s) = 3.62704 4.21302 3.93096
# Velocity P-wave (km/s) = 6.12998 7.32565 6.75432
#
# Compressibility (1/GPa) = 0.01907192
#
# Stress axis : x y z
#
# Youngs Moduli (GPa) = 63.45246 208.14141 124.85364
#
# Poissons Ratio (x) = 0.38641 0.15198
# Poissons Ratio (y) = 0.11780 0.20939
# Poissons Ratio (z) = 0.07724 0.34908
#
# Static dielectric constant tensor:
#      x y z
#    x 4.215990 0.584650 -0.126440 
#    y 0.584650 6.094500 -0.058720 
#    z -0.126440 -0.058720 5.985480 
# 
# 
# High freq. dielectric constant tensor:
#      x y z
#    x 2.008920 0.019940 -0.004710 
#    y 0.019940 2.088910 0.003180 
#    z -0.004710 0.003180 2.089000 
# 
# From -- ./inp_files/131404.got.cif
#   From: 2010.06.25/outbox.cif.g09.slc.cpg/sg2_66_cif.got.tgz:131404.got - 2010.06.27 13:26:56.
