data_PCOD8024996
_publ_section_title
;
Structure prediction by ZEFSAII (Michael W. Deem and Ramdas Pophale) SiO2 
 PCOD8024996
Probable space group: P -1
;
_chemical_formula_sum "Si O2"
_cell_formula_units_Z 16
_cell_length_a 13.402445
_cell_length_b 14.679320
_cell_length_c 5.177013
_cell_angle_alpha 114.192266
_cell_angle_beta 113.646933
_cell_angle_gamma 46.904049
_cell_volume 667.105887
_symmetry_space_group_name_H-M "P -1"
_symmetry_group_IT_number 2
_symmetry_cell_setting 'triclinic'
loop_
_space_group_symop_operation_xyz
x,y,z
-x,-y,-z
loop_
_atom_site_type_symbol
_atom_site_label
_atom_site_fract_x
_atom_site_fract_y
_atom_site_fract_z
Si Si1 0.802792 0.510325 0.124050
Si Si2 0.834753 0.212613 0.552925
Si Si3 0.407119 0.541893 0.201071
Si Si4 0.379406 0.205685 0.648724
Si Si5 0.221932 0.102242 0.504270
Si Si6 0.909970 0.986067 0.085348
Si Si7 0.930025 0.352720 0.584495
Si Si8 0.536290 0.093181 0.172291
O O1 0.758857 0.649269 0.287840
O O2 0.896268 0.419327 0.351662
O O3 0.662724 0.526576 0.963345
O O4 0.894672 0.450092 0.890156
O O5 0.711117 0.303985 0.733978
O O6 0.839609 0.302155 0.458949
O O7 0.985698 0.128242 0.744412
O O8 0.807584 0.121639 0.283674
O O9 0.500000 0.500000 0.500000
O O10 0.500000 0.500000 0.000000
O O11 0.333118 0.115673 0.509580
O O12 0.447152 0.192502 0.428561
O O13 0.492570 0.170146 0.947443
O O14 0.092769 0.235961 0.638830
O O15 0.298541 0.996095 0.691227
O O16 0.180127 0.047008 0.180383
O O17 0.000000 0.000000 0.000000
O O18 0.500000 0.000000 0.000000
#
# Coordination Sequence:
#
# PCOD8024996 Si02
#       8
#     2   2   2   2   2   2   2   2
#     4  11  25  45  66  96 139 174 226 279 334 386
#     4  10  24  43  66  98 142 171 222 289 344 396
#     4  11  24  42  67  93 128 178 225 271 334 399
#     4  11  25  46  67  99 141 180 224 284 322 406
#     4  11  23  42  73  99 136 180 227 269 357 401
#     4  11  23  43  67 102 136 175 223 286 346 402
#     4  11  23  42  71  96 132 178 216 282 332 403
#     4  10  23  44  67  94 137 177 225 277 332 392
#
# _framework density 23.984197000000002
#
# number of rings (size 3 to 8) (size 9 to 14) (size 15 to 20)
#    0.000    1.250    1.250    5.250    1.750    8.000 
#    2.250    0.000    0.000    0.000    0.000    0.000 
#    0.000    0.000    0.000    0.000    0.000    0.000 
#
# Total GULP energy -198429.360415 kJ/mol
# GULP energy per Si atom -12401.835026 kJ/mol
# Density = 2.392961 g / cm^3
# Si number density = 23.984197 Si / 1000 Ang^3
#
#
#
# Elastic Constant Matrix: (Units=GPa)
#
#
# Indices 1 2 3 4 5 6 
#
# 1 50.0971 12.6566 31.5628 -0.8102 1.0715 -9.7761
# 2 12.6566 130.9713 58.5786 14.0480 5.9349 -10.1520
# 3 31.5628 58.5786 158.8274 3.5231 -5.2763 -4.7576
# 4 -0.8102 14.0480 3.5231 40.4575 -1.2484 -5.3247
# 5 1.0715 5.9349 -5.2763 -1.2484 34.2083 2.6489
# 6 -9.7761 -10.1520 -4.7576 -5.3247 2.6489 38.4876
#
#
#
# Elastic Compliance Matrix: (Units=1/GPa)
#
#
# Indices 1 2 3 4 5 6 
#
# 1 0.024158 0.000190 -0.004791 0.001558 -0.001932 0.005943
# 2 0.000190 0.009813 -0.003618 -0.002908 -0.002524 0.001961
# 3 -0.004791 -0.003618 0.008613 0.000319 0.002212 -0.001215
# 4 0.001558 -0.002908 0.000319 0.026190 0.001212 0.003208
# 5 -0.001932 -0.002524 0.002212 0.001212 0.030334 -0.002803
# 6 0.005943 0.001961 -0.001215 0.003208 -0.002803 0.028496
#
#
# Mechanical properties :
#
#
# Convention : Reuss Voigt Hill
#
# Bulk Modulus (GPa) = 38.24807 60.61021 49.42914
# Shear Modulus (GPa) = 32.73158 38.43720 35.58439
#
# Velocity S-wave (km/s) = 3.69821 4.00760 3.85601
# Velocity P-wave (km/s) = 5.84957 6.83668 6.36230
#
# Compressibility (1/GPa) = 0.02614511
#
# Stress axis : x y z
#
# Youngs Moduli (GPa) = 41.39373 101.90236 116.10908
#
# Poissons Ratio (x) = -0.01932 0.55633
# Poissons Ratio (y) = -0.00785 0.42004
# Poissons Ratio (z) = 0.19834 0.36864
#
# Static dielectric constant tensor:
#      x y z
#    x 4.131010 -0.051290 0.001760 
#    y -0.051290 5.189730 0.332500 
#    z 0.001760 0.332500 5.250210 
# 
# 
# High freq. dielectric constant tensor:
#      x y z
#    x 1.930840 -0.008330 -0.007880 
#    y -0.008330 1.964310 0.003670 
#    z -0.007880 0.003670 1.964350 
# 
# From -- ./inp_files/99952.got.cif
#   From: 2010.06.25/outbox.cif.g09.slc.cpg/sg2_50_cif.got.tgz:99952.got - 2010.06.27 13:26:56.
