data_PCOD8024416
_publ_section_title
;
Structure prediction by ZEFSAII (Michael W. Deem and Ramdas Pophale) SiO2 
 PCOD8024416
Probable space group: P -1
;
_chemical_formula_sum "Si O2"
_cell_formula_units_Z 14
_cell_length_a 5.177375
_cell_length_b 17.204424
_cell_length_c 20.414051
_cell_angle_alpha 20.383731
_cell_angle_beta 89.278021
_cell_angle_gamma 88.290077
_cell_volume 632.444906
_symmetry_space_group_name_H-M "P -1"
_symmetry_group_IT_number 2
_symmetry_cell_setting 'triclinic'
loop_
_space_group_symop_operation_xyz
x,y,z
-x,-y,-z
loop_
_atom_site_type_symbol
_atom_site_label
_atom_site_fract_x
_atom_site_fract_y
_atom_site_fract_z
Si Si1 0.853542 0.320008 0.600387
Si Si2 0.248925 0.497306 0.679979
Si Si3 0.979733 0.899684 0.428993
Si Si4 0.248608 0.008394 0.036699
Si Si5 0.530327 0.394650 0.879322
Si Si6 0.473135 0.868338 0.537695
Si Si7 0.964102 0.879514 0.877849
O O1 0.693892 0.442227 0.444454
O O2 0.683702 0.197951 0.751182
O O3 0.000000 0.500000 0.500000
O O4 0.020986 0.112061 0.731759
O O5 0.500625 0.510620 0.715005
O O6 0.021747 0.657015 0.585418
O O7 0.185096 0.238679 0.893269
O O8 0.700576 0.926212 0.441513
O O9 0.197672 0.939868 0.450461
O O10 0.998899 0.089349 0.224166
O O11 0.500000 0.000000 0.000000
O O12 0.000000 0.000000 0.000000
O O13 0.488077 0.603001 0.764714
O O14 0.822713 0.301624 0.955059
O O15 0.324308 0.206200 0.042512
O O16 0.500000 0.000000 0.500000
#
# Coordination Sequence:
#
# PCOD8024416 Si02
#       7
#     2   2   2   2   2   2   2
#     4  11  24  46  67 100 135 180 232 286 341 389
#     4  10  23  43  69  94 133 180 229 276 335 398
#     4  10  23  43  67 100 136 174 228 269 334 405
#     4  12  27  44  65  95 137 173 230 288 344 391
#     4  11  23  43  70  96 132 174 226 268 344 399
#     4  11  23  43  70 101 136 176 218 273 342 407
#     4  11  24  44  68  99 131 180 226 283 322 406
#
# _framework density 22.136315
#
# number of rings (size 3 to 8) (size 9 to 14) (size 15 to 20)
#    0.000    1.143    2.857    3.000    2.000    1.714 
#    5.143    4.286    0.000    0.000    0.000    0.000 
#    0.000    0.000    0.000    0.000    0.000    0.000 
#
# Total GULP energy -173447.384395 kJ/mol
# GULP energy per Si atom -12389.098885 kJ/mol
# Density = 2.208593 g / cm^3
# Si number density = 22.136315 Si / 1000 Ang^3
#
#
#
# Elastic Constant Matrix: (Units=GPa)
#
#
# Indices 1 2 3 4 5 6 
#
# 1 88.8761 19.9914 18.0239 1.0707 -8.8644 2.6408
# 2 19.9914 133.4168 57.8669 -16.5518 -11.7856 0.7620
# 3 18.0239 57.8669 125.4372 7.1047 -7.9220 4.7996
# 4 1.0707 -16.5518 7.1047 37.1549 -6.1203 -7.3383
# 5 -8.8644 -11.7856 -7.9220 -6.1203 33.3139 4.2841
# 6 2.6408 0.7620 4.7996 -7.3383 4.2841 23.4057
#
#
#
# Elastic Compliance Matrix: (Units=1/GPa)
#
#
# Indices 1 2 3 4 5 6 
#
# 1 0.012041 -0.001263 -0.000871 -0.000667 0.002663 -0.001835
# 2 -0.001263 0.011097 -0.005218 0.007007 0.003322 0.002440
# 3 -0.000871 -0.005218 0.010933 -0.005089 0.000047 -0.003578
# 4 -0.000667 0.007007 -0.005089 0.034087 0.006006 0.010478
# 5 0.002663 0.003322 0.000047 0.006006 0.033619 -0.004689
# 6 -0.001835 0.002440 -0.003578 0.010478 -0.004689 0.047729
#
#
# Mechanical properties :
#
#
# Convention : Reuss Voigt Hill
#
# Bulk Modulus (GPa) = 51.63974 59.94381 55.79177
# Shear Modulus (GPa) = 29.29718 35.56476 32.43097
#
# Velocity S-wave (km/s) = 3.64193 4.01262 3.83176
# Velocity P-wave (km/s) = 6.40808 6.97183 6.69589
#
# Compressibility (1/GPa) = 0.01936493
#
# Stress axis : x y z
#
# Youngs Moduli (GPa) = 83.05203 90.11776 91.47002
#
# Poissons Ratio (x) = 0.11385 0.07968
# Poissons Ratio (y) = 0.10493 0.47729
# Poissons Ratio (z) = 0.07234 0.47023
#
# Static dielectric constant tensor:
#      x y z
#    x -5.580240 -14.730030 -0.369880 
#    y -14.730030 -19.698980 -0.650410 
#    z -0.369880 -0.650410 4.525280 
# 
# 
# High freq. dielectric constant tensor:
#      x y z
#    x 1.854330 0.005820 0.001730 
#    y 0.005820 1.878060 0.005420 
#    z 0.001730 0.005420 1.886600 
# 
# From -- ./inp_files/583734.got.cif
#   From: 2010.06.25/outbox.cif.g09.slc.cpg/sg2_292_cif.got.tgz:583734.got - 2010.06.27 13:26:56.
