data_PCOD8024897
_publ_section_title
;
Structure prediction by ZEFSAII (Michael W. Deem and Ramdas Pophale) SiO2 
 PCOD8024897
Probable space group: P -1
;
_chemical_formula_sum "Si O2"
_cell_formula_units_Z 14
_cell_length_a 18.352266
_cell_length_b 6.593631
_cell_length_c 8.575768
_cell_angle_alpha 109.084966
_cell_angle_beta 39.403927
_cell_angle_gamma 111.685658
_cell_volume 610.603034
_symmetry_space_group_name_H-M "P -1"
_symmetry_group_IT_number 2
_symmetry_cell_setting 'triclinic'
loop_
_space_group_symop_operation_xyz
x,y,z
-x,-y,-z
loop_
_atom_site_type_symbol
_atom_site_label
_atom_site_fract_x
_atom_site_fract_y
_atom_site_fract_z
Si Si1 0.807246 0.558432 0.927123
Si Si2 0.498482 0.115112 0.771558
Si Si3 0.915820 0.371901 0.979116
Si Si4 0.738115 0.103925 0.772623
Si Si5 0.121173 0.245476 0.462736
Si Si6 0.742034 0.323422 0.508808
Si Si7 0.580782 0.725236 0.378980
O O1 0.890049 0.541390 0.933063
O O2 0.737989 0.316612 0.932852
O O3 0.884204 0.674138 0.685874
O O4 0.715137 0.704992 0.167716
O O5 0.601570 0.297828 0.720775
O O6 0.442667 0.215876 0.743949
O O7 0.558814 0.912480 0.578403
O O8 0.393281 0.039995 0.048371
O O9 0.987282 0.202406 0.737661
O O10 0.796806 0.258051 0.237011
O O11 0.000000 0.500000 0.000000
O O12 0.774855 0.166893 0.550528
O O13 0.832715 0.978868 0.659272
O O14 0.207471 0.424983 0.468568
O O15 0.500000 0.500000 0.500000
#
# Coordination Sequence:
#
# PCOD8024897 Si02
#       7
#     2   2   2   2   2   2   2
#     4  11  22  42  67  93 128 164 214 264 317 377
#     4  11  23  39  63  99 131 164 212 253 316 386
#     4  10  23  44  66  92 124 167 219 264 318 370
#     4  11  23  41  63  98 130 168 211 251 323 384
#     4  10  23  44  65  92 128 172 213 264 314 368
#     4  10  24  41  63  94 133 167 212 263 311 373
#     4  11  22  38  64  94 129 166 206 259 314 375
#
# _framework density 22.928156000000001
#
# number of rings (size 3 to 8) (size 9 to 14) (size 15 to 20)
#    0.000    1.429    2.857    1.714    2.000    5.143 
#    0.000    2.857    0.000    0.000    0.000    0.000 
#    0.000    0.000    0.000    0.000    0.000    0.000 
#
# Total GULP energy -173635.751326 kJ/mol
# GULP energy per Si atom -12402.553666 kJ/mol
# Density = 2.287597 g / cm^3
# Si number density = 22.928156 Si / 1000 Ang^3
#
#
#
# Elastic Constant Matrix: (Units=GPa)
#
#
# Indices 1 2 3 4 5 6 
#
# 1 107.5529 15.5813 28.4579 8.3403 -3.6609 -23.7572
# 2 15.5813 71.0192 27.8373 7.6844 -1.9591 -22.3476
# 3 28.4579 27.8373 124.7668 3.4941 0.9001 -27.2782
# 4 8.3403 7.6844 3.4941 29.3137 -10.0895 -9.8758
# 5 -3.6609 -1.9591 0.9001 -10.0895 33.5694 -2.5024
# 6 -23.7572 -22.3476 -27.2782 -9.8758 -2.5024 32.6801
#
#
#
# Elastic Compliance Matrix: (Units=1/GPa)
#
#
# Indices 1 2 3 4 5 6 
#
# 1 0.011286 0.000417 -0.000966 0.000094 0.001895 0.007857
# 2 0.000417 0.018355 -0.001672 -0.000155 0.001977 0.011563
# 3 -0.000966 -0.001672 0.010149 0.002240 0.000747 0.007360
# 4 0.000094 -0.000155 0.002240 0.044355 0.014491 0.016346
# 5 0.001895 0.001977 0.000747 0.014491 0.035224 0.010429
# 6 0.007857 0.011563 0.007360 0.016346 0.010429 0.056101
#
#
# Mechanical properties :
#
#
# Convention : Reuss Voigt Hill
#
# Bulk Modulus (GPa) = 28.29034 49.67686 38.98360
# Shear Modulus (GPa) = 26.08336 34.54346 30.31341
#
# Velocity S-wave (km/s) = 3.37651 3.88570 3.64002
# Velocity P-wave (km/s) = 5.25039 6.46876 5.89116
#
# Compressibility (1/GPa) = 0.03534776
#
# Stress axis : x y z
#
# Youngs Moduli (GPa) = 88.60905 54.48246 98.52803
#
# Poissons Ratio (x) = -0.02271 0.09515
# Poissons Ratio (y) = -0.03694 0.16474
# Poissons Ratio (z) = 0.08557 0.09110
#
# Static dielectric constant tensor:
#      x y z
#    x 4.100430 -0.365250 -0.155990 
#    y -0.365250 4.983040 0.632780 
#    z -0.155990 0.632780 5.292350 
# 
# 
# High freq. dielectric constant tensor:
#      x y z
#    x 1.905820 -0.012380 -0.002940 
#    y -0.012380 1.893780 -0.007830 
#    z -0.002940 -0.007830 1.919080 
# 
# From -- ./inp_files/37030.got.cif
#   From: 2010.06.25/outbox.cif.g09.slc.cpg/sg2_19_cif.got.tgz:37030.got - 2010.06.27 13:26:56.
