data_PCOD8024924
_publ_section_title
;
Structure prediction by ZEFSAII (Michael W. Deem and Ramdas Pophale) SiO2 
 PCOD8024924
Probable space group: P -1
;
_chemical_formula_sum "Si O2"
_cell_formula_units_Z 16
_cell_length_a 20.491553
_cell_length_b 24.036294
_cell_length_c 15.556824
_cell_angle_alpha 19.431808
_cell_angle_beta 29.507648
_cell_angle_gamma 19.027756
_cell_volume 815.028775
_symmetry_space_group_name_H-M "P -1"
_symmetry_group_IT_number 2
_symmetry_cell_setting 'triclinic'
loop_
_space_group_symop_operation_xyz
x,y,z
-x,-y,-z
loop_
_atom_site_type_symbol
_atom_site_label
_atom_site_fract_x
_atom_site_fract_y
_atom_site_fract_z
Si Si1 0.270019 0.306768 0.410537
Si Si2 0.830404 0.699211 0.281854
Si Si3 0.380094 0.994164 0.210476
Si Si4 0.007892 0.677630 0.500885
Si Si5 0.634317 0.485103 0.591092
Si Si6 0.443507 0.233089 0.899099
Si Si7 0.058718 0.517181 0.000005
Si Si8 0.366291 0.882530 0.821885
O O1 0.242886 0.341007 0.494267
O O2 0.437355 0.279348 0.228050
O O3 0.055157 0.559474 0.243792
O O4 0.342370 0.051897 0.671956
O O5 0.838483 0.572584 0.373239
O O6 0.674505 0.006281 0.000957
O O7 0.146412 0.188421 0.164072
O O8 0.485113 0.711494 0.503693
O O9 0.394386 0.083120 0.153182
O O10 0.500000 0.000000 0.000000
O O11 0.134686 0.689312 0.394443
O O12 0.835895 0.939790 0.262916
O O13 0.892808 0.667461 0.714408
O O14 0.574221 0.616292 0.375955
O O15 0.604623 0.315867 0.869611
O O16 0.259190 0.446342 0.867781
O O17 0.000000 0.500000 0.000000
#
# Coordination Sequence:
#
# PCOD8024924 Si02
#       8
#     2   2   2   2   2   2   2   2
#     4   9  21  42  57  77 103 147 208 229 261 316
#     4  10  19  36  65  78 102 150 190 233 270 327
#     4   9  15  29  48  74 117 138 165 202 268 339
#     4  11  18  33  57  87 114 146 178 216 292 336
#     4  11  19  34  53  88 122 140 172 225 287 342
#     4  10  18  31  56  85 113 145 177 220 281 334
#     4  10  17  29  52  81 119 146 173 210 258 352
#     4  10  22  37  59  78 110 151 187 236 267 321
#
# _framework density 19.631208999999998
#
# number of rings (size 3 to 8) (size 9 to 14) (size 15 to 20)
#    0.000    2.000    5.000    1.875    0.000    0.000 
#    0.000    5.625    0.000    0.000    0.000    0.000 
#    0.000    0.000    0.000    0.000    0.000    0.000 
#
# Total GULP energy -198268.009319 kJ/mol
# GULP energy per Si atom -12391.750582 kJ/mol
# Density = 1.958653 g / cm^3
# Si number density = 19.631209 Si / 1000 Ang^3
#
#
#
# Elastic Constant Matrix: (Units=GPa)
#
#
# Indices 1 2 3 4 5 6 
#
# 1 45.0288 20.4303 29.1635 7.3018 12.1373 0.3765
# 2 20.4303 135.7436 49.8342 -1.1453 9.4951 -12.0559
# 3 29.1635 49.8342 117.0161 2.1135 8.7498 -8.7868
# 4 7.3018 -1.1453 2.1135 25.2082 -0.5114 10.8012
# 5 12.1373 9.4951 8.7498 -0.5114 19.8475 0.8734
# 6 0.3765 -12.0559 -8.7868 10.8012 0.8734 27.4942
#
#
#
# Elastic Compliance Matrix: (Units=1/GPa)
#
#
# Indices 1 2 3 4 5 6 
#
# 1 0.033044 -0.001520 -0.006011 -0.010119 -0.017156 0.001480
# 2 -0.001520 0.009181 -0.003114 -0.000318 -0.002241 0.003248
# 3 -0.006011 -0.003114 0.011580 -0.000492 -0.000067 0.002613
# 4 -0.010119 -0.000318 -0.000492 0.051696 0.008802 -0.020747
# 5 -0.017156 -0.002241 -0.000067 0.008802 0.062477 -0.006212
# 6 0.001480 0.003248 0.002613 -0.020747 -0.006212 0.046958
#
#
# Mechanical properties :
#
#
# Convention : Reuss Voigt Hill
#
# Bulk Modulus (GPa) = 30.75572 55.18272 42.96922
# Shear Modulus (GPa) = 20.23753 27.73400 23.98577
#
# Velocity S-wave (km/s) = 3.21422 3.76273 3.49924
# Velocity P-wave (km/s) = 5.42916 6.85917 6.18563
#
# Compressibility (1/GPa) = 0.03251428
#
# Stress axis : x y z
#
# Youngs Moduli (GPa) = 30.26289 108.91591 86.35364
#
# Poissons Ratio (x) = 0.16560 0.51909
# Poissons Ratio (y) = 0.04601 0.26890
# Poissons Ratio (z) = 0.18192 0.33916
#
# Static dielectric constant tensor:
#      x y z
#    x 3.427720 0.085270 0.164130 
#    y 0.085270 4.384140 -0.265190 
#    z 0.164130 -0.265190 3.284160 
# 
# 
# High freq. dielectric constant tensor:
#      x y z
#    x 1.739030 -0.004040 0.034570 
#    y -0.004040 1.791740 -0.010430 
#    z 0.034570 -0.010430 1.726580 
# 
# From -- ./inp_files/405405.got.cif
#   From: 2010.06.25/outbox.cif.g09.slc.cpg/sg2_203_cif.got.tgz:405405.got - 2010.06.27 13:26:56.
