data_PCOD8024600
_publ_section_title
;
Structure prediction by ZEFSAII (Michael W. Deem and Ramdas Pophale) SiO2 
 PCOD8024600
Probable space group: P -1
;
_chemical_formula_sum "Si O2"
_cell_formula_units_Z 16
_cell_length_a 13.884907
_cell_length_b 16.012063
_cell_length_c 21.462739
_cell_angle_alpha 22.989232
_cell_angle_beta 158.580106
_cell_angle_gamma 146.171705
_cell_volume 668.944524
_symmetry_space_group_name_H-M "P -1"
_symmetry_group_IT_number 2
_symmetry_cell_setting 'triclinic'
loop_
_space_group_symop_operation_xyz
x,y,z
-x,-y,-z
loop_
_atom_site_type_symbol
_atom_site_label
_atom_site_fract_x
_atom_site_fract_y
_atom_site_fract_z
Si Si1 0.621784 0.318926 0.447736
Si Si2 0.051972 0.491788 0.819988
Si Si3 0.862491 0.739555 0.735345
Si Si4 0.819209 0.960249 0.221774
Si Si5 0.752324 0.880602 0.436404
Si Si6 0.177593 0.042816 0.265993
Si Si7 0.536907 0.661770 0.051850
Si Si8 0.028619 0.531636 0.347878
O O1 0.367523 0.202953 0.389534
O O2 0.543326 0.529214 0.211229
O O3 0.707545 0.399826 0.511171
O O4 0.853471 0.134694 0.684395
O O5 0.786996 0.678568 0.546713
O O6 0.050020 0.369673 0.835604
O O7 0.070198 0.293135 0.014690
O O8 0.308399 0.605944 0.906371
O O9 0.734632 0.768615 0.569911
O O10 0.086808 0.890445 0.770718
O O11 0.000000 0.500000 0.000000
O O12 0.974233 0.995802 0.228155
O O13 0.924703 0.717238 0.472826
O O14 0.500000 0.000000 0.000000
O O15 0.000000 0.000000 0.500000
O O16 0.499533 0.076499 0.136513
O O17 0.500000 0.000000 0.500000
O O18 0.810357 0.590323 0.229268
#
# Coordination Sequence:
#
# PCOD8024600 Si02
#       8
#     2   2   2   2   2   2   2   2
#     4  12  26  46  74 107 144 193 242 301 369 437
#     4  11  24  45  72 104 145 193 244 298 366 436
#     4  12  24  45  73 104 148 193 245 297 371 438
#     4  12  25  44  74 110 145 192 250 305 355 436
#     4  10  23  43  69 104 139 191 241 298 360 431
#     4  12  23  47  77 105 146 196 244 298 367 444
#     4  11  22  45  75 101 145 194 244 299 365 433
#     4  12  27  45  69 112 145 187 246 304 365 431
#
# _framework density 23.918275000000001
#
# number of rings (size 3 to 8) (size 9 to 14) (size 15 to 20)
#    0.000    0.500    3.750    5.250    1.750    1.500 
#    0.000    1.250    0.000    0.000    0.000    0.000 
#    0.000    0.000    0.000    0.000    0.000    0.000 
#
# Total GULP energy -198288.862214 kJ/mol
# GULP energy per Si atom -12393.053888 kJ/mol
# Density = 2.386384 g / cm^3
# Si number density = 23.918275 Si / 1000 Ang^3
#
#
#
# Elastic Constant Matrix: (Units=GPa)
#
#
# Indices 1 2 3 4 5 6 
#
# 1 120.6155 28.8741 19.5872 15.9769 3.8634 6.6929
# 2 28.8741 90.5990 35.9648 -1.3979 6.9589 -11.6191
# 3 19.5872 35.9648 105.0106 -15.0881 11.8074 2.6038
# 4 15.9769 -1.3979 -15.0881 43.5901 -0.2120 2.7055
# 5 3.8634 6.9589 11.8074 -0.2120 32.7477 4.0574
# 6 6.6929 -11.6191 2.6038 2.7055 4.0574 42.2258
#
#
#
# Elastic Compliance Matrix: (Units=1/GPa)
#
#
# Indices 1 2 3 4 5 6 
#
# 1 0.009864 -0.002931 -0.001390 -0.004063 0.000187 -0.002042
# 2 -0.002931 0.014467 -0.004373 -0.000289 -0.001761 0.004903
# 3 -0.001390 -0.004373 0.012354 0.004739 -0.003114 -0.001749
# 4 -0.004063 -0.000289 0.004739 0.026139 -0.000835 -0.001322
# 5 0.000187 -0.001761 -0.003114 -0.000835 0.032425 -0.003384
# 6 -0.002042 0.004903 -0.001749 -0.001322 -0.003384 0.025873
#
#
# Mechanical properties :
#
#
# Convention : Reuss Voigt Hill
#
# Bulk Modulus (GPa) = 51.82146 53.89745 52.85946
# Shear Modulus (GPa) = 34.49637 39.16599 36.83118
#
# Velocity S-wave (km/s) = 3.80183 4.05098 3.92838
# Velocity P-wave (km/s) = 6.40195 6.66810 6.53638
#
# Compressibility (1/GPa) = 0.01929703
#
# Stress axis : x y z
#
# Youngs Moduli (GPa) = 101.38287 69.12171 80.94319
#
# Poissons Ratio (x) = 0.20256 0.11254
# Poissons Ratio (y) = 0.29711 0.35398
# Poissons Ratio (z) = 0.14095 0.30228
#
# Static dielectric constant tensor:
#      x y z
#    x 4.560530 -0.033070 0.288830 
#    y -0.033070 4.475620 -0.188100 
#    z 0.288830 -0.188100 4.585410 
# 
# 
# High freq. dielectric constant tensor:
#      x y z
#    x 1.964250 -0.000760 0.007610 
#    y -0.000760 1.942280 -0.017480 
#    z 0.007610 -0.017480 1.949780 
# 
# From -- ./inp_files/612191.got.cif
#   From: 2010.06.25/outbox.cif.g09.slc.cpg/sg2_307_cif.got.tgz:612191.got - 2010.06.27 13:26:56.
