data_PCOD8024144
_publ_section_title
;
Structure prediction by ZEFSAII (Michael W. Deem and Ramdas Pophale) SiO2 
 PCOD8024144
Probable space group: P -1
;
_chemical_formula_sum "Si O2"
_cell_formula_units_Z 16
_cell_length_a 8.505499
_cell_length_b 16.955262
_cell_length_c 5.118893
_cell_angle_alpha 59.413764
_cell_angle_beta 88.060328
_cell_angle_gamma 79.077351
_cell_volume 622.274633
_symmetry_space_group_name_H-M "P -1"
_symmetry_group_IT_number 2
_symmetry_cell_setting 'triclinic'
loop_
_space_group_symop_operation_xyz
x,y,z
-x,-y,-z
loop_
_atom_site_type_symbol
_atom_site_label
_atom_site_fract_x
_atom_site_fract_y
_atom_site_fract_z
Si Si1 0.804482 0.846140 0.520921
Si Si2 0.683614 0.762186 0.158240
Si Si3 0.157563 0.791758 0.831595
Si Si4 0.423730 0.724243 0.588336
Si Si5 0.802636 0.377171 0.530759
Si Si6 0.106687 0.973726 0.789622
Si Si7 0.636946 0.546988 0.030723
Si Si8 0.112856 0.425325 0.436673
O O1 0.781106 0.805174 0.305960
O O2 0.760475 0.960205 0.320620
O O3 0.990426 0.813971 0.648540
O O4 0.684900 0.816201 0.793493
O O5 0.502351 0.768726 0.264574
O O6 0.760984 0.653240 0.280344
O O7 0.311162 0.805100 0.625479
O O8 0.168921 0.861492 0.958632
O O9 0.188494 0.683805 0.104620
O O10 0.302039 0.660120 0.616067
O O11 0.564439 0.658883 0.869988
O O12 0.981090 0.370358 0.413890
O O13 0.707910 0.488529 0.390711
O O14 0.000000 0.000000 0.500000
O O15 0.000000 0.000000 0.000000
O O16 0.795208 0.529052 0.867111
O O17 0.500000 0.500000 0.000000
O O18 0.000000 0.500000 0.500000
#
# Coordination Sequence:
#
# PCOD8024144 Si02
#       8
#     2   2   2   2   2   2   2   2
#     4  11  23  46  74 103 139 182 236 291 351 417
#     4  11  25  46  71 101 143 187 231 287 356 416
#     4  11  24  41  73 103 133 183 235 291 348 424
#     4  10  25  44  66  97 142 189 232 284 351 420
#     4  11  23  41  69  95 138 179 243 279 344 407
#     4  10  23  42  71 108 140 175 230 296 354 408
#     4   9  22  43  60  91 139 179 226 281 344 405
#     4  11  24  41  65 102 132 182 237 293 335 406
#
# _framework density 25.712118
#
# number of rings (size 3 to 8) (size 9 to 14) (size 15 to 20)
#    0.000    1.500    1.250    2.625    8.750    3.500 
#    2.250    1.250    0.000    0.000    0.000    0.000 
#    0.000    0.000    0.000    0.000    0.000    0.000 
#
# Total GULP energy -198215.081102 kJ/mol
# GULP energy per Si atom -12388.442569 kJ/mol
# Density = 2.565360 g / cm^3
# Si number density = 25.712118 Si / 1000 Ang^3
#
#
#
# Elastic Constant Matrix: (Units=GPa)
#
#
# Indices 1 2 3 4 5 6 
#
# 1 117.0372 17.9260 16.7526 -2.9717 -37.4626 -19.8896
# 2 17.9260 92.6543 10.8546 8.8899 -34.0922 -7.3155
# 3 16.7526 10.8546 87.1494 -3.4008 -27.9604 -2.3092
# 4 -2.9717 8.8899 -3.4008 33.9500 6.8343 -14.7183
# 5 -37.4626 -34.0922 -27.9604 6.8343 44.8947 8.3506
# 6 -19.8896 -7.3155 -2.3092 -14.7183 8.3506 27.4187
#
#
#
# Elastic Compliance Matrix: (Units=1/GPa)
#
#
# Indices 1 2 3 4 5 6 
#
# 1 0.013074 0.002003 0.001200 0.001674 0.011527 0.007507
# 2 0.002003 0.017907 0.003193 -0.010391 0.019790 -0.005105
# 3 0.001200 0.003193 0.015095 -0.003328 0.013896 -0.003025
# 4 0.001674 -0.010391 -0.003328 0.050277 -0.022152 0.031897
# 5 0.011527 0.019790 0.013896 -0.022152 0.061911 -0.015935
# 6 0.007507 -0.005105 -0.003025 0.031897 -0.015935 0.062276
#
#
# Mechanical properties :
#
#
# Convention : Reuss Voigt Hill
#
# Bulk Modulus (GPa) = 16.98748 43.10080 30.04414
# Shear Modulus (GPa) = 21.99065 38.00652 29.99859
#
# Velocity S-wave (km/s) = 2.92766 3.84885 3.41942
# Velocity P-wave (km/s) = 4.24846 6.04572 5.22495
#
# Compressibility (1/GPa) = 0.05886689
#
# Stress axis : x y z
#
# Youngs Moduli (GPa) = 76.48993 55.84535 66.24926
#
# Poissons Ratio (x) = -0.11188 -0.07948
# Poissons Ratio (y) = -0.15324 -0.21153
# Poissons Ratio (z) = -0.09177 -0.17831
#
# Static dielectric constant tensor:
#      x y z
#    x 5.279640 0.075310 -0.132410 
#    y 0.075310 5.547760 -0.686680 
#    z -0.132410 -0.686680 4.766550 
# 
# 
# High freq. dielectric constant tensor:
#      x y z
#    x 2.036920 0.014200 -0.007700 
#    y 0.014200 2.022040 -0.009320 
#    z -0.007700 -0.009320 2.022950 
# 
# From -- ./inp_files/43266.got.cif
#   From: 2010.06.25/outbox.cif.g09.slc.cpg/sg2_22_cif.got.tgz:43266.got - 2010.06.27 13:26:56.
