data_PCOD8024208
_publ_section_title
;
Structure prediction by ZEFSAII (Michael W. Deem and Ramdas Pophale) SiO2 
 PCOD8024208
Probable space group: P -1
;
_chemical_formula_sum "Si O2"
_cell_formula_units_Z 14
_cell_length_a 15.944685
_cell_length_b 11.879893
_cell_length_c 8.046409
_cell_angle_alpha 39.295129
_cell_angle_beta 133.968364
_cell_angle_gamma 140.958640
_cell_volume 591.186530
_symmetry_space_group_name_H-M "P -1"
_symmetry_group_IT_number 2
_symmetry_cell_setting 'triclinic'
loop_
_space_group_symop_operation_xyz
x,y,z
-x,-y,-z
loop_
_atom_site_type_symbol
_atom_site_label
_atom_site_fract_x
_atom_site_fract_y
_atom_site_fract_z
Si Si1 0.758291 0.849710 0.048371
Si Si2 0.451782 0.767628 0.237476
Si Si3 0.279968 0.147441 0.645396
Si Si4 0.176224 0.416772 0.089471
Si Si5 0.884674 0.254505 0.934852
Si Si6 0.487681 0.797560 0.631593
Si Si7 0.207099 0.475382 0.693390
O O1 0.695287 0.743415 0.263294
O O2 0.837801 0.750389 0.186210
O O3 0.632071 0.814922 0.803216
O O4 0.865235 0.097370 0.935908
O O5 0.575979 0.742164 0.376709
O O6 0.313291 0.611312 0.128869
O O7 0.426183 0.744933 0.423385
O O8 0.500000 0.000000 0.000000
O O9 0.182632 0.206334 0.344114
O O10 0.205265 0.893642 0.861725
O O11 0.146262 0.456098 0.814685
O O12 0.046194 0.384653 0.054173
O O13 0.836465 0.407019 0.630779
O O14 0.372137 0.601670 0.801021
O O15 0.500000 0.000000 0.500000
#
# Coordination Sequence:
#
# PCOD8024208 Si02
#       7
#     2   2   2   2   2   2   2
#     4  10  23  42  73  98 142 184 243 280 357 411
#     4  12  25  42  72 108 136 186 238 297 357 412
#     4  10  23  47  69 102 143 182 236 295 348 416
#     4  12  25  45  71 106 146 181 243 294 355 423
#     4  10  25  47  72 101 151 191 233 290 356 429
#     4  12  22  44  71 102 143 181 237 297 349 421
#     4  12  23  43  72 105 141 193 239 288 353 423
#
# _framework density 23.681190000000001
#
# number of rings (size 3 to 8) (size 9 to 14) (size 15 to 20)
#    0.857    0.000    1.429    6.857    0.000    0.571 
#    2.571    3.571    0.000    0.000    0.000    0.000 
#    0.000    0.000    0.000    0.000    0.000    0.000 
#
# Total GULP energy -173524.955541 kJ/mol
# GULP energy per Si atom -12394.639681 kJ/mol
# Density = 2.362729 g / cm^3
# Si number density = 23.681190 Si / 1000 Ang^3
#
#
#
# Elastic Constant Matrix: (Units=GPa)
#
#
# Indices 1 2 3 4 5 6 
#
# 1 98.0607 38.0553 18.5063 9.9345 3.6039 4.6661
# 2 38.0553 62.7807 30.6378 -3.4872 12.4278 9.1751
# 3 18.5063 30.6378 126.8232 -8.0847 14.3032 5.8227
# 4 9.9345 -3.4872 -8.0847 33.3465 -1.8794 8.2957
# 5 3.6039 12.4278 14.3032 -1.8794 38.4535 4.1392
# 6 4.6661 9.1751 5.8227 8.2957 4.1392 43.8718
#
#
#
# Elastic Compliance Matrix: (Units=1/GPa)
#
#
# Indices 1 2 3 4 5 6 
#
# 1 0.014325 -0.009264 -0.000431 -0.005611 0.001387 0.001401
# 2 -0.009264 0.025277 -0.003628 0.005306 -0.005226 -0.004330
# 3 -0.000431 -0.003628 0.009212 0.002018 -0.002050 -0.000606
# 4 -0.005611 0.005306 0.002018 0.034568 0.000543 -0.007368
# 5 0.001387 -0.005226 -0.002050 0.000543 0.028523 -0.001576
# 6 0.001401 -0.004330 -0.000606 -0.007368 -0.001576 0.025173
#
#
# Mechanical properties :
#
#
# Convention : Reuss Voigt Hill
#
# Bulk Modulus (GPa) = 45.11040 51.34038 48.22539
# Shear Modulus (GPa) = 29.22064 36.49867 32.85966
#
# Velocity S-wave (km/s) = 3.51653 3.93014 3.72907
# Velocity P-wave (km/s) = 5.96476 6.50550 6.24099
#
# Compressibility (1/GPa) = 0.02216784
#
# Stress axis : x y z
#
# Youngs Moduli (GPa) = 69.80751 39.56235 108.55501
#
# Poissons Ratio (x) = 0.36651 0.04676
# Poissons Ratio (y) = 0.64670 0.39384
# Poissons Ratio (z) = 0.03007 0.14353
#
# Static dielectric constant tensor:
#      x y z
#    x 4.411090 0.076040 -0.101210 
#    y 0.076040 4.150180 -0.133010 
#    z -0.101210 -0.133010 4.276750 
# 
# 
# High freq. dielectric constant tensor:
#      x y z
#    x 1.934700 0.004080 0.005330 
#    y 0.004080 1.931660 -0.007680 
#    z 0.005330 -0.007680 1.940590 
# 
# From -- ./inp_files/332781.got.cif
#   From: 2010.06.25/outbox.cif.g09.slc.cpg/sg2_167_cif.got.tgz:332781.got - 2010.06.27 13:26:56.
