data_PCOD8024826
_publ_section_title
;
Structure prediction by ZEFSAII (Michael W. Deem and Ramdas Pophale) SiO2 
 PCOD8024826
Probable space group: P -1
;
_chemical_formula_sum "Si O2"
_cell_formula_units_Z 16
_cell_length_a 19.839209
_cell_length_b 9.249514
_cell_length_c 5.419836
_cell_angle_alpha 127.770807
_cell_angle_beta 62.491922
_cell_angle_gamma 124.750512
_cell_volume 636.138620
_symmetry_space_group_name_H-M "P -1"
_symmetry_group_IT_number 2
_symmetry_cell_setting 'triclinic'
loop_
_space_group_symop_operation_xyz
x,y,z
-x,-y,-z
loop_
_atom_site_type_symbol
_atom_site_label
_atom_site_fract_x
_atom_site_fract_y
_atom_site_fract_z
Si Si1 0.614872 0.447311 0.822517
Si Si2 0.019507 0.772293 0.972852
Si Si3 0.545076 0.752917 0.379882
Si Si4 0.126129 0.544585 0.435572
Si Si5 0.630108 0.955863 0.938014
Si Si6 0.706081 0.343438 0.950564
Si Si7 0.743961 0.738202 0.561352
Si Si8 0.095562 0.187986 0.399813
O O1 0.554066 0.317805 0.568952
O O2 0.638314 0.295540 0.794513
O O3 0.697531 0.624160 0.765875
O O4 0.564326 0.555535 0.169830
O O5 0.985095 0.792338 0.322295
O O6 0.063767 0.007914 0.060238
O O7 0.090132 0.686387 0.782354
O O8 0.945086 0.627719 0.781190
O O9 0.566575 0.869900 0.725025
O O10 0.590181 0.887908 0.203532
O O11 0.209705 0.683634 0.295963
O O12 0.152319 0.411122 0.440457
O O13 0.706541 0.892827 0.696962
O O14 0.668196 0.198089 0.097948
O O15 0.731157 0.575975 0.202717
O O16 0.842951 0.859034 0.566380
#
# Coordination Sequence:
#
# PCOD8024826 Si02
#       8
#     2   2   2   2   2   2   2   2
#     4  10  23  43  74  95 141 184 231 285 357 416
#     4  10  24  42  64 103 132 179 231 289 350 419
#     4  10  24  46  71 105 139 188 232 297 348 425
#     4  11  23  43  66  98 139 177 232 290 348 419
#     4  11  27  45  70 104 144 181 241 288 356 420
#     4  12  25  42  69 100 137 186 229 287 357 418
#     4  11  24  44  66 100 139 181 232 290 350 421
#     4  11  22  43  70  95 135 184 231 284 353 418
#
# _framework density 25.151748999999999
#
# number of rings (size 3 to 8) (size 9 to 14) (size 15 to 20)
#    0.000    1.250    3.750    0.750    3.500    6.500 
#    9.000    0.000    0.000    0.000    0.000    0.000 
#    0.000    0.000    0.000    0.000    0.000    0.000 
#
# Total GULP energy -198299.159705 kJ/mol
# GULP energy per Si atom -12393.697482 kJ/mol
# Density = 2.509450 g / cm^3
# Si number density = 25.151749 Si / 1000 Ang^3
#
#
#
# Elastic Constant Matrix: (Units=GPa)
#
#
# Indices 1 2 3 4 5 6 
#
# 1 108.0369 10.8673 38.2871 3.6041 -20.2604 4.2396
# 2 10.8673 83.8138 22.1318 3.8124 -19.3558 -6.4423
# 3 38.2871 22.1318 87.2560 17.4718 -6.7883 -2.3146
# 4 3.6041 3.8124 17.4718 25.0407 -3.7293 3.4039
# 5 -20.2604 -19.3558 -6.7883 -3.7293 36.2098 -0.7034
# 6 4.2396 -6.4423 -2.3146 3.4039 -0.7034 28.7014
#
#
#
# Elastic Compliance Matrix: (Units=1/GPa)
#
#
# Indices 1 2 3 4 5 6 
#
# 1 0.012535 0.001214 -0.006052 0.003569 0.006851 -0.002323
# 2 0.001214 0.014811 -0.003789 0.001016 0.008047 0.002916
# 3 -0.006052 -0.003789 0.017172 -0.011394 -0.003313 0.002698
# 4 0.003569 0.001016 -0.011394 0.048945 0.005311 -0.006892
# 5 0.006851 0.008047 -0.003313 0.005311 0.035692 0.000772
# 6 -0.002323 0.002916 0.002698 -0.006892 0.000772 0.036893
#
#
# Mechanical properties :
#
#
# Convention : Reuss Voigt Hill
#
# Bulk Modulus (GPa) = 36.67814 46.85325 41.76569
# Shear Modulus (GPa) = 25.98870 31.84507 28.91688
#
# Velocity S-wave (km/s) = 3.21795 3.56211 3.39440
# Velocity P-wave (km/s) = 5.33116 5.96547 5.65722
#
# Compressibility (1/GPa) = 0.02726420
#
# Stress axis : x y z
#
# Youngs Moduli (GPa) = 79.77365 67.51857 58.23288
#
# Poissons Ratio (x) = -0.08196 0.35241
# Poissons Ratio (y) = -0.09683 0.22067
# Poissons Ratio (z) = 0.48277 0.25585
#
# Static dielectric constant tensor:
#      x y z
#    x 4.571440 0.024910 -0.223610 
#    y 0.024910 4.486090 0.173680 
#    z -0.223610 0.173680 4.375320 
# 
# 
# High freq. dielectric constant tensor:
#      x y z
#    x 2.012940 0.005940 -0.014670 
#    y 0.005940 1.992340 0.010720 
#    z -0.014670 0.010720 1.998470 
# 
# From -- ./inp_files/117512.got.cif
#   From: 2010.06.25/outbox.cif.g09.slc.cpg/sg2_59_cif.got.tgz:117512.got - 2010.06.27 13:26:56.
