data_PCOD8024349
_publ_section_title
;
Structure prediction by ZEFSAII (Michael W. Deem and Ramdas Pophale) SiO2 
 PCOD8024349
Probable space group: P -1
;
_chemical_formula_sum "Si O2"
_cell_formula_units_Z 14
_cell_length_a 8.741850
_cell_length_b 24.990732
_cell_length_c 10.603081
_cell_angle_alpha 30.234798
_cell_angle_beta 121.856044
_cell_angle_gamma 142.779313
_cell_volume 600.073753
_symmetry_space_group_name_H-M "P -1"
_symmetry_group_IT_number 2
_symmetry_cell_setting 'triclinic'
loop_
_space_group_symop_operation_xyz
x,y,z
-x,-y,-z
loop_
_atom_site_type_symbol
_atom_site_label
_atom_site_fract_x
_atom_site_fract_y
_atom_site_fract_z
Si Si1 0.482341 0.909011 0.565314
Si Si2 0.509442 0.488257 0.354173
Si Si3 0.832355 0.202865 0.581044
Si Si4 0.345583 0.626486 0.513828
Si Si5 0.994082 0.884917 0.794172
Si Si6 0.316577 0.639147 0.199490
Si Si7 0.363329 0.086075 0.776814
O O1 0.184809 0.783391 0.605629
O O2 0.500000 0.000000 0.500000
O O3 0.501136 0.797503 0.857975
O O4 0.749201 0.060732 0.276025
O O5 0.610457 0.477718 0.288237
O O6 0.582869 0.439665 0.601834
O O7 0.167357 0.359363 0.457717
O O8 0.685562 0.679902 0.059159
O O9 0.657489 0.212465 0.561357
O O10 0.660622 0.012918 0.923158
O O11 0.374046 0.705725 0.232793
O O12 0.604590 0.785883 0.398129
O O13 0.030642 0.505940 0.686405
O O14 0.000000 0.000000 0.500000
O O15 0.065091 0.936357 0.868350
#
# Coordination Sequence:
#
# PCOD8024349 Si02
#       7
#     2   2   2   2   2   2   2
#     4  11  23  43  67  98 135 175 219 275 326 389
#     4  10  23  44  69  97 129 175 229 265 325 400
#     4  10  24  39  68  98 137 174 219 268 338 388
#     4   9  20  40  73  94 128 177 222 265 326 394
#     4  11  27  44  65  98 137 173 219 279 337 384
#     4   9  21  39  73  97 129 171 227 266 326 387
#     4  10  23  43  65  97 137 176 214 274 335 397
#
# _framework density 23.330466000000001
#
# number of rings (size 3 to 8) (size 9 to 14) (size 15 to 20)
#    0.857    1.143    0.000    1.714    8.000    4.571 
#    0.000    5.000    0.000    0.000    0.000    0.000 
#    0.000    0.000    0.000    0.000    0.000    0.000 
#
# Total GULP energy -173504.785586 kJ/mol
# GULP energy per Si atom -12393.198970 kJ/mol
# Density = 2.327736 g / cm^3
# Si number density = 23.330466 Si / 1000 Ang^3
#
#
#
# Elastic Constant Matrix: (Units=GPa)
#
#
# Indices 1 2 3 4 5 6 
#
# 1 38.3004 46.4966 38.1069 -11.8571 12.1090 -4.6885
# 2 46.4966 145.5621 64.3144 -17.8038 10.9257 -14.2478
# 3 38.1069 64.3144 117.0161 -0.7630 13.4623 -12.7836
# 4 -11.8571 -17.8038 -0.7630 40.3390 1.1382 3.5592
# 5 12.1090 10.9257 13.4623 1.1382 41.7807 -6.2197
# 6 -4.6885 -14.2478 -12.7836 3.5592 -6.2197 42.6318
#
#
#
# Elastic Compliance Matrix: (Units=1/GPa)
#
#
# Indices 1 2 3 4 5 6 
#
# 1 0.058931 -0.011552 -0.011876 0.012632 -0.011115 -0.003617
# 2 -0.011552 0.012104 -0.002817 0.001680 0.001340 0.001985
# 3 -0.011876 -0.002817 0.014183 -0.004681 0.000095 0.002410
# 4 0.012632 0.001680 -0.004681 0.029479 -0.003762 -0.002463
# 5 -0.011115 0.001340 0.000095 -0.003762 0.027408 0.003567
# 6 -0.003617 0.001985 0.002410 -0.002463 0.003567 0.025171
#
#
# Mechanical properties :
#
#
# Convention : Reuss Voigt Hill
#
# Bulk Modulus (GPa) = 30.55428 66.52382 48.53905
# Shear Modulus (GPa) = 21.67539 35.08101 28.37820
#
# Velocity S-wave (km/s) = 3.05135 3.88191 3.49142
# Velocity P-wave (km/s) = 5.05362 6.97624 6.09126
#
# Compressibility (1/GPa) = 0.03272864
#
# Stress axis : x y z
#
# Youngs Moduli (GPa) = 16.96893 82.61916 70.50450
#
# Poissons Ratio (x) = 0.95440 0.83733
# Poissons Ratio (y) = 0.19602 0.19861
# Poissons Ratio (z) = 0.20153 0.23273
#
# Static dielectric constant tensor:
#      x y z
#    x 4.303960 0.028460 -0.162970 
#    y 0.028460 4.455350 0.227200 
#    z -0.162970 0.227200 4.102940 
# 
# 
# High freq. dielectric constant tensor:
#      x y z
#    x 1.924780 -0.007790 -0.006740 
#    y -0.007790 1.922160 -0.002820 
#    z -0.006740 -0.002820 1.903530 
# 
# From -- ./inp_files/407131.got.cif
#   From: 2010.06.25/outbox.cif.g09.slc.cpg/sg2_204_cif.got.tgz:407131.got - 2010.06.27 13:26:56.
