data_PCOD8024019
_publ_section_title
;
Structure prediction by ZEFSAII (Michael W. Deem and Ramdas Pophale) SiO2 
 PCOD8024019
Probable space group: P -1
;
_chemical_formula_sum "Si O2"
_cell_formula_units_Z 16
_cell_length_a 12.499389
_cell_length_b 12.388171
_cell_length_c 5.156562
_cell_angle_alpha 79.377244
_cell_angle_beta 71.398253
_cell_angle_gamma 64.039258
_cell_volume 679.455079
_symmetry_space_group_name_H-M "P -1"
_symmetry_group_IT_number 2
_symmetry_cell_setting 'triclinic'
loop_
_space_group_symop_operation_xyz
x,y,z
-x,-y,-z
loop_
_atom_site_type_symbol
_atom_site_label
_atom_site_fract_x
_atom_site_fract_y
_atom_site_fract_z
Si Si1 0.322136 0.632258 0.385911
Si Si2 0.473896 0.380116 0.393834
Si Si3 0.274767 0.314424 0.789529
Si Si4 0.113971 0.380744 0.377066
Si Si5 0.585413 0.967204 0.193733
Si Si6 0.917974 0.130495 0.100972
Si Si7 0.665648 0.174366 0.082266
Si Si8 0.054182 0.751086 0.483393
O O1 0.396806 0.503938 0.237026
O O2 0.400639 0.613333 0.596962
O O3 0.182521 0.643163 0.531752
O O4 0.307898 0.757124 0.211852
O O5 0.386842 0.358278 0.687887
O O6 0.525208 0.260185 0.233607
O O7 0.212300 0.342822 0.545408
O O8 0.323386 0.171503 0.845228
O O9 0.182195 0.389974 0.055385
O O10 0.000000 0.500000 0.500000
O O11 0.062549 0.281175 0.395752
O O12 0.500000 0.000000 0.500000
O O13 0.668905 0.044065 0.076462
O O14 0.500000 0.000000 0.000000
O O15 0.772985 0.154193 0.221780
O O16 0.968669 0.141884 0.340976
O O17 0.932929 0.220881 0.838841
O O18 0.000000 0.000000 0.000000
#
# Coordination Sequence:
#
# PCOD8024019 Si02
#       8
#     2   2   2   2   2   2   2   2
#     4  10  23  42  69 104 133 188 225 306 354 423
#     4  11  22  43  70 103 144 175 242 289 367 430
#     4  12  27  47  74 111 142 198 242 298 371 437
#     4  12  28  50  74 105 147 195 247 304 362 434
#     4  12  26  46  71 104 150 189 236 295 355 447
#     4  11  25  44  69 102 133 189 231 299 351 419
#     4  11  24  42  70  99 148 179 240 288 370 420
#     4  11  24  47  69 100 141 176 248 286 361 418
#
# _framework density 23.548282
#
# number of rings (size 3 to 8) (size 9 to 14) (size 15 to 20)
#    0.000    0.750    2.500    4.125    5.250    1.000 
#    2.250    0.000    0.000    0.000    0.000    0.000 
#    0.000    0.000    0.000    0.000    0.000    0.000 
#
# Total GULP energy -198296.033593 kJ/mol
# GULP energy per Si atom -12393.502100 kJ/mol
# Density = 2.349469 g / cm^3
# Si number density = 23.548282 Si / 1000 Ang^3
#
#
#
# Elastic Constant Matrix: (Units=GPa)
#
#
# Indices 1 2 3 4 5 6 
#
# 1 87.5537 0.8015 23.6293 -1.2685 -0.8411 7.6624
# 2 0.8015 104.0499 0.0090 12.4312 -2.4724 -1.0597
# 3 23.6293 0.0090 104.3153 14.5211 -0.3045 1.2288
# 4 -1.2685 12.4312 14.5211 38.9764 -6.1515 -5.9107
# 5 -0.8411 -2.4724 -0.3045 -6.1515 34.4925 4.0020
# 6 7.6624 -1.0597 1.2288 -5.9107 4.0020 36.6428
#
#
#
# Elastic Compliance Matrix: (Units=1/GPa)
#
#
# Indices 1 2 3 4 5 6 
#
# 1 0.012464 -0.000264 -0.002983 0.001363 0.000778 -0.002379
# 2 -0.000264 0.010022 0.000538 -0.003421 0.000134 -0.000239
# 3 -0.002983 0.000538 0.010890 -0.004492 -0.000696 -0.000375
# 4 0.001363 -0.003421 -0.004492 0.029808 0.004592 0.004073
# 5 0.000778 0.000134 -0.000696 0.004592 0.030145 -0.002687
# 6 -0.002379 -0.000239 -0.000375 0.004073 -0.002687 0.028744
#
#
# Mechanical properties :
#
#
# Convention : Reuss Voigt Hill
#
# Bulk Modulus (GPa) = 35.76704 38.31095 37.03899
# Shear Modulus (GPa) = 36.54683 40.12096 38.33389
#
# Velocity S-wave (km/s) = 3.94381 4.13216 4.03908
# Velocity P-wave (km/s) = 5.99666 6.25066 6.12498
#
# Compressibility (1/GPa) = 0.02795870
#
# Stress axis : x y z
#
# Youngs Moduli (GPa) = 80.22815 99.77837 91.82987
#
# Poissons Ratio (x) = 0.02638 0.27392
# Poissons Ratio (y) = 0.02121 -0.04944
# Poissons Ratio (z) = 0.23931 -0.05372
#
# Static dielectric constant tensor:
#      x y z
#    x 4.553730 -0.076850 -0.024010 
#    y -0.076850 4.525060 0.050030 
#    z -0.024010 0.050030 4.218750 
# 
# 
# High freq. dielectric constant tensor:
#      x y z
#    x 1.945700 -0.005750 -0.003590 
#    y -0.005750 1.943830 0.007900 
#    z -0.003590 0.007900 1.921830 
# 
# From -- ./inp_files/70438.got.cif
#   From: 2010.06.25/outbox.cif.g09.slc.cpg/sg2_36_cif.got.tgz:70438.got - 2010.06.27 13:26:56.
