data_PCOD8024128
_publ_section_title
;
Structure prediction by ZEFSAII (Michael W. Deem and Ramdas Pophale) SiO2 
 PCOD8024128
Probable space group: P -1
;
_chemical_formula_sum "Si O2"
_cell_formula_units_Z 16
_cell_length_a 16.691001
_cell_length_b 19.573740
_cell_length_c 11.716748
_cell_angle_alpha 43.433044
_cell_angle_beta 34.704571
_cell_angle_gamma 20.431175
_cell_volume 741.736954
_symmetry_space_group_name_H-M "P -1"
_symmetry_group_IT_number 2
_symmetry_cell_setting 'triclinic'
loop_
_space_group_symop_operation_xyz
x,y,z
-x,-y,-z
loop_
_atom_site_type_symbol
_atom_site_label
_atom_site_fract_x
_atom_site_fract_y
_atom_site_fract_z
Si Si1 0.102353 0.061643 0.587985
Si Si2 0.246396 0.283699 0.422390
Si Si3 0.109680 0.827727 0.840118
Si Si4 0.619221 0.456034 0.538250
Si Si5 0.149133 0.119012 0.704307
Si Si6 0.472042 0.847253 0.975321
Si Si7 0.866016 0.491263 0.102449
Si Si8 0.570164 0.923033 0.137128
O O1 0.018968 0.154980 0.696824
O O2 0.845689 0.237260 0.586073
O O3 0.171312 0.903342 0.709070
O O4 0.390334 0.936232 0.360421
O O5 0.110396 0.260895 0.580305
O O6 0.353503 0.275523 0.195325
O O7 0.000000 0.500000 0.500000
O O8 0.513333 0.111848 0.404577
O O9 0.375719 0.613503 0.727060
O O10 0.030850 0.815670 0.060383
O O11 0.855758 0.978833 0.863535
O O12 0.500000 0.500000 0.500000
O O13 0.779552 0.462596 0.331588
O O14 0.507541 0.941213 0.850775
O O15 0.586035 0.700070 0.112982
O O16 0.000000 0.500000 0.000000
O O17 0.094813 0.307669 0.967043
O O18 0.500000 0.000000 0.000000
#
# Coordination Sequence:
#
# PCOD8024128 Si02
#       8
#     2   2   2   2   2   2   2   2
#     4  12  25  45  70 100 137 177 230 277 340 405
#     4  10  23  42  71 101 132 173 224 283 342 400
#     4  11  27  44  69  95 140 185 221 280 337 400
#     4  12  27  44  65  99 137 182 228 270 334 408
#     4  10  24  46  67 102 135 172 231 280 337 400
#     4  11  24  43  65  98 134 175 224 275 344 400
#     4  12  24  39  66  99 129 170 225 269 335 400
#     4  12  23  42  68  98 136 174 219 291 331 393
#
# _framework density 21.570989000000001
#
# number of rings (size 3 to 8) (size 9 to 14) (size 15 to 20)
#    0.000    0.750    3.750    2.625    1.750    5.500 
#    0.000    0.000    0.000    0.000    0.000    0.000 
#    0.000    0.000    0.000    0.000    0.000    0.000 
#
# Total GULP energy -198484.277749 kJ/mol
# GULP energy per Si atom -12405.267359 kJ/mol
# Density = 2.152189 g / cm^3
# Si number density = 21.570989 Si / 1000 Ang^3
#
#
#
# Elastic Constant Matrix: (Units=GPa)
#
#
# Indices 1 2 3 4 5 6 
#
# 1 92.5590 11.2353 10.1060 3.6438 1.8740 1.1209
# 2 11.2353 85.7409 24.2503 13.4057 6.5048 11.5282
# 3 10.1060 24.2503 110.1454 13.2403 -2.6374 6.2711
# 4 3.6438 13.4057 13.2403 37.8028 4.1103 3.4882
# 5 1.8740 6.5048 -2.6374 4.1103 32.7389 -3.5509
# 6 1.1209 11.5282 6.2711 3.4882 -3.5509 36.6944
#
#
#
# Elastic Compliance Matrix: (Units=1/GPa)
#
#
# Indices 1 2 3 4 5 6 
#
# 1 0.011047 -0.001175 -0.000729 -0.000364 -0.000395 0.000153
# 2 -0.001175 0.013731 -0.002373 -0.003260 -0.002859 -0.003839
# 3 -0.000729 -0.002373 0.010067 -0.002739 0.001610 -0.000536
# 4 -0.000364 -0.003260 -0.002739 0.029118 -0.003381 -0.001592
# 5 -0.000395 -0.002859 0.001610 -0.003381 0.032131 0.004066
# 6 0.000153 -0.003839 -0.000536 -0.001592 0.004066 0.029090
#
#
# Mechanical properties :
#
#
# Convention : Reuss Voigt Hill
#
# Bulk Modulus (GPa) = 38.03828 42.18094 40.10961
# Shear Modulus (GPa) = 35.08743 37.63747 36.36245
#
# Velocity S-wave (km/s) = 4.03749 4.18163 4.11020
# Velocity P-wave (km/s) = 6.27753 6.55070 6.41557
#
# Compressibility (1/GPa) = 0.02628931
#
# Stress axis : x y z
#
# Youngs Moduli (GPa) = 90.52524 72.82772 99.33698
#
# Poissons Ratio (x) = 0.08557 0.07245
# Poissons Ratio (y) = 0.10636 0.23576
# Poissons Ratio (z) = 0.06602 0.17285
#
# Static dielectric constant tensor:
#      x y z
#    x 4.255050 0.031350 0.143430 
#    y 0.031350 4.014330 0.094870 
#    z 0.143430 0.094870 4.103490 
# 
# 
# High freq. dielectric constant tensor:
#      x y z
#    x 1.850280 0.002380 -0.001770 
#    y 0.002380 1.849700 -0.001650 
#    z -0.001770 -0.001650 1.860890 
# 
# From -- ./inp_files/467095.got.cif
#   From: 2010.06.25/outbox.cif.g09.slc.cpg/sg2_234_cif.got.tgz:467095.got - 2010.06.27 13:26:56.
