data_PCOD8024388
_publ_section_title
;
Structure prediction by ZEFSAII (Michael W. Deem and Ramdas Pophale) SiO2 
 PCOD8024388
Probable space group: P -1
;
_chemical_formula_sum "Si O2"
_cell_formula_units_Z 16
_cell_length_a 16.146880
_cell_length_b 15.430043
_cell_length_c 8.949692
_cell_angle_alpha 90.827065
_cell_angle_beta 105.867960
_cell_angle_gamma 153.673163
_cell_volume 754.980549
_symmetry_space_group_name_H-M "P -1"
_symmetry_group_IT_number 2
_symmetry_cell_setting 'triclinic'
loop_
_space_group_symop_operation_xyz
x,y,z
-x,-y,-z
loop_
_atom_site_type_symbol
_atom_site_label
_atom_site_fract_x
_atom_site_fract_y
_atom_site_fract_z
Si Si1 0.234396 0.147901 0.756106
Si Si2 0.849967 0.304888 0.064463
Si Si3 0.928626 0.215333 0.928537
Si Si4 0.660946 0.621880 0.439818
Si Si5 0.414568 0.248902 0.132848
Si Si6 0.457283 0.717338 0.081516
Si Si7 0.244863 0.807630 0.358868
Si Si8 0.365858 0.927493 0.740482
O O1 0.361758 0.335925 0.712516
O O2 0.324252 0.137646 0.741684
O O3 0.328035 0.244292 0.976408
O O4 0.945126 0.884020 0.623743
O O5 0.054086 0.573309 0.154492
O O6 0.796542 0.262831 0.212181
O O7 0.948777 0.301616 0.079550
O O8 0.604261 0.089822 0.838790
O O9 0.761988 0.102788 0.713498
O O10 0.813283 0.015124 0.911437
O O11 0.199278 0.446915 0.015806
O O12 0.500000 0.500000 0.500000
O O13 0.573280 0.443215 0.345137
O O14 0.564348 0.318456 0.110622
O O15 0.517477 0.871852 0.150309
O O16 0.500000 0.000000 0.500000
O O17 0.185634 0.763089 0.504906
#
# Coordination Sequence:
#
# PCOD8024388 Si02
#       8
#     2   2   2   2   2   2   2   2
#     4   9  24  46  69 102 137 169 217 265 332 400
#     4  11  22  43  64  91 130 179 234 273 335 397
#     4  12  23  44  68  93 138 180 229 277 331 396
#     4  11  24  45  77 106 133 168 218 269 323 415
#     4  10  25  46  66 102 135 175 214 269 340 397
#     4  10  23  43  66  92 137 178 213 277 333 382
#     4  12  24  38  61  96 123 176 235 283 329 383
#     4  11  22  42  66  90 132 177 225 286 333 384
#
# _framework density 21.192599999999999
#
# number of rings (size 3 to 8) (size 9 to 14) (size 15 to 20)
#    0.750    0.500    3.750    1.875    1.750    4.500 
#    6.750    0.000    0.000    0.000    0.000    0.000 
#    0.000    0.000    0.000    0.000    0.000    0.000 
#
# Total GULP energy -198261.984594 kJ/mol
# GULP energy per Si atom -12391.374037 kJ/mol
# Density = 2.114437 g / cm^3
# Si number density = 21.192600 Si / 1000 Ang^3
#
#
#
# Elastic Constant Matrix: (Units=GPa)
#
#
# Indices 1 2 3 4 5 6 
#
# 1 75.5270 28.6566 17.2738 6.7434 0.9317 11.5019
# 2 28.6566 113.5181 21.2343 0.7192 2.7254 7.7035
# 3 17.2738 21.2343 98.3669 -13.6231 -10.4146 5.0464
# 4 6.7434 0.7192 -13.6231 28.7207 -7.7184 4.0788
# 5 0.9317 2.7254 -10.4146 -7.7184 41.9451 5.1834
# 6 11.5019 7.7035 5.0464 4.0788 5.1834 35.8141
#
#
#
# Elastic Compliance Matrix: (Units=1/GPa)
#
#
# Indices 1 2 3 4 5 6 
#
# 1 0.016064 -0.003250 -0.002765 -0.004885 -0.001321 -0.003323
# 2 -0.003250 0.010027 -0.001735 -0.000490 -0.001018 -0.000665
# 3 -0.002765 -0.001735 0.012877 0.008528 0.005223 -0.002280
# 4 -0.004885 -0.000490 0.008528 0.043873 0.011088 -0.006129
# 5 -0.001321 -0.001018 0.005223 0.011088 0.027941 -0.005399
# 6 -0.003323 -0.000665 -0.002280 -0.006129 -0.005399 0.030933
#
#
# Mechanical properties :
#
#
# Convention : Reuss Voigt Hill
#
# Bulk Modulus (GPa) = 42.61243 46.86015 44.73629
# Shear Modulus (GPa) = 30.29598 35.97913 33.13755
#
# Velocity S-wave (km/s) = 3.78505 4.12481 3.95858
# Velocity P-wave (km/s) = 6.26522 6.69664 6.48452
#
# Compressibility (1/GPa) = 0.02346733
#
# Stress axis : x y z
#
# Youngs Moduli (GPa) = 62.24969 99.73190 77.65627
#
# Poissons Ratio (x) = 0.32412 0.21475
# Poissons Ratio (y) = 0.20230 0.13476
# Poissons Ratio (z) = 0.17214 0.17307
#
# Static dielectric constant tensor:
#      x y z
#    x 3.695240 0.155520 -0.033060 
#    y 0.155520 4.040040 -0.263060 
#    z -0.033060 -0.263060 3.899220 
# 
# 
# High freq. dielectric constant tensor:
#      x y z
#    x 1.822340 0.009910 -0.003730 
#    y 0.009910 1.850370 -0.013840 
#    z -0.003730 -0.013840 1.821800 
# 
# From -- ./inp_files/315467.got.cif
#   From: 2010.06.25/outbox.cif.g09.slc.cpg/sg2_158_cif.got.tgz:315467.got - 2010.06.27 13:26:56.
