data_PCOD8024472
_publ_section_title
;
Structure prediction by ZEFSAII (Michael W. Deem and Ramdas Pophale) SiO2 
 PCOD8024472
Probable space group: P -1
;
_chemical_formula_sum "Si O2"
_cell_formula_units_Z 16
_cell_length_a 5.231127
_cell_length_b 10.103358
_cell_length_c 19.416539
_cell_angle_alpha 129.366384
_cell_angle_beta 70.424837
_cell_angle_gamma 119.787756
_cell_volume 688.232812
_symmetry_space_group_name_H-M "P -1"
_symmetry_group_IT_number 2
_symmetry_cell_setting 'triclinic'
loop_
_space_group_symop_operation_xyz
x,y,z
-x,-y,-z
loop_
_atom_site_type_symbol
_atom_site_label
_atom_site_fract_x
_atom_site_fract_y
_atom_site_fract_z
Si Si1 0.178115 0.299573 0.036757
Si Si2 0.760316 0.640869 0.267187
Si Si3 0.790298 0.303049 0.482943
Si Si4 0.519170 0.252108 0.116271
Si Si5 0.864892 0.090304 0.874027
Si Si6 0.255350 0.045264 0.712643
Si Si7 0.707428 0.301404 0.855080
Si Si8 0.126467 0.219099 0.550204
O O1 0.322455 0.213836 0.052561
O O2 0.381384 0.519729 0.081408
O O3 0.841726 0.261124 0.073469
O O4 0.155405 0.193760 0.930187
O O5 0.505557 0.432955 0.216877
O O6 0.899187 0.680369 0.343666
O O7 0.974486 0.626287 0.184388
O O8 0.660375 0.807826 0.310138
O O9 0.769232 0.151446 0.377655
O O10 0.466006 0.298579 0.522785
O O11 0.000000 0.500000 0.500000
O O12 0.924312 0.266335 0.529461
O O13 0.379589 0.078858 0.121874
O O14 0.729139 0.241498 0.912785
O O15 0.954113 0.019497 0.770958
O O16 0.509826 0.121063 0.770651
O O17 0.000000 0.000000 0.500000
#
# Coordination Sequence:
#
# PCOD8024472 Si02
#       8
#     2   2   2   2   2   2   2   2
#     4  11  24  45  67  96 137 178 228 273 329 400
#     4  10  23  43  69  99 131 178 230 272 332 403
#     4  12  29  47  70 106 144 176 226 294 350 405
#     4  11  25  43  68  98 136 174 226 282 327 397
#     4  11  26  40  67 100 132 183 219 279 340 398
#     4  11  24  44  68  94 142 173 225 276 342 404
#     4  10  23  43  67  98 137 179 223 279 327 407
#     4  12  25  46  78 100 134 185 233 279 341 420
#
# _framework density 23.247945000000001
#
# number of rings (size 3 to 8) (size 9 to 14) (size 15 to 20)
#    0.000    1.000    2.500    2.625    8.750    1.500 
#    0.000    0.000    0.000    0.000    0.000    0.000 
#    0.000    0.000    0.000    0.000    0.000    0.000 
#
# Total GULP energy -198403.078791 kJ/mol
# GULP energy per Si atom -12400.192424 kJ/mol
# Density = 2.319503 g / cm^3
# Si number density = 23.247945 Si / 1000 Ang^3
#
#
#
# Elastic Constant Matrix: (Units=GPa)
#
#
# Indices 1 2 3 4 5 6 
#
# 1 71.6118 20.2883 2.7524 -9.9842 19.2167 0.4956
# 2 20.2883 148.5810 46.1957 3.8740 7.7047 -5.0972
# 3 2.7524 46.1957 121.3702 1.9133 23.9542 -1.0773
# 4 -9.9842 3.8740 1.9133 37.2680 -3.8285 8.2634
# 5 19.2167 7.7047 23.9542 -3.8285 35.7199 0.8275
# 6 0.4956 -5.0972 -1.0773 8.2634 0.8275 28.3751
#
#
#
# Elastic Compliance Matrix: (Units=1/GPa)
#
#
# Indices 1 2 3 4 5 6 
#
# 1 0.018097 -0.002935 0.002675 0.004325 -0.010393 -0.001698
# 2 -0.002935 0.008191 -0.003374 -0.001680 0.001852 0.001830
# 3 0.002675 -0.003374 0.011085 -0.000368 -0.008187 0.000114
# 4 0.004325 -0.001680 -0.000368 0.030429 0.001760 -0.009304
# 5 -0.010393 0.001852 -0.008187 0.001760 0.038900 -0.001443
# 6 -0.001698 0.001830 0.000114 -0.009304 -0.001443 0.038356
#
#
# Mechanical properties :
#
#
# Convention : Reuss Voigt Hill
#
# Bulk Modulus (GPa) = 33.21710 53.33730 43.27720
# Shear Modulus (GPa) = 30.79574 38.42770 34.61172
#
# Velocity S-wave (km/s) = 3.64354 4.07006 3.86269
# Velocity P-wave (km/s) = 5.65860 6.71415 6.20885
#
# Compressibility (1/GPa) = 0.03010498
#
# Stress axis : x y z
#
# Youngs Moduli (GPa) = 55.25918 122.09247 90.20866
#
# Poissons Ratio (x) = 0.35830 -0.24128
# Poissons Ratio (y) = 0.16217 0.30434
# Poissons Ratio (z) = -0.14780 0.41191
#
# Static dielectric constant tensor:
#      x y z
#    x 3.759200 0.277210 -0.020970 
#    y 0.277210 4.171060 0.129300 
#    z -0.020970 0.129300 4.393710 
# 
# 
# High freq. dielectric constant tensor:
#      x y z
#    x 1.921630 0.001680 0.006970 
#    y 0.001680 1.930180 -0.000530 
#    z 0.006970 -0.000530 1.926610 
# 
# From -- ./inp_files/53077.got.cif
#   From: 2010.06.25/outbox.cif.g09.slc.cpg/sg2_27_cif.got.tgz:53077.got - 2010.06.27 13:26:56.
