data_PCOD8024708
_publ_section_title
;
Structure prediction by ZEFSAII (Michael W. Deem and Ramdas Pophale) SiO2 
 PCOD8024708
Probable space group: P -1
;
_chemical_formula_sum "Si O2"
_cell_formula_units_Z 16
_cell_length_a 10.278271
_cell_length_b 20.669078
_cell_length_c 9.182110
_cell_angle_alpha 27.859610
_cell_angle_beta 129.343803
_cell_angle_gamma 127.726392
_cell_volume 697.794391
_symmetry_space_group_name_H-M "P -1"
_symmetry_group_IT_number 2
_symmetry_cell_setting 'triclinic'
loop_
_space_group_symop_operation_xyz
x,y,z
-x,-y,-z
loop_
_atom_site_type_symbol
_atom_site_label
_atom_site_fract_x
_atom_site_fract_y
_atom_site_fract_z
Si Si1 0.893955 0.870079 0.758001
Si Si2 0.830637 0.292147 0.811988
Si Si3 0.963562 0.860622 0.158735
Si Si4 0.324923 0.629181 0.182823
Si Si5 0.302636 0.383320 0.438062
Si Si6 0.668065 0.197986 0.433136
Si Si7 0.651151 0.438294 0.150910
Si Si8 0.589510 0.999002 0.217905
O O1 0.703312 0.871689 0.561937
O O2 0.894419 0.890094 0.892065
O O3 0.000000 0.000000 0.500000
O O4 0.977418 0.734436 0.036840
O O5 0.827454 0.364452 0.823337
O O6 0.780875 0.396441 0.446248
O O7 0.697562 0.149658 0.018320
O O8 0.821079 0.759809 0.344937
O O9 0.136639 0.795004 0.394069
O O10 0.000000 0.000000 0.000000
O O11 0.272510 0.485209 0.346814
O O12 0.499803 0.636706 0.381977
O O13 0.343618 0.760404 0.825794
O O14 0.256157 0.444403 0.127363
O O15 0.585100 0.303860 0.270417
O O16 0.561486 0.042599 0.687786
O O17 0.500000 0.500000 0.000000
O O18 0.500000 0.000000 0.000000
#
# Coordination Sequence:
#
# PCOD8024708 Si02
#       8
#     2   2   2   2   2   2   2   2
#     4  10  23  46  68 101 147 176 235 297 352 423
#     4  11  22  43  70 105 140 181 238 291 354 424
#     4  12  27  46  71 104 144 187 238 293 361 419
#     4  10  23  43  70  98 140 183 238 278 357 420
#     4  10  24  46  68  99 143 187 232 295 345 418
#     4  11  24  43  66 101 140 181 238 291 350 425
#     4  11  21  42  70  96 138 184 239 282 346 419
#     4  11  22  42  75 101 139 183 230 302 359 412
#
# _framework density 22.929392
#
# number of rings (size 3 to 8) (size 9 to 14) (size 15 to 20)
#    0.000    1.250    3.750    1.500    5.250    2.500 
#    4.500    1.875    0.000    0.000    0.000    0.000 
#    0.000    0.000    0.000    0.000    0.000    0.000 
#
# Total GULP energy -198371.921733 kJ/mol
# GULP energy per Si atom -12398.245108 kJ/mol
# Density = 2.287720 g / cm^3
# Si number density = 22.929392 Si / 1000 Ang^3
#
#
#
# Elastic Constant Matrix: (Units=GPa)
#
#
# Indices 1 2 3 4 5 6 
#
# 1 115.2821 54.4119 60.6458 7.5032 3.7523 -22.0564
# 2 54.4119 74.9205 49.9546 4.3746 -2.6750 -7.1759
# 3 60.6458 49.9546 156.8847 28.0414 -9.6555 -5.0953
# 4 7.5032 4.3746 28.0414 44.3635 5.5425 -7.3293
# 5 3.7523 -2.6750 -9.6555 5.5425 52.8902 -1.1530
# 6 -22.0564 -7.1759 -5.0953 -7.3293 -1.1530 34.6136
#
#
#
# Elastic Compliance Matrix: (Units=1/GPa)
#
#
# Indices 1 2 3 4 5 6 
#
# 1 0.016344 -0.008744 -0.003794 0.002180 -0.002339 0.008427
# 2 -0.008744 0.022139 -0.003919 0.001466 0.000844 -0.001221
# 3 -0.003794 -0.003919 0.010269 -0.006269 0.002538 -0.002961
# 4 0.002180 0.001466 -0.006269 0.027556 -0.003972 0.006473
# 5 -0.002339 0.000844 0.002538 -0.003972 0.019971 -0.001118
# 6 0.008427 -0.001221 -0.002961 0.006473 -0.001118 0.034905
#
#
# Mechanical properties :
#
#
# Convention : Reuss Voigt Hill
#
# Bulk Modulus (GPa) = 63.13812 75.23467 69.18639
# Shear Modulus (GPa) = 29.52031 38.51179 34.01605
#
# Velocity S-wave (km/s) = 3.59199 4.10272 3.85582
# Velocity P-wave (km/s) = 6.69319 7.43813 7.07547
#
# Compressibility (1/GPa) = 0.01583829
#
# Stress axis : x y z
#
# Youngs Moduli (GPa) = 61.18578 45.17009 97.38109
#
# Poissons Ratio (x) = 0.39497 0.36942
# Poissons Ratio (y) = 0.53501 0.38162
# Poissons Ratio (z) = 0.23211 0.17701
#
# Static dielectric constant tensor:
#      x y z
#    x 4.593890 -0.117450 0.377070 
#    y -0.117450 3.293410 0.445720 
#    z 0.377070 0.445720 4.466140 
# 
# 
# High freq. dielectric constant tensor:
#      x y z
#    x 1.913800 -0.005630 -0.004760 
#    y -0.005630 1.881090 0.011020 
#    z -0.004760 0.011020 1.927220 
# 
# From -- ./inp_files/222882.got.cif
#   From: 2010.06.25/outbox.cif.g09.slc.cpg/sg2_112_cif.got.tgz:222882.got - 2010.06.27 13:26:56.
