data_PCOD8024135
_publ_section_title
;
Structure prediction by ZEFSAII (Michael W. Deem and Ramdas Pophale) SiO2 
 PCOD8024135
Probable space group: P -1
;
_chemical_formula_sum "Si O2"
_cell_formula_units_Z 16
_cell_length_a 9.078771
_cell_length_b 18.446497
_cell_length_c 11.863053
_cell_angle_alpha 55.915408
_cell_angle_beta 117.879225
_cell_angle_gamma 152.357827
_cell_volume 761.239013
_symmetry_space_group_name_H-M "P -1"
_symmetry_group_IT_number 2
_symmetry_cell_setting 'triclinic'
loop_
_space_group_symop_operation_xyz
x,y,z
-x,-y,-z
loop_
_atom_site_type_symbol
_atom_site_label
_atom_site_fract_x
_atom_site_fract_y
_atom_site_fract_z
Si Si1 0.372279 0.659824 0.495979
Si Si2 0.118760 0.246548 0.735506
Si Si3 0.482115 0.243757 0.768837
Si Si4 0.642735 0.657982 0.888043
Si Si5 0.815759 0.194909 0.455310
Si Si6 0.637920 0.605384 0.682148
Si Si7 0.249854 0.955702 0.999883
Si Si8 0.226619 0.625129 0.713410
O O1 0.561055 0.796876 0.345680
O O2 0.446012 0.591825 0.555334
O O3 0.447495 0.723370 0.593720
O O4 0.000000 0.500000 0.500000
O O5 0.243995 0.212735 0.753894
O O6 0.413247 0.419278 0.760974
O O7 0.984979 0.253121 0.586185
O O8 0.839067 0.105371 0.849211
O O9 0.851602 0.436205 0.741474
O O10 0.406242 0.121814 0.915285
O O11 0.730262 0.687429 0.763419
O O12 0.388465 0.622879 0.851567
O O13 0.500000 0.500000 0.000000
O O14 0.943216 0.816136 0.932872
O O15 0.735082 0.258325 0.337756
O O16 0.031173 0.261590 0.372958
O O17 0.500000 0.000000 0.500000
O O18 0.500000 0.000000 0.000000
#
# Coordination Sequence:
#
# PCOD8024135 Si02
#       8
#     2   2   2   2   2   2   2   2
#     4   9  19  35  68  98 129 171 228 277 331 402
#     4  12  24  46  70  98 143 183 231 277 350 418
#     4  11  22  43  67 102 137 181 231 277 353 411
#     4  11  24  47  70 100 140 180 236 282 344 412
#     4  12  27  43  70 108 142 177 231 292 352 405
#     4  11  22  44  72 100 133 183 226 285 343 409
#     4  12  29  44  70 100 139 187 232 287 341 416
#     4  10  23  42  71 102 136 180 230 287 347 410
#
# _framework density 21.018367000000001
#
# number of rings (size 3 to 8) (size 9 to 14) (size 15 to 20)
#    0.000    1.000    3.750    3.000    8.750    0.000 
#    0.000    3.750    0.000    0.000    0.000    0.000 
#    0.000    0.000    0.000    0.000    0.000    0.000 
#
# Total GULP energy -198219.762750 kJ/mol
# GULP energy per Si atom -12388.735172 kJ/mol
# Density = 2.097053 g / cm^3
# Si number density = 21.018367 Si / 1000 Ang^3
#
#
#
# Elastic Constant Matrix: (Units=GPa)
#
#
# Indices 1 2 3 4 5 6 
#
# 1 163.3553 37.9652 56.1111 -8.2004 12.5718 22.9400
# 2 37.9652 85.9391 27.2519 -12.2359 8.4038 1.3355
# 3 56.1111 27.2519 101.2813 -13.1742 5.1363 12.8341
# 4 -8.2004 -12.2359 -13.1742 37.8574 2.3490 0.7908
# 5 12.5718 8.4038 5.1363 2.3490 47.7336 -2.5184
# 6 22.9400 1.3355 12.8341 0.7908 -2.5184 27.7367
#
#
#
# Elastic Compliance Matrix: (Units=1/GPa)
#
#
# Indices 1 2 3 4 5 6 
#
# 1 0.008829 -0.002544 -0.003360 0.000156 -0.001829 -0.005796
# 2 -0.002544 0.014029 -0.002130 0.003297 -0.001618 0.002173
# 3 -0.003360 -0.002130 0.013184 0.003273 -0.000497 -0.003358
# 4 0.000156 0.003297 0.003273 0.028871 -0.002545 -0.002856
# 5 -0.001829 -0.001618 -0.000497 -0.002545 0.022101 0.003900
# 6 -0.005796 0.002173 -0.003358 -0.002856 0.003900 0.042732
#
#
# Mechanical properties :
#
#
# Convention : Reuss Voigt Hill
#
# Bulk Modulus (GPa) = 50.06008 65.91468 57.98738
# Shear Modulus (GPa) = 32.79287 37.94871 35.37079
#
# Velocity S-wave (km/s) = 3.95422 4.25373 4.10671
# Velocity P-wave (km/s) = 6.68707 7.45347 7.08064
#
# Compressibility (1/GPa) = 0.01997600
#
# Stress axis : x y z
#
# Youngs Moduli (GPa) = 113.25768 71.27905 75.84805
#
# Poissons Ratio (x) = 0.18134 0.25482
# Poissons Ratio (y) = 0.28814 0.16155
# Poissons Ratio (z) = 0.38050 0.15182
#
# Static dielectric constant tensor:
#      x y z
#    x 4.371380 -0.016880 -0.218540 
#    y -0.016880 3.600460 0.102070 
#    z -0.218540 0.102070 4.470220 
# 
# 
# High freq. dielectric constant tensor:
#      x y z
#    x 1.846080 0.007440 0.002570 
#    y 0.007440 1.803560 -0.003810 
#    z 0.002570 -0.003810 1.832340 
# 
# From -- ./inp_files/218919.got.cif
#   From: 2010.06.25/outbox.cif.g09.slc.cpg/sg2_110_cif.got.tgz:218919.got - 2010.06.27 13:26:56.
