data_PCOD8024295
_publ_section_title
;
Structure prediction by ZEFSAII (Michael W. Deem and Ramdas Pophale) SiO2 
 PCOD8024295
Probable space group: P -1
;
_chemical_formula_sum "Si O2"
_cell_formula_units_Z 14
_cell_length_a 9.418845
_cell_length_b 13.259949
_cell_length_c 11.285280
_cell_angle_alpha 47.397086
_cell_angle_beta 77.645870
_cell_angle_gamma 44.948681
_cell_volume 630.513416
_symmetry_space_group_name_H-M "P -1"
_symmetry_group_IT_number 2
_symmetry_cell_setting 'triclinic'
loop_
_space_group_symop_operation_xyz
x,y,z
-x,-y,-z
loop_
_atom_site_type_symbol
_atom_site_label
_atom_site_fract_x
_atom_site_fract_y
_atom_site_fract_z
Si Si1 0.205837 0.943101 0.462672
Si Si2 0.905086 0.427036 0.109894
Si Si3 0.214099 0.469847 0.688493
Si Si4 0.766005 0.845020 0.101123
Si Si5 0.723019 0.137694 0.752298
Si Si6 0.524989 0.322150 0.149815
Si Si7 0.079966 0.103562 0.737203
O O1 0.294049 0.822322 0.416584
O O2 0.418104 0.772984 0.652255
O O3 0.000000 0.000000 0.500000
O O4 0.116547 0.163362 0.289488
O O5 0.759339 0.535960 0.170991
O O6 0.732214 0.536200 0.945124
O O7 0.000000 0.500000 0.000000
O O8 0.109782 0.394831 0.734789
O O9 0.463282 0.326649 0.702156
O O10 0.019294 0.717739 0.482559
O O11 0.812502 0.888024 0.181848
O O12 0.500000 0.000000 0.000000
O O13 0.842257 0.900200 0.943912
O O14 0.876744 0.145474 0.779180
O O15 0.716437 0.130782 0.174716
O O16 0.500000 0.500000 0.000000
#
# Coordination Sequence:
#
# PCOD8024295 Si02
#       7
#     2   2   2   2   2   2   2
#     4  12  23  48  71 106 147 182 240 293 353 427
#     4  12  26  48  73 106 144 186 240 295 355 422
#     4  11  24  47  70 104 148 183 231 297 351 421
#     4  10  23  43  64  97 140 183 228 287 348 414
#     4  11  23  44  72 103 141 185 234 296 348 419
#     4  12  25  45  78 102 142 195 236 293 359 422
#     4  12  23  44  73 107 136 186 243 288 352 423
#
# _framework density 22.204127
#
# number of rings (size 3 to 8) (size 9 to 14) (size 15 to 20)
#    0.000    0.571    4.286    3.857    0.000    1.714 
#   15.429    0.000    0.000    0.000    0.000    0.000 
#    0.000    0.000    0.000    0.000    0.000    0.000 
#
# Total GULP energy -173530.929785 kJ/mol
# GULP energy per Si atom -12395.066413 kJ/mol
# Density = 2.215359 g / cm^3
# Si number density = 22.204127 Si / 1000 Ang^3
#
#
#
# Elastic Constant Matrix: (Units=GPa)
#
#
# Indices 1 2 3 4 5 6 
#
# 1 155.5638 25.4040 78.1536 3.8587 4.3330 22.3383
# 2 25.4040 78.0586 34.7454 8.0164 12.4385 7.1033
# 3 78.1536 34.7454 173.6227 -5.5306 2.1956 7.3550
# 4 3.8587 8.0164 -5.5306 49.1631 12.6281 -5.0357
# 5 4.3330 12.4385 2.1956 12.6281 41.0335 3.6724
# 6 22.3383 7.1033 7.3550 -5.0357 3.6724 31.3407
#
#
#
# Elastic Compliance Matrix: (Units=1/GPa)
#
#
# Indices 1 2 3 4 5 6 
#
# 1 0.009386 -0.000670 -0.003902 -0.001810 0.000512 -0.005973
# 2 -0.000670 0.015197 -0.002664 -0.002040 -0.003564 -0.002252
# 3 -0.003902 -0.002664 0.008030 0.001808 0.000074 0.001782
# 4 -0.001810 -0.002040 0.001808 0.023430 -0.007027 0.005916
# 5 0.000512 -0.003564 0.000074 -0.007027 0.027911 -0.003974
# 6 -0.005973 -0.002252 0.001782 0.005916 -0.003974 0.037673
#
#
# Mechanical properties :
#
#
# Convention : Reuss Voigt Hill
#
# Bulk Modulus (GPa) = 55.12296 75.98345 65.55320
# Shear Modulus (GPa) = 35.17465 42.23694 38.70579
#
# Velocity S-wave (km/s) = 3.98445 4.36617 4.17967
# Velocity P-wave (km/s) = 6.78581 7.72739 7.27186
#
# Compressibility (1/GPa) = 0.01814126
#
# Stress axis : x y z
#
# Youngs Moduli (GPa) = 106.53665 65.80155 124.52670
#
# Poissons Ratio (x) = 0.04409 0.48592
# Poissons Ratio (y) = 0.07139 0.33176
# Poissons Ratio (z) = 0.41572 0.17531
#
# Static dielectric constant tensor:
#      x y z
#    x 4.363180 0.452210 -0.238680 
#    y 0.452210 4.081970 -0.045680 
#    z -0.238680 -0.045680 4.914840 
# 
# 
# High freq. dielectric constant tensor:
#      x y z
#    x 1.883120 0.014890 -0.009850 
#    y 0.014890 1.869020 0.001220 
#    z -0.009850 0.001220 1.897380 
# 
# From -- ./inp_files/389041.got.cif
#   From: 2010.06.25/outbox.cif.g09.slc.cpg/sg2_195_cif.got.tgz:389041.got - 2010.06.27 13:26:56.
