data_PCOD8024504
_publ_section_title
;
Structure prediction by ZEFSAII (Michael W. Deem and Ramdas Pophale) SiO2 
 PCOD8024504
Probable space group: P -1
;
_chemical_formula_sum "Si O2"
_cell_formula_units_Z 16
_cell_length_a 11.785839
_cell_length_b 8.353122
_cell_length_c 8.307633
_cell_angle_alpha 56.588320
_cell_angle_beta 84.231250
_cell_angle_gamma 98.100643
_cell_volume 660.012945
_symmetry_space_group_name_H-M "P -1"
_symmetry_group_IT_number 2
_symmetry_cell_setting 'triclinic'
loop_
_space_group_symop_operation_xyz
x,y,z
-x,-y,-z
loop_
_atom_site_type_symbol
_atom_site_label
_atom_site_fract_x
_atom_site_fract_y
_atom_site_fract_z
Si Si1 0.712963 0.538402 0.115260
Si Si2 0.470160 0.502953 0.316667
Si Si3 0.855327 0.607604 0.353400
Si Si4 0.152987 0.043268 0.625129
Si Si5 0.886768 0.263427 0.750914
Si Si6 0.330385 0.758479 0.009194
Si Si7 0.897662 0.896952 0.753458
Si Si8 0.400495 0.052079 0.592899
O O1 0.582807 0.566375 0.150818
O O2 0.764055 0.479133 0.309827
O O3 0.704792 0.383437 0.060546
O O4 0.802697 0.743237 0.951776
O O5 0.500000 0.500000 0.500000
O O6 0.389073 0.652410 0.199640
O O7 0.402888 0.277036 0.426827
O O8 0.809610 0.790462 0.332907
O O9 0.864527 0.466824 0.577656
O O10 0.984388 0.692970 0.209283
O O11 0.126040 0.145130 0.407587
O O12 0.263404 0.942517 0.636031
O O13 0.032471 0.884521 0.778849
O O14 0.786560 0.182348 0.942444
O O15 0.882261 0.112271 0.687891
O O16 0.416871 0.966628 0.818337
O O17 0.500000 0.000000 0.500000
#
# Coordination Sequence:
#
# PCOD8024504 Si02
#       8
#     2   2   2   2   2   2   2   2
#     4  12  25  44  69 103 139 190 231 295 359 423
#     4  12  28  51  72 101 147 190 240 301 358 415
#     4  10  23  44  70 100 146 182 232 296 361 415
#     4  10  23  46  70 100 145 186 227 298 361 417
#     4  10  23  43  68 106 139 186 237 291 349 433
#     4  12  28  47  72 105 145 192 238 294 356 426
#     4  10  24  41  74 102 138 186 234 291 362 423
#     4  12  27  46  74 104 141 190 240 292 351 430
#
# _framework density 24.241947
#
# number of rings (size 3 to 8) (size 9 to 14) (size 15 to 20)
#    0.000    1.000    1.250    4.125    8.750    4.000 
#    0.000    0.000    0.000    0.000    0.000    0.000 
#    0.000    0.000    0.000    0.000    0.000    0.000 
#
# Total GULP energy -198258.887351 kJ/mol
# GULP energy per Si atom -12391.180459 kJ/mol
# Density = 2.418677 g / cm^3
# Si number density = 24.241947 Si / 1000 Ang^3
#
#
#
# Elastic Constant Matrix: (Units=GPa)
#
#
# Indices 1 2 3 4 5 6 
#
# 1 162.3331 41.4966 53.3318 8.0976 -24.1177 -23.0773
# 2 41.4966 53.1141 10.5790 19.0477 -3.6975 0.5004
# 3 53.3318 10.5790 97.6389 -6.5366 -27.7567 -12.1211
# 4 8.0976 19.0477 -6.5366 45.2870 -0.1201 0.3804
# 5 -24.1177 -3.6975 -27.7567 -0.1201 50.1738 10.7685
# 6 -23.0773 0.5004 -12.1211 0.3804 10.7685 34.7372
#
#
#
# Elastic Compliance Matrix: (Units=1/GPa)
#
#
# Indices 1 2 3 4 5 6 
#
# 1 0.010152 -0.007420 -0.003718 0.000729 0.001166 0.005185
# 2 -0.007420 0.028602 -0.000614 -0.010750 -0.000704 -0.005220
# 3 -0.003718 -0.000614 0.014313 0.002999 0.005953 0.000655
# 4 0.000729 -0.010750 0.002999 0.026899 0.001053 0.001064
# 5 0.001166 -0.000704 0.005953 0.001053 0.024771 -0.004829
# 6 0.005185 -0.005220 0.000655 0.001064 -0.004829 0.034021
#
#
# Mechanical properties :
#
#
# Convention : Reuss Voigt Hill
#
# Bulk Modulus (GPa) = 33.82424 58.21120 46.01772
# Shear Modulus (GPa) = 29.04998 39.88484 34.46741
#
# Velocity S-wave (km/s) = 3.46545 4.06061 3.77478
# Velocity P-wave (km/s) = 5.47682 6.78597 6.16624
#
# Compressibility (1/GPa) = 0.02956459
#
# Stress axis : x y z
#
# Youngs Moduli (GPa) = 98.50054 34.96243 69.86548
#
# Poissons Ratio (x) = 0.25943 0.25973
# Poissons Ratio (y) = 0.73090 0.04288
# Poissons Ratio (z) = 0.36618 0.02146
#
# Static dielectric constant tensor:
#      x y z
#    x 4.652090 -0.053420 -0.296370 
#    y -0.053420 3.975280 0.066040 
#    z -0.296370 0.066040 4.545120 
# 
# 
# High freq. dielectric constant tensor:
#      x y z
#    x 1.978430 -0.009020 -0.016470 
#    y -0.009020 1.943730 0.004190 
#    z -0.016470 0.004190 1.974870 
# 
# From -- ./inp_files/242039.got.cif
#   From: 2010.06.25/outbox.cif.g09.slc.cpg/sg2_122_cif.got.tgz:242039.got - 2010.06.27 13:26:56.
