data_PCOD8024296
_publ_section_title
;
Structure prediction by ZEFSAII (Michael W. Deem and Ramdas Pophale) SiO2 
 PCOD8024296
Probable space group: P -1
;
_chemical_formula_sum "Si O2"
_cell_formula_units_Z 16
_cell_length_a 9.955735
_cell_length_b 15.641744
_cell_length_c 8.199397
_cell_angle_alpha 111.310877
_cell_angle_beta 91.334023
_cell_angle_gamma 43.074176
_cell_volume 751.231934
_symmetry_space_group_name_H-M "P -1"
_symmetry_group_IT_number 2
_symmetry_cell_setting 'triclinic'
loop_
_space_group_symop_operation_xyz
x,y,z
-x,-y,-z
loop_
_atom_site_type_symbol
_atom_site_label
_atom_site_fract_x
_atom_site_fract_y
_atom_site_fract_z
Si Si1 0.523104 0.884571 0.866624
Si Si2 0.959929 0.922746 0.514369
Si Si3 0.572482 0.375517 0.625474
Si Si4 0.163594 0.422289 0.181912
Si Si5 0.709093 0.626556 0.215554
Si Si6 0.204276 0.927772 0.044525
Si Si7 0.513883 0.614982 0.736475
Si Si8 0.450024 0.929314 0.524557
O O1 0.717649 0.732818 0.861455
O O2 0.552495 0.865521 0.660767
O O3 0.303604 0.950807 0.945416
O O4 0.500000 0.000000 0.000000
O O5 0.182651 0.752013 0.402630
O O6 0.849922 0.992197 0.734683
O O7 0.804837 0.949220 0.406420
O O8 0.000000 0.000000 0.500000
O O9 0.419313 0.396390 0.750144
O O10 0.496145 0.520899 0.734662
O O11 0.568381 0.336050 0.416716
O O12 0.248004 0.466827 0.315757
O O13 0.912045 0.537657 0.278698
O O14 0.208449 0.427966 0.001886
O O15 0.553081 0.795567 0.325530
O O16 0.369300 0.755213 0.948814
O O17 0.000000 0.000000 0.000000
O O18 0.500000 0.000000 0.500000
#
# Coordination Sequence:
#
# PCOD8024296 Si02
#       8
#     2   2   2   2   2   2   2   2
#     4  11  24  44  66  97 126 171 218 268 324 388
#     4  12  24  42  65 100 130 176 213 274 327 383
#     4  11  24  42  66  96 135 165 223 264 330 384
#     4  10  24  43  67  92 132 170 217 265 328 385
#     4  11  23  45  65  96 130 171 213 272 324 388
#     4  11  21  41  67  94 133 168 214 265 326 388
#     4  10  23  43  64  98 128 171 214 272 317 396
#     4  12  25  42  68  96 131 170 221 270 322 386
#
# _framework density 21.298349999999999
#
# number of rings (size 3 to 8) (size 9 to 14) (size 15 to 20)
#    0.000    1.000    2.500    5.250    1.750    3.500 
#    2.250    0.000    0.000    0.000    0.000    0.000 
#    0.000    0.000    0.000    0.000    0.000    0.000 
#
# Total GULP energy -198404.270402 kJ/mol
# GULP energy per Si atom -12400.266900 kJ/mol
# Density = 2.124987 g / cm^3
# Si number density = 21.298350 Si / 1000 Ang^3
#
#
#
# Elastic Constant Matrix: (Units=GPa)
#
#
# Indices 1 2 3 4 5 6 
#
# 1 156.1582 74.0566 17.3835 11.7850 -1.8581 2.8373
# 2 74.0566 112.4559 16.5216 -5.3370 -8.4860 -3.9126
# 3 17.3835 16.5216 49.8146 2.9979 -9.6169 8.3610
# 4 11.7850 -5.3370 2.9979 26.7283 1.3760 0.5040
# 5 -1.8581 -8.4860 -9.6169 1.3760 34.1845 -1.3971
# 6 2.8373 -3.9126 8.3610 0.5040 -1.3971 55.7159
#
#
#
# Elastic Compliance Matrix: (Units=1/GPa)
#
#
# Indices 1 2 3 4 5 6 
#
# 1 0.010278 -0.007016 -0.001018 -0.005737 -0.001273 -0.000843
# 2 -0.007016 0.014412 -0.002548 0.006105 0.002305 0.001754
# 3 -0.001018 -0.002548 0.023144 -0.002890 0.005799 -0.003429
# 4 -0.005737 0.006105 -0.002890 0.041537 -0.001251 0.000747
# 5 -0.001273 0.002305 0.005799 -0.001251 0.031444 0.000156
# 6 -0.000843 0.001754 -0.003429 0.000747 0.000156 0.018626
#
#
# Mechanical properties :
#
#
# Convention : Reuss Voigt Hill
#
# Bulk Modulus (GPa) = 37.49888 59.37245 48.43566
# Shear Modulus (GPa) = 29.49923 37.35687 33.42805
#
# Velocity S-wave (km/s) = 3.72566 4.19260 3.96601
# Velocity P-wave (km/s) = 6.01266 7.16758 6.61537
#
# Compressibility (1/GPa) = 0.02666746
#
# Stress axis : x y z
#
# Youngs Moduli (GPa) = 97.29810 69.38645 43.20778
#
# Poissons Ratio (x) = 0.48684 0.04401
# Poissons Ratio (y) = 0.68267 0.11011
# Poissons Ratio (z) = 0.09910 0.17682
#
# Static dielectric constant tensor:
#      x y z
#    x 4.109350 -0.207970 0.107260 
#    y -0.207970 3.973390 -0.294830 
#    z 0.107260 -0.294830 3.525160 
# 
# 
# High freq. dielectric constant tensor:
#      x y z
#    x 1.853990 -0.006870 0.002190 
#    y -0.006870 1.844700 -0.010080 
#    z 0.002190 -0.010080 1.825300 
# 
# From -- ./inp_files/203104.got.cif
#   From: 2010.06.25/outbox.cif.g09.slc.cpg/sg2_102_cif.got.tgz:203104.got - 2010.06.27 13:26:56.
