data_PCOD8024736
_publ_section_title
;
Structure prediction by ZEFSAII (Michael W. Deem and Ramdas Pophale) SiO2 
 PCOD8024736
Probable space group: P -1
;
_chemical_formula_sum "Si O2"
_cell_formula_units_Z 10
_cell_length_a 9.711221
_cell_length_b 8.104921
_cell_length_c 13.411103
_cell_angle_alpha 152.928018
_cell_angle_beta 128.772124
_cell_angle_gamma 49.635492
_cell_volume 362.281874
_symmetry_space_group_name_H-M "P -1"
_symmetry_group_IT_number 2
_symmetry_cell_setting 'triclinic'
loop_
_space_group_symop_operation_xyz
x,y,z
-x,-y,-z
loop_
_atom_site_type_symbol
_atom_site_label
_atom_site_fract_x
_atom_site_fract_y
_atom_site_fract_z
Si Si1 0.598580 0.805047 0.248617
Si Si2 0.781200 0.799089 0.027047
Si Si3 0.529512 0.555001 0.289072
Si Si4 0.001055 0.613889 0.843746
Si Si5 0.696455 0.338611 0.445455
O O1 0.566416 0.849386 0.379197
O O2 0.814332 0.684533 0.261701
O O3 0.543946 0.189151 0.363014
O O4 0.500000 0.500000 0.000000
O O5 0.646235 0.137934 0.083995
O O6 0.816082 0.969068 0.241686
O O7 0.682104 0.460061 0.812079
O O8 0.970567 0.662339 0.976830
O O9 0.601782 0.640271 0.478437
O O10 0.828105 0.490558 0.657531
O O11 0.000000 0.000000 0.000000
#
# Coordination Sequence:
#
# PCOD8024736 Si02
#       5
#     2   2   2   2   2
#     4  12  22  44  70  96 134 177 213 276 336 384
#     4   9  19  42  64  96 129 170 216 261 324 395
#     4   9  19  43  66  95 136 170 206 274 339 376
#     4  12  25  41  70 101 128 177 230 262 324 400
#     4  10  23  43  71  92 140 172 211 280 328 381
#
# _framework density 27.602816000000001
#
# number of rings (size 3 to 8) (size 9 to 14) (size 15 to 20)
#    1.200    0.400    4.000    0.600    0.000    4.800 
#    0.000    3.000    0.000    0.000    0.000    0.000 
#    0.000    0.000    0.000    0.000    0.000    0.000 
#
# Total GULP energy -124014.473255 kJ/mol
# GULP energy per Si atom -12401.447326 kJ/mol
# Density = 2.753999 g / cm^3
# Si number density = 27.602816 Si / 1000 Ang^3
#
#
#
# Elastic Constant Matrix: (Units=GPa)
#
#
# Indices 1 2 3 4 5 6 
#
# 1 226.5581 70.8528 58.7789 -0.0979 -13.6206 49.8931
# 2 70.8528 114.6232 53.3536 34.8551 -0.4913 34.5400
# 3 58.7789 53.3536 140.7414 -3.1963 14.5524 31.5056
# 4 -0.0979 34.8551 -3.1963 60.2150 15.1166 0.4341
# 5 -13.6206 -0.4913 14.5524 15.1166 52.6515 -8.0749
# 6 49.8931 34.5400 31.5056 0.4341 -8.0749 61.4446
#
#
#
# Elastic Compliance Matrix: (Units=1/GPa)
#
#
# Indices 1 2 3 4 5 6 
#
# 1 0.006286 -0.003085 -0.000897 0.001523 0.000980 -0.002792
# 2 -0.003085 0.017792 -0.005087 -0.011390 0.003375 -0.004364
# 3 -0.000897 -0.005087 0.010597 0.004771 -0.004967 -0.002532
# 4 0.001523 -0.011390 0.004771 0.025484 -0.008122 0.001473
# 5 0.000980 0.003375 -0.004967 -0.008122 0.023441 0.002992
# 6 -0.002792 -0.004364 -0.002532 0.001473 0.002992 0.022676
#
#
# Mechanical properties :
#
#
# Convention : Reuss Voigt Hill
#
# Bulk Modulus (GPa) = 60.47593 94.21039 77.34316
# Shear Modulus (GPa) = 38.48298 54.79138 46.63718
#
# Velocity S-wave (km/s) = 3.73791 4.46016 4.11491
# Velocity P-wave (km/s) = 6.37073 7.79287 7.11741
#
# Compressibility (1/GPa) = 0.01653550
#
# Stress axis : x y z
#
# Youngs Moduli (GPa) = 159.08342 56.20446 94.36589
#
# Poissons Ratio (x) = 0.17342 0.08469
# Poissons Ratio (y) = 0.49085 0.48003
# Poissons Ratio (z) = 0.14277 0.28591
#
# Static dielectric constant tensor:
#      x y z
#    x 5.375590 0.206900 -0.241900 
#    y 0.206900 5.497810 0.475540 
#    z -0.241900 0.475540 4.937470 
# 
# 
# High freq. dielectric constant tensor:
#      x y z
#    x 2.147420 0.011880 -0.037840 
#    y 0.011880 2.148440 0.033400 
#    z -0.037840 0.033400 2.120820 
# 
# From -- ./inp_files/148433.got.cif
#   From: 2010.06.25/outbox.cif.g09.slc.cpg/sg2_75_cif.got.tgz:148433.got - 2010.06.27 13:26:56.
