data_PCOD8024832
_publ_section_title
;
Structure prediction by ZEFSAII (Michael W. Deem and Ramdas Pophale) SiO2 
 PCOD8024832
Probable space group: P -1
;
_chemical_formula_sum "Si O2"
_cell_formula_units_Z 12
_cell_length_a 9.532441
_cell_length_b 9.732407
_cell_length_c 8.845162
_cell_angle_alpha 99.342680
_cell_angle_beta 48.051665
_cell_angle_gamma 74.676457
_cell_volume 518.740444
_symmetry_space_group_name_H-M "P -1"
_symmetry_group_IT_number 2
_symmetry_cell_setting 'triclinic'
loop_
_space_group_symop_operation_xyz
x,y,z
-x,-y,-z
loop_
_atom_site_type_symbol
_atom_site_label
_atom_site_fract_x
_atom_site_fract_y
_atom_site_fract_z
Si Si1 0.196678 0.249886 0.744260
Si Si2 0.865704 0.235572 0.399006
Si Si3 0.684769 0.086062 0.308242
Si Si4 0.960630 0.561001 0.808219
Si Si5 0.672902 0.041294 0.954160
Si Si6 0.482374 0.665459 0.081245
O O1 0.444776 0.210773 0.567359
O O2 0.075873 0.365996 0.706535
O O3 0.201830 0.080258 0.704631
O O4 0.058723 0.352947 0.004280
O O5 0.832152 0.168043 0.248691
O O6 0.659977 0.267265 0.653060
O O7 0.882403 0.396785 0.396728
O O8 0.088131 0.100133 0.292868
O O9 0.660989 0.048910 0.145483
O O10 0.723095 0.638898 0.920187
O O11 0.634441 0.210132 0.949041
O O12 0.500000 0.000000 0.000000
O O13 0.500000 0.500000 0.000000
#
# Coordination Sequence:
#
# PCOD8024832 Si02
#       6
#     2   2   2   2   2   2
#     4  10  23  43  75 103 145 177 242 298 347 412
#     4  12  26  48  75 105 142 192 244 288 358 426
#     4  11  24  45  77 110 134 197 240 290 352 429
#     4  11  24  47  69 108 144 184 236 304 348 418
#     4  12  26  48  72 107 150 186 235 295 359 429
#     4  12  29  48  70 106 146 190 239 294 366 424
#
# _framework density 23.132957000000001
#
# number of rings (size 3 to 8) (size 9 to 14) (size 15 to 20)
#    0.000    0.667    5.000    1.000    7.000    4.000 
#    0.000    0.000    0.000    0.000    0.000    0.000 
#    0.000    0.000    0.000    0.000    0.000    0.000 
#
# Total GULP energy -148792.912140 kJ/mol
# GULP energy per Si atom -12399.409345 kJ/mol
# Density = 2.308031 g / cm^3
# Si number density = 23.132957 Si / 1000 Ang^3
#
#
#
# Elastic Constant Matrix: (Units=GPa)
#
#
# Indices 1 2 3 4 5 6 
#
# 1 115.1254 50.4398 33.8563 -6.9668 -7.8073 7.2182
# 2 50.4398 169.8553 42.9186 -6.8842 -5.5313 -22.6814
# 3 33.8563 42.9186 67.6372 -2.0735 -14.1310 -2.4734
# 4 -6.9668 -6.8842 -2.0735 34.4235 1.4356 -7.3128
# 5 -7.8073 -5.5313 -14.1310 1.4356 24.0842 0.3072
# 6 7.2182 -22.6814 -2.4734 -7.3128 0.3072 42.6497
#
#
#
# Elastic Compliance Matrix: (Units=1/GPa)
#
#
# Indices 1 2 3 4 5 6 
#
# 1 0.011371 -0.002822 -0.003844 0.000723 0.000784 -0.003530
# 2 -0.002822 0.008455 -0.004021 0.002024 -0.001518 0.005099
# 3 -0.003844 -0.004021 0.021400 -0.000827 0.010441 -0.000464
# 4 0.000723 0.002024 -0.000827 0.030945 -0.001710 0.006224
# 5 0.000784 -0.001518 0.010441 -0.001710 0.047667 -0.000971
# 6 -0.003530 0.005099 -0.000464 0.006224 -0.000971 0.027803
#
#
# Mechanical properties :
#
#
# Convention : Reuss Voigt Hill
#
# Bulk Modulus (GPa) = 50.37486 67.44971 58.91229
# Shear Modulus (GPa) = 28.46846 35.25836 31.86341
#
# Velocity S-wave (km/s) = 3.51186 3.90829 3.71536
# Velocity P-wave (km/s) = 6.18609 7.04180 6.62777
#
# Compressibility (1/GPa) = 0.01985117
#
# Stress axis : x y z
#
# Youngs Moduli (GPa) = 87.93991 118.27556 46.72949
#
# Poissons Ratio (x) = 0.33377 0.17965
# Poissons Ratio (y) = 0.24816 0.18790
# Poissons Ratio (z) = 0.33808 0.47559
#
# Static dielectric constant tensor:
#      x y z
#    x 4.552820 -0.171630 -0.164030 
#    y -0.171630 4.503050 0.044370 
#    z -0.164030 0.044370 4.310480 
# 
# 
# High freq. dielectric constant tensor:
#      x y z
#    x 1.907700 -0.002170 -0.016980 
#    y -0.002170 1.927880 0.002900 
#    z -0.016980 0.002900 1.914490 
# 
# From -- ./inp_files/147009.got.cif
#   From: 2010.06.25/outbox.cif.g09.slc.cpg/sg2_74_cif.got.tgz:147009.got - 2010.06.27 13:26:56.
