data_PCOD8024610
_publ_section_title
;
Structure prediction by ZEFSAII (Michael W. Deem and Ramdas Pophale) SiO2 
 PCOD8024610
Probable space group: P -1
;
_chemical_formula_sum "Si O2"
_cell_formula_units_Z 14
_cell_length_a 26.158906
_cell_length_b 15.540164
_cell_length_c 16.728250
_cell_angle_alpha 153.201955
_cell_angle_beta 164.394027
_cell_angle_gamma 20.341263
_cell_volume 631.923229
_symmetry_space_group_name_H-M "P -1"
_symmetry_group_IT_number 2
_symmetry_cell_setting 'triclinic'
loop_
_space_group_symop_operation_xyz
x,y,z
-x,-y,-z
loop_
_atom_site_type_symbol
_atom_site_label
_atom_site_fract_x
_atom_site_fract_y
_atom_site_fract_z
Si Si1 0.732174 0.139415 0.248495
Si Si2 0.501309 0.926529 0.682423
Si Si3 0.477921 0.568982 0.115477
Si Si4 0.981211 0.219130 0.115786
Si Si5 0.207118 0.320678 0.230851
Si Si6 0.434237 0.560270 0.596557
Si Si7 0.030946 0.121688 0.927509
O O1 0.513561 0.348325 0.033089
O O2 0.714134 0.271504 0.410858
O O3 0.681391 0.945532 0.022364
O O4 0.000000 0.000000 0.500000
O O5 0.214665 0.178749 0.473762
O O6 0.561763 0.906096 0.661283
O O7 0.545499 0.681396 0.573991
O O8 0.698672 0.563201 0.476853
O O9 0.500000 0.500000 0.000000
O O10 0.204750 0.825081 0.933952
O O11 0.707370 0.481440 0.937560
O O12 0.043622 0.186693 0.089781
O O13 0.000000 0.000000 0.000000
O O14 0.114501 0.223168 0.072423
O O15 0.000000 0.500000 0.000000
O O16 0.259717 0.741906 0.411439
#
# Coordination Sequence:
#
# PCOD8024610 Si02
#       7
#     2   2   2   2   2   2   2
#     4  12  25  42  69 103 137 179 225 283 353 412
#     4  11  22  43  70  99 135 182 226 279 348 413
#     4  12  24  38  61 105 143 170 222 289 348 416
#     4  10  23  43  69  93 131 188 235 273 337 407
#     4  12  22  41  68  99 137 179 223 280 358 411
#     4  11  23  45  67  97 137 181 230 283 335 412
#     4  12  23  41  71  96 136 176 229 285 349 408
#
# _framework density 22.154589000000001
#
# number of rings (size 3 to 8) (size 9 to 14) (size 15 to 20)
#    0.000    0.571    4.286    5.143    2.000    0.571 
#    0.000    0.000    0.000    5.143    0.000    0.000 
#    0.000    0.000    0.000    0.000    0.000    0.000 
#
# Total GULP energy -173474.409643 kJ/mol
# GULP energy per Si atom -12391.029260 kJ/mol
# Density = 2.210416 g / cm^3
# Si number density = 22.154589 Si / 1000 Ang^3
#
#
#
# Elastic Constant Matrix: (Units=GPa)
#
#
# Indices 1 2 3 4 5 6 
#
# 1 63.8456 23.3564 11.9706 -15.7336 -2.3899 11.3573
# 2 23.3564 101.5764 60.8521 -15.5753 3.6506 -15.2449
# 3 11.9706 60.8521 155.6637 -22.8289 3.6450 -8.0797
# 4 -15.7336 -15.5753 -22.8289 43.6900 -9.8346 5.9910
# 5 -2.3899 3.6506 3.6450 -9.8346 37.8880 -6.0224
# 6 11.3573 -15.2449 -8.0797 5.9910 -6.0224 26.4388
#
#
#
# Elastic Compliance Matrix: (Units=1/GPa)
#
#
# Indices 1 2 3 4 5 6 
#
# 1 0.022987 -0.007154 0.001523 0.009034 0.001931 -0.015142
# 2 -0.007154 0.016189 -0.005372 -0.001131 -0.000037 0.011014
# 3 0.001523 -0.005372 0.008831 0.003583 0.000413 -0.001771
# 4 0.009034 -0.001131 0.003583 0.030347 0.006819 -0.008761
# 5 0.001931 -0.000037 0.000413 0.006819 0.028936 0.004321
# 6 -0.015142 0.011014 -0.001771 -0.008761 0.004321 0.053107
#
#
# Mechanical properties :
#
#
# Convention : Reuss Voigt Hill
#
# Bulk Modulus (GPa) = 38.46168 57.04929 47.75549
# Shear Modulus (GPa) = 26.16842 36.59714 31.38278
#
# Velocity S-wave (km/s) = 3.44055 4.06877 3.76777
# Velocity P-wave (km/s) = 5.76033 6.91951 6.36636
#
# Compressibility (1/GPa) = 0.02599991
#
# Stress axis : x y z
#
# Youngs Moduli (GPa) = 43.50361 61.77052 113.23952
#
# Poissons Ratio (x) = 0.44194 -0.17245
# Poissons Ratio (y) = 0.31125 0.60828
# Poissons Ratio (z) = -0.06625 0.33181
#
# Static dielectric constant tensor:
#      x y z
#    x 4.112000 -0.072960 0.129890 
#    y -0.072960 4.169420 -0.430830 
#    z 0.129890 -0.430830 4.488090 
# 
# 
# High freq. dielectric constant tensor:
#      x y z
#    x 1.862900 -0.004780 -0.003030 
#    y -0.004780 1.865530 -0.025420 
#    z -0.003030 -0.025420 1.885840 
# 
# From -- ./inp_files/272429.got.cif
#   From: 2010.06.25/outbox.cif.g09.slc.cpg/sg2_137_cif.got.tgz:272429.got - 2010.06.27 13:26:56.
