data_PCOD8024029
_publ_section_title
;
Structure prediction by ZEFSAII (Michael W. Deem and Ramdas Pophale) SiO2 
 PCOD8024029
Probable space group: P -1
;
_chemical_formula_sum "Si O2"
_cell_formula_units_Z 16
_cell_length_a 19.394002
_cell_length_b 19.459149
_cell_length_c 6.707813
_cell_angle_alpha 135.488314
_cell_angle_beta 43.353332
_cell_angle_gamma 152.311811
_cell_volume 788.252554
_symmetry_space_group_name_H-M "P -1"
_symmetry_group_IT_number 2
_symmetry_cell_setting 'triclinic'
loop_
_space_group_symop_operation_xyz
x,y,z
-x,-y,-z
loop_
_atom_site_type_symbol
_atom_site_label
_atom_site_fract_x
_atom_site_fract_y
_atom_site_fract_z
Si Si1 0.286137 0.878695 0.848495
Si Si2 0.655785 0.760791 0.920925
Si Si3 0.857287 0.034062 0.788711
Si Si4 0.671412 0.407413 0.837489
Si Si5 0.802372 0.710028 0.255528
Si Si6 0.170041 0.137328 0.840415
Si Si7 0.180942 0.636897 0.856592
Si Si8 0.618009 0.205444 0.845960
O O1 0.217038 0.767236 0.947139
O O2 0.311079 0.829292 0.503342
O O3 0.442575 0.047278 0.945984
O O4 0.162738 0.866557 0.008871
O O5 0.670895 0.676071 0.573500
O O6 0.760827 0.929334 0.969950
O O7 0.478211 0.661995 0.104117
O O8 0.702372 0.767160 0.058868
O O9 0.037405 0.144427 0.670193
O O10 0.793666 0.925960 0.512095
O O11 0.775431 0.420767 0.497387
O O12 0.615531 0.303432 0.928718
O O13 0.772777 0.572701 0.048408
O O14 0.813355 0.748745 0.080531
O O15 0.000000 0.000000 0.000000
O O16 0.279738 0.701838 0.983054
O O17 0.000000 0.500000 0.000000
#
# Coordination Sequence:
#
# PCOD8024029 Si02
#       8
#     2   2   2   2   2   2   2   2
#     4  10  23  42  69  93 119 171 208 257 317 368
#     4  11  22  43  63  91 128 166 215 259 303 374
#     4  11  22  38  67  94 122 167 215 255 308 370
#     4  11  26  42  66  92 128 174 204 256 325 371
#     4  11  24  39  62  96 129 166 213 254 311 371
#     4  11  21  39  62  92 128 162 209 263 301 362
#     4  11  27  43  63  99 129 158 211 265 315 381
#     4  10  23  46  65  91 129 158 214 263 308 380
#
# _framework density 20.298064
#
# number of rings (size 3 to 8) (size 9 to 14) (size 15 to 20)
#    0.000    1.250    3.750    1.500    5.250    4.500 
#    0.000    0.000    0.000    0.000    0.000    0.000 
#    0.000    0.000    0.000    0.000    0.000    0.000 
#
# Total GULP energy -198489.182473 kJ/mol
# GULP energy per Si atom -12405.573905 kJ/mol
# Density = 2.025186 g / cm^3
# Si number density = 20.298064 Si / 1000 Ang^3
#
#
#
# Elastic Constant Matrix: (Units=GPa)
#
#
# Indices 1 2 3 4 5 6 
#
# 1 122.7487 44.9500 52.7479 2.9791 4.9445 -6.7755
# 2 44.9500 119.6382 51.5240 0.9542 -2.4493 -8.8485
# 3 52.7479 51.5240 77.7071 2.2135 -3.4754 -9.3688
# 4 2.9791 0.9542 2.2135 34.4058 0.7141 -6.8137
# 5 4.9445 -2.4493 -3.4754 0.7141 38.5942 2.2516
# 6 -6.7755 -8.8485 -9.3688 -6.8137 2.2516 31.8683
#
#
#
# Elastic Compliance Matrix: (Units=1/GPa)
#
#
# Indices 1 2 3 4 5 6 
#
# 1 0.011858 -0.001388 -0.007207 -0.000463 -0.002252 0.000077
# 2 -0.001388 0.011898 -0.006818 0.000438 0.000248 0.001080
# 3 -0.007207 -0.006818 0.022761 -0.000090 0.002362 0.003080
# 4 -0.000463 0.000438 -0.000090 0.030416 -0.000867 0.006561
# 5 -0.002252 0.000248 0.002362 -0.000867 0.026547 -0.001777
# 6 0.000077 0.001080 0.003080 0.006561 -0.001777 0.034129
#
#
# Mechanical properties :
#
#
# Convention : Reuss Voigt Hill
#
# Bulk Modulus (GPa) = 63.73091 68.72643 66.22867
# Shear Modulus (GPa) = 28.79077 32.36512 30.57794
#
# Velocity S-wave (km/s) = 3.77025 3.99744 3.88551
# Velocity P-wave (km/s) = 7.10062 7.43224 7.26832
#
# Compressibility (1/GPa) = 0.01569097
#
# Stress axis : x y z
#
# Youngs Moduli (GPa) = 84.32803 84.04989 43.93421
#
# Poissons Ratio (x) = 0.11667 0.31665
# Poissons Ratio (y) = 0.11706 0.29953
# Poissons Ratio (z) = 0.60779 0.57303
#
# Static dielectric constant tensor:
#      x y z
#    x 3.812730 -0.109990 -0.005410 
#    y -0.109990 3.702060 -0.037040 
#    z -0.005410 -0.037040 3.646910 
# 
# 
# High freq. dielectric constant tensor:
#      x y z
#    x 1.806350 -0.003240 -0.004380 
#    y -0.003240 1.794820 -0.001460 
#    z -0.004380 -0.001460 1.791260 
# 
# From -- ./inp_files/38754.got.cif
#   From: 2010.06.25/outbox.cif.g09.slc.cpg/sg2_20_cif.got.tgz:38754.got - 2010.06.27 13:26:56.
