data_PCOD8024206
_publ_section_title
;
Structure prediction by ZEFSAII (Michael W. Deem and Ramdas Pophale) SiO2 
 PCOD8024206
Probable space group: P -1
;
_chemical_formula_sum "Si O2"
_cell_formula_units_Z 12
_cell_length_a 12.739914
_cell_length_b 21.275271
_cell_length_c 18.697023
_cell_angle_alpha 163.278584
_cell_angle_beta 26.597319
_cell_angle_gamma 160.325260
_cell_volume 489.382989
_symmetry_space_group_name_H-M "P -1"
_symmetry_group_IT_number 2
_symmetry_cell_setting 'triclinic'
loop_
_space_group_symop_operation_xyz
x,y,z
-x,-y,-z
loop_
_atom_site_type_symbol
_atom_site_label
_atom_site_fract_x
_atom_site_fract_y
_atom_site_fract_z
Si Si1 0.714917 0.564584 0.337173
Si Si2 0.663271 0.964533 0.106254
Si Si3 0.694975 0.798383 0.060516
Si Si4 0.402565 0.690758 0.259752
Si Si5 0.272998 0.653620 0.761766
Si Si6 0.628880 0.840039 0.434783
O O1 0.428601 0.543675 0.508567
O O2 0.810077 0.464185 0.234914
O O3 0.613882 0.353772 0.102401
O O4 0.003368 0.888995 0.489435
O O5 0.550369 0.147337 0.376798
O O6 0.726064 0.948499 0.132970
O O7 0.976689 0.128499 0.046555
O O8 0.419943 0.448935 0.842190
O O9 0.612487 0.905960 0.297086
O O10 0.501930 0.861060 0.459633
O O11 0.034750 0.478417 0.238968
O O12 0.500000 0.500000 0.000000
O O13 0.500000 0.000000 0.000000
#
# Coordination Sequence:
#
# PCOD8024206 Si02
#       6
#     2   2   2   2   2   2
#     4  11  27  42  68 105 138 177 230 278 344 406
#     4  11  25  42  67 101 139 177 226 279 338 406
#     4  10  24  42  67 100 134 177 231 275 339 400
#     4  10  23  42  73  98 130 180 232 275 330 405
#     4  11  25  44  70 102 140 179 223 286 344 401
#     4  11  24  44  69  98 136 182 224 281 336 401
#
# _framework density 24.520672999999999
#
# number of rings (size 3 to 8) (size 9 to 14) (size 15 to 20)
#    0.000    1.333    0.000    4.000   14.000    3.333 
#    0.000    0.000    0.000    0.000    0.000    0.000 
#    0.000    0.000    0.000    0.000    0.000    0.000 
#
# Total GULP energy -148833.893116 kJ/mol
# GULP energy per Si atom -12402.824426 kJ/mol
# Density = 2.446486 g / cm^3
# Si number density = 24.520673 Si / 1000 Ang^3
#
#
#
# Elastic Constant Matrix: (Units=GPa)
#
#
# Indices 1 2 3 4 5 6 
#
# 1 36.9950 7.5349 -2.8248 -15.8925 4.2310 15.3337
# 2 7.5349 130.1202 22.6787 -5.6593 17.7067 13.3829
# 3 -2.8248 22.6787 79.3224 -11.5026 24.2316 0.7073
# 4 -15.8925 -5.6593 -11.5026 44.5449 -8.3691 1.9768
# 5 4.2310 17.7067 24.2316 -8.3691 39.4962 2.8875
# 6 15.3337 13.3829 0.7073 1.9768 2.8875 42.7751
#
#
#
# Elastic Compliance Matrix: (Units=1/GPa)
#
#
# Indices 1 2 3 4 5 6 
#
# 1 0.040966 -0.000616 0.004887 0.015979 -0.002618 -0.015135
# 2 -0.000616 0.008599 -0.001660 0.000058 -0.002593 -0.002270
# 3 0.004887 -0.001660 0.016625 0.004181 -0.009013 -0.001092
# 4 0.015979 0.000058 0.004181 0.030054 0.002605 -0.007380
# 5 -0.002618 -0.002593 -0.009013 0.002605 0.032876 -0.000441
# 6 -0.015135 -0.002270 -0.001092 -0.007380 -0.000441 0.029903
#
#
# Mechanical properties :
#
#
# Convention : Reuss Voigt Hill
#
# Bulk Modulus (GPa) = 14.00330 33.46837 23.73584
# Shear Modulus (GPa) = 28.15247 39.96648 34.05947
#
# Velocity S-wave (km/s) = 3.39206 4.04159 3.73099
# Velocity P-wave (km/s) = 4.58962 5.95466 5.31613
#
# Compressibility (1/GPa) = 0.07141172
#
# Stress axis : x y z
#
# Youngs Moduli (GPa) = 24.41034 116.29382 60.15140
#
# Poissons Ratio (x) = 0.07165 -0.29395
# Poissons Ratio (y) = 0.01504 0.09984
# Poissons Ratio (z) = -0.11929 0.19303
#
# Static dielectric constant tensor:
#      x y z
#    x 4.613890 -0.217690 0.175250 
#    y -0.217690 4.643490 -0.416940 
#    z 0.175250 -0.416940 4.644340 
# 
# 
# High freq. dielectric constant tensor:
#      x y z
#    x 1.967230 0.000210 0.000610 
#    y 0.000210 1.982110 -0.012670 
#    z 0.000610 -0.012670 1.998980 
# 
# From -- ./inp_files/174242.got.cif
#   From: 2010.06.25/outbox.cif.g09.slc.cpg/sg2_88_cif.got.tgz:174242.got - 2010.06.27 13:26:56.
