data_PCOD8024456
_publ_section_title
;
Structure prediction by ZEFSAII (Michael W. Deem and Ramdas Pophale) SiO2 
 PCOD8024456
Probable space group: P -1
;
_chemical_formula_sum "Si O2"
_cell_formula_units_Z 14
_cell_length_a 8.412953
_cell_length_b 12.184045
_cell_length_c 9.303686
_cell_angle_alpha 111.985177
_cell_angle_beta 45.368345
_cell_angle_gamma 120.350396
_cell_volume 585.361492
_symmetry_space_group_name_H-M "P -1"
_symmetry_group_IT_number 2
_symmetry_cell_setting 'triclinic'
loop_
_space_group_symop_operation_xyz
x,y,z
-x,-y,-z
loop_
_atom_site_type_symbol
_atom_site_label
_atom_site_fract_x
_atom_site_fract_y
_atom_site_fract_z
Si Si1 0.428102 0.618423 0.132009
Si Si2 0.022882 0.938487 0.624666
Si Si3 0.864982 0.157860 0.920165
Si Si4 0.389098 0.151238 0.344887
Si Si5 0.951248 0.778938 0.860273
Si Si6 0.995974 0.584021 0.181704
Si Si7 0.287292 0.630890 0.555778
O O1 0.235992 0.626163 0.144386
O O2 0.343663 0.615042 0.347866
O O3 0.500000 0.500000 0.000000
O O4 0.666742 0.740635 0.011446
O O5 0.882013 0.036669 0.770928
O O6 0.283162 0.013948 0.426158
O O7 0.833792 0.829308 0.589905
O O8 0.077666 0.879242 0.704969
O O9 0.030131 0.287379 0.797028
O O10 0.593810 0.153124 0.102856
O O11 0.967014 0.150007 0.008152
O O12 0.492180 0.260051 0.453611
O O13 0.042087 0.660852 0.733130
O O14 0.771761 0.501987 0.385156
O O15 0.000000 0.500000 0.000000
#
# Coordination Sequence:
#
# PCOD8024456 Si02
#       7
#     2   2   2   2   2   2   2
#     4  12  25  45  71 106 137 179 232 281 347 410
#     4  11  24  42  67 103 133 181 237 280 333 407
#     4  11  23  44  67 100 140 181 224 286 342 401
#     4  10  23  43  67  96 138 181 228 278 343 406
#     4  11  24  42  69  99 140 178 231 282 340 411
#     4  12  23  46  72 100 143 179 226 285 345 414
#     4  11  25  46  70 101 141 181 225 282 354 404
#
# _framework density 23.916846
#
# number of rings (size 3 to 8) (size 9 to 14) (size 15 to 20)
#    0.000    0.857    4.286    3.000    0.000    5.714 
#    2.571    2.143    0.000    0.000    0.000    0.000 
#    0.000    0.000    0.000    0.000    0.000    0.000 
#
# Total GULP energy -173575.277322 kJ/mol
# GULP energy per Si atom -12398.234094 kJ/mol
# Density = 2.386241 g / cm^3
# Si number density = 23.916846 Si / 1000 Ang^3
#
#
#
# Elastic Constant Matrix: (Units=GPa)
#
#
# Indices 1 2 3 4 5 6 
#
# 1 121.5684 40.2821 27.6780 -16.0828 21.7372 19.7068
# 2 40.2821 60.3852 35.4328 -24.5381 11.2524 5.9608
# 3 27.6780 35.4328 117.7266 -13.5036 18.3322 7.7227
# 4 -16.0828 -24.5381 -13.5036 50.7432 -3.6215 7.2325
# 5 21.7372 11.2524 18.3322 -3.6215 41.8516 -11.2054
# 6 19.7068 5.9608 7.7227 7.2325 -11.2054 39.0950
#
#
#
# Elastic Compliance Matrix: (Units=1/GPa)
#
#
# Indices 1 2 3 4 5 6 
#
# 1 0.013030 -0.006063 0.000707 0.002035 -0.007496 -0.008308
# 2 -0.006063 0.028920 -0.005531 0.010853 -0.002027 -0.002849
# 3 0.000707 -0.005531 0.010953 0.000583 -0.004446 -0.003059
# 4 0.002035 0.010853 0.000583 0.026727 -0.004321 -0.008979
# 5 -0.007496 -0.002027 -0.004446 -0.004321 0.034063 0.015528
# 6 -0.008308 -0.002849 -0.003059 -0.008979 0.015528 0.036917
#
#
# Mechanical properties :
#
#
# Convention : Reuss Voigt Hill
#
# Bulk Modulus (GPa) = 32.12557 56.27400 44.19979
# Shear Modulus (GPa) = 27.35821 39.42378 33.39100
#
# Velocity S-wave (km/s) = 3.38581 4.06442 3.74053
# Velocity P-wave (km/s) = 5.36156 6.75323 6.09723
#
# Compressibility (1/GPa) = 0.03112785
#
# Stress axis : x y z
#
# Youngs Moduli (GPa) = 76.74442 34.57845 91.30233
#
# Poissons Ratio (x) = 0.20966 -0.06456
# Poissons Ratio (y) = 0.46532 0.50501
# Poissons Ratio (z) = -0.05427 0.19126
#
# Static dielectric constant tensor:
#      x y z
#    x 4.421570 0.196210 -0.058050 
#    y 0.196210 4.284680 -0.244100 
#    z -0.058050 -0.244100 4.612440 
# 
# 
# High freq. dielectric constant tensor:
#      x y z
#    x 1.954170 0.019870 0.014230 
#    y 0.019870 1.942620 -0.012870 
#    z 0.014230 -0.012870 1.963080 
# 
# From -- ./inp_files/188257.got.cif
#   From: 2010.06.25/outbox.cif.g09.slc.cpg/sg2_95_cif.got.tgz:188257.got - 2010.06.27 13:26:56.
