data_PCOD8024814
_publ_section_title
;
Structure prediction by ZEFSAII (Michael W. Deem and Ramdas Pophale) SiO2 
 PCOD8024814
Probable space group: P -1
;
_chemical_formula_sum "Si O2"
_cell_formula_units_Z 14
_cell_length_a 16.609852
_cell_length_b 10.734292
_cell_length_c 8.916589
_cell_angle_alpha 115.979173
_cell_angle_beta 149.128336
_cell_angle_gamma 48.344558
_cell_volume 571.966731
_symmetry_space_group_name_H-M "P -1"
_symmetry_group_IT_number 2
_symmetry_cell_setting 'triclinic'
loop_
_space_group_symop_operation_xyz
x,y,z
-x,-y,-z
loop_
_atom_site_type_symbol
_atom_site_label
_atom_site_fract_x
_atom_site_fract_y
_atom_site_fract_z
Si Si1 0.425029 0.336339 0.210176
Si Si2 0.551695 0.627171 0.397716
Si Si3 0.581513 0.959182 0.862011
Si Si4 0.251518 0.189133 0.255925
Si Si5 0.217117 0.941934 0.557412
Si Si6 0.872061 0.289831 0.583801
Si Si7 0.837779 0.301652 0.197408
O O1 0.422282 0.416064 0.406618
O O2 0.340694 0.226344 0.037151
O O3 0.657691 0.195341 0.451145
O O4 0.277567 0.502439 0.953017
O O5 0.658073 0.707883 0.558213
O O6 0.646278 0.452303 0.357502
O O7 0.313007 0.746196 0.047723
O O8 0.684119 0.936161 0.853515
O O9 0.342590 0.075448 0.496769
O O10 0.614953 0.068137 0.083827
O O11 0.010840 0.307254 0.927921
O O12 0.032917 0.148400 0.329165
O O13 0.105399 0.886257 0.446576
O O14 0.919819 0.300140 0.492501
#
# Coordination Sequence:
#
# PCOD8024814 Si02
#       7
#     2   2   2   2   2   2   2
#     4  11  27  48  71 103 146 189 231 285 358 417
#     4  11  25  48  70 104 145 184 235 288 351 420
#     4  10  23  46  69 104 142 184 233 294 342 423
#     4  10  23  43  74 101 140 184 238 288 350 410
#     4  12  26  45  74 104 143 183 241 283 355 415
#     4  12  25  45  75 109 135 185 240 295 346 412
#     4  12  26  45  74 107 144 182 235 294 349 417
#
# _framework density 24.476949000000001
#
# number of rings (size 3 to 8) (size 9 to 14) (size 15 to 20)
#    0.000    0.857    2.857    3.000    8.000    2.286 
#    0.000    0.000    0.000    0.000    0.000    0.000 
#    0.000    0.000    0.000    0.000    0.000    0.000 
#
# Total GULP energy -173520.794208 kJ/mol
# GULP energy per Si atom -12394.342443 kJ/mol
# Density = 2.442124 g / cm^3
# Si number density = 24.476949 Si / 1000 Ang^3
#
#
#
# Elastic Constant Matrix: (Units=GPa)
#
#
# Indices 1 2 3 4 5 6 
#
# 1 67.0608 41.0506 15.0505 -19.5444 3.1769 4.4247
# 2 41.0506 97.6788 35.9442 -20.6115 -4.8294 4.0023
# 3 15.0505 35.9442 128.1264 -10.5817 4.4847 15.3200
# 4 -19.5444 -20.6115 -10.5817 45.0576 0.2807 10.8591
# 5 3.1769 -4.8294 4.4847 0.2807 25.7931 -4.8759
# 6 4.4247 4.0023 15.3200 10.8591 -4.8759 46.1524
#
#
#
# Elastic Compliance Matrix: (Units=1/GPa)
#
#
# Indices 1 2 3 4 5 6 
#
# 1 0.022406 -0.008372 0.000966 0.007108 -0.005325 -0.003978
# 2 -0.008372 0.015794 -0.003444 0.002649 0.004642 0.000444
# 3 0.000966 -0.003444 0.009369 0.001953 -0.003112 -0.003692
# 4 0.007108 0.002649 0.001953 0.029055 -0.002676 -0.008679
# 5 -0.005325 0.004642 -0.003112 -0.002676 0.042040 0.006212
# 6 -0.003978 0.000444 -0.003692 -0.008679 0.006212 0.025934
#
#
# Mechanical properties :
#
#
# Convention : Reuss Voigt Hill
#
# Bulk Modulus (GPa) = 38.65770 52.99519 45.82644
# Shear Modulus (GPa) = 28.58413 36.78867 32.68640
#
# Velocity S-wave (km/s) = 3.42101 3.88105 3.65827
# Velocity P-wave (km/s) = 5.60645 6.46386 6.05036
#
# Compressibility (1/GPa) = 0.02586807
#
# Stress axis : x y z
#
# Youngs Moduli (GPa) = 44.63028 63.31617 106.73220
#
# Poissons Ratio (x) = 0.53010 -0.10307
# Poissons Ratio (y) = 0.37366 0.36759
# Poissons Ratio (z) = -0.04310 0.21806
#
# Static dielectric constant tensor:
#      x y z
#    x 4.223600 -0.031650 0.019770 
#    y -0.031650 4.356210 -0.143300 
#    z 0.019770 -0.143300 4.581240 
# 
# 
# High freq. dielectric constant tensor:
#      x y z
#    x 1.960810 0.001000 0.006040 
#    y 0.001000 1.977570 -0.000490 
#    z 0.006040 -0.000490 1.974210 
# 
# From -- ./inp_files/333566.got.cif
#   From: 2010.06.25/outbox.cif.g09.slc.cpg/sg2_167_cif.got.tgz:333566.got - 2010.06.27 13:26:56.
