data_PCOD8024473
_publ_section_title
;
Structure prediction by ZEFSAII (Michael W. Deem and Ramdas Pophale) SiO2 
 PCOD8024473
Probable space group: P -1
;
_chemical_formula_sum "Si O2"
_cell_formula_units_Z 12
_cell_length_a 17.456572
_cell_length_b 14.454675
_cell_length_c 12.025863
_cell_angle_alpha 30.070170
_cell_angle_beta 160.147509
_cell_angle_gamma 152.096749
_cell_volume 470.961964
_symmetry_space_group_name_H-M "P -1"
_symmetry_group_IT_number 2
_symmetry_cell_setting 'triclinic'
loop_
_space_group_symop_operation_xyz
x,y,z
-x,-y,-z
loop_
_atom_site_type_symbol
_atom_site_label
_atom_site_fract_x
_atom_site_fract_y
_atom_site_fract_z
Si Si1 0.890586 0.977245 0.659249
Si Si2 0.589013 0.138869 0.727306
Si Si3 0.560264 0.811406 0.754616
Si Si4 0.531442 0.696967 0.065748
Si Si5 0.746521 0.534529 0.867962
Si Si6 0.962754 0.305334 0.249951
O O1 0.664206 0.936513 0.472977
O O2 0.908602 0.770292 0.863386
O O3 0.848891 0.082249 0.381420
O O4 0.143820 0.122430 0.913961
O O5 0.557489 0.267783 0.444835
O O6 0.816814 0.296945 0.944835
O O7 0.636848 0.941251 0.967070
O O8 0.500000 0.000000 0.500000
O O9 0.445086 0.648065 0.868233
O O10 0.313786 0.578752 0.977065
O O11 0.751973 0.627456 0.462854
O O12 0.500000 0.500000 0.500000
O O13 0.925409 0.459312 0.124396
#
# Coordination Sequence:
#
# PCOD8024473 Si02
#       6
#     2   2   2   2   2   2
#     4  11  22  42  72  97 132 179 220 277 331 392
#     4  11  19  41  72  95 131 182 219 268 338 394
#     4   9  22  42  68  95 133 182 222 266 334 400
#     4  10  23  43  67  98 138 173 223 274 327 399
#     4  12  24  42  68 106 133 168 228 276 336 389
#     4  11  23  44  71  99 136 174 218 283 329 392
#
# _framework density 25.479766999999999
#
# number of rings (size 3 to 8) (size 9 to 14) (size 15 to 20)
#    0.000    1.333    3.333    2.500    0.000    3.333 
#    9.000    4.167    0.000    2.000    0.000    0.000 
#    0.000    0.000    0.000    0.000    0.000    0.000 
#
# Total GULP energy -148833.164035 kJ/mol
# GULP energy per Si atom -12402.763670 kJ/mol
# Density = 2.542177 g / cm^3
# Si number density = 25.479767 Si / 1000 Ang^3
#
#
#
# Elastic Constant Matrix: (Units=GPa)
#
#
# Indices 1 2 3 4 5 6 
#
# 1 150.5486 34.6382 66.7567 4.1062 -25.0065 -0.9942
# 2 34.6382 61.3828 28.9341 -12.7825 -9.0097 -7.8926
# 3 66.7567 28.9341 135.7296 0.4297 -15.0212 -10.3056
# 4 4.1062 -12.7825 0.4297 37.1879 -3.0611 -4.9183
# 5 -25.0065 -9.0097 -15.0212 -3.0611 63.9796 -5.8422
# 6 -0.9942 -7.8926 -10.3056 -4.9183 -5.8422 26.6522
#
#
#
# Elastic Compliance Matrix: (Units=1/GPa)
#
#
# Indices 1 2 3 4 5 6 
#
# 1 0.009694 -0.004248 -0.003824 -0.002649 0.001944 -0.002438
# 2 -0.004248 0.023030 -0.001970 0.009684 0.002332 0.008198
# 3 -0.003824 -0.001970 0.010023 0.000149 0.000896 0.003374
# 4 -0.002649 0.009684 0.000149 0.031969 0.002745 0.009328
# 5 0.001944 0.002332 0.000896 0.002745 0.017559 0.005465
# 6 -0.002438 0.008198 0.003374 0.009328 0.005465 0.044081
#
#
# Mechanical properties :
#
#
# Convention : Reuss Voigt Hill
#
# Bulk Modulus (GPa) = 44.12400 67.59099 55.85750
# Shear Modulus (GPa) = 30.48861 40.05274 35.27068
#
# Velocity S-wave (km/s) = 3.46292 3.96908 3.72460
# Velocity P-wave (km/s) = 5.77442 6.89853 6.36135
#
# Compressibility (1/GPa) = 0.02266340
#
# Stress axis : x y z
#
# Youngs Moduli (GPa) = 103.15243 43.42175 99.76712
#
# Poissons Ratio (x) = 0.18444 0.38152
# Poissons Ratio (y) = 0.43815 0.19658
# Poissons Ratio (z) = 0.39447 0.08556
#
# Static dielectric constant tensor:
#      x y z
#    x 5.193560 -0.100170 -0.360560 
#    y -0.100170 4.412290 -0.272180 
#    z -0.360560 -0.272180 4.971290 
# 
# 
# High freq. dielectric constant tensor:
#      x y z
#    x 2.039400 0.009090 -0.000650 
#    y 0.009090 2.000630 -0.021150 
#    z -0.000650 -0.021150 2.031760 
# 
# From -- ./inp_files/162805.got.cif
#   From: 2010.06.25/outbox.cif.g09.slc.cpg/sg2_82_cif.got.tgz:162805.got - 2010.06.27 13:26:56.
