data_PCOD8024744
_publ_section_title
;
Structure prediction by ZEFSAII (Michael W. Deem and Ramdas Pophale) SiO2 
 PCOD8024744
Probable space group: P -1
;
_chemical_formula_sum "Si O2"
_cell_formula_units_Z 16
_cell_length_a 8.433212
_cell_length_b 21.045237
_cell_length_c 18.039657
_cell_angle_alpha 18.155041
_cell_angle_beta 52.454157
_cell_angle_gamma 61.549158
_cell_volume 719.449507
_symmetry_space_group_name_H-M "P -1"
_symmetry_group_IT_number 2
_symmetry_cell_setting 'triclinic'
loop_
_space_group_symop_operation_xyz
x,y,z
-x,-y,-z
loop_
_atom_site_type_symbol
_atom_site_label
_atom_site_fract_x
_atom_site_fract_y
_atom_site_fract_z
Si Si1 0.005072 0.637063 0.273435
Si Si2 0.256651 0.140240 0.267347
Si Si3 0.197261 0.301480 0.958154
Si Si4 0.265202 0.831616 0.782663
Si Si5 0.288866 0.150235 0.943856
Si Si6 0.615057 0.971500 0.323773
Si Si7 0.537425 0.488619 0.914576
Si Si8 0.778752 0.316945 0.568563
O O1 0.000000 0.500000 0.500000
O O2 0.806687 0.717402 0.231477
O O3 0.979013 0.475180 0.389254
O O4 0.241902 0.854996 0.972539
O O5 0.381423 0.976129 0.405385
O O6 0.331256 0.295380 0.999821
O O7 0.329332 0.293711 0.149841
O O8 0.000000 0.000000 0.500000
O O9 0.241921 0.171949 0.019717
O O10 0.244588 0.553186 0.642014
O O11 0.940614 0.183996 0.190309
O O12 0.500000 0.000000 0.500000
O O13 0.219280 0.926152 0.768069
O O14 0.259461 0.583023 0.071191
O O15 0.550389 0.242116 0.760850
O O16 0.172149 0.890595 0.241618
O O17 0.582523 0.716686 0.604584
O O18 0.500000 0.500000 0.000000
#
# Coordination Sequence:
#
# PCOD8024744 Si02
#       8
#     2   2   2   2   2   2   2   2
#     4  11  24  41  68  96 138 178 223 283 341 398
#     4  11  28  45  64 103 143 178 226 280 339 405
#     4  11  22  42  69  92 137 176 219 280 340 400
#     4  11  21  41  68  97 129 173 223 274 331 402
#     4  10  23  43  71  98 130 174 227 279 345 404
#     4  11  24  43  65  98 134 180 223 277 341 404
#     4  11  25  44  72  96 136 181 230 279 339 406
#     4  10  23  44  69 102 129 174 230 278 341 412
#
# _framework density 22.239225999999999
#
# number of rings (size 3 to 8) (size 9 to 14) (size 15 to 20)
#    0.000    1.250    3.750    3.000    5.250    2.000 
#    2.250    0.000    0.000    0.000    0.000    0.000 
#    0.000    0.000    0.000    0.000    0.000    0.000 
#
# Total GULP energy -198243.404179 kJ/mol
# GULP energy per Si atom -12390.212761 kJ/mol
# Density = 2.218861 g / cm^3
# Si number density = 22.239226 Si / 1000 Ang^3
#
#
#
# Elastic Constant Matrix: (Units=GPa)
#
#
# Indices 1 2 3 4 5 6 
#
# 1 100.3400 40.9937 30.9639 -8.2566 17.1168 14.3474
# 2 40.9937 88.5718 40.9512 -18.0795 9.6104 1.7866
# 3 30.9639 40.9512 124.4049 -17.1115 11.8908 0.0251
# 4 -8.2566 -18.0795 -17.1115 42.9314 -6.1463 3.0504
# 5 17.1168 9.6104 11.8908 -6.1463 42.0377 7.6869
# 6 14.3474 1.7866 0.0251 3.0504 7.6869 29.5726
#
#
#
# Elastic Compliance Matrix: (Units=1/GPa)
#
#
# Indices 1 2 3 4 5 6 
#
# 1 0.013906 -0.005373 -0.001428 -0.000193 -0.003032 -0.005613
# 2 -0.005373 0.016222 -0.003392 0.004338 -0.000151 0.001221
# 3 -0.001428 -0.003392 0.009911 0.001981 -0.001346 0.001035
# 4 -0.000193 0.004338 0.001981 0.026579 0.003092 -0.003716
# 5 -0.003032 -0.000151 -0.001346 0.003092 0.026959 -0.005845
# 6 -0.005613 0.001221 0.001035 -0.003716 -0.005845 0.038366
#
#
# Mechanical properties :
#
#
# Convention : Reuss Voigt Hill
#
# Bulk Modulus (GPa) = 50.88115 59.90381 55.39248
# Shear Modulus (GPa) = 31.47022 36.26886 33.86954
#
# Velocity S-wave (km/s) = 3.76583 4.04276 3.90675
# Velocity P-wave (km/s) = 6.46818 6.98473 6.73141
#
# Compressibility (1/GPa) = 0.01965364
#
# Stress axis : x y z
#
# Youngs Moduli (GPa) = 71.91270 61.64285 100.89594
#
# Poissons Ratio (x) = 0.33120 0.14408
# Poissons Ratio (y) = 0.38638 0.34223
# Poissons Ratio (z) = 0.10269 0.20909
#
# Static dielectric constant tensor:
#      x y z
#    x 4.142650 -0.061430 0.161840 
#    y -0.061430 4.243070 0.146470 
#    z 0.161840 0.146470 4.502630 
# 
# 
# High freq. dielectric constant tensor:
#      x y z
#    x 1.874530 -0.012250 0.005680 
#    y -0.012250 1.868030 0.003700 
#    z 0.005680 0.003700 1.888320 
# 
# From -- ./inp_files/562514.got.cif
#   From: 2010.06.25/outbox.cif.g09.slc.cpg/sg2_282_cif.got.tgz:562514.got - 2010.06.27 13:26:56.
