data_PCOD8024422
_publ_section_title
;
Structure prediction by ZEFSAII (Michael W. Deem and Ramdas Pophale) SiO2 
 PCOD8024422
Probable space group: P -1
;
_chemical_formula_sum "Si O2"
_cell_formula_units_Z 14
_cell_length_a 6.262971
_cell_length_b 14.907581
_cell_length_c 15.071818
_cell_angle_alpha 152.847773
_cell_angle_beta 83.341059
_cell_angle_gamma 86.642341
_cell_volume 595.855413
_symmetry_space_group_name_H-M "P -1"
_symmetry_group_IT_number 2
_symmetry_cell_setting 'triclinic'
loop_
_space_group_symop_operation_xyz
x,y,z
-x,-y,-z
loop_
_atom_site_type_symbol
_atom_site_label
_atom_site_fract_x
_atom_site_fract_y
_atom_site_fract_z
Si Si1 0.885338 0.819486 0.851026
Si Si2 0.990629 0.043590 0.367675
Si Si3 0.318723 0.405616 0.466373
Si Si4 0.216248 0.368594 0.629327
Si Si5 0.473295 0.735604 0.121173
Si Si6 0.824818 0.808634 0.039318
Si Si7 0.546991 0.258183 0.678079
O O1 0.705463 0.797141 0.764432
O O2 0.748792 0.853797 0.980698
O O3 0.077534 0.592368 0.643848
O O4 0.000000 0.000000 0.000000
O O5 0.047867 0.243625 0.512003
O O6 0.800345 0.098072 0.501988
O O7 0.201183 0.841432 0.212853
O O8 0.890385 0.999043 0.240732
O O9 0.500000 0.500000 0.500000
O O10 0.379036 0.342474 0.511330
O O11 0.369812 0.261448 0.612244
O O12 0.054844 0.606040 0.865110
O O13 0.530860 0.805607 0.278498
O O14 0.603054 0.811272 0.105794
O O15 0.560410 0.486763 0.890693
#
# Coordination Sequence:
#
# PCOD8024422 Si02
#       7
#     2   2   2   2   2   2   2
#     4  10  23  43  67 101 137 176 223 281 338 408
#     4  12  24  43  70  98 133 184 225 273 336 402
#     4  10  24  41  68  99 135 176 226 279 342 404
#     4  11  24  43  67  99 137 178 224 284 337 400
#     4  11  25  44  68 101 133 183 227 276 334 403
#     4  11  24  42  69  99 139 176 229 275 337 407
#     4  11  25  44  69  97 140 177 226 281 335 396
#
# _framework density 23.495633999999999
#
# number of rings (size 3 to 8) (size 9 to 14) (size 15 to 20)
#    0.000    1.143    2.857    2.143    2.000    8.000 
#    0.000    0.000    0.000    0.000    0.000    0.000 
#    0.000    0.000    0.000    0.000    0.000    0.000 
#
# Total GULP energy -173544.239868 kJ/mol
# GULP energy per Si atom -12396.017133 kJ/mol
# Density = 2.344216 g / cm^3
# Si number density = 23.495634 Si / 1000 Ang^3
#
#
#
# Elastic Constant Matrix: (Units=GPa)
#
#
# Indices 1 2 3 4 5 6 
#
# 1 101.5762 44.3933 50.0761 -25.5470 4.0942 11.8922
# 2 44.3933 131.4797 45.6773 -36.8699 -1.5003 10.9012
# 3 50.0761 45.6773 117.3692 -36.2608 7.4461 3.2997
# 4 -25.5470 -36.8699 -36.2608 33.6497 0.3082 -1.4515
# 5 4.0942 -1.5003 7.4461 0.3082 44.4460 2.1684
# 6 11.8922 10.9012 3.2997 -1.4515 2.1684 38.6348
#
#
#
# Elastic Compliance Matrix: (Units=1/GPa)
#
#
# Indices 1 2 3 4 5 6 
#
# 1 0.014051 -0.001959 -0.003766 0.004328 -0.000601 -0.003254
# 2 -0.001959 0.011595 -0.000332 0.010755 0.000664 -0.002273
# 3 -0.003766 -0.000332 0.014080 0.011997 -0.002137 0.000621
# 4 0.004328 0.010755 0.011997 0.057603 -0.002294 -0.003099
# 5 -0.000601 0.000664 -0.002137 -0.002294 0.023009 -0.001197
# 6 -0.003254 -0.002273 0.000621 -0.003099 -0.001197 0.027424
#
#
# Mechanical properties :
#
#
# Convention : Reuss Voigt Hill
#
# Bulk Modulus (GPa) = 36.21587 70.07984 53.14785
# Shear Modulus (GPa) = 29.57159 37.36466 33.46812
#
# Velocity S-wave (km/s) = 3.55152 3.99216 3.77827
# Velocity P-wave (km/s) = 5.68024 7.15131 6.45780
#
# Compressibility (1/GPa) = 0.02761221
#
# Stress axis : x y z
#
# Youngs Moduli (GPa) = 71.16700 86.24732 71.02056
#
# Poissons Ratio (x) = 0.16900 0.26745
# Poissons Ratio (y) = 0.13945 0.02357
# Poissons Ratio (z) = 0.26800 0.02862
#
# Static dielectric constant tensor:
#      x y z
#    x 4.034200 -0.005440 0.142480 
#    y -0.005440 4.351550 -0.321590 
#    z 0.142480 -0.321590 4.762960 
# 
# 
# High freq. dielectric constant tensor:
#      x y z
#    x 1.920340 0.002750 0.005470 
#    y 0.002750 1.930370 -0.010540 
#    z 0.005470 -0.010540 1.960790 
# 
# From -- ./inp_files/97917.got.cif
#   From: 2010.06.25/outbox.cif.g09.slc.cpg/sg2_49_cif.got.tgz:97917.got - 2010.06.27 13:26:56.
