data_PCOD8024916
_publ_section_title
;
Structure prediction by ZEFSAII (Michael W. Deem and Ramdas Pophale) SiO2 
 PCOD8024916
Probable space group: P -1
;
_chemical_formula_sum "Si O2"
_cell_formula_units_Z 16
_cell_length_a 16.951329
_cell_length_b 5.472486
_cell_length_c 8.554379
_cell_angle_alpha 56.558472
_cell_angle_beta 93.673352
_cell_angle_gamma 93.192447
_cell_volume 660.622280
_symmetry_space_group_name_H-M "P -1"
_symmetry_group_IT_number 2
_symmetry_cell_setting 'triclinic'
loop_
_space_group_symop_operation_xyz
x,y,z
-x,-y,-z
loop_
_atom_site_type_symbol
_atom_site_label
_atom_site_fract_x
_atom_site_fract_y
_atom_site_fract_z
Si Si1 0.933861 0.717239 0.468833
Si Si2 0.425441 0.347629 0.625216
Si Si3 0.716004 0.302317 0.581352
Si Si4 0.425427 0.641719 0.861893
Si Si5 0.067481 0.699574 0.864887
Si Si6 0.714154 0.719690 0.911179
Si Si7 0.837301 0.440058 0.806548
Si Si8 0.811162 0.586764 0.246369
O O1 0.907796 0.642195 0.667761
O O2 0.853195 0.738523 0.346931
O O3 0.000000 0.500000 0.500000
O O4 0.971254 0.041524 0.332050
O O5 0.500000 0.500000 0.500000
O O6 0.345440 0.435716 0.491772
O O7 0.417946 0.496580 0.741548
O O8 0.432573 0.995971 0.743916
O O9 0.788108 0.286706 0.718252
O O10 0.754137 0.325079 0.404524
O O11 0.670913 0.994660 0.726791
O O12 0.500000 0.500000 0.000000
O O13 0.348851 0.548157 0.987277
O O14 0.119835 0.528837 0.810366
O O15 0.122198 0.796344 0.988576
O O16 0.000000 0.500000 0.000000
O O17 0.783594 0.646460 0.828332
O O18 0.753379 0.788737 0.063654
#
# Coordination Sequence:
#
# PCOD8024916 Si02
#       8
#     2   2   2   2   2   2   2   2
#     4  11  24  42  65  95 134 180 234 293 358 432
#     4  12  28  49  77 110 154 196 245 301 361 433
#     4  11  24  43  72 102 140 183 238 295 366 428
#     4  12  28  49  77 110 154 196 245 301 361 433
#     4  11  24  42  65  95 134 180 234 293 358 432
#     4  11  24  43  72 102 140 183 238 295 366 428
#     4  10  25  40  67  98 134 184 232 296 367 432
#     4  10  23  44  65  98 140 176 236 286 359 432
#
# _framework density 24.219588000000002
#
# number of rings (size 3 to 8) (size 9 to 14) (size 15 to 20)
#    0.000    1.000    1.250    3.750    5.250   12.000 
#    0.000    0.000    0.000    0.000    0.000    0.000 
#    0.000    0.000    0.000    0.000    0.000    0.000 
#
# Total GULP energy -198237.731863 kJ/mol
# GULP energy per Si atom -12389.858241 kJ/mol
# Density = 2.416446 g / cm^3
# Si number density = 24.219588 Si / 1000 Ang^3
#
#
#
# Elastic Constant Matrix: (Units=GPa)
#
#
# Indices 1 2 3 4 5 6 
#
# 1 106.1494 10.4378 40.7871 -11.4891 -15.5691 -11.5626
# 2 10.4378 69.4220 21.7851 -14.0224 -10.6067 -16.3208
# 3 40.7871 21.7851 150.9913 -20.7479 -13.6304 -20.9077
# 4 -11.4891 -14.0224 -20.7479 51.2791 -3.1639 1.9667
# 5 -15.5691 -10.6067 -13.6304 -3.1639 50.7782 -3.3973
# 6 -11.5626 -16.3208 -20.9077 1.9667 -3.3973 27.5038
#
#
#
# Elastic Compliance Matrix: (Units=1/GPa)
#
#
# Indices 1 2 3 4 5 6 
#
# 1 0.011276 0.000804 -0.002027 0.001988 0.003471 0.003964
# 2 0.000804 0.018943 -0.000134 0.005181 0.005277 0.011758
# 3 -0.002027 -0.000134 0.008569 0.002896 0.002209 0.005648
# 4 0.001988 0.005181 0.002896 0.022603 0.004213 0.005016
# 5 0.003471 0.005277 0.002209 0.004213 0.023307 0.008847
# 6 0.003964 0.011758 0.005648 0.005016 0.008847 0.050030
#
#
# Mechanical properties :
#
#
# Convention : Reuss Voigt Hill
#
# Bulk Modulus (GPa) = 27.71955 52.50919 40.11437
# Shear Modulus (GPa) = 33.45230 42.81572 38.13401
#
# Velocity S-wave (km/s) = 3.72049 4.20910 3.97232
# Velocity P-wave (km/s) = 5.47047 6.73421 6.13496
#
# Compressibility (1/GPa) = 0.03607562
#
# Stress axis : x y z
#
# Youngs Moduli (GPa) = 88.68112 52.79065 116.69664
#
# Poissons Ratio (x) = -0.04246 0.23651
# Poissons Ratio (y) = -0.07133 0.01563
# Poissons Ratio (z) = 0.17973 0.00707
#
# Static dielectric constant tensor:
#      x y z
#    x 4.612930 0.322380 0.053950 
#    y 0.322380 4.133170 0.137790 
#    z 0.053950 0.137790 5.382170 
# 
# 
# High freq. dielectric constant tensor:
#      x y z
#    x 1.976310 0.011030 -0.002760 
#    y 0.011030 1.930430 0.005190 
#    z -0.002760 0.005190 2.002570 
# 
# From -- ./inp_files/323218.got.cif
#   From: 2010.06.25/outbox.cif.g09.slc.cpg/sg2_162_cif.got.tgz:323218.got - 2010.06.27 13:26:56.
