data_PCOD8024020
_publ_section_title
;
Structure prediction by ZEFSAII (Michael W. Deem and Ramdas Pophale) SiO2 
 PCOD8024020
Probable space group: P -1
;
_chemical_formula_sum "Si O2"
_cell_formula_units_Z 16
_cell_length_a 9.119836
_cell_length_b 9.369334
_cell_length_c 25.107152
_cell_angle_alpha 134.853865
_cell_angle_beta 28.743250
_cell_angle_gamma 133.817453
_cell_volume 713.926645
_symmetry_space_group_name_H-M "P -1"
_symmetry_group_IT_number 2
_symmetry_cell_setting 'triclinic'
loop_
_space_group_symop_operation_xyz
x,y,z
-x,-y,-z
loop_
_atom_site_type_symbol
_atom_site_label
_atom_site_fract_x
_atom_site_fract_y
_atom_site_fract_z
Si Si1 0.393183 0.869462 0.945219
Si Si2 0.335464 0.448817 0.383383
Si Si3 0.671684 0.795315 0.145612
Si Si4 0.206518 0.439650 0.241477
Si Si5 0.350775 0.928917 0.678317
Si Si6 0.713837 0.891034 0.367377
Si Si7 0.746230 0.647648 0.495592
Si Si8 0.602088 0.970690 0.793867
O O1 0.558349 0.678219 0.835627
O O2 0.496719 0.013513 0.898643
O O3 0.026792 0.770763 0.029369
O O4 0.500000 0.000000 0.000000
O O5 0.582303 0.650021 0.339588
O O6 0.368542 0.381998 0.415482
O O7 0.403405 0.269887 0.276856
O O8 0.000000 0.500000 0.500000
O O9 0.414014 0.578185 0.165600
O O10 0.610399 0.882680 0.245184
O O11 0.625334 0.944784 0.151706
O O12 0.914455 0.266439 0.266663
O O13 0.084246 0.595244 0.363090
O O14 0.695800 0.872990 0.552178
O O15 0.243143 0.992243 0.671948
O O16 0.500000 0.000000 0.500000
O O17 0.043313 0.908961 0.296369
O O18 0.500000 0.500000 0.500000
#
# Coordination Sequence:
#
# PCOD8024020 Si02
#       8
#     2   2   2   2   2   2   2   2
#     4  12  25  54  74  95 143 185 241 300 348 410
#     4  12  25  43  68 105 149 186 227 287 346 424
#     4  12  27  44  76 101 136 187 238 289 351 412
#     4  11  24  44  74 102 139 183 234 281 349 416
#     4  11  24  45  68 107 144 184 227 286 349 423
#     4  12  25  42  70 103 149 192 228 280 360 422
#     4  10  23  42  69 104 150 179 221 288 347 422
#     4  12  27  47  69 109 140 181 239 296 350 419
#
# _framework density 22.411266999999999
#
# number of rings (size 3 to 8) (size 9 to 14) (size 15 to 20)
#    0.000    0.500    5.000    3.000    8.750    0.500 
#    2.250    0.625    0.000    0.000    0.000    0.000 
#    0.000    0.000    0.000    0.000    0.000    0.000 
#
# Total GULP energy -198295.714722 kJ/mol
# GULP energy per Si atom -12393.482170 kJ/mol
# Density = 2.236026 g / cm^3
# Si number density = 22.411267 Si / 1000 Ang^3
#
#
#
# Elastic Constant Matrix: (Units=GPa)
#
#
# Indices 1 2 3 4 5 6 
#
# 1 119.5823 25.1578 48.8577 1.4644 -3.2899 -6.8361
# 2 25.1578 99.0985 27.7620 -13.8824 -17.0274 9.2607
# 3 48.8577 27.7620 113.8535 -0.8032 -20.4922 -0.6173
# 4 1.4644 -13.8824 -0.8032 32.6535 -5.3354 -9.5731
# 5 -3.2899 -17.0274 -20.4922 -5.3354 47.6238 1.6965
# 6 -6.8361 9.2607 -0.6173 -9.5731 1.6965 33.0908
#
#
#
# Elastic Compliance Matrix: (Units=1/GPa)
#
#
# Indices 1 2 3 4 5 6 
#
# 1 0.010759 -0.002263 -0.004456 -0.001168 -0.002205 0.002548
# 2 -0.002263 0.012843 -0.001312 0.005476 0.004582 -0.002737
# 3 -0.004456 -0.001312 0.011805 0.000529 0.004376 -0.000405
# 4 -0.001168 0.005476 0.000529 0.036467 0.005888 0.008484
# 5 -0.002205 0.004582 0.004376 0.005888 0.025071 -0.001238
# 6 0.002548 -0.002737 -0.000405 0.008484 -0.001238 0.034023
#
#
# Mechanical properties :
#
#
# Convention : Reuss Voigt Hill
#
# Bulk Modulus (GPa) = 51.69731 59.56549 55.63140
# Shear Modulus (GPa) = 32.57796 38.05741 35.31768
#
# Velocity S-wave (km/s) = 3.81680 4.12532 3.97405
# Velocity P-wave (km/s) = 6.52239 7.02332 6.77749
#
# Compressibility (1/GPa) = 0.01934336
#
# Stress axis : x y z
#
# Youngs Moduli (GPa) = 92.94882 77.86182 84.71277
#
# Poissons Ratio (x) = 0.17624 0.37750
# Poissons Ratio (y) = 0.21039 0.11113
# Poissons Ratio (z) = 0.41420 0.10215
#
# Static dielectric constant tensor:
#      x y z
#    x 4.080410 -0.065170 -0.386920 
#    y -0.065170 4.117420 0.277570 
#    z -0.386920 0.277570 5.164040 
# 
# 
# High freq. dielectric constant tensor:
#      x y z
#    x 1.887200 -0.002700 -0.015170 
#    y -0.002700 1.881880 0.001450 
#    z -0.015170 0.001450 1.889270 
# 
# From -- ./inp_files/225879.got.cif
#   From: 2010.06.25/outbox.cif.g09.slc.cpg/sg2_113_cif.got.tgz:225879.got - 2010.06.27 13:26:56.
