data_PCOD8024529
_publ_section_title
;
Structure prediction by ZEFSAII (Michael W. Deem and Ramdas Pophale) SiO2 
 PCOD8024529
Probable space group: P -1
;
_chemical_formula_sum "Si O2"
_cell_formula_units_Z 16
_cell_length_a 20.664706
_cell_length_b 8.628471
_cell_length_c 21.522999
_cell_angle_alpha 127.729316
_cell_angle_beta 160.543206
_cell_angle_gamma 41.256874
_cell_volume 756.507533
_symmetry_space_group_name_H-M "P -1"
_symmetry_group_IT_number 2
_symmetry_cell_setting 'triclinic'
loop_
_space_group_symop_operation_xyz
x,y,z
-x,-y,-z
loop_
_atom_site_type_symbol
_atom_site_label
_atom_site_fract_x
_atom_site_fract_y
_atom_site_fract_z
Si Si1 0.142761 0.934804 0.049823
Si Si2 0.253374 0.799227 0.348702
Si Si3 0.957200 0.058112 0.672137
Si Si4 0.614897 0.964456 0.003575
Si Si5 0.067292 0.586988 0.400602
Si Si6 0.092837 0.524866 0.655198
Si Si7 0.576081 0.909145 0.474839
Si Si8 0.567892 0.335518 0.280011
O O1 0.326623 0.997307 0.235577
O O2 0.295253 0.631249 0.099596
O O3 0.000000 0.000000 0.000000
O O4 0.942474 0.133037 0.865222
O O5 0.500000 0.500000 0.500000
O O6 0.099476 0.886450 0.293863
O O7 0.347875 0.951482 0.458568
O O8 0.160955 0.095318 0.852108
O O9 0.081940 0.764768 0.698567
O O10 0.687346 0.259604 0.439094
O O11 0.387542 0.274722 0.877924
O O12 0.760762 0.831485 0.169178
O O13 0.484113 0.851391 0.833261
O O14 0.191932 0.401808 0.405524
O O15 0.218232 0.692308 0.575798
O O16 0.091522 0.436175 0.446916
O O17 0.000000 0.500000 0.500000
O O18 0.500000 0.000000 0.500000
#
# Coordination Sequence:
#
# PCOD8024529 Si02
#       8
#     2   2   2   2   2   2   2   2
#     4  11  23  40  67  96 128 178 223 269 335 402
#     4  12  26  42  68 102 136 174 223 282 338 399
#     4  11  25  45  65 100 140 173 224 284 339 400
#     4  11  24  43  69  94 131 181 223 274 333 405
#     4  10  24  45  68  98 133 176 228 275 330 408
#     4  12  24  46  67  98 140 177 222 284 340 389
#     4  11  23  43  71  97 136 178 221 277 335 406
#     4  10  23  43  68  96 129 175 226 272 334 403
#
# _framework density 21.149823000000001
#
# number of rings (size 3 to 8) (size 9 to 14) (size 15 to 20)
#    0.000    1.000    3.750    2.250    3.500    4.000 
#    2.250    0.000    0.000    0.000    0.000    0.000 
#    0.000    0.000    0.000    0.000    0.000    0.000 
#
# Total GULP energy -198341.026106 kJ/mol
# GULP energy per Si atom -12396.314132 kJ/mol
# Density = 2.110169 g / cm^3
# Si number density = 21.149823 Si / 1000 Ang^3
#
#
#
# Elastic Constant Matrix: (Units=GPa)
#
#
# Indices 1 2 3 4 5 6 
#
# 1 105.4757 18.6959 30.3828 6.2475 -9.4335 9.5514
# 2 18.6959 89.8320 57.3654 3.3896 -3.4440 5.3795
# 3 30.3828 57.3654 135.5761 -4.9369 -5.2095 9.0837
# 4 6.2475 3.3896 -4.9369 47.1922 12.0008 8.5261
# 5 -9.4335 -3.4440 -5.2095 12.0008 34.3492 3.4712
# 6 9.5514 5.3795 9.0837 8.5261 3.4712 36.0662
#
#
#
# Elastic Compliance Matrix: (Units=1/GPa)
#
#
# Indices 1 2 3 4 5 6 
#
# 1 0.010790 -0.000669 -0.001934 -0.002104 0.003552 -0.002115
# 2 -0.000669 0.015500 -0.006427 -0.001946 0.001092 -0.000161
# 3 -0.001934 -0.006427 0.010719 0.002187 -0.000139 -0.001733
# 4 -0.002104 -0.001946 0.002187 0.024898 -0.008659 -0.004756
# 5 0.003552 0.001092 -0.000139 -0.008659 0.033428 -0.002239
# 6 -0.002115 -0.000161 -0.001733 -0.004756 -0.002239 0.030087
#
#
# Mechanical properties :
#
#
# Convention : Reuss Voigt Hill
#
# Bulk Modulus (GPa) = 52.76683 60.41911 56.59297
# Shear Modulus (GPa) = 33.37836 38.48417 35.93126
#
# Velocity S-wave (km/s) = 3.97695 4.27030 4.12623
# Velocity P-wave (km/s) = 6.78906 7.27621 7.03685
#
# Compressibility (1/GPa) = 0.01895130
#
# Stress axis : x y z
#
# Youngs Moduli (GPa) = 92.67680 64.51644 93.29316
#
# Poissons Ratio (x) = 0.04314 0.18039
# Poissons Ratio (y) = 0.06197 0.59956
# Poissons Ratio (z) = 0.17920 0.41462
#
# Static dielectric constant tensor:
#      x y z
#    x 3.818940 -0.252330 0.178470 
#    y -0.252330 1.881940 0.543470 
#    z 0.178470 0.543470 3.802050 
# 
# 
# High freq. dielectric constant tensor:
#      x y z
#    x 1.833510 0.012490 0.009180 
#    y 0.012490 1.837870 -0.002950 
#    z 0.009180 -0.002950 1.841620 
# 
# From -- ./inp_files/227240.got.cif
#   From: 2010.06.25/outbox.cif.g09.slc.cpg/sg2_114_cif.got.tgz:227240.got - 2010.06.27 13:26:56.
