data_PCOD8024525
_publ_section_title
;
Structure prediction by ZEFSAII (Michael W. Deem and Ramdas Pophale) SiO2 
 PCOD8024525
Probable space group: P -1
;
_chemical_formula_sum "Si O2"
_cell_formula_units_Z 16
_cell_length_a 9.666082
_cell_length_b 6.785198
_cell_length_c 16.492098
_cell_angle_alpha 83.228438
_cell_angle_beta 87.632241
_cell_angle_gamma 135.032101
_cell_volume 746.997934
_symmetry_space_group_name_H-M "P -1"
_symmetry_group_IT_number 2
_symmetry_cell_setting 'triclinic'
loop_
_space_group_symop_operation_xyz
x,y,z
-x,-y,-z
loop_
_atom_site_type_symbol
_atom_site_label
_atom_site_fract_x
_atom_site_fract_y
_atom_site_fract_z
Si Si1 0.195092 0.110771 0.451321
Si Si2 0.950386 0.872522 0.255242
Si Si3 0.075123 0.643203 0.361142
Si Si4 0.670720 0.535614 0.850323
Si Si5 0.776320 0.994412 0.381423
Si Si6 0.080448 0.367852 0.021813
Si Si7 0.607734 0.342609 0.685438
Si Si8 0.256486 0.281952 0.891513
O O1 0.301721 0.366632 0.373032
O O2 0.134353 0.841263 0.425066
O O3 0.326546 0.205177 0.525317
O O4 0.000000 0.000000 0.500000
O O5 0.767810 0.699038 0.205027
O O6 0.977413 0.674186 0.291214
O O7 0.911557 0.975275 0.328853
O O8 0.154297 0.133863 0.192512
O O9 0.276803 0.741504 0.326855
O O10 0.914427 0.308962 0.399895
O O11 0.761449 0.472841 0.915586
O O12 0.591541 0.344788 0.781967
O O13 0.485517 0.464745 0.896434
O O14 0.612406 0.917246 0.330472
O O15 0.195748 0.413287 0.936964
O O16 0.884828 0.041160 0.061884
O O17 0.000000 0.500000 0.000000
#
# Coordination Sequence:
#
# PCOD8024525 Si02
#       8
#     2   2   2   2   2   2   2   2
#     4  12  23  46  67  90 136 180 221 281 335 382
#     4  11  23  42  68  94 134 175 219 272 330 388
#     4  12  24  42  67  96 130 178 225 277 330 385
#     4  11  21  45  67  94 138 171 213 267 327 393
#     4  12  25  43  66  96 134 176 228 280 326 389
#     4  10  24  43  67 103 128 168 214 265 324 391
#     4  12  26  42  66 101 131 175 227 274 330 392
#     4  10  23  43  68  95 135 169 211 265 329 393
#
# _framework density 21.419069
#
# number of rings (size 3 to 8) (size 9 to 14) (size 15 to 20)
#    0.000    0.750    6.250    1.125    1.750    3.000 
#    2.250    0.000    0.000    0.000    0.000    0.000 
#    0.000    0.000    0.000    0.000    0.000    0.000 
#
# Total GULP energy -198355.589202 kJ/mol
# GULP energy per Si atom -12397.224325 kJ/mol
# Density = 2.137032 g / cm^3
# Si number density = 21.419069 Si / 1000 Ang^3
#
#
#
# Elastic Constant Matrix: (Units=GPa)
#
#
# Indices 1 2 3 4 5 6 
#
# 1 166.3009 54.6229 53.4865 1.4408 6.6271 -10.7098
# 2 54.6229 61.7515 35.0271 11.7554 -6.7196 -11.5971
# 3 53.4865 35.0271 127.4169 18.5013 9.5071 -14.7922
# 4 1.4408 11.7554 18.5013 25.6285 3.0543 -1.5486
# 5 6.6271 -6.7196 9.5071 3.0543 38.3151 2.1327
# 6 -10.7098 -11.5971 -14.7922 -1.5486 2.1327 40.4511
#
#
#
# Elastic Compliance Matrix: (Units=1/GPa)
#
#
# Indices 1 2 3 4 5 6 
#
# 1 0.009641 -0.008677 -0.002267 0.005413 -0.003036 -0.000397
# 2 -0.008677 0.029369 -0.002855 -0.011628 0.008053 0.004209
# 3 -0.002267 -0.002855 0.010930 -0.006008 -0.002480 0.002479
# 4 0.005413 -0.011628 -0.006008 0.048896 -0.005274 -0.001948
# 5 -0.003036 0.008053 -0.002480 -0.005274 0.029136 -0.001140
# 6 -0.000397 0.004209 0.002479 -0.001948 -0.001140 0.026715
#
#
# Mechanical properties :
#
#
# Convention : Reuss Voigt Hill
#
# Bulk Modulus (GPa) = 44.76009 71.30468 58.03238
# Shear Modulus (GPa) = 26.35277 35.03448 30.69362
#
# Velocity S-wave (km/s) = 3.51143 4.04873 3.78961
# Velocity P-wave (km/s) = 6.11415 7.43093 6.80447
#
# Compressibility (1/GPa) = 0.02234133
#
# Stress axis : x y z
#
# Youngs Moduli (GPa) = 103.72281 34.04915 91.49191
#
# Poissons Ratio (x) = 0.29546 0.20742
# Poissons Ratio (y) = 0.90005 0.26120
# Poissons Ratio (z) = 0.23515 0.09721
#
# Static dielectric constant tensor:
#      x y z
#    x 4.535370 -0.313140 0.222320 
#    y -0.313140 3.979170 0.191050 
#    z 0.222320 0.191050 4.458090 
# 
# 
# High freq. dielectric constant tensor:
#      x y z
#    x 1.853340 0.007030 0.008710 
#    y 0.007030 1.824840 0.014230 
#    z 0.008710 0.014230 1.855390 
# 
# From -- ./inp_files/47708.got.cif
#   From: 2010.06.25/outbox.cif.g09.slc.cpg/sg2_24_cif.got.tgz:47708.got - 2010.06.27 13:26:56.
