data_PCOD8024131
_publ_section_title
;
Structure prediction by ZEFSAII (Michael W. Deem and Ramdas Pophale) SiO2 
 PCOD8024131
Probable space group: P -1
;
_chemical_formula_sum "Si O2"
_cell_formula_units_Z 14
_cell_length_a 13.975334
_cell_length_b 12.228177
_cell_length_c 8.124028
_cell_angle_alpha 64.081458
_cell_angle_beta 142.722697
_cell_angle_gamma 132.224440
_cell_volume 607.747130
_symmetry_space_group_name_H-M "P -1"
_symmetry_group_IT_number 2
_symmetry_cell_setting 'triclinic'
loop_
_space_group_symop_operation_xyz
x,y,z
-x,-y,-z
loop_
_atom_site_type_symbol
_atom_site_label
_atom_site_fract_x
_atom_site_fract_y
_atom_site_fract_z
Si Si1 0.595956 0.789741 0.610811
Si Si2 0.206154 0.924514 0.081151
Si Si3 0.815558 0.358944 0.748819
Si Si4 0.213416 0.177494 0.498019
Si Si5 0.220858 0.583921 0.695981
Si Si6 0.547529 0.922789 0.980390
Si Si7 0.530264 0.500420 0.738038
O O1 0.368459 0.725981 0.320202
O O2 0.704257 0.807541 0.580735
O O3 0.578073 0.654888 0.778848
O O4 0.722206 0.953044 0.759174
O O5 0.144099 0.762988 0.170411
O O6 0.389008 0.988292 0.164176
O O7 0.016543 0.901480 0.756143
O O8 0.767639 0.420649 0.483776
O O9 0.000000 0.500000 0.000000
O O10 0.328185 0.344920 0.627707
O O11 0.264277 0.076522 0.727564
O O12 0.346917 0.757879 0.804101
O O13 0.000000 0.500000 0.500000
O O14 0.291739 0.500649 0.952408
O O15 0.500000 0.000000 0.000000
O O16 0.500000 0.500000 0.500000
#
# Coordination Sequence:
#
# PCOD8024131 Si02
#       7
#     2   2   2   2   2   2   2
#     4  11  23  44  72 101 142 185 237 300 361 416
#     4  12  25  45  69 106 141 185 241 296 364 428
#     4  12  28  45  70 103 148 192 240 298 361 429
#     4  10  23  42  71 101 140 190 235 285 369 432
#     4  11  27  45  72 108 140 189 249 288 355 437
#     4  11  25  46  70 102 147 186 235 306 358 424
#     4   9  22  45  72 100 142 186 235 293 361 427
#
# _framework density 23.035896000000001
#
# number of rings (size 3 to 8) (size 9 to 14) (size 15 to 20)
#    0.000    1.143    1.429    3.000   14.000    1.714 
#    2.571    0.000    0.000    0.000    0.000    0.000 
#    0.000    0.000    0.000    0.000    0.000    0.000 
#
# Total GULP energy -173474.528264 kJ/mol
# GULP energy per Si atom -12391.037733 kJ/mol
# Density = 2.298347 g / cm^3
# Si number density = 23.035896 Si / 1000 Ang^3
#
#
#
# Elastic Constant Matrix: (Units=GPa)
#
#
# Indices 1 2 3 4 5 6 
#
# 1 81.7220 32.5740 16.0868 4.4980 3.4040 1.2922
# 2 32.5740 163.1356 61.7540 6.1091 1.5099 -23.2260
# 3 16.0868 61.7540 136.5101 5.4634 8.1097 -1.6738
# 4 4.4980 6.1091 5.4634 41.0937 12.6321 -1.6980
# 5 3.4040 1.5099 8.1097 12.6321 37.9045 8.2391
# 6 1.2922 -23.2260 -1.6738 -1.6980 8.2391 30.3893
#
#
#
# Elastic Compliance Matrix: (Units=1/GPa)
#
#
# Indices 1 2 3 4 5 6 
#
# 1 0.013588 -0.003001 -0.000233 -0.001119 -0.000040 -0.002936
# 2 -0.003001 0.009131 -0.003638 0.000019 -0.000875 0.007144
# 3 -0.000233 -0.003638 0.009062 -0.000340 -0.001235 -0.001956
# 4 -0.001119 0.000019 -0.000340 0.027756 -0.010014 0.004309
# 5 -0.000040 -0.000875 -0.001235 -0.010014 0.032201 -0.010025
# 6 -0.002936 0.007144 -0.001956 0.004309 -0.010025 0.041342
#
#
# Mechanical properties :
#
#
# Convention : Reuss Voigt Hill
#
# Bulk Modulus (GPa) = 55.44009 66.91081 61.17545
# Shear Modulus (GPa) = 32.71494 39.94101 36.32797
#
# Velocity S-wave (km/s) = 3.77261 4.16848 3.97547
# Velocity P-wave (km/s) = 6.56474 7.23033 6.90556
#
# Compressibility (1/GPa) = 0.01803749
#
# Stress axis : x y z
#
# Youngs Moduli (GPa) = 73.59312 109.52014 110.35550
#
# Poissons Ratio (x) = 0.32866 0.02567
# Poissons Ratio (y) = 0.22084 0.40148
# Poissons Ratio (z) = 0.01712 0.39844
#
# Static dielectric constant tensor:
#      x y z
#    x 1.646430 -0.143180 -0.108800 
#    y -0.143180 4.849680 -0.173970 
#    z -0.108800 -0.173970 4.360090 
# 
# 
# High freq. dielectric constant tensor:
#      x y z
#    x 1.894450 0.002310 0.007290 
#    y 0.002310 1.934590 -0.003390 
#    z 0.007290 -0.003390 1.915360 
# 
# From -- ./inp_files/156881.got.cif
#   From: 2010.06.25/outbox.cif.g09.slc.cpg/sg2_79_cif.got.tgz:156881.got - 2010.06.27 13:26:56.
