data_PCOD8024397
_publ_section_title
;
Structure prediction by ZEFSAII (Michael W. Deem and Ramdas Pophale) SiO2 
 PCOD8024397
Probable space group: P -1
;
_chemical_formula_sum "Si O2"
_cell_formula_units_Z 16
_cell_length_a 10.096799
_cell_length_b 14.794644
_cell_length_c 15.629839
_cell_angle_alpha 36.942873
_cell_angle_beta 48.120489
_cell_angle_gamma 76.996299
_cell_volume 756.751627
_symmetry_space_group_name_H-M "P -1"
_symmetry_group_IT_number 2
_symmetry_cell_setting 'triclinic'
loop_
_space_group_symop_operation_xyz
x,y,z
-x,-y,-z
loop_
_atom_site_type_symbol
_atom_site_label
_atom_site_fract_x
_atom_site_fract_y
_atom_site_fract_z
Si Si1 0.539901 0.371314 0.132722
Si Si2 0.454874 0.998025 0.422058
Si Si3 0.261037 0.098965 0.202823
Si Si4 0.010135 0.239314 0.283747
Si Si5 0.192280 0.012778 0.821786
Si Si6 0.305134 0.360605 0.612404
Si Si7 0.776224 0.479631 0.631678
Si Si8 0.908103 0.844277 0.394426
O O1 0.507934 0.203102 0.216290
O O2 0.344416 0.245801 0.387348
O O3 0.500000 0.500000 0.000000
O O4 0.813364 0.526429 0.935743
O O5 0.500000 0.000000 0.500000
O O6 0.166132 0.796042 0.686067
O O7 0.609363 0.980398 0.309285
O O8 0.186528 0.214733 0.187945
O O9 0.168156 0.916443 0.444838
O O10 0.553004 0.260088 0.939659
O O11 0.134639 0.998478 0.242547
O O12 0.333762 0.206315 0.680633
O O13 0.046152 0.027547 0.804870
O O14 0.979485 0.786628 0.125939
O O15 0.500000 0.500000 0.500000
O O16 0.339818 0.504064 0.413760
O O17 0.886147 0.658740 0.517686
O O18 0.000000 0.500000 0.500000
#
# Coordination Sequence:
#
# PCOD8024397 Si02
#       8
#     2   2   2   2   2   2   2   2
#     4  12  22  40  65  97 133 176 218 265 343 399
#     4  12  25  42  65 101 140 172 225 279 330 401
#     4  11  21  40  65  93 134 172 215 266 339 404
#     4  11  23  37  65  98 130 180 215 262 333 407
#     4  10  23  43  66  95 130 176 223 278 328 402
#     4  10  23  46  70  90 130 182 226 274 343 397
#     4  11  26  41  67  99 128 168 229 286 332 398
#     4  11  21  42  67  90 133 176 213 274 340 400
#
# _framework density 21.143000000000001
#
# number of rings (size 3 to 8) (size 9 to 14) (size 15 to 20)
#    0.000    1.000    5.000    1.500    1.750    2.000 
#    2.250    0.000    0.000    0.000    0.000    0.000 
#    0.000    0.000    0.000    0.000    0.000    0.000 
#
# Total GULP energy -198397.382652 kJ/mol
# GULP energy per Si atom -12399.836416 kJ/mol
# Density = 2.109488 g / cm^3
# Si number density = 21.143000 Si / 1000 Ang^3
#
#
#
# Elastic Constant Matrix: (Units=GPa)
#
#
# Indices 1 2 3 4 5 6 
#
# 1 70.2682 28.3505 21.2740 -6.4047 -17.0173 8.8896
# 2 28.3505 121.7414 45.5247 -1.6657 -18.7929 -2.2114
# 3 21.2740 45.5247 116.1132 7.4367 -21.1570 -5.1639
# 4 -6.4047 -1.6657 7.4367 37.1672 2.0589 -8.1623
# 5 -17.0173 -18.7929 -21.1570 2.0589 31.5832 3.3805
# 6 8.8896 -2.2114 -5.1639 -8.1623 3.3805 35.4880
#
#
#
# Elastic Compliance Matrix: (Units=1/GPa)
#
#
# Indices 1 2 3 4 5 6 
#
# 1 0.018445 -0.002681 -0.001218 0.001687 0.007989 -0.005338
# 2 -0.002681 0.010428 -0.003145 0.000665 0.002527 0.000776
# 3 -0.001218 -0.003145 0.011198 -0.002736 0.005085 0.000625
# 4 0.001687 0.000665 -0.002736 0.029321 -0.003109 0.006261
# 5 0.007989 0.002527 0.005085 -0.003109 0.041700 -0.005791
# 6 -0.005338 0.000776 0.000625 0.006261 -0.005791 0.031646
#
#
# Mechanical properties :
#
#
# Convention : Reuss Voigt Hill
#
# Bulk Modulus (GPa) = 38.48586 55.38013 46.93299
# Shear Modulus (GPa) = 30.21396 35.04593 32.62995
#
# Velocity S-wave (km/s) = 3.78435 4.07574 3.93274
# Velocity P-wave (km/s) = 6.11042 6.95693 6.54737
#
# Compressibility (1/GPa) = 0.02598357
#
# Stress axis : x y z
#
# Youngs Moduli (GPa) = 54.21447 95.89837 89.30080
#
# Poissons Ratio (x) = 0.25706 0.10880
# Poissons Ratio (y) = 0.14532 0.28084
# Poissons Ratio (z) = 0.06605 0.30159
#
# Static dielectric constant tensor:
#      x y z
#    x 3.935480 0.111710 -0.179580 
#    y 0.111710 4.184430 -0.140080 
#    z -0.179580 -0.140080 4.484260 
# 
# 
# High freq. dielectric constant tensor:
#      x y z
#    x 1.823860 0.017230 0.000650 
#    y 0.017230 1.833080 -0.004030 
#    z 0.000650 -0.004030 1.835660 
# 
# From -- ./inp_files/505232.got.cif
#   From: 2010.06.25/outbox.cif.g09.slc.cpg/sg2_253_cif.got.tgz:505232.got - 2010.06.27 13:26:56.
