data_PCOD8024811
_publ_section_title
;
Structure prediction by ZEFSAII (Michael W. Deem and Ramdas Pophale) SiO2 
 PCOD8024811
Probable space group: P -1
;
_chemical_formula_sum "Si O2"
_cell_formula_units_Z 14
_cell_length_a 8.310748
_cell_length_b 9.734414
_cell_length_c 8.936474
_cell_angle_alpha 75.274886
_cell_angle_beta 107.560890
_cell_angle_gamma 107.519274
_cell_volume 646.602470
_symmetry_space_group_name_H-M "P -1"
_symmetry_group_IT_number 2
_symmetry_cell_setting 'triclinic'
loop_
_space_group_symop_operation_xyz
x,y,z
-x,-y,-z
loop_
_atom_site_type_symbol
_atom_site_label
_atom_site_fract_x
_atom_site_fract_y
_atom_site_fract_z
Si Si1 0.590133 0.416808 0.664366
Si Si2 0.457117 0.929751 0.846436
Si Si3 0.434789 0.343020 0.954455
Si Si4 0.957899 0.608332 0.777755
Si Si5 0.122667 0.889513 0.580449
Si Si6 0.265842 0.846674 0.313129
Si Si7 0.049779 0.318122 0.912987
O O1 0.500000 0.500000 0.500000
O O2 0.462525 0.347280 0.782539
O O3 0.753824 0.532448 0.747434
O O4 0.642369 0.287254 0.624673
O O5 0.267350 0.942688 0.735020
O O6 0.605632 0.006847 0.751709
O O7 0.456303 0.759096 0.906489
O O8 0.500000 0.000000 0.000000
O O9 0.231712 0.277717 0.948027
O O10 0.500000 0.500000 0.000000
O O11 0.002771 0.728629 0.627142
O O12 0.061383 0.482866 0.810056
O O13 0.008461 0.688317 0.928419
O O14 0.223212 0.880902 0.459128
O O15 0.000000 0.000000 0.500000
O O16 0.092071 0.806096 0.176382
#
# Coordination Sequence:
#
# PCOD8024811 Si02
#       7
#     2   2   2   2   2   2   2
#     4  11  26  42  72 103 146 182 236 291 365 419
#     4  12  27  50  74 100 146 186 243 293 353 431
#     4  12  25  44  77 106 136 191 239 295 349 426
#     4  10  23  45  66 101 139 181 230 294 347 425
#     4  12  30  45  71 100 146 187 237 292 364 417
#     4  11  27  46  68 103 141 189 234 299 355 424
#     4  10  23  43  73  99 139 176 243 289 352 416
#
# _framework density 21.651633
#
# number of rings (size 3 to 8) (size 9 to 14) (size 15 to 20)
#    0.000    0.857    2.857    2.143   14.000    1.714 
#    0.000    0.000    0.000    0.000    0.000    0.000 
#    0.000    0.000    0.000    0.000    0.000    0.000 
#
# Total GULP energy -173696.652306 kJ/mol
# GULP energy per Si atom -12406.903736 kJ/mol
# Density = 2.160235 g / cm^3
# Si number density = 21.651633 Si / 1000 Ang^3
#
#
#
# Elastic Constant Matrix: (Units=GPa)
#
#
# Indices 1 2 3 4 5 6 
#
# 1 111.2647 37.7532 50.0499 -7.4467 5.7548 -11.0363
# 2 37.7532 102.8156 50.1307 -12.9442 2.9316 -4.9651
# 3 50.0499 50.1307 125.3591 -13.4170 6.9775 -10.2209
# 4 -7.4467 -12.9442 -13.4170 45.6810 4.4846 -2.3419
# 5 5.7548 2.9316 6.9775 4.4846 49.8439 -3.4490
# 6 -11.0363 -4.9651 -10.2209 -2.3419 -3.4490 36.6335
#
#
#
# Elastic Compliance Matrix: (Units=1/GPa)
#
#
# Indices 1 2 3 4 5 6 
#
# 1 0.011622 -0.002432 -0.003416 0.000373 -0.000603 0.002186
# 2 -0.002432 0.012795 -0.003913 0.002092 -0.000110 0.000033
# 3 -0.003416 -0.003913 0.011289 0.001832 -0.001009 0.001612
# 4 0.000373 0.002092 0.001832 0.023428 -0.002380 0.002181
# 5 -0.000603 -0.000110 -0.001009 -0.002380 0.020585 0.001308
# 6 0.002186 0.000033 0.001612 0.002181 0.001308 0.028673
#
#
# Mechanical properties :
#
#
# Convention : Reuss Voigt Hill
#
# Bulk Modulus (GPa) = 61.78645 68.36744 65.07694
# Shear Modulus (GPa) = 37.50659 39.86539 38.68599
#
# Velocity S-wave (km/s) = 4.16658 4.29560 4.23158
# Velocity P-wave (km/s) = 7.19345 7.49984 7.34824
#
# Compressibility (1/GPa) = 0.01618478
#
# Stress axis : x y z
#
# Youngs Moduli (GPa) = 86.04042 78.15347 88.57937
#
# Poissons Ratio (x) = 0.19010 0.30257
# Poissons Ratio (y) = 0.20929 0.34660
# Poissons Ratio (z) = 0.29390 0.30581
#
# Static dielectric constant tensor:
#      x y z
#    x 4.266780 -0.056820 0.005110 
#    y -0.056820 3.986000 -0.108150 
#    z 0.005110 -0.108150 3.024040 
# 
# 
# High freq. dielectric constant tensor:
#      x y z
#    x 1.861280 0.004350 0.000390 
#    y 0.004350 1.854090 -0.002930 
#    z 0.000390 -0.002930 1.856230 
# 
# From -- ./inp_files/157135.got.cif
#   From: 2010.06.25/outbox.cif.g09.slc.cpg/sg2_79_cif.got.tgz:157135.got - 2010.06.27 13:26:56.
