data_PCOD8024234
_publ_section_title
;
Structure prediction by ZEFSAII (Michael W. Deem and Ramdas Pophale) SiO2 
 PCOD8024234
Probable space group: P -1
;
_chemical_formula_sum "Si O2"
_cell_formula_units_Z 16
_cell_length_a 11.641543
_cell_length_b 20.118863
_cell_length_c 8.661831
_cell_angle_alpha 144.893311
_cell_angle_beta 36.817797
_cell_angle_gamma 132.056335
_cell_volume 698.526527
_symmetry_space_group_name_H-M "P -1"
_symmetry_group_IT_number 2
_symmetry_cell_setting 'triclinic'
loop_
_space_group_symop_operation_xyz
x,y,z
-x,-y,-z
loop_
_atom_site_type_symbol
_atom_site_label
_atom_site_fract_x
_atom_site_fract_y
_atom_site_fract_z
Si Si1 0.365132 0.932607 0.302050
Si Si2 0.956693 0.462139 0.229570
Si Si3 0.419057 0.694481 0.649085
Si Si4 0.357137 0.470673 0.734805
Si Si5 0.695119 0.101103 0.352145
Si Si6 0.378639 0.682032 0.331002
Si Si7 0.927245 0.920266 0.285106
Si Si8 0.058401 0.332977 0.162117
O O1 0.271594 0.889772 0.482442
O O2 0.576716 0.984978 0.211079
O O3 0.242668 0.024491 0.519729
O O4 0.380878 0.827425 0.968142
O O5 0.773753 0.380267 0.231623
O O6 0.883388 0.588403 0.600327
O O7 0.093322 0.410011 0.118183
O O8 0.128993 0.474005 0.936497
O O9 0.591546 0.655601 0.497592
O O10 0.496045 0.680104 0.362520
O O11 0.500000 0.500000 0.500000
O O12 0.410545 0.563602 0.986008
O O13 0.576143 0.210124 0.627404
O O14 0.903957 0.097115 0.049404
O O15 0.166983 0.696492 0.650129
O O16 0.845049 0.792079 0.183735
O O17 0.000000 0.000000 0.500000
#
# Coordination Sequence:
#
# PCOD8024234 Si02
#       8
#     2   2   2   2   2   2   2   2
#     4  11  24  40  61  89 122 163 203 247 307 364
#     4   9  19  38  59  84 120 152 191 245 295 349
#     4  11  23  39  62  89 115 154 205 251 298 353
#     4  11  23  38  59  89 122 157 193 238 304 369
#     4  10  23  43  61  84 124 162 200 253 306 360
#     4   9  19  39  62  86 117 154 203 253 294 352
#     4  11  22  38  63  93 121 157 207 252 298 358
#     4   8  17  35  60  87 115 153 195 244 298 346
#
# _framework density 22.905356999999999
#
# number of rings (size 3 to 8) (size 9 to 14) (size 15 to 20)
#    0.000    2.000    0.000    4.500    0.000    6.500 
#    0.000    1.250    0.000    0.000    0.000    0.000 
#    0.000    0.000    0.000    0.000    0.000    0.000 
#
# Total GULP energy -198322.047742 kJ/mol
# GULP energy per Si atom -12395.127984 kJ/mol
# Density = 2.285322 g / cm^3
# Si number density = 22.905357 Si / 1000 Ang^3
#
#
#
# Elastic Constant Matrix: (Units=GPa)
#
#
# Indices 1 2 3 4 5 6 
#
# 1 72.1436 3.9285 21.0387 10.1323 -1.7102 -9.8223
# 2 3.9285 66.4456 33.0290 17.8289 6.8532 -0.4741
# 3 21.0387 33.0290 107.1377 21.9406 0.1551 -7.0813
# 4 10.1323 17.8289 21.9406 43.2138 -6.0120 -4.3518
# 5 -1.7102 6.8532 0.1551 -6.0120 28.4901 4.6856
# 6 -9.8223 -0.4741 -7.0813 -4.3518 4.6856 35.8653
#
#
#
# Elastic Compliance Matrix: (Units=1/GPa)
#
#
# Indices 1 2 3 4 5 6 
#
# 1 0.015373 0.001124 -0.002636 -0.002439 -0.000417 0.003463
# 2 0.001124 0.019918 -0.004981 -0.006841 -0.006066 -0.000450
# 3 -0.002636 -0.004981 0.012156 -0.003369 0.000066 0.001195
# 4 -0.002439 -0.006841 -0.003369 0.029411 0.007533 0.001161
# 5 -0.000417 -0.006066 0.000066 0.007533 0.038837 -0.004341
# 6 0.003463 -0.000450 0.001195 0.001161 -0.004341 0.029769
#
#
# Mechanical properties :
#
#
# Convention : Reuss Voigt Hill
#
# Bulk Modulus (GPa) = 29.01962 40.19103 34.60533
# Shear Modulus (GPa) = 29.42283 34.02921 31.72602
#
# Velocity S-wave (km/s) = 3.58793 3.85859 3.72572
# Velocity P-wave (km/s) = 5.46454 6.11852 5.80075
#
# Compressibility (1/GPa) = 0.03445945
#
# Stress axis : x y z
#
# Youngs Moduli (GPa) = 65.04914 50.20709 82.26495
#
# Poissons Ratio (x) = -0.05642 0.21687
# Poissons Ratio (y) = -0.07310 0.40975
# Poissons Ratio (z) = 0.17149 0.25008
#
# Static dielectric constant tensor:
#      x y z
#    x 4.010060 -0.297760 -0.088340 
#    y -0.297760 4.430830 0.097180 
#    z -0.088340 0.097180 4.139190 
# 
# 
# High freq. dielectric constant tensor:
#      x y z
#    x 1.888790 -0.004640 -0.006920 
#    y -0.004640 1.916840 0.001840 
#    z -0.006920 0.001840 1.905180 
# 
# From -- ./inp_files/283461.got.cif
#   From: 2010.06.25/outbox.cif.g09.slc.cpg/sg2_142_cif.got.tgz:283461.got - 2010.06.27 13:26:56.
