data_PCOD8024508
_publ_section_title
;
Structure prediction by ZEFSAII (Michael W. Deem and Ramdas Pophale) SiO2 
 PCOD8024508
Probable space group: P -1
;
_chemical_formula_sum "Si O2"
_cell_formula_units_Z 14
_cell_length_a 15.080039
_cell_length_b 10.842440
_cell_length_c 8.386690
_cell_angle_alpha 95.760809
_cell_angle_beta 129.311642
_cell_angle_gamma 46.911586
_cell_volume 626.555840
_symmetry_space_group_name_H-M "P -1"
_symmetry_group_IT_number 2
_symmetry_cell_setting 'triclinic'
loop_
_space_group_symop_operation_xyz
x,y,z
-x,-y,-z
loop_
_atom_site_type_symbol
_atom_site_label
_atom_site_fract_x
_atom_site_fract_y
_atom_site_fract_z
Si Si1 0.295160 0.474606 0.444252
Si Si2 0.557311 0.212423 0.432071
Si Si3 0.303891 0.321443 0.740985
Si Si4 0.551683 0.461245 0.870225
Si Si5 0.299103 0.047633 0.723577
Si Si6 0.035765 0.112562 0.037956
Si Si7 0.909847 0.291044 0.250267
O O1 0.365016 0.358564 0.338117
O O2 0.245624 0.413588 0.509395
O O3 0.472986 0.406309 0.692446
O O4 0.093073 0.725397 0.234253
O O5 0.538415 0.346975 0.309369
O O6 0.599434 0.058191 0.347563
O O7 0.734347 0.072460 0.740950
O O8 0.221141 0.256520 0.671006
O O9 0.227344 0.479558 0.812357
O O10 0.537937 0.118520 0.980524
O O11 0.500000 0.500000 0.000000
O O12 0.787032 0.269561 0.117300
O O13 0.115964 0.115241 0.555898
O O14 0.965597 0.257670 0.125653
O O15 0.000000 0.000000 0.000000
#
# Coordination Sequence:
#
# PCOD8024508 Si02
#       7
#     2   2   2   2   2   2   2
#     4  12  23  40  64  94 131 163 205 257 320 373
#     4  11  22  41  62  92 128 168 206 254 318 368
#     4  11  23  43  65  94 127 165 212 264 309 369
#     4  12  21  39  64  91 127 161 202 258 316 371
#     4  10  23  43  68  90 123 170 216 257 311 367
#     4  11  22  38  64  90 124 173 204 250 316 383
#     4  11  22  41  65  90 126 167 210 258 314 372
#
# _framework density 22.344379
#
# number of rings (size 3 to 8) (size 9 to 14) (size 15 to 20)
#    0.000    0.857    5.714    1.714    0.000    1.714 
#    0.000   10.000    0.000    0.000    0.000    0.000 
#    0.000    0.000    0.000    0.000    0.000    0.000 
#
# Total GULP energy -173452.768211 kJ/mol
# GULP energy per Si atom -12389.483444 kJ/mol
# Density = 2.229352 g / cm^3
# Si number density = 22.344379 Si / 1000 Ang^3
#
#
#
# Elastic Constant Matrix: (Units=GPa)
#
#
# Indices 1 2 3 4 5 6 
#
# 1 51.8939 7.9775 40.1624 -13.0900 -11.4250 -8.3979
# 2 7.9775 78.6331 1.3615 -7.0352 -18.8513 -7.6224
# 3 40.1624 1.3615 126.7316 -19.9501 4.9486 -0.8774
# 4 -13.0900 -7.0352 -19.9501 29.2316 1.3163 3.5624
# 5 -11.4250 -18.8513 4.9486 1.3163 40.6234 -1.1427
# 6 -8.3979 -7.6224 -0.8774 3.5624 -1.1427 21.8195
#
#
#
# Elastic Compliance Matrix: (Units=1/GPa)
#
#
# Indices 1 2 3 4 5 6 
#
# 1 0.032562 0.001254 -0.009690 0.006294 0.011058 0.012133
# 2 0.001254 0.015215 -0.000351 0.002952 0.007521 0.005696
# 3 -0.009690 -0.000351 0.011802 0.004365 -0.004589 -0.004330
# 4 0.006294 0.002952 0.004365 0.041030 0.001194 -0.003007
# 5 0.011058 0.007521 -0.004589 0.001194 0.031967 0.008178
# 6 0.012133 0.005696 -0.004330 -0.003007 0.008178 0.053235
#
#
# Mechanical properties :
#
#
# Convention : Reuss Voigt Hill
#
# Bulk Modulus (GPa) = 23.80556 39.58461 31.69509
# Shear Modulus (GPa) = 23.00071 32.18538 27.59305
#
# Velocity S-wave (km/s) = 3.21187 3.79941 3.51793
# Velocity P-wave (km/s) = 4.94286 6.08289 5.54226
#
# Compressibility (1/GPa) = 0.04200699
#
# Stress axis : x y z
#
# Youngs Moduli (GPa) = 30.71086 65.72321 84.73450
#
# Poissons Ratio (x) = -0.08244 0.82104
# Poissons Ratio (y) = -0.03852 0.02971
# Poissons Ratio (z) = 0.29758 0.02304
#
# Static dielectric constant tensor:
#      x y z
#    x 3.690390 -0.135630 0.217720 
#    y -0.135630 4.230800 0.380370 
#    z 0.217720 0.380370 5.958330 
# 
# 
# High freq. dielectric constant tensor:
#      x y z
#    x 1.837810 -0.013360 0.013930 
#    y -0.013360 1.883110 0.001700 
#    z 0.013930 0.001700 1.899920 
# 
# From -- ./inp_files/313733.got.cif
#   From: 2010.06.25/outbox.cif.g09.slc.cpg/sg2_157_cif.got.tgz:313733.got - 2010.06.27 13:26:56.
