data_PCOD8024182
_publ_section_title
;
Structure prediction by ZEFSAII (Michael W. Deem and Ramdas Pophale) SiO2 
 PCOD8024182
Probable space group: P -1
;
_chemical_formula_sum "Si O2"
_cell_formula_units_Z 16
_cell_length_a 8.148536
_cell_length_b 9.624408
_cell_length_c 11.762805
_cell_angle_alpha 116.435525
_cell_angle_beta 77.051999
_cell_angle_gamma 117.275897
_cell_volume 733.956263
_symmetry_space_group_name_H-M "P -1"
_symmetry_group_IT_number 2
_symmetry_cell_setting 'triclinic'
loop_
_space_group_symop_operation_xyz
x,y,z
-x,-y,-z
loop_
_atom_site_type_symbol
_atom_site_label
_atom_site_fract_x
_atom_site_fract_y
_atom_site_fract_z
Si Si1 0.824551 0.480421 0.260114
Si Si2 0.540875 0.687734 0.094887
Si Si3 0.315576 0.998418 0.473030
Si Si4 0.493060 0.818654 0.912805
Si Si5 0.816326 0.533223 0.530439
Si Si6 0.229243 0.636504 0.304261
Si Si7 0.143595 0.175191 0.734097
Si Si8 0.768317 0.872170 0.689308
O O1 0.709175 0.314841 0.143469
O O2 0.730359 0.462966 0.393970
O O3 0.828001 0.645744 0.257684
O O4 0.033424 0.491414 0.240667
O O5 0.383298 0.690404 0.204050
O O6 0.740294 0.787154 0.155114
O O7 0.500000 0.500000 0.000000
O O8 0.547947 0.779937 0.011835
O O9 0.208853 0.068300 0.599451
O O10 0.351293 0.108699 0.391861
O O11 0.500000 0.000000 0.500000
O O12 0.185163 0.800113 0.398453
O O13 0.640560 0.815955 0.798248
O O14 0.500000 0.000000 0.000000
O O15 0.693496 0.427166 0.618720
O O16 0.848569 0.730035 0.604145
O O17 0.000000 0.500000 0.500000
O O18 0.932454 0.056874 0.753899
#
# Coordination Sequence:
#
# PCOD8024182 Si02
#       8
#     2   2   2   2   2   2   2   2
#     4  11  24  46  73 101 144 183 231 291 362 427
#     4  12  26  46  68  98 138 187 250 282 339 415
#     4  12  24  42  75 110 146 182 226 289 366 441
#     4  12  30  46  68 103 140 190 249 299 339 411
#     4  10  23  42  72 111 142 173 230 293 366 428
#     4  11  24  44  72 107 141 186 230 292 360 427
#     4  12  24  44  76 103 138 188 230 289 360 431
#     4  12  26  47  73 106 148 183 237 295 360 422
#
# _framework density 21.799665999999998
#
# number of rings (size 3 to 8) (size 9 to 14) (size 15 to 20)
#    0.000    0.500    5.000    3.375    1.750    4.500 
#    0.000    0.000    0.000    0.000    0.000    0.000 
#    0.000    0.000    0.000    0.000    0.000    0.000 
#
# Total GULP energy -198381.392820 kJ/mol
# GULP energy per Si atom -12398.837051 kJ/mol
# Density = 2.175005 g / cm^3
# Si number density = 21.799666 Si / 1000 Ang^3
#
#
#
# Elastic Constant Matrix: (Units=GPa)
#
#
# Indices 1 2 3 4 5 6 
#
# 1 101.8991 47.1690 44.6534 -7.1676 18.0379 -7.4120
# 2 47.1690 134.1454 53.8154 -6.4128 13.3258 -32.5713
# 3 44.6534 53.8154 109.4406 -3.0601 25.1582 -15.5334
# 4 -7.1676 -6.4128 -3.0601 57.2132 -11.4729 -0.1598
# 5 18.0379 13.3258 25.1582 -11.4729 34.7739 -2.4789
# 6 -7.4120 -32.5713 -15.5334 -0.1598 -2.4789 38.6281
#
#
#
# Elastic Compliance Matrix: (Units=1/GPa)
#
#
# Indices 1 2 3 4 5 6 
#
# 1 0.013314 -0.003509 -0.003226 0.000452 -0.003214 -0.001906
# 2 -0.003509 0.012023 -0.003432 0.000859 0.000558 0.008124
# 3 -0.003226 -0.003432 0.014077 -0.001553 -0.007591 0.001655
# 4 0.000452 0.000859 -0.001553 0.018925 0.006854 0.000705
# 5 -0.003214 0.000558 -0.007591 0.006854 0.037911 -0.000737
# 6 -0.001906 0.008124 0.001655 0.000705 -0.000737 0.032994
#
#
# Mechanical properties :
#
#
# Convention : Reuss Voigt Hill
#
# Bulk Modulus (GPa) = 52.40636 70.75121 61.57878
# Shear Modulus (GPa) = 32.06407 39.44620 35.75514
#
# Velocity S-wave (km/s) = 3.83933 4.25842 4.05429
# Velocity P-wave (km/s) = 6.61408 7.53024 7.08698
#
# Compressibility (1/GPa) = 0.01908165
#
# Stress axis : x y z
#
# Youngs Moduli (GPa) = 75.11050 83.17050 71.03610
#
# Poissons Ratio (x) = 0.29187 0.22913
# Poissons Ratio (y) = 0.26358 0.24377
# Poissons Ratio (z) = 0.24227 0.28541
#
# Static dielectric constant tensor:
#      x y z
#    x 3.938550 -0.037290 0.260790 
#    y -0.037290 4.402180 -0.014550 
#    z 0.260790 -0.014550 4.333780 
# 
# 
# High freq. dielectric constant tensor:
#      x y z
#    x 1.856080 -0.012730 0.009010 
#    y -0.012730 1.874250 -0.002700 
#    z 0.009010 -0.002700 1.864150 
# 
# From -- ./inp_files/383217.got.cif
#   From: 2010.06.25/outbox.cif.g09.slc.cpg/sg2_192_cif.got.tgz:383217.got - 2010.06.27 13:26:56.
