data_PCOD8024134
_publ_section_title
;
Structure prediction by ZEFSAII (Michael W. Deem and Ramdas Pophale) SiO2 
 PCOD8024134
Probable space group: P -1
;
_chemical_formula_sum "Si O2"
_cell_formula_units_Z 16
_cell_length_a 12.263134
_cell_length_b 11.070007
_cell_length_c 18.364290
_cell_angle_alpha 57.350300
_cell_angle_beta 160.034997
_cell_angle_gamma 119.866066
_cell_volume 716.361167
_symmetry_space_group_name_H-M "P -1"
_symmetry_group_IT_number 2
_symmetry_cell_setting 'triclinic'
loop_
_space_group_symop_operation_xyz
x,y,z
-x,-y,-z
loop_
_atom_site_type_symbol
_atom_site_label
_atom_site_fract_x
_atom_site_fract_y
_atom_site_fract_z
Si Si1 0.365758 0.462369 0.758138
Si Si2 0.386244 0.182982 0.961268
Si Si3 0.750009 0.063308 0.544955
Si Si4 0.672943 0.612941 0.022968
Si Si5 0.445672 0.696798 0.204574
Si Si6 0.899242 0.950833 0.373688
Si Si7 0.594059 0.475406 0.484828
Si Si8 0.267921 0.216764 0.289630
O O1 0.400248 0.321398 0.874622
O O2 0.556262 0.433793 0.812264
O O3 0.000000 0.500000 0.500000
O O4 0.534819 0.596453 0.859910
O O5 0.407461 0.229388 0.045014
O O6 0.062979 0.101827 0.773448
O O7 0.679429 0.076854 0.158976
O O8 0.467466 0.175557 0.355208
O O9 0.804832 0.073409 0.488716
O O10 0.664090 0.902524 0.566543
O O11 0.048193 0.585544 0.273695
O O12 0.500000 0.500000 0.000000
O O13 0.708065 0.805917 0.306455
O O14 0.557346 0.630891 0.373059
O O15 0.100774 0.774269 0.969025
O O16 0.000000 0.000000 0.500000
O O17 0.500000 0.500000 0.500000
O O18 0.364685 0.367134 0.335368
#
# Coordination Sequence:
#
# PCOD8024134 Si02
#       8
#     2   2   2   2   2   2   2   2
#     4  11  24  40  74 106 138 180 232 296 354 417
#     4  11  21  45  70 104 141 176 231 295 357 408
#     4  11  23  48  73 101 144 188 237 291 354 431
#     4  10  23  42  71 102 136 177 232 289 352 412
#     4  12  25  46  70 104 140 187 247 286 358 427
#     4  12  28  43  74 109 141 185 244 304 352 416
#     4  12  27  47  68 100 146 186 234 296 354 428
#     4  11  25  46  73 102 140 198 235 278 367 434
#
# _framework density 22.335101999999999
#
# number of rings (size 3 to 8) (size 9 to 14) (size 15 to 20)
#    0.000    0.750    3.750    3.750    7.000    0.000 
#    2.250    0.625    0.000    0.000    0.000    0.000 
#    0.000    0.000    0.000    0.000    0.000    0.000 
#
# Total GULP energy -198439.295677 kJ/mol
# GULP energy per Si atom -12402.455980 kJ/mol
# Density = 2.228427 g / cm^3
# Si number density = 22.335102 Si / 1000 Ang^3
#
#
#
# Elastic Constant Matrix: (Units=GPa)
#
#
# Indices 1 2 3 4 5 6 
#
# 1 177.7443 44.1782 44.7595 -3.9292 6.0739 -18.4340
# 2 44.1782 72.7361 6.3406 -4.1607 -7.5320 -5.4828
# 3 44.7595 6.3406 68.0575 -0.6022 2.9149 -5.4608
# 4 -3.9292 -4.1607 -0.6022 38.3092 -3.8838 -3.0308
# 5 6.0739 -7.5320 2.9149 -3.8838 42.3882 2.2012
# 6 -18.4340 -5.4828 -5.4608 -3.0308 2.2012 35.6829
#
#
#
# Elastic Compliance Matrix: (Units=1/GPa)
#
#
# Indices 1 2 3 4 5 6 
#
# 1 0.008344 -0.004596 -0.004736 0.000337 -0.001812 0.003020
# 2 -0.004596 0.016939 0.001329 0.001795 0.003723 0.000355
# 3 -0.004736 0.001329 0.017738 -0.000058 -0.000336 0.000488
# 4 0.000337 0.001795 -0.000058 0.026798 0.002597 0.002557
# 5 -0.001812 0.003723 -0.000336 0.002597 0.024864 -0.001729
# 6 0.003020 0.000355 0.000488 0.002557 -0.001729 0.030038
#
#
# Mechanical properties :
#
#
# Convention : Reuss Voigt Hill
#
# Bulk Modulus (GPa) = 37.01730 56.56606 46.79168
# Shear Modulus (GPa) = 33.39377 38.16002 35.77689
#
# Velocity S-wave (km/s) = 3.87088 4.13791 4.00662
# Velocity P-wave (km/s) = 6.04879 6.94340 6.51148
#
# Compressibility (1/GPa) = 0.02701440
#
# Stress axis : x y z
#
# Youngs Moduli (GPa) = 119.85325 59.03677 56.37765
#
# Poissons Ratio (x) = 0.27131 0.26702
# Poissons Ratio (y) = 0.55079 -0.07493
# Poissons Ratio (z) = 0.56766 -0.07847
#
# Static dielectric constant tensor:
#      x y z
#    x 4.517620 -0.454290 -0.071730 
#    y -0.454290 4.407140 0.129360 
#    z -0.071730 0.129360 4.022270 
# 
# 
# High freq. dielectric constant tensor:
#      x y z
#    x 1.888230 -0.013050 0.006410 
#    y -0.013050 1.885950 -0.001540 
#    z 0.006410 -0.001540 1.878230 
# 
# From -- ./inp_files/569161.got.cif
#   From: 2010.06.25/outbox.cif.g09.slc.cpg/sg2_285_cif.got.tgz:569161.got - 2010.06.27 13:26:56.
