data_PCOD8024978
_publ_section_title
;
Structure prediction by ZEFSAII (Michael W. Deem and Ramdas Pophale) SiO2 
 PCOD8024978
Probable space group: P -1
;
_chemical_formula_sum "Si O2"
_cell_formula_units_Z 16
_cell_length_a 6.588500
_cell_length_b 5.535875
_cell_length_c 19.673485
_cell_angle_alpha 119.459936
_cell_angle_beta 98.365105
_cell_angle_gamma 82.659079
_cell_volume 616.808617
_symmetry_space_group_name_H-M "P -1"
_symmetry_group_IT_number 2
_symmetry_cell_setting 'triclinic'
loop_
_space_group_symop_operation_xyz
x,y,z
-x,-y,-z
loop_
_atom_site_type_symbol
_atom_site_label
_atom_site_fract_x
_atom_site_fract_y
_atom_site_fract_z
Si Si1 0.082185 0.552128 0.888090
Si Si2 0.013484 0.986168 0.772798
Si Si3 0.058076 0.047648 0.634249
Si Si4 0.389604 0.858979 0.412785
Si Si5 0.399176 0.803521 0.023161
Si Si6 0.707139 0.761043 0.821281
Si Si7 0.692291 0.476939 0.248184
Si Si8 0.559086 0.327327 0.412132
O O1 0.172116 0.737363 0.976965
O O2 0.227016 0.533424 0.826291
O O3 0.049311 0.232034 0.862751
O O4 0.855259 0.680727 0.880019
O O5 0.955016 0.094884 0.710139
O O6 0.834616 0.798543 0.763979
O O7 0.229369 0.807798 0.750271
O O8 0.226277 0.278049 0.667423
O O9 0.860442 0.103145 0.582586
O O10 0.191583 0.751852 0.589534
O O11 0.475921 0.527585 0.372178
O O12 0.500000 0.000000 0.500000
O O13 0.445269 0.034925 0.371758
O O14 0.500000 0.500000 0.000000
O O15 0.500000 0.000000 0.000000
O O16 0.407262 0.952943 0.117694
O O17 0.555549 0.516127 0.765444
O O18 0.500000 0.500000 0.500000
#
# Coordination Sequence:
#
# PCOD8024978 Si02
#       8
#     2   2   2   2   2   2   2   2
#     4  10  23  44  67 104 139 189 250 308 377 433
#     4  10  25  43  68 104 143 197 248 308 379 449
#     4  11  26  46  75 107 157 196 256 310 386 458
#     4  10  25  47  76 115 151 194 250 308 381 452
#     4  12  26  44  77 104 143 196 252 308 381 443
#     4  11  24  44  74  99 149 189 255 310 375 443
#     4  10  23  45  66 102 145 194 243 308 371 454
#     4  10  25  46  77 114 151 195 248 305 383 450
#
# _framework density 25.939976000000001
#
# number of rings (size 3 to 8) (size 9 to 14) (size 15 to 20)
#    0.000    1.500    1.250    1.125    7.000   10.500 
#    0.000    0.000    0.000    0.000    0.000    0.000 
#    0.000    0.000    0.000    0.000    0.000    0.000 
#
# Total GULP energy -198231.762289 kJ/mol
# GULP energy per Si atom -12389.485143 kJ/mol
# Density = 2.588094 g / cm^3
# Si number density = 25.939976 Si / 1000 Ang^3
#
#
#
# Elastic Constant Matrix: (Units=GPa)
#
#
# Indices 1 2 3 4 5 6 
#
# 1 173.7972 60.8747 39.2040 11.2377 40.4818 -15.0704
# 2 60.8747 172.4023 14.2591 15.1596 15.1551 -10.0646
# 3 39.2040 14.2591 77.4871 9.6284 27.9185 -7.6771
# 4 11.2377 15.1596 9.6284 31.3431 -2.4762 -3.8003
# 5 40.4818 15.1551 27.9185 -2.4762 44.3325 6.9122
# 6 -15.0704 -10.0646 -7.6771 -3.8003 6.9122 40.1145
#
#
#
# Elastic Compliance Matrix: (Units=1/GPa)
#
#
# Indices 1 2 3 4 5 6 
#
# 1 0.008871 -0.001986 -0.000705 -0.002148 -0.007693 0.003821
# 2 -0.001986 0.006865 0.000644 -0.002778 -0.001259 0.001053
# 3 -0.000705 0.000644 0.019006 -0.006279 -0.012695 0.005127
# 4 -0.002148 -0.002778 -0.006279 0.036564 0.009031 -0.000798
# 5 -0.007693 -0.001259 -0.012695 0.009031 0.040340 -0.011731
# 6 0.003821 0.001053 0.005127 -0.000798 -0.011731 0.029556
#
#
# Mechanical properties :
#
#
# Convention : Reuss Voigt Hill
#
# Bulk Modulus (GPa) = 32.62863 72.48467 52.55665
# Shear Modulus (GPa) = 32.15233 43.78128 37.96680
#
# Velocity S-wave (km/s) = 3.52446 4.11273 3.82991
# Velocity P-wave (km/s) = 5.40076 7.11032 6.31367
#
# Compressibility (1/GPa) = 0.03064793
#
# Stress axis : x y z
#
# Youngs Moduli (GPa) = 112.73279 145.67438 52.61545
#
# Poissons Ratio (x) = 0.28925 0.03711
# Poissons Ratio (y) = 0.22385 -0.03391
# Poissons Ratio (z) = 0.07952 -0.09389
#
# Static dielectric constant tensor:
#      x y z
#    x 4.784270 0.108170 0.063220 
#    y 0.108170 5.847880 0.111030 
#    z 0.063220 0.111030 4.586540 
# 
# 
# High freq. dielectric constant tensor:
#      x y z
#    x 2.041490 -0.003990 0.001210 
#    y -0.003990 2.046630 0.014710 
#    z 0.001210 0.014710 2.026770 
# 
# From -- ./inp_files/14813.got.cif
#   From: 2010.06.25/outbox.cif.g09.slc.cpg/sg2_8_cif.got.tgz:14813.got - 2010.06.27 13:26:56.
