data_PCOD8024830
_publ_section_title
;
Structure prediction by ZEFSAII (Michael W. Deem and Ramdas Pophale) SiO2 
 PCOD8024830
Probable space group: P -1
;
_chemical_formula_sum "Si O2"
_cell_formula_units_Z 16
_cell_length_a 5.011382
_cell_length_b 17.525728
_cell_length_c 8.735983
_cell_angle_alpha 107.490331
_cell_angle_beta 87.166294
_cell_angle_gamma 70.577997
_cell_volume 680.566871
_symmetry_space_group_name_H-M "P -1"
_symmetry_group_IT_number 2
_symmetry_cell_setting 'triclinic'
loop_
_space_group_symop_operation_xyz
x,y,z
-x,-y,-z
loop_
_atom_site_type_symbol
_atom_site_label
_atom_site_fract_x
_atom_site_fract_y
_atom_site_fract_z
Si Si1 0.014417 0.483439 0.245315
Si Si2 0.873419 0.392950 0.462561
Si Si3 0.512648 0.280116 0.429296
Si Si4 0.597903 0.579123 0.070496
Si Si5 0.913322 0.141584 0.118283
Si Si6 0.344875 0.764849 0.263448
Si Si7 0.681292 0.018061 0.873227
Si Si8 0.227313 0.159629 0.838312
O O1 0.869864 0.428446 0.313069
O O2 0.186618 0.526960 0.372853
O O3 0.784996 0.562539 0.209279
O O4 0.221390 0.415467 0.080137
O O5 0.169875 0.313794 0.441889
O O6 0.608338 0.362055 0.469310
O O7 0.653526 0.218482 0.245604
O O8 0.611779 0.227986 0.552534
O O9 0.344647 0.670789 0.157990
O O10 0.500000 0.500000 0.000000
O O11 0.810484 0.088463 0.964529
O O12 0.074499 0.076789 0.215797
O O13 0.114184 0.178456 0.030443
O O14 0.609911 0.777088 0.175317
O O15 0.032768 0.832187 0.265233
O O16 0.466677 0.061029 0.763152
O O17 0.500000 0.000000 0.000000
#
# Coordination Sequence:
#
# PCOD8024830 Si02
#       8
#     2   2   2   2   2   2   2   2
#     4  10  25  43  65  93 126 183 229 278 337 393
#     4  11  26  45  67  93 135 175 231 282 331 398
#     4  12  27  44  67 102 138 175 219 285 341 388
#     4  11  25  42  66  93 134 181 228 279 339 396
#     4  10  23  43  75 102 134 175 225 273 332 399
#     4  12  26  44  66  98 143 174 221 282 343 392
#     4   9  20  44  73 102 136 170 225 273 324 402
#     4  11  24  44  70  99 132 180 221 273 329 405
#
# _framework density 23.509810999999999
#
# number of rings (size 3 to 8) (size 9 to 14) (size 15 to 20)
#    0.000    1.250    2.500    1.500   12.250    1.000 
#    0.000    1.250    0.000    0.000    0.000    0.000 
#    0.000    0.000    0.000    0.000    0.000    0.000 
#
# Total GULP energy -198326.940926 kJ/mol
# GULP energy per Si atom -12395.433808 kJ/mol
# Density = 2.345630 g / cm^3
# Si number density = 23.509811 Si / 1000 Ang^3
#
#
#
# Elastic Constant Matrix: (Units=GPa)
#
#
# Indices 1 2 3 4 5 6 
#
# 1 73.0300 13.6485 8.0879 -6.2744 -4.5869 2.9224
# 2 13.6485 77.5255 33.4357 -20.1274 -7.2364 -2.1488
# 3 8.0879 33.4357 75.2330 -22.9540 -8.1398 -1.1851
# 4 -6.2744 -20.1274 -22.9540 30.5287 -0.1619 2.3153
# 5 -4.5869 -7.2364 -8.1398 -0.1619 16.8032 -1.5471
# 6 2.9224 -2.1488 -1.1851 2.3153 -1.5471 50.5003
#
#
#
# Elastic Compliance Matrix: (Units=1/GPa)
#
#
# Indices 1 2 3 4 5 6 
#
# 1 0.014421 -0.001838 0.000204 0.001990 0.003180 -0.000902
# 2 -0.001838 0.017774 -0.004804 0.007713 0.004950 0.000548
# 3 0.000204 -0.004804 0.019854 0.011847 0.007713 -0.000057
# 4 0.001990 0.007713 0.011847 0.047315 0.009933 -0.001374
# 5 0.003180 0.004950 0.007713 0.009933 0.066509 0.001790
# 6 -0.000902 0.000548 -0.000057 -0.001374 0.001790 0.019994
#
#
# Mechanical properties :
#
#
# Convention : Reuss Voigt Hill
#
# Bulk Modulus (GPa) = 25.52881 37.34806 31.43843
# Shear Modulus (GPa) = 23.60708 30.94088 27.27398
#
# Velocity S-wave (km/s) = 3.17225 3.63172 3.40973
# Velocity P-wave (km/s) = 4.92950 5.78848 5.37617
#
# Compressibility (1/GPa) = 0.03917143
#
# Stress axis : x y z
#
# Youngs Moduli (GPa) = 69.34440 56.26077 50.36890
#
# Poissons Ratio (x) = 0.10341 -0.01026
# Poissons Ratio (y) = 0.12746 0.24199
# Poissons Ratio (z) = -0.01413 0.27029
#
# Static dielectric constant tensor:
#      x y z
#    x 4.151140 -0.293880 -0.101630 
#    y -0.293880 4.863590 -0.272550 
#    z -0.101630 -0.272550 4.031390 
# 
# 
# High freq. dielectric constant tensor:
#      x y z
#    x 1.938320 -0.005900 -0.010000 
#    y -0.005900 1.943020 -0.022440 
#    z -0.010000 -0.022440 1.897650 
# 
# From -- ./inp_files/139243.got.cif
#   From: 2010.06.25/outbox.cif.g09.slc.cpg/sg2_70_cif.got.tgz:139243.got - 2010.06.27 13:26:56.
