data_PCOD8024910
_publ_section_title
;
Structure prediction by ZEFSAII (Michael W. Deem and Ramdas Pophale) SiO2 
 PCOD8024910
Probable space group: P -1
;
_chemical_formula_sum "Si O2"
_cell_formula_units_Z 14
_cell_length_a 17.021926
_cell_length_b 11.618535
_cell_length_c 8.124852
_cell_angle_alpha 72.608622
_cell_angle_beta 42.977410
_cell_angle_gamma 41.574468
_cell_volume 607.488837
_symmetry_space_group_name_H-M "P -1"
_symmetry_group_IT_number 2
_symmetry_cell_setting 'triclinic'
loop_
_space_group_symop_operation_xyz
x,y,z
-x,-y,-z
loop_
_atom_site_type_symbol
_atom_site_label
_atom_site_fract_x
_atom_site_fract_y
_atom_site_fract_z
Si Si1 0.982783 0.396249 0.677840
Si Si2 0.239832 0.515936 0.300813
Si Si3 0.420935 0.641083 0.328339
Si Si4 0.678620 0.816806 0.545464
Si Si5 0.037861 0.886912 0.648056
Si Si6 0.615548 0.234184 0.308155
Si Si7 0.350013 0.240322 0.734877
O O1 0.910994 0.352076 0.682920
O O2 0.000000 0.500000 0.500000
O O3 0.187792 0.200409 0.548172
O O4 0.821797 0.543479 0.004142
O O5 0.298498 0.331592 0.341191
O O6 0.126674 0.681068 0.549473
O O7 0.446872 0.402502 0.989551
O O8 0.194519 0.826695 0.541577
O O9 0.512139 0.430413 0.286742
O O10 0.418422 0.717151 0.467735
O O11 0.740435 0.755549 0.283674
O O12 0.453812 0.059894 0.784133
O O13 0.000000 0.000000 0.500000
O O14 0.844755 0.030885 0.993322
O O15 0.511353 0.197498 0.434685
#
# Coordination Sequence:
#
# PCOD8024910 Si02
#       7
#     2   2   2   2   2   2   2
#     4  10  23  44  65  98 132 177 222 273 329 393
#     4  11  23  46  69  98 137 178 217 282 332 389
#     4  11  24  47  69  97 139 175 223 276 333 393
#     4  10  25  42  71  96 135 172 223 276 329 395
#     4  12  26  42  68 105 133 175 226 271 335 400
#     4  11  25  45  71  99 136 177 221 275 332 399
#     4  11  23  44  68 101 131 177 223 269 339 391
#
# _framework density 23.045693
#
# number of rings (size 3 to 8) (size 9 to 14) (size 15 to 20)
#    0.000    1.143    2.857    2.143    2.000   10.286 
#    0.000    0.000    0.000    0.000    0.000    0.000 
#    0.000    0.000    0.000    0.000    0.000    0.000 
#
# Total GULP energy -173583.044807 kJ/mol
# GULP energy per Si atom -12398.788915 kJ/mol
# Density = 2.299324 g / cm^3
# Si number density = 23.045693 Si / 1000 Ang^3
#
#
#
# Elastic Constant Matrix: (Units=GPa)
#
#
# Indices 1 2 3 4 5 6 
#
# 1 87.0908 8.5045 6.2885 3.2445 -15.6348 -22.0321
# 2 8.5045 78.9164 17.5591 -3.1026 -4.8696 -7.7547
# 3 6.2885 17.5591 113.5077 3.6631 -4.5916 -5.0768
# 4 3.2445 -3.1026 3.6631 20.9676 3.8458 -3.9567
# 5 -15.6348 -4.8696 -4.5916 3.8458 34.3673 8.0761
# 6 -22.0321 -7.7547 -5.0768 -3.9567 8.0761 37.5997
#
#
#
# Elastic Compliance Matrix: (Units=1/GPa)
#
#
# Indices 1 2 3 4 5 6 
#
# 1 0.014271 -0.000593 -0.000126 -0.001871 0.004965 0.006959
# 2 -0.000593 0.013561 -0.002029 0.002804 0.000512 0.002360
# 3 -0.000126 -0.002029 0.009253 -0.002028 0.001043 0.000319
# 4 -0.001871 0.002804 -0.002028 0.051407 -0.007965 0.006328
# 5 0.004965 0.000512 0.001043 -0.007965 0.033611 -0.004902
# 6 0.006959 0.002360 0.000319 0.006328 -0.004902 0.032923
#
#
# Mechanical properties :
#
#
# Convention : Reuss Voigt Hill
#
# Bulk Modulus (GPa) = 31.65822 38.24659 34.95240
# Shear Modulus (GPa) = 29.23090 35.06443 32.14766
#
# Velocity S-wave (km/s) = 3.56531 3.90490 3.73896
# Velocity P-wave (km/s) = 5.54216 6.07972 5.81715
#
# Compressibility (1/GPa) = 0.03158738
#
# Stress axis : x y z
#
# Youngs Moduli (GPa) = 70.07207 73.74175 108.07533
#
# Poissons Ratio (x) = 0.04374 0.01366
# Poissons Ratio (y) = 0.04156 0.21930
# Poissons Ratio (z) = 0.00885 0.14963
#
# Static dielectric constant tensor:
#      x y z
#    x 4.806090 -0.092490 0.011850 
#    y -0.092490 4.193380 0.245660 
#    z 0.011850 0.245660 4.266680 
# 
# 
# High freq. dielectric constant tensor:
#      x y z
#    x 1.930650 -0.008610 -0.002950 
#    y -0.008610 1.905400 0.002160 
#    z -0.002950 0.002160 1.906340 
# 
# From -- ./inp_files/90615.got.cif
#   From: 2010.06.25/outbox.cif.g09.slc.cpg/sg2_46_cif.got.tgz:90615.got - 2010.06.27 13:26:56.
