data_PCOD8024955
_publ_section_title
;
Structure prediction by ZEFSAII (Michael W. Deem and Ramdas Pophale) SiO2 
 PCOD8024955
Probable space group: P -1
;
_chemical_formula_sum "Si O2"
_cell_formula_units_Z 14
_cell_length_a 11.057398
_cell_length_b 4.871567
_cell_length_c 19.793247
_cell_angle_alpha 81.769051
_cell_angle_beta 33.994334
_cell_angle_gamma 91.170189
_cell_volume 571.033530
_symmetry_space_group_name_H-M "P -1"
_symmetry_group_IT_number 2
_symmetry_cell_setting 'triclinic'
loop_
_space_group_symop_operation_xyz
x,y,z
-x,-y,-z
loop_
_atom_site_type_symbol
_atom_site_label
_atom_site_fract_x
_atom_site_fract_y
_atom_site_fract_z
Si Si1 0.075303 0.980440 0.064189
Si Si2 0.689508 0.573148 0.854235
Si Si3 0.402155 0.272551 0.753313
Si Si4 0.362647 0.591855 0.891695
Si Si5 0.264512 0.377549 0.501749
Si Si6 0.816599 0.115254 0.542044
Si Si7 0.036407 0.852109 0.239491
O O1 0.023811 0.826915 0.165629
O O2 0.178278 0.316477 0.016027
O O3 0.845386 0.929856 0.130746
O O4 0.253019 0.861046 0.941720
O O5 0.591005 0.652481 0.826440
O O6 0.772099 0.287481 0.815878
O O7 0.896561 0.824433 0.775357
O O8 0.500000 0.500000 0.000000
O O9 0.412842 0.526462 0.793393
O O10 0.483475 0.429423 0.637451
O O11 0.584837 0.088054 0.694221
O O12 0.099863 0.551852 0.533703
O O13 0.201482 0.322298 0.611833
O O14 0.238703 0.066633 0.493730
O O15 0.000000 0.000000 0.500000
#
# Coordination Sequence:
#
# PCOD8024955 Si02
#       7
#     2   2   2   2   2   2   2
#     4  12  25  45  70  99 140 184 230 279 339 411
#     4  12  23  44  68 102 138 179 231 281 352 393
#     4  10  28  44  71 100 141 182 229 276 350 409
#     4  12  26  43  71 101 136 183 230 291 333 408
#     4  10  25  42  67 102 133 180 223 286 341 408
#     4  10  23  44  66  97 138 179 228 278 340 405
#     4  12  24  44  70 103 140 176 229 288 338 417
#
# _framework density 24.516950999999999
#
# number of rings (size 3 to 8) (size 9 to 14) (size 15 to 20)
#    0.857    0.000    2.857    3.429    6.000    1.714 
#    0.000    0.714    0.000    0.000    0.000    0.000 
#    0.000    0.000    0.000    0.000    0.000    0.000 
#
# Total GULP energy -173522.259272 kJ/mol
# GULP energy per Si atom -12394.447091 kJ/mol
# Density = 2.446115 g / cm^3
# Si number density = 24.516951 Si / 1000 Ang^3
#
#
#
# Elastic Constant Matrix: (Units=GPa)
#
#
# Indices 1 2 3 4 5 6 
#
# 1 74.4983 4.3315 13.7518 16.1808 -6.4787 0.2729
# 2 4.3315 75.3896 2.6083 14.1637 -5.9170 5.8306
# 3 13.7518 2.6083 109.3753 7.2525 10.1113 -5.3605
# 4 16.1808 14.1637 7.2525 29.0280 -1.5156 5.0710
# 5 -6.4787 -5.9170 10.1113 -1.5156 33.1113 -0.7438
# 6 0.2729 5.8306 -5.3605 5.0710 -0.7438 26.0100
#
#
#
# Elastic Compliance Matrix: (Units=1/GPa)
#
#
# Indices 1 2 3 4 5 6 
#
# 1 0.015916 0.001010 -0.001694 -0.008955 0.003427 0.001101
# 2 0.001010 0.014942 -0.000334 -0.007298 0.002592 -0.001932
# 3 -0.001694 -0.000334 0.009934 -0.001979 -0.003461 0.002427
# 4 -0.008955 -0.007298 -0.001979 0.044763 -0.000570 -0.007422
# 5 0.003427 0.002592 -0.003461 -0.000570 0.032359 -0.000294
# 6 0.001101 -0.001932 0.002427 -0.007422 -0.000294 0.040807
#
#
# Mechanical properties :
#
#
# Convention : Reuss Voigt Hill
#
# Bulk Modulus (GPa) = 25.80212 33.40517 29.60365
# Shear Modulus (GPa) = 28.78931 33.53462 31.16197
#
# Velocity S-wave (km/s) = 3.43047 3.70241 3.56903
# Velocity P-wave (km/s) = 5.12229 5.65084 5.39305
#
# Compressibility (1/GPa) = 0.03875650
#
# Stress axis : x y z
#
# Youngs Moduli (GPa) = 62.82931 66.92626 100.66506
#
# Poissons Ratio (x) = -0.06762 0.17055
# Poissons Ratio (y) = -0.06348 0.03360
# Poissons Ratio (z) = 0.10645 0.02234
#
# Static dielectric constant tensor:
#      x y z
#    x 4.040350 -0.073140 0.136260 
#    y -0.073140 4.646240 0.067900 
#    z 0.136260 0.067900 4.605050 
# 
# 
# High freq. dielectric constant tensor:
#      x y z
#    x 1.938680 -0.007380 0.018070 
#    y -0.007380 1.989230 0.002490 
#    z 0.018070 0.002490 1.991340 
# 
# From -- ./inp_files/592764.got.cif
#   From: 2010.06.25/outbox.cif.g09.slc.cpg/sg2_297_cif.got.tgz:592764.got - 2010.06.27 13:26:56.
