data_PCOD8024979
_publ_section_title
;
Structure prediction by ZEFSAII (Michael W. Deem and Ramdas Pophale) SiO2 
 PCOD8024979
Probable space group: P -1
;
_chemical_formula_sum "Si O2"
_cell_formula_units_Z 14
_cell_length_a 12.035441
_cell_length_b 8.202047
_cell_length_c 17.919552
_cell_angle_alpha 70.891828
_cell_angle_beta 160.181383
_cell_angle_gamma 106.157919
_cell_volume 564.263910
_symmetry_space_group_name_H-M "P -1"
_symmetry_group_IT_number 2
_symmetry_cell_setting 'triclinic'
loop_
_space_group_symop_operation_xyz
x,y,z
-x,-y,-z
loop_
_atom_site_type_symbol
_atom_site_label
_atom_site_fract_x
_atom_site_fract_y
_atom_site_fract_z
Si Si1 0.885055 0.474845 0.552912
Si Si2 0.206084 0.164190 0.361279
Si Si3 0.087834 0.858918 0.139865
Si Si4 0.680216 0.935375 0.007598
Si Si5 0.771407 0.520280 0.781281
Si Si6 0.285288 0.283915 0.722057
Si Si7 0.305894 0.663449 0.895400
O O1 0.609247 0.433790 0.443099
O O2 0.763070 0.643419 0.402572
O O3 0.957525 0.320064 0.561197
O O4 0.225391 0.508244 0.809855
O O5 0.584476 0.088871 0.619400
O O6 0.145836 0.318784 0.239863
O O7 0.058002 0.235863 0.336956
O O8 0.009475 0.003384 0.238094
O O9 0.175940 0.660889 0.201242
O O10 0.000000 0.000000 0.000000
O O11 0.769794 0.867676 0.991293
O O12 0.375450 0.081672 0.796010
O O13 0.574703 0.780376 0.013707
O O14 0.000000 0.500000 0.000000
O O15 0.566157 0.377800 0.932023
#
# Coordination Sequence:
#
# PCOD8024979 Si02
#       7
#     2   2   2   2   2   2   2
#     4  11  24  44  72 102 140 191 237 303 355 428
#     4  11  24  48  75 103 147 191 242 295 366 431
#     4  12  26  47  74 109 147 187 243 297 366 436
#     4  11  26  46  71 104 143 188 234 301 361 431
#     4  12  26  47  75 107 145 189 247 300 359 433
#     4  10  23  44  67 104 141 183 240 293 359 428
#     4  11  24  46  74 100 146 185 245 296 360 431
#
# _framework density 24.811084000000001
#
# number of rings (size 3 to 8) (size 9 to 14) (size 15 to 20)
#    0.000    0.857    1.429    6.429    2.000    5.143 
#    7.714    0.000    0.000    0.000    0.000    0.000 
#    0.000    0.000    0.000    0.000    0.000    0.000 
#
# Total GULP energy -173554.710377 kJ/mol
# GULP energy per Si atom -12396.765027 kJ/mol
# Density = 2.475461 g / cm^3
# Si number density = 24.811084 Si / 1000 Ang^3
#
#
#
# Elastic Constant Matrix: (Units=GPa)
#
#
# Indices 1 2 3 4 5 6 
#
# 1 146.8292 50.4106 44.5862 2.2162 18.0220 2.3098
# 2 50.4106 98.4472 51.8643 -5.7932 16.1750 4.8687
# 3 44.5862 51.8643 124.9524 -0.2129 -5.7742 17.2355
# 4 2.2162 -5.7932 -0.2129 40.0965 2.5003 4.7114
# 5 18.0220 16.1750 -5.7742 2.5003 45.5089 -12.2089
# 6 2.3098 4.8687 17.2355 4.7114 -12.2089 41.2993
#
#
#
# Elastic Compliance Matrix: (Units=1/GPa)
#
#
# Indices 1 2 3 4 5 6 
#
# 1 0.008801 -0.003082 -0.001986 -0.000783 -0.002593 0.000023
# 2 -0.003082 0.015817 -0.005530 0.002940 -0.005636 -0.001386
# 3 -0.001986 -0.005530 0.011578 -0.000491 0.003444 -0.002995
# 4 -0.000783 0.002940 -0.000491 0.026089 -0.003318 -0.004055
# 5 -0.002593 -0.005636 0.003444 -0.003318 0.027758 0.007956
# 6 0.000023 -0.001386 -0.002995 -0.004055 0.007956 0.028440
#
#
# Mechanical properties :
#
#
# Convention : Reuss Voigt Hill
#
# Bulk Modulus (GPa) = 66.65805 73.77231 70.21518
# Shear Modulus (GPa) = 34.55961 40.27211 37.41586
#
# Velocity S-wave (km/s) = 3.73622 4.03320 3.88755
# Velocity P-wave (km/s) = 6.74811 7.17545 6.96506
#
# Compressibility (1/GPa) = 0.01500194
#
# Stress axis : x y z
#
# Youngs Moduli (GPa) = 113.61793 63.22486 86.36965
#
# Poissons Ratio (x) = 0.19486 0.17150
# Poissons Ratio (y) = 0.35017 0.47758
# Poissons Ratio (z) = 0.22560 0.34960
#
# Static dielectric constant tensor:
#      x y z
#    x 5.049460 -0.339090 0.162830 
#    y -0.339090 4.289330 -0.102900 
#    z 0.162830 -0.102900 5.048530 
# 
# 
# High freq. dielectric constant tensor:
#      x y z
#    x 2.012600 -0.016680 0.017350 
#    y -0.016680 1.980150 -0.020060 
#    z 0.017350 -0.020060 1.999910 
# 
# From -- ./inp_files/566706.got.cif
#   From: 2010.06.25/outbox.cif.g09.slc.cpg/sg2_284_cif.got.tgz:566706.got - 2010.06.27 13:26:56.
