data_PCOD8024387
_publ_section_title
;
Structure prediction by ZEFSAII (Michael W. Deem and Ramdas Pophale) SiO2 
 PCOD8024387
Probable space group: P -1
;
_chemical_formula_sum "Si O2"
_cell_formula_units_Z 12
_cell_length_a 9.201910
_cell_length_b 14.621547
_cell_length_c 9.769415
_cell_angle_alpha 122.365388
_cell_angle_beta 29.975289
_cell_angle_gamma 115.724071
_cell_volume 553.332777
_symmetry_space_group_name_H-M "P -1"
_symmetry_group_IT_number 2
_symmetry_cell_setting 'triclinic'
loop_
_space_group_symop_operation_xyz
x,y,z
-x,-y,-z
loop_
_atom_site_type_symbol
_atom_site_label
_atom_site_fract_x
_atom_site_fract_y
_atom_site_fract_z
Si Si1 0.256427 0.542180 0.127690
Si Si2 0.446325 0.737198 0.718616
Si Si3 0.387750 0.895540 0.659068
Si Si4 0.683952 0.685896 0.767041
Si Si5 0.093746 0.394555 0.923853
Si Si6 0.743799 0.862088 0.086574
O O1 0.995053 0.617679 0.468899
O O2 0.500000 0.500000 0.000000
O O3 0.417039 0.608493 0.933158
O O4 0.127958 0.434418 0.083743
O O5 0.423116 0.852229 0.750650
O O6 0.640389 0.746973 0.705425
O O7 0.595815 0.648854 0.423444
O O8 0.126507 0.700123 0.982940
O O9 0.636243 0.840091 0.311556
O O10 0.411265 0.024602 0.750426
O O11 0.088848 0.865624 0.809276
O O12 0.654479 0.769870 0.982785
O O13 0.000000 0.500000 0.000000
#
# Coordination Sequence:
#
# PCOD8024387 Si02
#       6
#     2   2   2   2   2   2
#     4  12  27  41  61  94 128 169 211 256 312 365
#     4  12  24  40  68  93 124 170 212 252 315 373
#     4  10  23  43  66  95 121 167 208 255 323 376
#     4  12  24  43  63  95 128 164 210 264 309 368
#     4  12  23  43  62  89 131 169 205 258 306 375
#     4  10  23  43  66  92 130 158 207 266 313 374
#
# _framework density 21.686769000000002
#
# number of rings (size 3 to 8) (size 9 to 14) (size 15 to 20)
#    0.000    0.667    3.333    4.000    7.000    0.667 
#    0.000    0.000    0.000   10.000    0.000    0.000 
#    0.000    0.000    0.000    0.000    0.000    0.000 
#
# Total GULP energy -148845.321877 kJ/mol
# GULP energy per Si atom -12403.776823 kJ/mol
# Density = 2.163741 g / cm^3
# Si number density = 21.686769 Si / 1000 Ang^3
#
#
#
# Elastic Constant Matrix: (Units=GPa)
#
#
# Indices 1 2 3 4 5 6 
#
# 1 100.2750 25.2979 19.2648 12.1261 8.3476 -3.1446
# 2 25.2979 61.1844 19.8354 -10.2296 4.6501 -11.2977
# 3 19.2648 19.8354 108.7335 -1.1227 1.9749 7.6547
# 4 12.1261 -10.2296 -1.1227 32.8502 2.5509 1.8800
# 5 8.3476 4.6501 1.9749 2.5509 30.0419 -3.2225
# 6 -3.1446 -11.2977 7.6547 1.8800 -3.2225 34.7985
#
#
#
# Elastic Compliance Matrix: (Units=1/GPa)
#
#
# Indices 1 2 3 4 5 6 
#
# 1 0.012578 -0.005779 -0.001180 -0.006307 -0.002022 -0.000327
# 2 -0.005779 0.022767 -0.003501 0.008834 -0.001687 0.007006
# 3 -0.001180 -0.003501 0.010294 -0.000088 -0.000177 -0.003519
# 4 -0.006307 0.008834 -0.000088 0.035713 -0.002626 0.000145
# 5 -0.002022 -0.001687 -0.000177 -0.002626 0.034630 0.002657
# 6 -0.000327 0.007006 -0.003519 0.000145 0.002657 0.031994
#
#
# Mechanical properties :
#
#
# Convention : Reuss Voigt Hill
#
# Bulk Modulus (GPa) = 40.45231 44.33213 42.39222
# Shear Modulus (GPa) = 28.22687 33.25776 30.74232
#
# Velocity S-wave (km/s) = 3.61164 3.92031 3.76914
# Velocity P-wave (km/s) = 6.00712 6.40142 6.20740
#
# Compressibility (1/GPa) = 0.02472046
#
# Stress axis : x y z
#
# Youngs Moduli (GPa) = 79.50321 43.92265 97.13968
#
# Poissons Ratio (x) = 0.25385 0.11459
# Poissons Ratio (y) = 0.45948 0.34005
# Poissons Ratio (z) = 0.09378 0.15376
#
# Static dielectric constant tensor:
#      x y z
#    x 3.754690 -0.320270 -0.087140 
#    y -0.320270 3.741990 -0.174840 
#    z -0.087140 -0.174840 4.002070 
# 
# 
# High freq. dielectric constant tensor:
#      x y z
#    x 1.850610 -0.012610 -0.006120 
#    y -0.012610 1.848010 -0.007980 
#    z -0.006120 -0.007980 1.865150 
# 
# From -- ./inp_files/29124.got.cif
#   From: 2010.06.25/outbox.cif.g09.slc.cpg/sg2_15_cif.got.tgz:29124.got - 2010.06.27 13:26:56.
