data_PCOD8024440
_publ_section_title
;
Structure prediction by ZEFSAII (Michael W. Deem and Ramdas Pophale) SiO2 
 PCOD8024440
Probable space group: P -1
;
_chemical_formula_sum "Si O2"
_cell_formula_units_Z 16
_cell_length_a 18.418449
_cell_length_b 22.416023
_cell_length_c 9.889777
_cell_angle_alpha 45.876685
_cell_angle_beta 123.995671
_cell_angle_gamma 162.754498
_cell_volume 754.033282
_symmetry_space_group_name_H-M "P -1"
_symmetry_group_IT_number 2
_symmetry_cell_setting 'triclinic'
loop_
_space_group_symop_operation_xyz
x,y,z
-x,-y,-z
loop_
_atom_site_type_symbol
_atom_site_label
_atom_site_fract_x
_atom_site_fract_y
_atom_site_fract_z
Si Si1 0.248417 0.912213 0.272687
Si Si2 0.428856 0.317277 0.802758
Si Si3 0.565563 0.730544 0.828972
Si Si4 0.698826 0.028046 0.471710
Si Si5 0.831133 0.347045 0.430004
Si Si6 0.103135 0.515652 0.993242
Si Si7 0.892271 0.733871 0.112418
Si Si8 0.201811 0.289736 0.657581
O O1 0.198047 0.908336 0.373187
O O2 0.166606 0.743721 0.478292
O O3 0.032682 0.768711 0.180949
O O4 0.564936 0.202470 0.084717
O O5 0.379727 0.365843 0.730030
O O6 0.676031 0.538404 0.600629
O O7 0.530549 0.352727 0.980957
O O8 0.144098 0.027266 0.891528
O O9 0.355019 0.481179 0.917833
O O10 0.566020 0.820975 0.608597
O O11 0.881345 0.977848 0.773916
O O12 0.480265 0.905435 0.457393
O O13 0.943701 0.286001 0.225185
O O14 0.961532 0.522700 0.171348
O O15 0.000000 0.500000 0.500000
O O16 0.000000 0.500000 0.000000
O O17 0.761969 0.630822 0.287589
#
# Coordination Sequence:
#
# PCOD8024440 Si02
#       8
#     2   2   2   2   2   2   2   2
#     4  11  21  39  62  86 122 162 210 255 307 368
#     4  10  23  44  67  93 127 166 202 253 317 376
#     4  11  23  40  66  94 129 165 207 260 309 370
#     4  11  21  40  61  86 121 164 208 251 309 367
#     4  11  23  38  58  88 125 155 205 262 305 362
#     4  11  21  39  64  83 112 170 211 249 311 366
#     4  11  23  40  65  95 126 166 207 259 311 369
#     4  10  23  43  67  94 127 163 205 254 312 382
#
# _framework density 21.219221999999998
#
# number of rings (size 3 to 8) (size 9 to 14) (size 15 to 20)
#    0.000    1.250    5.000    3.000    1.750    3.500 
#    0.000    3.750    0.000    0.000    0.000    0.000 
#    0.000    0.000    0.000    0.000    0.000    0.000 
#
# Total GULP energy -198314.413336 kJ/mol
# GULP energy per Si atom -12394.650834 kJ/mol
# Density = 2.117093 g / cm^3
# Si number density = 21.219222 Si / 1000 Ang^3
#
#
#
# Elastic Constant Matrix: (Units=GPa)
#
#
# Indices 1 2 3 4 5 6 
#
# 1 29.0527 7.6342 8.0874 0.5320 1.9737 -6.5404
# 2 7.6342 111.0155 38.0522 3.8421 -18.1230 -27.5609
# 3 8.0874 38.0522 137.2961 -11.9269 -12.3700 -8.1807
# 4 0.5320 3.8421 -11.9269 23.4284 3.1304 5.9418
# 5 1.9737 -18.1230 -12.3700 3.1304 40.2304 -0.1624
# 6 -6.5404 -27.5609 -8.1807 5.9418 -0.1624 23.1276
#
#
#
# Elastic Compliance Matrix: (Units=1/GPa)
#
#
# Indices 1 2 3 4 5 6 
#
# 1 0.037833 0.001355 -0.002445 -0.005373 -0.001527 0.012819
# 2 0.001355 0.017677 -0.003934 -0.011833 0.007701 0.023152
# 3 -0.002445 -0.003934 0.008874 0.006105 0.000586 -0.003804
# 4 -0.005373 -0.011833 0.006105 0.055949 -0.007656 -0.027889
# 5 -0.001527 0.007701 0.000586 -0.007656 0.029222 0.011125
# 6 0.012819 0.023152 -0.003804 -0.027889 0.011125 0.080351
#
#
# Mechanical properties :
#
#
# Convention : Reuss Voigt Hill
#
# Bulk Modulus (GPa) = 18.40332 42.76799 30.58565
# Shear Modulus (GPa) = 19.37495 32.26332 25.81914
#
# Velocity S-wave (km/s) = 3.02501 3.90356 3.49202
# Velocity P-wave (km/s) = 4.57085 6.36522 5.54115
#
# Compressibility (1/GPa) = 0.05433802
#
# Stress axis : x y z
#
# Youngs Moduli (GPa) = 26.43226 56.56943 112.68559
#
# Poissons Ratio (x) = -0.07668 0.27549
# Poissons Ratio (y) = -0.03583 0.44328
# Poissons Ratio (z) = 0.06462 0.22253
#
# Static dielectric constant tensor:
#      x y z
#    x 3.459130 0.334120 -0.171270 
#    y 0.334120 3.340510 0.095910 
#    z -0.171270 0.095910 3.914330 
# 
# 
# High freq. dielectric constant tensor:
#      x y z
#    x 1.837980 0.010780 0.008850 
#    y 0.010780 1.810840 -0.002040 
#    z 0.008850 -0.002040 1.839240 
# 
# From -- ./inp_files/337621.got.cif
#   From: 2010.06.25/outbox.cif.g09.slc.cpg/sg2_169_cif.got.tgz:337621.got - 2010.06.27 13:26:56.
