data_PCOD8024662
_publ_section_title
;
Structure prediction by ZEFSAII (Michael W. Deem and Ramdas Pophale) SiO2 
 PCOD8024662
Probable space group: P -1
;
_chemical_formula_sum "Si O2"
_cell_formula_units_Z 12
_cell_length_a 5.393535
_cell_length_b 19.897530
_cell_length_c 16.509911
_cell_angle_alpha 20.820922
_cell_angle_beta 49.908936
_cell_angle_gamma 49.053682
_cell_volume 472.418353
_symmetry_space_group_name_H-M "P -1"
_symmetry_group_IT_number 2
_symmetry_cell_setting 'triclinic'
loop_
_space_group_symop_operation_xyz
x,y,z
-x,-y,-z
loop_
_atom_site_type_symbol
_atom_site_label
_atom_site_fract_x
_atom_site_fract_y
_atom_site_fract_z
Si Si1 0.219984 0.601422 0.062454
Si Si2 0.414167 0.092693 0.306997
Si Si3 0.342479 0.907946 0.210187
Si Si4 0.569186 0.518122 0.370647
Si Si5 0.371789 0.907634 0.905491
Si Si6 0.730111 0.295956 0.238413
O O1 0.548290 0.431185 0.197091
O O2 0.930348 0.562722 0.225422
O O3 0.283037 0.811827 0.836024
O O4 0.177268 0.583324 0.994658
O O5 0.353547 0.136548 0.173503
O O6 0.081823 0.181432 0.326885
O O7 0.491339 0.861618 0.564903
O O8 0.477481 0.979579 0.183650
O O9 0.949359 0.965801 0.212797
O O10 0.464771 0.677688 0.446031
O O11 0.500000 0.000000 0.000000
O O12 0.500000 0.500000 0.500000
O O13 0.303790 0.702319 0.184973
#
# Coordination Sequence:
#
# PCOD8024662 Si02
#       6
#     2   2   2   2   2   2
#     4  11  23  46  67 107 145 190 251 308 372 451
#     4  11  23  43  73 104 143 191 245 305 384 448
#     4  12  28  50  75 109 153 200 258 313 376 449
#     4  12  27  48  78 109 150 204 251 313 380 450
#     4  12  27  50  75 111 154 195 253 317 377 457
#     4  10  23  43  70 106 141 191 246 311 378 443
#
# _framework density 25.401212000000001
#
# number of rings (size 3 to 8) (size 9 to 14) (size 15 to 20)
#    0.000    0.667    3.333    3.500    0.000    4.667 
#   12.000    0.000    0.000    0.000    0.000    0.000 
#    0.000    0.000    0.000    0.000    0.000    0.000 
#
# Total GULP energy -148733.162266 kJ/mol
# GULP energy per Si atom -12394.430189 kJ/mol
# Density = 2.534340 g / cm^3
# Si number density = 25.401212 Si / 1000 Ang^3
#
#
#
# Elastic Constant Matrix: (Units=GPa)
#
#
# Indices 1 2 3 4 5 6 
#
# 1 102.9565 33.5917 29.2755 -8.1811 -12.6932 15.9063
# 2 33.5917 120.5195 39.1571 12.2535 -6.3433 8.6497
# 3 29.2755 39.1571 155.5115 -10.2473 -12.4246 11.3407
# 4 -8.1811 12.2535 -10.2473 59.3364 2.3477 -3.0328
# 5 -12.6932 -6.3433 -12.4246 2.3477 41.8880 5.7261
# 6 15.9063 8.6497 11.3407 -3.0328 5.7261 26.1654
#
#
#
# Elastic Compliance Matrix: (Units=1/GPa)
#
#
# Indices 1 2 3 4 5 6 
#
# 1 0.012527 -0.002698 -0.000730 0.001635 0.004051 -0.007105
# 2 -0.002698 0.010143 -0.002115 -0.002911 0.000422 -0.001226
# 3 -0.000730 -0.002115 0.007523 0.001437 0.001934 -0.002375
# 4 0.001635 -0.002911 0.001437 0.018039 -0.000749 0.001600
# 5 0.004051 0.000422 0.001934 -0.000749 0.027072 -0.009452
# 6 -0.007105 -0.001226 -0.002375 0.001600 -0.009452 0.046226
#
#
# Mechanical properties :
#
#
# Convention : Reuss Voigt Hill
#
# Bulk Modulus (GPa) = 52.33261 64.78179 58.55720
# Shear Modulus (GPa) = 35.97547 43.94217 39.95882
#
# Velocity S-wave (km/s) = 3.76744 4.16375 3.97054
# Velocity P-wave (km/s) = 6.29063 6.97671 6.64253
#
# Compressibility (1/GPa) = 0.01910854
#
# Stress axis : x y z
#
# Youngs Moduli (GPa) = 79.82484 98.59407 132.93271
#
# Poissons Ratio (x) = 0.26599 0.09698
# Poissons Ratio (y) = 0.21535 0.28111
# Poissons Ratio (z) = 0.05824 0.20850
#
# Static dielectric constant tensor:
#      x y z
#    x 3.870260 -0.260550 0.284210 
#    y -0.260550 5.069330 -0.203280 
#    z 0.284210 -0.203280 5.046530 
# 
# 
# High freq. dielectric constant tensor:
#      x y z
#    x 1.986760 -0.004440 0.001860 
#    y -0.004440 2.034440 -0.005180 
#    z 0.001860 -0.005180 2.031480 
# 
# From -- ./inp_files/550837.got.cif
#   From: 2010.06.25/outbox.cif.g09.slc.cpg/sg2_276_cif.got.tgz:550837.got - 2010.06.27 13:26:56.
