data_PCOD8024641
_publ_section_title
;
Structure prediction by ZEFSAII (Michael W. Deem and Ramdas Pophale) SiO2 
 PCOD8024641
Probable space group: P -1
;
_chemical_formula_sum "Si O2"
_cell_formula_units_Z 12
_cell_length_a 7.516417
_cell_length_b 16.844411
_cell_length_c 5.130309
_cell_angle_alpha 48.502809
_cell_angle_beta 103.429936
_cell_angle_gamma 91.971882
_cell_volume 466.791576
_symmetry_space_group_name_H-M "P -1"
_symmetry_group_IT_number 2
_symmetry_cell_setting 'triclinic'
loop_
_space_group_symop_operation_xyz
x,y,z
-x,-y,-z
loop_
_atom_site_type_symbol
_atom_site_label
_atom_site_fract_x
_atom_site_fract_y
_atom_site_fract_z
Si Si1 0.853555 0.428728 0.205124
Si Si2 0.151090 0.297140 0.905286
Si Si3 0.603307 0.033970 0.709265
Si Si4 0.649002 0.643947 0.657067
Si Si5 0.049283 0.087711 0.135458
Si Si6 0.703168 0.237219 0.471501
O O1 0.803942 0.335740 0.186893
O O2 0.944599 0.365511 0.630859
O O3 0.668227 0.515504 0.004869
O O4 0.000000 0.500000 0.000000
O O5 0.294247 0.335923 0.663781
O O6 0.211179 0.311573 0.190523
O O7 0.152924 0.170940 0.146086
O O8 0.597481 0.165118 0.399731
O O9 0.500000 0.000000 0.500000
O O10 0.814595 0.969208 0.921103
O O11 0.500000 0.000000 0.000000
O O12 0.439233 0.703060 0.491667
O O13 0.000000 0.000000 0.500000
O O14 0.853878 0.145321 0.841032
#
# Coordination Sequence:
#
# PCOD8024641 Si02
#       6
#     2   2   2   2   2   2
#     4   9  21  43  70 101 139 182 230 286 347 413
#     4  10  23  43  69  99 139 186 232 283 347 414
#     4  12  26  47  70  99 137 183 232 287 344 411
#     4  11  22  44  68 101 137 181 230 286 345 417
#     4  11  25  45  70 104 142 185 236 294 352 418
#     4  11  24  42  70 104 139 183 232 288 351 417
#
# _framework density 25.707405000000001
#
# number of rings (size 3 to 8) (size 9 to 14) (size 15 to 20)
#    0.000    1.333    0.000    4.500    0.000    6.667 
#    0.000   17.500    0.000    0.000    0.000    0.000 
#    0.000    0.000    0.000    0.000    0.000    0.000 
#
# Total GULP energy -148664.551800 kJ/mol
# GULP energy per Si atom -12388.712650 kJ/mol
# Density = 2.564889 g / cm^3
# Si number density = 25.707405 Si / 1000 Ang^3
#
#
#
# Elastic Constant Matrix: (Units=GPa)
#
#
# Indices 1 2 3 4 5 6 
#
# 1 149.7196 39.4322 60.8649 -21.5812 16.0268 -12.7657
# 2 39.4322 158.3127 55.8490 -45.6352 -13.2267 15.7348
# 3 60.8649 55.8490 91.1634 -37.1147 -3.7906 -10.1455
# 4 -21.5812 -45.6352 -37.1147 60.6424 -2.8062 -3.3612
# 5 16.0268 -13.2267 -3.7906 -2.8062 39.6640 -19.1455
# 6 -12.7657 15.7348 -10.1455 -3.3612 -19.1455 43.7405
#
#
#
# Elastic Compliance Matrix: (Units=1/GPa)
#
#
# Indices 1 2 3 4 5 6 
#
# 1 0.010156 -0.000828 -0.007396 -0.001863 -0.005758 -0.001117
# 2 -0.000828 0.009683 -0.003841 0.004535 0.001848 -0.003459
# 3 -0.007396 -0.003841 0.023784 0.009996 0.009314 0.009585
# 4 -0.001863 0.004535 0.009996 0.026022 0.007729 0.005526
# 5 -0.005758 0.001848 0.009314 0.007729 0.037769 0.016941
# 6 -0.001117 -0.003459 0.009585 0.005526 0.016941 0.033843
#
#
# Mechanical properties :
#
#
# Convention : Reuss Voigt Hill
#
# Bulk Modulus (GPa) = 51.29881 79.05421 65.17651
# Shear Modulus (GPa) = 29.08909 45.01268 37.05089
#
# Velocity S-wave (km/s) = 3.36749 4.18899 3.80050
# Velocity P-wave (km/s) = 5.92606 7.36309 6.68331
#
# Compressibility (1/GPa) = 0.01949363
#
# Stress axis : x y z
#
# Youngs Moduli (GPa) = 98.46048 103.26951 42.04468
#
# Poissons Ratio (x) = 0.08548 0.31097
# Poissons Ratio (y) = 0.08150 0.16151
# Poissons Ratio (z) = 0.72823 0.39669
#
# Static dielectric constant tensor:
#      x y z
#    x 5.102570 0.135500 0.558250 
#    y 0.135500 5.243230 -0.887790 
#    z 0.558250 -0.887790 4.695230 
# 
# 
# High freq. dielectric constant tensor:
#      x y z
#    x 2.043090 0.011780 0.022250 
#    y 0.011780 2.036570 -0.040400 
#    z 0.022250 -0.040400 2.017590 
# 
# From -- ./inp_files/42974.got.cif
#   From: 2010.06.25/outbox.cif.g09.slc.cpg/sg2_22_cif.got.tgz:42974.got - 2010.06.27 13:26:56.
