data_PCOD8024982
_publ_section_title
;
Structure prediction by ZEFSAII (Michael W. Deem and Ramdas Pophale) SiO2 
 PCOD8024982
Probable space group: P -1
;
_chemical_formula_sum "Si O2"
_cell_formula_units_Z 16
_cell_length_a 9.066144
_cell_length_b 14.370617
_cell_length_c 16.839269
_cell_angle_alpha 39.783980
_cell_angle_beta 38.182772
_cell_angle_gamma 30.485599
_cell_volume 658.381969
_symmetry_space_group_name_H-M "P -1"
_symmetry_group_IT_number 2
_symmetry_cell_setting 'triclinic'
loop_
_space_group_symop_operation_xyz
x,y,z
-x,-y,-z
loop_
_atom_site_type_symbol
_atom_site_label
_atom_site_fract_x
_atom_site_fract_y
_atom_site_fract_z
Si Si1 0.822852 0.743791 0.497350
Si Si2 0.265109 0.315585 0.583767
Si Si3 0.222579 0.378408 0.862713
Si Si4 0.652260 0.098667 0.270927
Si Si5 0.441653 0.211771 0.110545
Si Si6 0.631298 0.380817 0.805361
Si Si7 0.078516 0.774016 0.833428
Si Si8 0.469768 0.895728 0.234550
O O1 0.591042 0.766188 0.511764
O O2 0.676535 0.785056 0.618917
O O3 0.154414 0.526905 0.499102
O O4 0.882875 0.886062 0.351496
O O5 0.512009 0.189651 0.631688
O O6 0.974349 0.315477 0.706968
O O7 0.535196 0.327292 0.801873
O O8 0.290498 0.281277 0.810935
O O9 0.931571 0.609082 0.833378
O O10 0.130996 0.283696 0.022146
O O11 0.598582 0.100910 0.199423
O O12 0.810862 0.192887 0.153632
O O13 0.524011 0.047113 0.124138
O O14 0.602777 0.291591 0.954596
O O15 0.385617 0.609914 0.762333
O O16 0.883203 0.972191 0.736444
#
# Coordination Sequence:
#
# PCOD8024982 Si02
#       8
#     2   2   2   2   2   2   2   2
#     4  10  23  44  67  90 130 174 234 280 320 384
#     4  11  24  43  69  97 130 176 228 279 327 393
#     4  11  24  40  66 100 152 171 207 276 343 406
#     4  11  23  42  72  93 127 183 227 271 334 397
#     4  11  23  42  67 105 137 172 221 275 336 403
#     4  11  23  43  69 101 141 176 210 277 343 403
#     4  11  23  43  65 100 137 181 214 269 344 403
#     4  12  24  41  66 101 138 174 221 270 329 408
#
# _framework density 24.302004
#
# number of rings (size 3 to 8) (size 9 to 14) (size 15 to 20)
#    0.000    1.000    5.000    1.875    3.500    1.500 
#    0.000    1.250   11.000    0.000    0.000    0.000 
#    0.000    0.000    0.000    0.000    0.000    0.000 
#
# Total GULP energy -198218.830166 kJ/mol
# GULP energy per Si atom -12388.676885 kJ/mol
# Density = 2.424669 g / cm^3
# Si number density = 24.302004 Si / 1000 Ang^3
#
#
#
# Elastic Constant Matrix: (Units=GPa)
#
#
# Indices 1 2 3 4 5 6 
#
# 1 116.5381 29.2353 26.8840 -4.1968 8.1555 11.7909
# 2 29.2353 96.6433 14.1143 -13.2352 2.2051 23.1249
# 3 26.8840 14.1143 63.1736 -11.9945 5.4005 -3.6490
# 4 -4.1968 -13.2352 -11.9945 31.3577 0.4621 4.0767
# 5 8.1555 2.2051 5.4005 0.4621 40.4622 -6.8636
# 6 11.7909 23.1249 -3.6490 4.0767 -6.8636 42.5842
#
#
#
# Elastic Compliance Matrix: (Units=1/GPa)
#
#
# Indices 1 2 3 4 5 6 
#
# 1 0.010370 -0.002036 -0.004070 -0.000697 -0.001825 -0.002342
# 2 -0.002036 0.013955 -0.001411 0.006138 -0.001585 -0.007979
# 3 -0.004070 -0.001411 0.019263 0.005886 -0.001270 0.002776
# 4 -0.000697 0.006138 0.005886 0.037539 -0.002534 -0.006638
# 5 -0.001825 -0.001585 -0.001270 -0.002534 0.026342 0.005746
# 6 -0.002342 -0.007979 0.002776 -0.006638 0.005746 0.030263
#
#
# Mechanical properties :
#
#
# Convention : Reuss Voigt Hill
#
# Bulk Modulus (GPa) = 35.02102 46.31358 40.66730
# Shear Modulus (GPa) = 30.80993 36.62225 33.71609
#
# Velocity S-wave (km/s) = 3.56447 3.88618 3.72879
# Velocity P-wave (km/s) = 5.60202 6.26381 5.94214
#
# Compressibility (1/GPa) = 0.02855428
#
# Stress axis : x y z
#
# Youngs Moduli (GPa) = 96.43122 71.65724 51.91298
#
# Poissons Ratio (x) = 0.14590 0.21127
# Poissons Ratio (y) = 0.19634 0.07326
# Poissons Ratio (z) = 0.39245 0.10113
#
# Static dielectric constant tensor:
#      x y z
#    x 4.477070 0.327560 0.154510 
#    y 0.327560 4.683570 -0.210600 
#    z 0.154510 -0.210600 4.277850 
# 
# 
# High freq. dielectric constant tensor:
#      x y z
#    x 1.965370 0.022270 0.007810 
#    y 0.022270 1.976040 -0.021350 
#    z 0.007810 -0.021350 1.950840 
# 
# From -- ./inp_files/195333.got.cif
#   From: 2010.06.25/outbox.cif.g09.slc.cpg/sg2_98_cif.got.tgz:195333.got - 2010.06.27 13:26:56.
