data_PCOD8024784
_publ_section_title
;
Structure prediction by ZEFSAII (Michael W. Deem and Ramdas Pophale) SiO2 
 PCOD8024784
Probable space group: P -1
;
_chemical_formula_sum "Si O2"
_cell_formula_units_Z 14
_cell_length_a 17.104612
_cell_length_b 8.656320
_cell_length_c 11.722020
_cell_angle_alpha 49.468147
_cell_angle_beta 32.747239
_cell_angle_gamma 35.354993
_cell_volume 539.630429
_symmetry_space_group_name_H-M "P -1"
_symmetry_group_IT_number 2
_symmetry_cell_setting 'triclinic'
loop_
_space_group_symop_operation_xyz
x,y,z
-x,-y,-z
loop_
_atom_site_type_symbol
_atom_site_label
_atom_site_fract_x
_atom_site_fract_y
_atom_site_fract_z
Si Si1 0.353989 0.710470 0.847430
Si Si2 0.466354 0.891642 0.433810
Si Si3 0.180359 0.164579 0.004518
Si Si4 0.865117 0.524368 0.373059
Si Si5 0.712344 0.240833 0.732600
Si Si6 0.760725 0.950336 0.587929
Si Si7 0.127729 0.538024 0.210491
O O1 0.195449 0.015491 0.943287
O O2 0.491649 0.523095 0.875245
O O3 0.478321 0.693582 0.601640
O O4 0.246854 0.612805 0.973978
O O5 0.677411 0.775570 0.204207
O O6 0.371580 0.894685 0.433767
O O7 0.344919 0.183666 0.505425
O O8 0.238710 0.976544 0.133603
O O9 0.959665 0.439577 0.169110
O O10 0.009961 0.524586 0.267951
O O11 0.855368 0.302604 0.539794
O O12 0.717529 0.154806 0.637909
O O13 0.723986 0.752959 0.771593
O O14 0.984828 0.763744 0.371213
#
# Coordination Sequence:
#
# PCOD8024784 Si02
#       7
#     2   2   2   2   2   2   2
#     4  12  27  45  70 101 147 184 230 279 351 412
#     4  11  27  49  66 106 144 185 228 286 340 424
#     4  12  25  45  75 101 139 184 232 292 340 406
#     4  11  25  45  76 104 139 177 238 285 351 403
#     4  12  25  44  73 109 134 180 235 292 342 411
#     4  10  23  43  73 100 142 173 238 285 349 401
#     4  10  23  44  71 104 136 182 231 294 337 408
#
# _framework density 25.943681000000002
#
# number of rings (size 3 to 8) (size 9 to 14) (size 15 to 20)
#    0.000    0.857    2.857    3.000    8.000    4.571 
#    2.571    0.000    0.000    0.000    0.000    0.000 
#    0.000    0.000    0.000    0.000    0.000    0.000 
#
# Total GULP energy -173640.338074 kJ/mol
# GULP energy per Si atom -12402.881291 kJ/mol
# Density = 2.588463 g / cm^3
# Si number density = 25.943681 Si / 1000 Ang^3
#
#
#
# Elastic Constant Matrix: (Units=GPa)
#
#
# Indices 1 2 3 4 5 6 
#
# 1 87.3562 10.2983 26.5870 -11.6620 -11.5109 13.8018
# 2 10.2983 46.9945 34.1787 3.6011 -9.5288 8.1105
# 3 26.5870 34.1787 153.4897 -22.5788 -24.1315 17.2311
# 4 -11.6620 3.6011 -22.5788 48.5537 8.4082 -3.0657
# 5 -11.5109 -9.5288 -24.1315 8.4082 38.5731 -3.2375
# 6 13.8018 8.1105 17.2311 -3.0657 -3.2375 33.4664
#
#
#
# Elastic Compliance Matrix: (Units=1/GPa)
#
#
# Indices 1 2 3 4 5 6 
#
# 1 0.013110 -0.001239 -0.000842 0.002192 0.002245 -0.004255
# 2 -0.001239 0.027593 -0.005826 -0.005925 0.003812 -0.003350
# 3 -0.000842 -0.005826 0.009275 0.003862 0.003072 -0.002365
# 4 0.002192 -0.005925 0.003862 0.024005 -0.003593 0.000395
# 5 0.002245 0.003812 0.003072 -0.003593 0.030171 -0.000842
# 6 -0.004255 -0.003350 -0.002365 0.000395 -0.000842 0.033620
#
#
# Mechanical properties :
#
#
# Convention : Reuss Voigt Hill
#
# Bulk Modulus (GPa) = 29.27034 47.77426 38.52230
# Shear Modulus (GPa) = 30.30757 38.57040 34.43898
#
# Velocity S-wave (km/s) = 3.42161 3.85995 3.64737
# Velocity P-wave (km/s) = 5.18813 6.19033 5.71126
#
# Compressibility (1/GPa) = 0.03416428
#
# Stress axis : x y z
#
# Youngs Moduli (GPa) = 76.27532 36.24115 107.81996
#
# Poissons Ratio (x) = 0.04491 0.09078
# Poissons Ratio (y) = 0.09451 0.62814
# Poissons Ratio (z) = 0.06422 0.21113
#
# Static dielectric constant tensor:
#      x y z
#    x 4.361710 0.110450 0.166030 
#    y 0.110450 4.981580 0.236390 
#    z 0.166030 0.236390 4.945890 
# 
# 
# High freq. dielectric constant tensor:
#      x y z
#    x 2.030510 0.004540 0.003420 
#    y 0.004540 2.049040 -0.000080 
#    z 0.003420 -0.000080 2.046140 
# 
# From -- ./inp_files/206012.got.cif
#   From: 2010.06.25/outbox.cif.g09.slc.cpg/sg2_104_cif.got.tgz:206012.got - 2010.06.27 13:26:56.
