data_PCOD8024619
_publ_section_title
;
Structure prediction by ZEFSAII (Michael W. Deem and Ramdas Pophale) SiO2 
 PCOD8024619
Probable space group: P -1
;
_chemical_formula_sum "Si O2"
_cell_formula_units_Z 16
_cell_length_a 6.746595
_cell_length_b 17.093585
_cell_length_c 13.834798
_cell_angle_alpha 149.975295
_cell_angle_beta 114.136659
_cell_angle_gamma 70.715764
_cell_volume 727.548936
_symmetry_space_group_name_H-M "P -1"
_symmetry_group_IT_number 2
_symmetry_cell_setting 'triclinic'
loop_
_space_group_symop_operation_xyz
x,y,z
-x,-y,-z
loop_
_atom_site_type_symbol
_atom_site_label
_atom_site_fract_x
_atom_site_fract_y
_atom_site_fract_z
Si Si1 0.447050 0.019693 0.396696
Si Si2 0.156416 0.146952 0.721261
Si Si3 0.883287 0.232853 0.929164
Si Si4 0.458427 0.415146 0.001991
Si Si5 0.830819 0.661046 0.726893
Si Si6 0.555680 0.170683 0.237507
Si Si7 0.973293 0.321798 0.410521
Si Si8 0.435197 0.298087 0.556945
O O1 0.445325 0.195613 0.547072
O O2 0.500000 0.000000 0.500000
O O3 0.629885 0.931438 0.277398
O O4 0.206387 0.942720 0.250121
O O5 0.017474 0.244382 0.870004
O O6 0.256445 0.283243 0.812795
O O7 0.000000 0.000000 0.500000
O O8 0.680187 0.339271 0.996219
O O9 0.062869 0.276612 0.088956
O O10 0.418556 0.544237 0.217356
O O11 0.500000 0.500000 0.000000
O O12 0.580771 0.706566 0.719246
O O13 0.841305 0.475442 0.529442
O O14 0.958751 0.742967 0.749643
O O15 0.811818 0.198067 0.299427
O O16 0.517159 0.200178 0.376342
O O17 0.500000 0.000000 0.000000
O O18 0.189506 0.350580 0.548546
#
# Coordination Sequence:
#
# PCOD8024619 Si02
#       8
#     2   2   2   2   2   2   2   2
#     4  11  24  45  68  96 141 181 229 283 346 414
#     4  11  25  44  68  98 135 182 231 278 350 413
#     4  11  24  42  71  98 130 185 229 277 351 413
#     4  11  26  46  69 100 141 180 236 292 341 414
#     4  10  23  43  69  96 130 178 226 277 344 409
#     4  11  27  42  67 105 138 173 229 288 347 416
#     4  10  23  46  68  94 137 177 222 283 344 409
#     4  11  25  44  69 101 137 182 229 286 348 409
#
# _framework density 21.991648000000001
#
# number of rings (size 3 to 8) (size 9 to 14) (size 15 to 20)
#    0.000    1.250    2.500    1.875    7.000    2.500 
#    0.000    0.000    0.000    0.000    0.000    0.000 
#    0.000    0.000    0.000    0.000    0.000    0.000 
#
# Total GULP energy -198208.780707 kJ/mol
# GULP energy per Si atom -12388.048794 kJ/mol
# Density = 2.194159 g / cm^3
# Si number density = 21.991648 Si / 1000 Ang^3
#
#
#
# Elastic Constant Matrix: (Units=GPa)
#
#
# Indices 1 2 3 4 5 6 
#
# 1 98.3469 22.5785 44.4085 6.3777 8.9860 17.4750
# 2 22.5785 101.7830 38.8696 5.6929 3.4284 8.6186
# 3 44.4085 38.8696 132.8037 0.4034 3.4169 26.5452
# 4 6.3777 5.6929 0.4034 36.1143 3.3266 -2.8054
# 5 8.9860 3.4284 3.4169 3.3266 40.6796 6.4840
# 6 17.4750 8.6186 26.5452 -2.8054 6.4840 26.5008
#
#
#
# Elastic Compliance Matrix: (Units=1/GPa)
#
#
# Indices 1 2 3 4 5 6 
#
# 1 0.012950 -0.001140 -0.002929 -0.002332 -0.001513 -0.005111
# 2 -0.001140 0.011285 -0.002887 -0.001525 -0.000314 -0.000111
# 3 -0.002929 -0.002887 0.011015 0.000070 0.001310 -0.008476
# 4 -0.002332 -0.001525 0.000070 0.029026 -0.002642 0.005683
# 5 -0.001513 -0.000314 0.001310 -0.002642 0.026147 -0.006890
# 6 -0.005111 -0.000111 -0.008476 0.005683 -0.006890 0.051919
#
#
# Mechanical properties :
#
#
# Convention : Reuss Voigt Hill
#
# Bulk Modulus (GPa) = 46.86388 60.51628 53.69008
# Shear Modulus (GPa) = 30.60593 35.79742 33.20167
#
# Velocity S-wave (km/s) = 3.73461 4.03894 3.88975
# Velocity P-wave (km/s) = 6.32080 7.02341 6.68135
#
# Compressibility (1/GPa) = 0.02133840
#
# Stress axis : x y z
#
# Youngs Moduli (GPa) = 77.21910 88.60931 90.78877
#
# Poissons Ratio (x) = 0.10101 0.26593
# Poissons Ratio (y) = 0.08802 0.26210
# Poissons Ratio (z) = 0.22618 0.25581
#
# Static dielectric constant tensor:
#      x y z
#    x 3.663840 0.325440 1.503280 
#    y 0.325440 2.600140 -1.345950 
#    z 1.503280 -1.345950 -0.056590 
# 
# 
# High freq. dielectric constant tensor:
#      x y z
#    x 1.872080 -0.003360 -0.002600 
#    y -0.003360 1.854020 0.005470 
#    z -0.002600 0.005470 1.873390 
# 
# From -- ./inp_files/306087.got.cif
#   From: 2010.06.25/outbox.cif.g09.slc.cpg/sg2_154_cif.got.tgz:306087.got - 2010.06.27 13:26:56.
