data_PCOD8024549
_publ_section_title
;
Structure prediction by ZEFSAII (Michael W. Deem and Ramdas Pophale) SiO2 
 PCOD8024549
Probable space group: P -1
;
_chemical_formula_sum "Si O2"
_cell_formula_units_Z 14
_cell_length_a 23.965059
_cell_length_b 5.771992
_cell_length_c 17.507753
_cell_angle_alpha 121.300183
_cell_angle_beta 20.642044
_cell_angle_gamma 131.044509
_cell_volume 601.419597
_symmetry_space_group_name_H-M "P -1"
_symmetry_group_IT_number 2
_symmetry_cell_setting 'triclinic'
loop_
_space_group_symop_operation_xyz
x,y,z
-x,-y,-z
loop_
_atom_site_type_symbol
_atom_site_label
_atom_site_fract_x
_atom_site_fract_y
_atom_site_fract_z
Si Si1 0.256311 0.628205 0.405930
Si Si2 0.888740 0.620980 0.611256
Si Si3 0.955313 0.958146 0.961904
Si Si4 0.347978 0.304531 0.456413
Si Si5 0.862699 0.274773 0.911860
Si Si6 0.418615 0.303865 0.919162
Si Si7 0.372186 0.123005 0.710597
O O1 0.200466 0.625070 0.388709
O O2 0.442942 0.613663 0.170960
O O3 0.067974 0.330098 0.640058
O O4 0.322137 0.962277 0.421353
O O5 0.000000 0.500000 0.500000
O O6 0.710382 0.553300 0.878755
O O7 0.000000 0.000000 0.500000
O O8 0.893348 0.619566 0.943732
O O9 0.768499 0.964216 0.195064
O O10 0.142905 0.248493 0.726908
O O11 0.000000 0.000000 0.000000
O O12 0.434499 0.524565 0.308939
O O13 0.487944 0.491678 0.381742
O O14 0.723830 0.085971 0.984212
O O15 0.769650 0.055640 0.067557
O O16 0.500000 0.000000 0.500000
#
# Coordination Sequence:
#
# PCOD8024549 Si02
#       7
#     2   2   2   2   2   2   2
#     4  11  24  45  74 101 138 184 242 291 363 433
#     4  12  29  49  76 109 154 194 238 302 371 434
#     4  11  24  42  65  97 138 181 232 293 356 427
#     4  10  25  41  68 102 132 182 240 295 361 426
#     4  10  23  43  68  98 140 176 234 293 355 420
#     4  11  24  45  74 101 138 184 242 291 363 433
#     4  11  24  42  65  97 138 181 232 293 356 427
#
# _framework density 23.27826
#
# number of rings (size 3 to 8) (size 9 to 14) (size 15 to 20)
#    0.000    1.143    1.429    3.000    4.000   14.286 
#    0.000    0.000    0.000    0.000    0.000    0.000 
#    0.000    0.000    0.000    0.000    0.000    0.000 
#
# Total GULP energy -173474.891788 kJ/mol
# GULP energy per Si atom -12391.063699 kJ/mol
# Density = 2.322528 g / cm^3
# Si number density = 23.278260 Si / 1000 Ang^3
#
#
#
# Elastic Constant Matrix: (Units=GPa)
#
#
# Indices 1 2 3 4 5 6 
#
# 1 154.9357 55.9521 91.4633 8.3054 -34.4737 17.4194
# 2 55.9521 77.2696 88.7150 -10.1100 1.4801 2.2985
# 3 91.4633 88.7150 172.1769 4.6761 -37.2936 21.8433
# 4 8.3054 -10.1100 4.6761 42.3042 -1.3069 -2.2553
# 5 -34.4737 1.4801 -37.2936 -1.3069 41.9648 9.9471
# 6 17.4194 2.2985 21.8433 -2.2553 9.9471 30.1301
#
#
#
# Elastic Compliance Matrix: (Units=1/GPa)
#
#
# Indices 1 2 3 4 5 6 
#
# 1 0.001399 0.028385 -0.024682 0.009708 -0.027332 0.024670
# 2 0.028385 -0.084745 0.063912 -0.034644 0.104130 -0.093250
# 3 -0.024682 0.063912 -0.037637 0.025409 -0.069793 0.061622
# 4 0.009708 -0.034644 0.025409 0.010078 0.040122 -0.033882
# 5 -0.027332 0.104130 -0.069793 0.040122 -0.084230 0.089266
# 6 0.024670 -0.093250 0.061622 -0.033882 0.089266 -0.050640
#
#
# Mechanical properties :
#
#
# Convention : Reuss Voigt Hill
#
# Bulk Modulus (GPa) = 70.18644 97.40478 83.79561
# Shear Modulus (GPa) = -13.28884 34.09662 10.40389
#
# Velocity S-wave (km/s) = -2.39188 3.83135 2.11638
# Velocity P-wave (km/s) = 4.75273 7.84263 6.48441
#
# Compressibility (1/GPa) = 0.01424777
#
# Stress axis : x y z
#
# Youngs Moduli (GPa) = 714.97035 -11.80011 -26.56995
#
# Poissons Ratio (x) = 0.33495 -0.65580
# Poissons Ratio (y) = -20.29451 1.69814
# Poissons Ratio (z) = 17.64693 0.75417
#
# Static dielectric constant tensor:
#      x y z
#    x 4.167240 0.396820 -0.181270 
#    y 0.396820 4.265380 -0.367890 
#    z -0.181270 -0.367890 4.900060 
# 
# 
# High freq. dielectric constant tensor:
#      x y z
#    x 1.913630 0.029570 -0.004520 
#    y 0.029570 1.911260 -0.010590 
#    z -0.004520 -0.010590 1.950110 
# 
# From -- ./inp_files/106041.got.cif
#   From: 2010.06.25/outbox.cif.g09.slc.cpg/sg2_54_cif.got.tgz:106041.got - 2010.06.27 13:26:56.
