data_PCOD8024554
_publ_section_title
;
Structure prediction by ZEFSAII (Michael W. Deem and Ramdas Pophale) SiO2 
 PCOD8024554
Probable space group: P -1
;
_chemical_formula_sum "Si O2"
_cell_formula_units_Z 16
_cell_length_a 9.675658
_cell_length_b 15.517833
_cell_length_c 11.936499
_cell_angle_alpha 151.793769
_cell_angle_beta 116.295212
_cell_angle_gamma 62.847019
_cell_volume 750.166447
_symmetry_space_group_name_H-M "P -1"
_symmetry_group_IT_number 2
_symmetry_cell_setting 'triclinic'
loop_
_space_group_symop_operation_xyz
x,y,z
-x,-y,-z
loop_
_atom_site_type_symbol
_atom_site_label
_atom_site_fract_x
_atom_site_fract_y
_atom_site_fract_z
Si Si1 0.799666 0.355191 0.212684
Si Si2 0.531533 0.829178 0.897064
Si Si3 0.978614 0.645941 0.503471
Si Si4 0.519213 0.411422 0.586710
Si Si5 0.513666 0.077727 0.369542
Si Si6 0.217365 0.040673 0.336736
Si Si7 0.206437 0.397140 0.145523
Si Si8 0.148927 0.086626 0.617869
O O1 0.919692 0.308053 0.302752
O O2 0.630953 0.431374 0.289981
O O3 0.855567 0.510936 0.333705
O O4 0.792530 0.175087 0.928395
O O5 0.464033 0.908238 0.082992
O O6 0.452925 0.673959 0.627252
O O7 0.713208 0.741331 0.885394
O O8 0.500000 0.000000 0.000000
O O9 0.082188 0.555383 0.334750
O O10 0.888493 0.843959 0.662324
O O11 0.497465 0.264886 0.506652
O O12 0.667056 0.511403 0.775336
O O13 0.393711 0.088947 0.442677
O O14 0.690950 0.038963 0.429950
O O15 0.153093 0.110235 0.513657
O O16 0.124971 0.285131 0.896079
O O17 0.000000 0.000000 0.500000
#
# Coordination Sequence:
#
# PCOD8024554 Si02
#       8
#     2   2   2   2   2   2   2   2
#     4  11  23  43  67 101 139 173 216 279 336 405
#     4   9  19  36  66  97 133 172 216 273 330 398
#     4  11  25  42  66 103 141 169 223 273 342 402
#     4  11  21  41  67 101 135 173 223 277 332 402
#     4  10  23  43  68  99 130 179 229 270 334 401
#     4  12  25  46  69  95 136 186 221 271 339 397
#     4  11  23  41  66  98 131 176 224 280 334 392
#     4  11  26  48  68  94 132 175 232 284 329 394
#
# _framework density 21.328600999999999
#
# number of rings (size 3 to 8) (size 9 to 14) (size 15 to 20)
#    0.000    1.250    2.500    3.375    3.500    0.500 
#    4.500    1.250    0.000    0.000    0.000    0.000 
#    0.000    0.000    0.000    0.000    0.000    0.000 
#
# Total GULP energy -198339.746943 kJ/mol
# GULP energy per Si atom -12396.234184 kJ/mol
# Density = 2.128006 g / cm^3
# Si number density = 21.328601 Si / 1000 Ang^3
#
#
#
# Elastic Constant Matrix: (Units=GPa)
#
#
# Indices 1 2 3 4 5 6 
#
# 1 131.2369 20.9739 30.5250 -3.8227 13.2417 8.2547
# 2 20.9739 80.9275 27.4287 5.0031 3.4112 5.3952
# 3 30.5250 27.4287 95.2662 0.6023 20.0043 5.7139
# 4 -3.8227 5.0031 0.6023 32.1298 -4.8660 -5.4191
# 5 13.2417 3.4112 20.0043 -4.8660 30.6151 3.7681
# 6 8.2547 5.3952 5.7139 -5.4191 3.7681 31.2250
#
#
#
# Elastic Compliance Matrix: (Units=1/GPa)
#
#
# Indices 1 2 3 4 5 6 
#
# 1 0.008593 -0.001484 -0.001815 0.000752 -0.002086 -0.001301
# 2 -0.001484 0.014248 -0.003783 -0.002447 0.001379 -0.001969
# 3 -0.001815 -0.003783 0.013890 -0.001206 -0.007981 -0.000655
# 4 0.000752 -0.002447 -0.001206 0.033370 0.005352 0.005590
# 5 -0.002086 0.001379 -0.007981 0.005352 0.039735 -0.002093
# 6 -0.001301 -0.001969 -0.000655 0.005590 -0.002093 0.034052
#
#
# Mechanical properties :
#
#
# Convention : Reuss Voigt Hill
#
# Bulk Modulus (GPa) = 44.31013 51.69843 48.00428
# Shear Modulus (GPa) = 30.19779 34.02750 32.11265
#
# Velocity S-wave (km/s) = 3.76684 3.99857 3.88443
# Velocity P-wave (km/s) = 6.30388 6.75350 6.53256
#
# Compressibility (1/GPa) = 0.02256820
#
# Stress axis : x y z
#
# Youngs Moduli (GPa) = 116.36976 70.18630 71.99266
#
# Poissons Ratio (x) = 0.10414 0.13066
# Poissons Ratio (y) = 0.17267 0.27234
# Poissons Ratio (z) = 0.21121 0.26550
#
# Static dielectric constant tensor:
#      x y z
#    x 3.873890 -0.030860 -0.094190 
#    y -0.030860 3.833650 0.019280 
#    z -0.094190 0.019280 4.092550 
# 
# 
# High freq. dielectric constant tensor:
#      x y z
#    x 1.837240 -0.000320 -0.004670 
#    y -0.000320 1.834790 0.010040 
#    z -0.004670 0.010040 1.846570 
# 
# From -- ./inp_files/400134.got.cif
#   From: 2010.06.25/outbox.cif.g09.slc.cpg/sg2_201_cif.got.tgz:400134.got - 2010.06.27 13:26:56.
