data_PCOD8024528
_publ_section_title
;
Structure prediction by ZEFSAII (Michael W. Deem and Ramdas Pophale) SiO2 
 PCOD8024528
Probable space group: P -1
;
_chemical_formula_sum "Si O2"
_cell_formula_units_Z 16
_cell_length_a 9.349823
_cell_length_b 11.683105
_cell_length_c 11.507619
_cell_angle_alpha 77.842294
_cell_angle_beta 102.857895
_cell_angle_gamma 144.303780
_cell_volume 714.085334
_symmetry_space_group_name_H-M "P -1"
_symmetry_group_IT_number 2
_symmetry_cell_setting 'triclinic'
loop_
_space_group_symop_operation_xyz
x,y,z
-x,-y,-z
loop_
_atom_site_type_symbol
_atom_site_label
_atom_site_fract_x
_atom_site_fract_y
_atom_site_fract_z
Si Si1 0.182862 0.026507 0.082790
Si Si2 0.474358 0.306852 0.541061
Si Si3 0.936148 0.677610 0.253196
Si Si4 0.904808 0.761576 0.466082
Si Si5 0.963209 0.200269 0.279048
Si Si6 0.380734 0.292087 0.274227
Si Si7 0.830379 0.414024 0.739713
Si Si8 0.536049 0.898045 0.081990
O O1 0.048331 0.817671 0.133313
O O2 0.292578 0.144491 0.195531
O O3 0.395015 0.143821 0.001626
O O4 0.000000 0.000000 0.000000
O O5 0.691694 0.541530 0.524656
O O6 0.234839 0.203821 0.589992
O O7 0.388890 0.223568 0.411343
O O8 0.599102 0.279486 0.637841
O O9 0.036759 0.797295 0.367145
O O10 0.644539 0.510526 0.237765
O O11 0.000499 0.582030 0.279393
O O12 0.098719 0.891620 0.582174
O O13 0.207104 0.294097 0.252664
O O14 0.001555 0.364406 0.260142
O O15 0.741080 0.030580 0.190392
O O16 0.720574 0.310714 0.867379
O O17 0.500000 0.000000 0.000000
#
# Coordination Sequence:
#
# PCOD8024528 Si02
#       8
#     2   2   2   2   2   2   2   2
#     4  12  27  45  63  92 125 167 220 264 299 363
#     4   8  17  37  64  94 125 160 201 254 317 375
#     4  11  24  41  65  98 127 162 208 260 316 371
#     4   8  17  37  64  95 124 155 210 257 303 377
#     4  10  23  43  69  94 123 169 206 256 321 368
#     4  10  23  43  68  96 124 161 213 262 309 368
#     4  11  24  41  66  94 129 169 200 255 326 374
#     4  12  27  47  59  90 133 167 214 258 308 377
#
# _framework density 22.406283999999999
#
# number of rings (size 3 to 8) (size 9 to 14) (size 15 to 20)
#    0.000    1.750    2.500    2.250    5.250    7.500 
#    0.000    3.750    0.000    0.000    0.000    0.000 
#    0.000    0.000    0.000    0.000    0.000    0.000 
#
# Total GULP energy -198388.543017 kJ/mol
# GULP energy per Si atom -12399.283939 kJ/mol
# Density = 2.235529 g / cm^3
# Si number density = 22.406284 Si / 1000 Ang^3
#
#
#
# Elastic Constant Matrix: (Units=GPa)
#
#
# Indices 1 2 3 4 5 6 
#
# 1 111.5834 15.2840 32.5860 6.3397 -12.8706 -6.8727
# 2 15.2840 27.2671 17.4280 5.1751 -6.7524 -7.8597
# 3 32.5860 17.4280 83.7753 -0.7480 -11.4084 -6.9420
# 4 6.3397 5.1751 -0.7480 33.5265 -2.2454 -5.6362
# 5 -12.8706 -6.7524 -11.4084 -2.2454 43.0576 -1.1698
# 6 -6.8727 -7.8597 -6.9420 -5.6362 -1.1698 28.2727
#
#
#
# Elastic Compliance Matrix: (Units=1/GPa)
#
#
# Indices 1 2 3 4 5 6 
#
# 1 0.010645 -0.002975 -0.003224 -0.001375 0.001811 0.000770
# 2 -0.002975 0.048090 -0.007423 -0.005028 0.004695 0.010015
# 3 -0.003224 -0.007423 0.015157 0.002476 0.002057 0.001453
# 4 -0.001375 -0.005028 0.002476 0.031892 0.001263 0.005286
# 5 0.001811 0.004695 0.002057 0.001263 0.025209 0.003545
# 6 0.000770 0.010015 0.001453 0.005286 0.003545 0.039898
#
#
# Mechanical properties :
#
#
# Convention : Reuss Voigt Hill
#
# Bulk Modulus (GPa) = 21.43645 39.24685 30.34165
# Shear Modulus (GPa) = 23.39896 31.45988 27.42942
#
# Velocity S-wave (km/s) = 3.23507 3.75115 3.50263
# Velocity P-wave (km/s) = 4.85203 6.02624 5.47073
#
# Compressibility (1/GPa) = 0.04664952
#
# Stress axis : x y z
#
# Youngs Moduli (GPa) = 93.93889 20.79439 65.97460
#
# Poissons Ratio (x) = 0.06187 0.21268
# Poissons Ratio (y) = 0.27950 0.48970
# Poissons Ratio (z) = 0.30282 0.15435
#
# Static dielectric constant tensor:
#      x y z
#    x 4.023390 0.028910 0.043130 
#    y 0.028910 3.987700 0.108980 
#    z 0.043130 0.108980 4.349140 
# 
# 
# High freq. dielectric constant tensor:
#      x y z
#    x 1.881430 -0.003000 -0.001420 
#    y -0.003000 1.878610 0.001220 
#    z -0.001420 0.001220 1.893090 
# 
# From -- ./inp_files/306954.got.cif
#   From: 2010.06.25/outbox.cif.g09.slc.cpg/sg2_154_cif.got.tgz:306954.got - 2010.06.27 13:26:56.
