data_PCOD8024045
_publ_section_title
;
Structure prediction by ZEFSAII (Michael W. Deem and Ramdas Pophale) SiO2 
 PCOD8024045
Probable space group: P -1
;
_chemical_formula_sum "Si O2"
_cell_formula_units_Z 16
_cell_length_a 9.446005
_cell_length_b 8.783967
_cell_length_c 16.426581
_cell_angle_alpha 102.032980
_cell_angle_beta 109.373561
_cell_angle_gamma 31.526095
_cell_volume 664.655551
_symmetry_space_group_name_H-M "P -1"
_symmetry_group_IT_number 2
_symmetry_cell_setting 'triclinic'
loop_
_space_group_symop_operation_xyz
x,y,z
-x,-y,-z
loop_
_atom_site_type_symbol
_atom_site_label
_atom_site_fract_x
_atom_site_fract_y
_atom_site_fract_z
Si Si1 0.307031 0.228144 0.062464
Si Si2 0.813319 0.200748 0.062512
Si Si3 0.805113 0.965118 0.405178
Si Si4 0.493674 0.650980 0.292839
Si Si5 0.823972 0.840121 0.814839
Si Si6 0.839019 0.516421 0.701019
Si Si7 0.063018 0.054799 0.398717
Si Si8 0.170377 0.660698 0.165184
O O1 0.331138 0.083092 0.124194
O O2 0.340538 0.377380 0.115811
O O3 0.000000 0.500000 0.000000
O O4 0.500000 0.000000 0.000000
O O5 0.410371 0.582216 0.209871
O O6 0.500000 0.500000 0.000000
O O7 0.879583 0.990880 0.108508
O O8 0.000000 0.000000 0.000000
O O9 0.497825 0.192102 0.339480
O O10 0.898592 0.049298 0.398742
O O11 0.814110 0.954592 0.503482
O O12 0.019555 0.646527 0.376474
O O13 0.915918 0.269968 0.132703
O O14 0.831052 0.359620 0.339323
O O15 0.418463 0.874346 0.256662
O O16 0.326923 0.780040 0.361065
O O17 0.951813 0.582819 0.760912
O O18 0.936261 0.306305 0.764140
#
# Coordination Sequence:
#
# PCOD8024045 Si02
#       8
#     2   2   2   2   2   2   2   2
#     4  11  26  45  69  98 136 178 233 286 353 414
#     4  11  26  45  69  98 136 178 233 286 353 414
#     4  11  22  40  69 103 138 182 235 286 334 404
#     4  11  23  43  68 101 139 180 230 281 349 405
#     4  10  27  46  71 104 140 182 226 296 347 420
#     4  11  23  43  68 101 139 180 230 281 349 405
#     4  11  22  40  69 103 138 182 235 286 334 404
#     4  10  23  42  69  96 132 180 230 282 345 416
#
# _framework density 24.072621000000002
#
# number of rings (size 3 to 8) (size 9 to 14) (size 15 to 20)
#    0.000    1.250    2.500    1.500    0.000   19.000 
#    0.000    7.500    0.000    0.000    0.000    0.000 
#    0.000    0.000    0.000    0.000    0.000    0.000 
#
# Total GULP energy -198375.626997 kJ/mol
# GULP energy per Si atom -12398.476687 kJ/mol
# Density = 2.401783 g / cm^3
# Si number density = 24.072621 Si / 1000 Ang^3
#
#
#
# Elastic Constant Matrix: (Units=GPa)
#
#
# Indices 1 2 3 4 5 6 
#
# 1 85.3899 25.2682 31.9688 -4.1762 6.1673 19.3661
# 2 25.2682 111.9025 30.9139 0.2776 7.7565 -3.5628
# 3 31.9688 30.9139 111.8367 -1.7187 13.7089 9.1952
# 4 -4.1762 0.2776 -1.7187 52.5969 8.6896 -3.0310
# 5 6.1673 7.7565 13.7089 8.6896 30.7087 -6.1822
# 6 19.3661 -3.5628 9.1952 -3.0310 -6.1822 27.4763
#
#
#
# Elastic Compliance Matrix: (Units=1/GPa)
#
#
# Indices 1 2 3 4 5 6 
#
# 1 0.016681 -0.003218 -0.002324 0.001275 -0.004323 -0.012229
# 2 -0.003218 0.010448 -0.002326 -0.000128 -0.000037 0.004378
# 3 -0.002324 -0.002326 0.011130 0.000793 -0.004820 -0.003385
# 4 0.001275 -0.000128 0.000793 0.020169 -0.006363 -0.000387
# 5 -0.004323 -0.000037 -0.004820 -0.006363 0.040002 0.012954
# 6 -0.012229 0.004378 -0.003385 -0.000387 0.012954 0.049587
#
#
# Mechanical properties :
#
#
# Convention : Reuss Voigt Hill
#
# Bulk Modulus (GPa) = 44.39604 53.93676 49.16640
# Shear Modulus (GPa) = 29.19548 36.88827 33.04187
#
# Velocity S-wave (km/s) = 3.48632 3.91880 3.70887
# Velocity P-wave (km/s) = 5.88969 6.55214 6.22973
#
# Compressibility (1/GPa) = 0.02252453
#
# Stress axis : x y z
#
# Youngs Moduli (GPa) = 59.94773 95.71545 89.84549
#
# Poissons Ratio (x) = 0.30797 0.20881
# Poissons Ratio (y) = 0.19289 0.20895
# Poissons Ratio (z) = 0.13932 0.22260
#
# Static dielectric constant tensor:
#      x y z
#    x 4.275810 0.249440 0.095760 
#    y 0.249440 4.116250 -0.114970 
#    z 0.095760 -0.114970 4.775760 
# 
# 
# High freq. dielectric constant tensor:
#      x y z
#    x 1.946530 0.012410 0.007770 
#    y 0.012410 1.956200 -0.000850 
#    z 0.007770 -0.000850 1.974010 
# 
# From -- ./inp_files/437347.got.cif
#   From: 2010.06.25/outbox.cif.g09.slc.cpg/sg2_219_cif.got.tgz:437347.got - 2010.06.27 13:26:56.
