data_PCOD8024621
_publ_section_title
;
Structure prediction by ZEFSAII (Michael W. Deem and Ramdas Pophale) SiO2 
 PCOD8024621
Probable space group: P -1
;
_chemical_formula_sum "Si O2"
_cell_formula_units_Z 16
_cell_length_a 18.842964
_cell_length_b 9.031740
_cell_length_c 6.404678
_cell_angle_alpha 87.118828
_cell_angle_beta 123.359730
_cell_angle_gamma 119.026599
_cell_volume 760.238759
_symmetry_space_group_name_H-M "P -1"
_symmetry_group_IT_number 2
_symmetry_cell_setting 'triclinic'
loop_
_space_group_symop_operation_xyz
x,y,z
-x,-y,-z
loop_
_atom_site_type_symbol
_atom_site_label
_atom_site_fract_x
_atom_site_fract_y
_atom_site_fract_z
Si Si1 0.064936 0.696435 0.195115
Si Si2 0.073501 0.264400 0.696652
Si Si3 0.960070 0.055965 0.125437
Si Si4 0.289579 0.848719 0.674216
Si Si5 0.450842 0.521696 0.214894
Si Si6 0.564743 0.778049 0.042126
Si Si7 0.577009 0.144377 0.449970
Si Si8 0.288829 0.597245 0.019009
O O1 0.171003 0.729461 0.438996
O O2 0.009671 0.725497 0.298923
O O3 0.000000 0.500000 0.000000
O O4 0.095284 0.851073 0.061674
O O5 0.040805 0.203362 0.408857
O O6 0.168758 0.462867 0.838757
O O7 0.105346 0.131433 0.845886
O O8 0.000000 0.000000 0.000000
O O9 0.371005 0.925190 0.611314
O O10 0.324709 0.037966 0.818562
O O11 0.317664 0.738538 0.873516
O O12 0.500000 0.500000 0.500000
O O13 0.527288 0.716954 0.225047
O O14 0.343272 0.493459 0.086564
O O15 0.419729 0.368374 0.012759
O O16 0.479078 0.783431 0.776224
O O17 0.675166 0.306655 0.708605
O O18 0.500000 0.000000 0.500000
#
# Coordination Sequence:
#
# PCOD8024621 Si02
#       8
#     2   2   2   2   2   2   2   2
#     4  11  24  44  65  99 137 170 225 282 330 393
#     4  10  23  43  69  96 133 177 221 273 332 404
#     4   9  21  44  67  91 133 174 216 280 335 383
#     4  12  26  41  68  96 129 178 220 273 331 399
#     4  11  24  42  64  94 135 171 214 277 327 391
#     4  11  24  43  63  95 130 170 220 273 329 393
#     4  12  23  43  68  94 134 172 221 274 333 397
#     4  12  24  41  68  97 129 178 221 261 340 396
#
# _framework density 21.046019000000001
#
# number of rings (size 3 to 8) (size 9 to 14) (size 15 to 20)
#    0.000    1.000    3.750    2.625    0.000    8.000 
#    0.000    0.000    0.000    0.000    0.000    0.000 
#    0.000    0.000    0.000    0.000    0.000    0.000 
#
# Total GULP energy -198240.714180 kJ/mol
# GULP energy per Si atom -12390.044636 kJ/mol
# Density = 2.099812 g / cm^3
# Si number density = 21.046019 Si / 1000 Ang^3
#
#
#
# Elastic Constant Matrix: (Units=GPa)
#
#
# Indices 1 2 3 4 5 6 
#
# 1 67.6658 29.2119 29.3030 -9.5110 2.6059 1.3393
# 2 29.2119 115.8790 50.2822 -0.1751 1.6307 2.3988
# 3 29.3030 50.2822 126.2403 -6.7692 -2.2307 3.9904
# 4 -9.5110 -0.1751 -6.7692 48.2353 -1.8879 3.1301
# 5 2.6059 1.6307 -2.2307 -1.8879 29.1513 -1.6498
# 6 1.3393 2.3988 3.9904 3.1301 -1.6498 33.3737
#
#
#
# Elastic Compliance Matrix: (Units=1/GPa)
#
#
# Indices 1 2 3 4 5 6 
#
# 1 0.017868 -0.003309 -0.002671 0.003114 -0.001445 -0.000523
# 2 -0.003309 0.011088 -0.003718 -0.001152 -0.000692 -0.000146
# 3 -0.002671 -0.003718 0.010124 0.000985 0.001236 -0.000867
# 4 0.003114 -0.001152 0.000985 0.021663 0.001144 -0.002135
# 5 -0.001445 -0.000692 0.001236 0.001144 0.034729 0.001569
# 6 -0.000523 -0.000146 -0.000867 -0.002135 0.001569 0.030377
#
#
# Mechanical properties :
#
#
# Convention : Reuss Voigt Hill
#
# Bulk Modulus (GPa) = 50.80395 58.59771 54.70083
# Shear Modulus (GPa) = 32.93661 35.55125 34.24393
#
# Velocity S-wave (km/s) = 3.96028 4.11446 4.03811
# Velocity P-wave (km/s) = 6.71592 7.10457 6.91297
#
# Compressibility (1/GPa) = 0.01968351
#
# Stress axis : x y z
#
# Youngs Moduli (GPa) = 55.96708 90.18676 98.77175
#
# Poissons Ratio (x) = 0.29845 0.26386
# Poissons Ratio (y) = 0.18521 0.36720
# Poissons Ratio (z) = 0.14951 0.33529
#
# Static dielectric constant tensor:
#      x y z
#    x 3.548630 -0.063360 -0.129850 
#    y -0.063360 4.085880 -0.226030 
#    z -0.129850 -0.226030 3.948940 
# 
# 
# High freq. dielectric constant tensor:
#      x y z
#    x 1.812420 -0.014380 -0.014520 
#    y -0.014380 1.844780 -0.006440 
#    z -0.014520 -0.006440 1.835480 
# 
# From -- ./inp_files/106777.got.cif
#   From: 2010.06.25/outbox.cif.g09.slc.cpg/sg2_54_cif.got.tgz:106777.got - 2010.06.27 13:26:56.
