data_PCOD8024841
_publ_section_title
;
Structure prediction by ZEFSAII (Michael W. Deem and Ramdas Pophale) SiO2 
 PCOD8024841
Probable space group: P -1
;
_chemical_formula_sum "Si O2"
_cell_formula_units_Z 16
_cell_length_a 5.402086
_cell_length_b 16.261421
_cell_length_c 8.996024
_cell_angle_alpha 81.644397
_cell_angle_beta 79.039281
_cell_angle_gamma 117.969055
_cell_volume 659.694768
_symmetry_space_group_name_H-M "P -1"
_symmetry_group_IT_number 2
_symmetry_cell_setting 'triclinic'
loop_
_space_group_symop_operation_xyz
x,y,z
-x,-y,-z
loop_
_atom_site_type_symbol
_atom_site_label
_atom_site_fract_x
_atom_site_fract_y
_atom_site_fract_z
Si Si1 0.568649 0.490464 0.740287
Si Si2 0.245695 0.995806 0.118517
Si Si3 0.130057 0.313384 0.488159
Si Si4 0.196700 0.162809 0.993029
Si Si5 0.906794 0.577778 0.974264
Si Si6 0.325333 0.031944 0.409593
Si Si7 0.563368 0.313978 0.675351
Si Si8 0.144127 0.773492 0.765755
O O1 0.696706 0.545947 0.865036
O O2 0.694465 0.426041 0.676267
O O3 0.630020 0.572498 0.590883
O O4 0.229074 0.419086 0.849239
O O5 0.277688 0.967175 0.287628
O O6 0.299496 0.104699 0.101410
O O7 0.943970 0.913715 0.106345
O O8 0.500000 0.000000 0.000000
O O9 0.824394 0.300560 0.587191
O O10 0.055989 0.257726 0.353259
O O11 0.294002 0.278959 0.595149
O O12 0.453093 0.257820 0.859916
O O13 0.985682 0.184514 0.109326
O O14 0.160706 0.686244 0.869975
O O15 0.000000 0.500000 0.000000
O O16 0.524268 0.147516 0.335301
O O17 0.500000 0.000000 0.500000
O O18 0.000000 0.000000 0.500000
#
# Coordination Sequence:
#
# PCOD8024841 Si02
#       8
#     2   2   2   2   2   2   2   2
#     4  10  23  45  68 107 151 200 250 307 379 440
#     4  11  26  49  75 107 146 191 255 312 382 450
#     4  11  29  44  74 110 159 192 251 313 381 452
#     4  11  26  48  77 106 148 196 254 317 370 456
#     4  10  23  43  76 110 151 198 259 316 365 453
#     4  12  29  49  78 110 156 201 246 318 392 458
#     4  12  27  47  75 111 147 204 250 313 377 450
#     4  11  25  52  73 114 146 204 257 308 385 459
#
# _framework density 24.253641999999999
#
# number of rings (size 3 to 8) (size 9 to 14) (size 15 to 20)
#    0.000    1.000    2.500    1.500   12.250    2.000 
#    4.500    0.000    0.000    0.000    0.000    0.000 
#    0.000    0.000    0.000    0.000    0.000    0.000 
#
# Total GULP energy -198212.050006 kJ/mol
# GULP energy per Si atom -12388.253125 kJ/mol
# Density = 2.419844 g / cm^3
# Si number density = 24.253642 Si / 1000 Ang^3
#
#
#
# Elastic Constant Matrix: (Units=GPa)
#
#
# Indices 1 2 3 4 5 6 
#
# 1 127.5070 28.9794 60.9163 -9.9127 -13.5257 -12.0986
# 2 28.9794 116.0963 41.4780 -9.2726 -12.7035 -5.0095
# 3 60.9163 41.4780 127.3692 0.8760 -15.8254 -0.5497
# 4 -9.9127 -9.2726 0.8760 40.9039 8.9258 -5.5042
# 5 -13.5257 -12.7035 -15.8254 8.9258 37.2056 -4.3257
# 6 -12.0986 -5.0095 -0.5497 -5.5042 -4.3257 36.8860
#
#
#
# Elastic Compliance Matrix: (Units=1/GPa)
#
#
# Indices 1 2 3 4 5 6 
#
# 1 0.011101 -0.000408 -0.004985 0.002921 0.001555 0.004130
# 2 -0.000408 0.010194 -0.002910 0.002117 0.001788 0.001733
# 3 -0.004985 -0.002910 0.011513 -0.002943 0.002565 -0.001997
# 4 0.002921 0.002117 -0.002943 0.027532 -0.005530 0.004662
# 5 0.001555 0.001788 0.002565 -0.005530 0.030889 0.003588
# 6 0.004130 0.001733 -0.001997 0.004662 0.003588 0.029787
#
#
# Mechanical properties :
#
#
# Convention : Reuss Voigt Hill
#
# Bulk Modulus (GPa) = 61.71781 70.41333 66.06557
# Shear Modulus (GPa) = 34.95908 38.97236 36.96572
#
# Velocity S-wave (km/s) = 3.80069 4.01292 3.90825
# Velocity P-wave (km/s) = 6.69047 7.11101 6.90394
#
# Compressibility (1/GPa) = 0.01620278
#
# Stress axis : x y z
#
# Youngs Moduli (GPa) = 90.08091 98.09217 86.85560
#
# Poissons Ratio (x) = 0.04004 0.43301
# Poissons Ratio (y) = 0.03677 0.25271
# Poissons Ratio (z) = 0.44909 0.28540
#
# Static dielectric constant tensor:
#      x y z
#    x 3.846220 0.067710 -0.357200 
#    y 0.067710 4.190920 -0.241540 
#    z -0.357200 -0.241540 4.392250 
# 
# 
# High freq. dielectric constant tensor:
#      x y z
#    x 1.945820 0.002770 0.003170 
#    y 0.002770 1.973190 0.002060 
#    z 0.003170 0.002060 1.989480 
# 
# From -- ./inp_files/135128.got.cif
#   From: 2010.06.25/outbox.cif.g09.slc.cpg/sg2_68_cif.got.tgz:135128.got - 2010.06.27 13:26:56.
