data_PCOD8024051
_publ_section_title
;
Structure prediction by ZEFSAII (Michael W. Deem and Ramdas Pophale) SiO2 
 PCOD8024051
Probable space group: P -1
;
_chemical_formula_sum "Si O2"
_cell_formula_units_Z 16
_cell_length_a 29.321470
_cell_length_b 23.654084
_cell_length_c 18.591664
_cell_angle_alpha 160.639570
_cell_angle_beta 160.465205
_cell_angle_gamma 10.398083
_cell_volume 748.589735
_symmetry_space_group_name_H-M "P -1"
_symmetry_group_IT_number 2
_symmetry_cell_setting 'triclinic'
loop_
_space_group_symop_operation_xyz
x,y,z
-x,-y,-z
loop_
_atom_site_type_symbol
_atom_site_label
_atom_site_fract_x
_atom_site_fract_y
_atom_site_fract_z
Si Si1 0.470134 0.228249 0.206523
Si Si2 0.913153 0.785502 0.024239
Si Si3 0.986423 0.911927 0.079408
Si Si4 0.768831 0.239388 0.998850
Si Si5 0.632428 0.036242 0.759586
Si Si6 0.640708 0.485884 0.355270
Si Si7 0.463207 0.543308 0.683399
Si Si8 0.992979 0.412461 0.810492
O O1 0.434479 0.397999 0.422988
O O2 0.739479 0.984399 0.273146
O O3 0.206954 0.528618 0.127532
O O4 0.500000 0.000000 0.000000
O O5 0.957551 0.572693 0.882967
O O6 0.725886 0.934874 0.859566
O O7 0.790515 0.064826 0.227559
O O8 0.296243 0.597484 0.156124
O O9 0.886002 0.113453 0.244279
O O10 0.860771 0.140226 0.098201
O O11 0.884046 0.823816 0.829037
O O12 0.588779 0.263544 0.745008
O O13 0.590431 0.590620 0.138516
O O14 0.000000 0.000000 0.000000
O O15 0.500000 0.000000 0.500000
O O16 0.504349 0.540738 0.286216
O O17 0.738546 0.566588 0.618569
O O18 0.000000 0.500000 0.000000
#
# Coordination Sequence:
#
# PCOD8024051 Si02
#       8
#     2   2   2   2   2   2   2   2
#     4  10  23  42  69  97 133 180 226 277 342 406
#     4  11  24  44  66 102 143 175 229 290 346 402
#     4  11  23  43  71  98 135 184 228 270 349 409
#     4  11  22  43  68  99 131 180 234 273 339 416
#     4  11  25  44  67 101 140 176 229 287 343 399
#     4  11  21  41  69  96 135 176 230 274 338 409
#     4  12  22  45  71 103 139 175 227 290 339 413
#     4  11  25  45  66 102 138 180 234 279 343 417
#
# _framework density 21.373524
#
# number of rings (size 3 to 8) (size 9 to 14) (size 15 to 20)
#    0.000    1.000    5.000    3.375    3.500    1.000 
#    4.500    3.125    0.000    0.000    0.000    0.000 
#    0.000    0.000    0.000    0.000    0.000    0.000 
#
# Total GULP energy -198242.831682 kJ/mol
# GULP energy per Si atom -12390.176980 kJ/mol
# Density = 2.132488 g / cm^3
# Si number density = 21.373524 Si / 1000 Ang^3
#
#
#
# Elastic Constant Matrix: (Units=GPa)
#
#
# Indices 1 2 3 4 5 6 
#
# 1 90.7708 26.9897 38.9853 0.8561 0.4750 -11.9256
# 2 26.9897 119.1679 57.2053 -3.4593 2.8179 -12.1323
# 3 38.9853 57.2053 153.8233 -13.9959 1.1714 -7.0375
# 4 0.8561 -3.4593 -13.9959 23.0416 -6.7105 -3.2910
# 5 0.4750 2.8179 1.1714 -6.7105 35.1957 -3.8261
# 6 -11.9256 -12.1323 -7.0375 -3.2910 -3.8261 34.2962
#
#
#
# Elastic Compliance Matrix: (Units=1/GPa)
#
#
# Indices 1 2 3 4 5 6 
#
# 1 0.013086 -0.001313 -0.002853 -0.001939 0.000014 0.003316
# 2 -0.001313 0.010643 -0.003533 -0.000288 -0.000500 0.002500
# 3 -0.002853 -0.003533 0.009034 0.005413 0.001080 0.000252
# 4 -0.001939 -0.000288 0.005413 0.050592 0.010203 0.006328
# 5 0.000014 -0.000500 0.001080 0.010203 0.030848 0.004470
# 6 0.003316 0.002500 0.000252 0.006328 0.004470 0.032353
#
#
# Mechanical properties :
#
#
# Convention : Reuss Voigt Hill
#
# Bulk Modulus (GPa) = 57.58973 67.79141 62.69057
# Shear Modulus (GPa) = 29.80750 34.54549 32.17649
#
# Velocity S-wave (km/s) = 3.73848 4.02465 3.88421
# Velocity P-wave (km/s) = 6.75559 7.30640 7.03638
#
# Compressibility (1/GPa) = 0.01736421
#
# Stress axis : x y z
#
# Youngs Moduli (GPa) = 76.41469 93.95829 110.69483
#
# Poissons Ratio (x) = 0.12340 0.31582
# Poissons Ratio (y) = 0.10036 0.39111
# Poissons Ratio (z) = 0.21801 0.33197
#
# Static dielectric constant tensor:
#      x y z
#    x 3.894700 -0.323530 0.114890 
#    y -0.323530 4.369520 -0.431920 
#    z 0.114890 -0.431920 4.330720 
# 
# 
# High freq. dielectric constant tensor:
#      x y z
#    x 1.835340 -0.012830 -0.001670 
#    y -0.012830 1.847600 -0.019530 
#    z -0.001670 -0.019530 1.839230 
# 
# From -- ./inp_files/580212.got.cif
#   From: 2010.06.25/outbox.cif.g09.slc.cpg/sg2_291_cif.got.tgz:580212.got - 2010.06.27 13:26:56.
