data_PCOD8024452
_publ_section_title
;
Structure prediction by ZEFSAII (Michael W. Deem and Ramdas Pophale) SiO2 
 PCOD8024452
Probable space group: P -1
;
_chemical_formula_sum "Si O2"
_cell_formula_units_Z 16
_cell_length_a 23.528021
_cell_length_b 8.487291
_cell_length_c 9.317008
_cell_angle_alpha 32.277682
_cell_angle_beta 130.910238
_cell_angle_gamma 129.742592
_cell_volume 733.755269
_symmetry_space_group_name_H-M "P -1"
_symmetry_group_IT_number 2
_symmetry_cell_setting 'triclinic'
loop_
_space_group_symop_operation_xyz
x,y,z
-x,-y,-z
loop_
_atom_site_type_symbol
_atom_site_label
_atom_site_fract_x
_atom_site_fract_y
_atom_site_fract_z
Si Si1 0.084863 0.003152 0.189490
Si Si2 0.145722 0.403118 0.735211
Si Si3 0.089346 0.045841 0.645718
Si Si4 0.552624 0.409138 0.369319
Si Si5 0.697492 0.584528 0.672190
Si Si6 0.447996 0.821903 0.763497
Si Si7 0.304196 0.759670 0.774450
Si Si8 0.147991 0.440502 0.191665
O O1 0.096370 0.144906 0.257556
O O2 0.097510 0.664260 0.464206
O O3 0.145787 0.239197 0.014392
O O4 0.000000 0.000000 0.000000
O O5 0.106031 0.138816 0.766402
O O6 0.235576 0.536067 0.748915
O O7 0.141822 0.330639 0.430436
O O8 0.000000 0.000000 0.500000
O O9 0.113116 0.734101 0.888232
O O10 0.625298 0.560057 0.466476
O O11 0.581190 0.317694 0.331817
O O12 0.504808 0.138090 0.590692
O O13 0.495512 0.630158 0.081707
O O14 0.764532 0.467881 0.789049
O O15 0.727295 0.939522 0.477384
O O16 0.673620 0.391054 0.926067
O O17 0.375341 0.852197 0.714041
#
# Coordination Sequence:
#
# PCOD8024452 Si02
#       8
#     2   2   2   2   2   2   2   2
#     4  12  23  43  70  92 130 176 217 268 331 390
#     4  12  24  44  63 100 132 170 221 274 326 394
#     4  12  26  44  67  97 131 171 225 277 331 391
#     4  10  23  44  66  98 129 172 215 262 319 390
#     4  12  25  43  67  97 135 171 220 265 325 391
#     4  10  23  43  67  96 132 169 216 261 323 384
#     4  12  24  43  65  98 134 173 215 271 322 391
#     4  12  24  44  65  98 131 172 218 274 327 393
#
# _framework density 21.805636
#
# number of rings (size 3 to 8) (size 9 to 14) (size 15 to 20)
#    0.000    0.500    2.500    6.000    1.750    3.000 
#    4.500    0.000    0.000    0.000    0.000    0.000 
#    0.000    0.000    0.000    0.000    0.000    0.000 
#
# Total GULP energy -198470.686271 kJ/mol
# GULP energy per Si atom -12404.417892 kJ/mol
# Density = 2.175601 g / cm^3
# Si number density = 21.805636 Si / 1000 Ang^3
#
#
#
# Elastic Constant Matrix: (Units=GPa)
#
#
# Indices 1 2 3 4 5 6 
#
# 1 107.7297 36.8486 48.1129 -4.3412 8.1401 3.7232
# 2 36.8486 104.1193 26.7073 1.3049 6.3346 8.2236
# 3 48.1129 26.7073 153.0307 -2.4757 12.9196 -1.5684
# 4 -4.3412 1.3049 -2.4757 39.1733 10.9671 -2.5120
# 5 8.1401 6.3346 12.9196 10.9671 55.4733 -11.1597
# 6 3.7232 8.2236 -1.5684 -2.5120 -11.1597 26.6525
#
#
#
# Elastic Compliance Matrix: (Units=1/GPa)
#
#
# Indices 1 2 3 4 5 6 
#
# 1 0.011978 -0.003301 -0.003076 0.001503 -0.001202 -0.001197
# 2 -0.003301 0.011374 -0.000894 -0.000699 -0.001207 -0.003672
# 3 -0.003076 -0.000894 0.007778 0.000570 -0.001229 0.000702
# 4 0.001503 -0.000699 0.000570 0.027346 -0.005627 0.000260
# 5 -0.001202 -0.001207 -0.001229 -0.005627 0.021542 0.008957
# 6 -0.001197 -0.003672 0.000702 0.000260 0.008957 0.042637
#
#
# Mechanical properties :
#
#
# Convention : Reuss Voigt Hill
#
# Bulk Modulus (GPa) = 60.28751 65.35745 62.82248
# Shear Modulus (GPa) = 35.03184 41.14055 38.08619
#
# Velocity S-wave (km/s) = 4.01253 4.34832 4.18379
# Velocity P-wave (km/s) = 7.01248 7.43292 7.22576
#
# Compressibility (1/GPa) = 0.01658718
#
# Stress axis : x y z
#
# Youngs Moduli (GPa) = 83.48385 87.91757 128.56632
#
# Poissons Ratio (x) = 0.29024 0.39551
# Poissons Ratio (y) = 0.27560 0.11497
# Poissons Ratio (z) = 0.25682 0.07862
#
# Static dielectric constant tensor:
#      x y z
#    x 3.959690 -0.052540 -0.096900 
#    y -0.052540 3.881850 -0.011580 
#    z -0.096900 -0.011580 4.092310 
# 
# 
# High freq. dielectric constant tensor:
#      x y z
#    x 1.862360 0.003670 -0.003690 
#    y 0.003670 1.861850 -0.000040 
#    z -0.003690 -0.000040 1.878410 
# 
# From -- ./inp_files/48417.got.cif
#   From: 2010.06.25/outbox.cif.g09.slc.cpg/sg2_25_cif.got.tgz:48417.got - 2010.06.27 13:26:56.
