data_PCOD8024048
_publ_section_title
;
Structure prediction by ZEFSAII (Michael W. Deem and Ramdas Pophale) SiO2 
 PCOD8024048
Probable space group: P -1
;
_chemical_formula_sum "Si O2"
_cell_formula_units_Z 12
_cell_length_a 14.270533
_cell_length_b 8.947803
_cell_length_c 23.444076
_cell_angle_alpha 32.443520
_cell_angle_beta 160.233787
_cell_angle_gamma 149.357874
_cell_volume 505.694741
_symmetry_space_group_name_H-M "P -1"
_symmetry_group_IT_number 2
_symmetry_cell_setting 'triclinic'
loop_
_space_group_symop_operation_xyz
x,y,z
-x,-y,-z
loop_
_atom_site_type_symbol
_atom_site_label
_atom_site_fract_x
_atom_site_fract_y
_atom_site_fract_z
Si Si1 0.969003 0.172015 0.982711
Si Si2 0.842008 0.170861 0.583539
Si Si3 0.291575 0.771668 0.848164
Si Si4 0.131607 0.297205 0.822636
Si Si5 0.281739 0.437016 0.341786
Si Si6 0.414234 0.403493 0.757932
O O1 0.264914 0.459682 0.072946
O O2 0.896174 0.949652 0.065746
O O3 0.691507 0.285149 0.774593
O O4 0.000000 0.000000 0.000000
O O5 0.633249 0.345085 0.389055
O O6 0.866612 0.192393 0.659146
O O7 0.163243 0.298431 0.696573
O O8 0.667833 0.825980 0.579334
O O9 0.142178 0.613534 0.753661
O O10 0.056257 0.651177 0.802382
O O11 0.401647 0.131962 0.795869
O O12 0.564417 0.659378 0.051524
O O13 0.500000 0.500000 0.500000
#
# Coordination Sequence:
#
# PCOD8024048 Si02
#       6
#     2   2   2   2   2   2
#     4  12  24  42  68  96 132 175 222 269 329 389
#     4  10  23  42  69  97 132 174 222 267 325 391
#     4  10  23  45  64  99 129 175 215 266 334 385
#     4  11  24  43  67 100 133 170 221 275 323 386
#     4  11  23  45  69  96 132 175 218 269 332 391
#     4  10  23  44  69  95 132 177 218 264 330 395
#
# _framework density 23.729731999999998
#
# number of rings (size 3 to 8) (size 9 to 14) (size 15 to 20)
#    0.000    1.333    1.667    3.000    2.333    6.667 
#    3.000    0.000    0.000    0.000    0.000    0.000 
#    0.000    0.000    0.000    0.000    0.000    0.000 
#
# Total GULP energy -148753.390382 kJ/mol
# GULP energy per Si atom -12396.115865 kJ/mol
# Density = 2.367572 g / cm^3
# Si number density = 23.729732 Si / 1000 Ang^3
#
#
#
# Elastic Constant Matrix: (Units=GPa)
#
#
# Indices 1 2 3 4 5 6 
#
# 1 87.9155 46.8260 49.2395 -11.7617 -24.4257 -28.5093
# 2 46.8260 158.7440 64.0199 -17.1201 -22.8687 -54.1078
# 3 49.2395 64.0199 128.5865 -15.1715 -44.4349 -24.6684
# 4 -11.7617 -17.1201 -15.1715 43.7116 -5.1710 5.3005
# 5 -24.4257 -22.8687 -44.4349 -5.1710 49.0033 6.6757
# 6 -28.5093 -54.1078 -24.6684 5.3005 6.6757 53.6670
#
#
#
# Elastic Compliance Matrix: (Units=1/GPa)
#
#
# Indices 1 2 3 4 5 6 
#
# 1 0.017231 -0.000744 -0.002915 0.003196 0.005103 0.006114
# 2 -0.000744 0.011243 -0.002824 0.002253 0.001291 0.009259
# 3 -0.002915 -0.002824 0.014725 0.004450 0.010974 0.000568
# 4 0.003196 0.002253 0.004450 0.026989 0.009227 0.002201
# 5 0.005103 0.001291 0.010974 0.009227 0.033943 0.003924
# 6 0.006114 0.009259 0.000568 0.002201 0.003924 0.030771
#
#
# Mechanical properties :
#
#
# Convention : Reuss Voigt Hill
#
# Bulk Modulus (GPa) = 33.07567 77.26856 55.17211
# Shear Modulus (GPa) = 31.65653 43.62041 37.63847
#
# Velocity S-wave (km/s) = 3.65642 4.29210 3.98695
# Velocity P-wave (km/s) = 5.63867 7.56276 6.67046
#
# Compressibility (1/GPa) = 0.03023370
#
# Stress axis : x y z
#
# Youngs Moduli (GPa) = 58.03504 88.94707 67.91029
#
# Poissons Ratio (x) = 0.06615 0.19793
# Poissons Ratio (y) = 0.04316 0.19181
# Poissons Ratio (z) = 0.16914 0.25122
#
# Static dielectric constant tensor:
#      x y z
#    x 4.220390 -0.167500 0.039560 
#    y -0.167500 4.571510 -0.095050 
#    z 0.039560 -0.095050 4.352950 
# 
# 
# High freq. dielectric constant tensor:
#      x y z
#    x 1.936910 -0.015920 -0.000930 
#    y -0.015920 1.949600 -0.001020 
#    z -0.000930 -0.001020 1.941230 
# 
# From -- ./inp_files/152335.got.cif
#   From: 2010.06.25/outbox.cif.g09.slc.cpg/sg2_77_cif.got.tgz:152335.got - 2010.06.27 13:26:56.
