data_PCOD8024203
_publ_section_title
;
Structure prediction by ZEFSAII (Michael W. Deem and Ramdas Pophale) SiO2 
 PCOD8024203
Probable space group: P -1
;
_chemical_formula_sum "Si O2"
_cell_formula_units_Z 14
_cell_length_a 8.882086
_cell_length_b 11.807071
_cell_length_c 15.029473
_cell_angle_alpha 152.454373
_cell_angle_beta 62.868539
_cell_angle_gamma 122.719363
_cell_volume 612.154357
_symmetry_space_group_name_H-M "P -1"
_symmetry_group_IT_number 2
_symmetry_cell_setting 'triclinic'
loop_
_space_group_symop_operation_xyz
x,y,z
-x,-y,-z
loop_
_atom_site_type_symbol
_atom_site_label
_atom_site_fract_x
_atom_site_fract_y
_atom_site_fract_z
Si Si1 0.485476 0.893721 0.029336
Si Si2 0.034246 0.427436 0.140993
Si Si3 0.711959 0.091957 0.514634
Si Si4 0.041120 0.871512 0.689406
Si Si5 0.124599 0.835241 0.830802
Si Si6 0.681864 0.733989 0.591679
Si Si7 0.754920 0.651837 0.314266
O O1 0.670249 0.986143 0.096692
O O2 0.343087 0.993197 0.188633
O O3 0.421898 0.583314 0.829588
O O4 0.500000 0.000000 0.000000
O O5 0.914569 0.381552 0.232735
O O6 0.926594 0.554563 0.191975
O O7 0.226960 0.637400 0.258480
O O8 0.057176 0.169655 0.914360
O O9 0.783468 0.886025 0.401993
O O10 0.500000 0.000000 0.500000
O O11 0.800591 0.129960 0.420253
O O12 0.074480 0.726459 0.668756
O O13 0.845098 0.708891 0.590461
O O14 0.000000 0.000000 0.000000
O O15 0.500000 0.500000 0.500000
O O16 0.731914 0.748587 0.485833
#
# Coordination Sequence:
#
# PCOD8024203 Si02
#       7
#     2   2   2   2   2   2   2
#     4  12  22  44  70 108 142 179 232 296 354 426
#     4  11  23  49  72 102 142 183 237 295 356 421
#     4  12  31  48  67 102 145 197 244 289 345 430
#     4  11  26  47  73 106 146 189 230 295 370 414
#     4  10  23  42  73 108 143 179 227 296 366 422
#     4  12  24  41  74 112 138 182 236 290 363 424
#     4  12  26  46  72 101 147 182 244 291 346 427
#
# _framework density 22.870048000000001
#
# number of rings (size 3 to 8) (size 9 to 14) (size 15 to 20)
#    0.000    0.571    5.714    1.286    6.000    2.857 
#    0.000    0.000    0.000    0.000    0.000    0.000 
#    0.000    0.000    0.000    0.000    0.000    0.000 
#
# Total GULP energy -173618.606046 kJ/mol
# GULP energy per Si atom -12401.329003 kJ/mol
# Density = 2.281799 g / cm^3
# Si number density = 22.870048 Si / 1000 Ang^3
#
#
#
# Elastic Constant Matrix: (Units=GPa)
#
#
# Indices 1 2 3 4 5 6 
#
# 1 126.0158 15.4106 8.5035 -8.3326 27.6426 18.8291
# 2 15.4106 49.1226 -1.5828 -6.3311 18.2603 8.6944
# 3 8.5035 -1.5828 93.1578 -1.0310 21.1930 10.4582
# 4 -8.3326 -6.3311 -1.0310 37.3454 9.2842 3.0597
# 5 27.6426 18.2603 21.1930 9.2842 44.0999 7.8730
# 6 18.8291 8.6944 10.4582 3.0597 7.8730 45.1103
#
#
#
# Elastic Compliance Matrix: (Units=1/GPa)
#
#
# Indices 1 2 3 4 5 6 
#
# 1 0.010326 0.001011 0.001340 0.004777 -0.007869 -0.003766
# 2 0.001011 0.028021 0.004562 0.009359 -0.015542 -0.004803
# 3 0.001340 0.004562 0.013218 0.004024 -0.009368 -0.003141
# 4 0.004777 0.009359 0.004024 0.033655 -0.015107 -0.004377
# 5 -0.007869 -0.015542 -0.009368 -0.015107 0.041321 0.002265
# 6 -0.003766 -0.004803 -0.003141 -0.004377 0.002265 0.025296
#
#
# Mechanical properties :
#
#
# Convention : Reuss Voigt Hill
#
# Bulk Modulus (GPa) = 15.29237 34.77321 25.03279
# Shear Modulus (GPa) = 31.28784 41.70877 36.49831
#
# Velocity S-wave (km/s) = 3.70276 4.27515 3.99921
# Velocity P-wave (km/s) = 4.99817 6.29340 5.68281
#
# Compressibility (1/GPa) = 0.06539208
#
# Stress axis : x y z
#
# Youngs Moduli (GPa) = 96.84136 35.68806 75.65496
#
# Poissons Ratio (x) = -0.03608 -0.10141
# Poissons Ratio (y) = -0.09792 -0.34515
# Poissons Ratio (z) = -0.12981 -0.16282
#
# Static dielectric constant tensor:
#      x y z
#    x 4.546150 -0.339800 0.283430 
#    y -0.339800 4.330200 -0.069300 
#    z 0.283430 -0.069300 4.507830 
# 
# 
# High freq. dielectric constant tensor:
#      x y z
#    x 1.914040 0.000450 0.006990 
#    y 0.000450 1.886110 0.001870 
#    z 0.006990 0.001870 1.926620 
# 
# From -- ./inp_files/255843.got.cif
#   From: 2010.06.25/outbox.cif.g09.slc.cpg/sg2_128_cif.got.tgz:255843.got - 2010.06.27 13:26:56.
