data_PCOD8024695
_publ_section_title
;
Structure prediction by ZEFSAII (Michael W. Deem and Ramdas Pophale) SiO2 
 PCOD8024695
Probable space group: P -1
;
_chemical_formula_sum "Si O2"
_cell_formula_units_Z 16
_cell_length_a 9.519431
_cell_length_b 11.730995
_cell_length_c 16.516860
_cell_angle_alpha 109.708637
_cell_angle_beta 114.909151
_cell_angle_gamma 127.873591
_cell_volume 732.186261
_symmetry_space_group_name_H-M "P -1"
_symmetry_group_IT_number 2
_symmetry_cell_setting 'triclinic'
loop_
_space_group_symop_operation_xyz
x,y,z
-x,-y,-z
loop_
_atom_site_type_symbol
_atom_site_label
_atom_site_fract_x
_atom_site_fract_y
_atom_site_fract_z
Si Si1 0.612219 0.219514 0.315040
Si Si2 0.727576 0.406623 0.221387
Si Si3 0.098210 0.209528 0.670131
Si Si4 0.388867 0.790587 0.153600
Si Si5 0.743246 0.953589 0.124948
Si Si6 0.467681 0.278188 0.691077
Si Si7 0.245384 0.105051 0.337159
Si Si8 0.126918 0.447729 0.293519
O O1 0.549701 0.252104 0.225810
O O2 0.370801 0.102902 0.297314
O O3 0.000000 0.500000 0.500000
O O4 0.505860 0.008534 0.222492
O O5 0.919057 0.666433 0.337086
O O6 0.006417 0.500842 0.290806
O O7 0.455635 0.237553 0.045013
O O8 0.439654 0.379632 0.764798
O O9 0.817395 0.931498 0.495223
O O10 0.030256 0.156447 0.737591
O O11 0.510476 0.793178 0.108773
O O12 0.555338 0.856514 0.291460
O O13 0.000000 0.500000 0.000000
O O14 0.074411 0.103989 0.255672
O O15 0.834099 0.154552 0.175447
O O16 0.806137 0.521809 0.779148
O O17 0.557945 0.363834 0.528421
#
# Coordination Sequence:
#
# PCOD8024695 Si02
#       8
#     2   2   2   2   2   2   2   2
#     4  12  26  47  71 104 138 184 239 290 345 419
#     4  12  26  43  69 100 141 178 226 293 344 412
#     4  10  24  44  68 100 133 178 231 284 343 407
#     4  12  26  44  71 101 141 186 231 286 353 418
#     4  12  26  46  67 101 144 181 229 286 353 414
#     4  10  23  43  70  97 134 178 230 283 342 412
#     4  11  25  45  71 100 135 187 232 287 340 415
#     4  11  24  44  72 100 138 182 232 284 346 414
#
# _framework density 21.852364000000001
#
# number of rings (size 3 to 8) (size 9 to 14) (size 15 to 20)
#    0.000    0.750    3.750    2.250    7.000    3.000 
#    0.000    0.000    0.000    0.000    0.000    0.000 
#    0.000    0.000    0.000    0.000    0.000    0.000 
#
# Total GULP energy -198423.906763 kJ/mol
# GULP energy per Si atom -12401.494173 kJ/mol
# Density = 2.180263 g / cm^3
# Si number density = 21.852364 Si / 1000 Ang^3
#
#
#
# Elastic Constant Matrix: (Units=GPa)
#
#
# Indices 1 2 3 4 5 6 
#
# 1 145.8840 62.1428 24.6643 -2.8716 3.6336 14.5327
# 2 62.1428 138.1154 25.8881 -15.8381 -2.0745 16.1938
# 3 24.6643 25.8881 74.3842 -6.2459 -0.3458 2.8898
# 4 -2.8716 -15.8381 -6.2459 36.8465 0.8133 -8.6295
# 5 3.6336 -2.0745 -0.3458 0.8133 22.6148 -5.7203
# 6 14.5327 16.1938 2.8898 -8.6295 -5.7203 51.0616
#
#
#
# Elastic Compliance Matrix: (Units=1/GPa)
#
#
# Indices 1 2 3 4 5 6 
#
# 1 0.008923 -0.003690 -0.001746 -0.001555 -0.002193 -0.001779
# 2 -0.003690 0.009790 -0.001853 0.003284 0.001021 -0.001280
# 3 -0.001746 -0.001853 0.014790 0.001701 0.000423 0.000583
# 4 -0.001555 0.003284 0.001701 0.029735 0.000621 0.004400
# 5 -0.002193 0.001021 0.000423 0.000621 0.046050 0.005540
# 6 -0.001779 -0.001280 0.000583 0.004400 0.005540 0.021828
#
#
# Mechanical properties :
#
#
# Convention : Reuss Voigt Hill
#
# Bulk Modulus (GPa) = 52.84369 64.86377 58.85373
# Shear Modulus (GPa) = 32.89390 38.48380 35.68885
#
# Velocity S-wave (km/s) = 3.88400 4.20108 4.04565
# Velocity P-wave (km/s) = 6.65947 7.29926 6.98670
#
# Compressibility (1/GPa) = 0.01892374
#
# Stress axis : x y z
#
# Youngs Moduli (GPa) = 112.06833 102.14382 67.61357
#
# Poissons Ratio (x) = 0.37693 0.11806
# Poissons Ratio (y) = 0.41356 0.12532
# Poissons Ratio (z) = 0.19568 0.18932
#
# Static dielectric constant tensor:
#      x y z
#    x 4.005990 0.617010 0.089690 
#    y 0.617010 3.308120 -0.365270 
#    z 0.089690 -0.365270 3.738200 
# 
# 
# High freq. dielectric constant tensor:
#      x y z
#    x 1.867550 0.011460 0.002280 
#    y 0.011460 1.877180 -0.013010 
#    z 0.002280 -0.013010 1.845180 
# 
# From -- ./inp_files/205736.got.cif
#   From: 2010.06.25/outbox.cif.g09.slc.cpg/sg2_103_cif.got.tgz:205736.got - 2010.06.27 13:26:56.
