data_PCOD8024795
_publ_section_title
;
Structure prediction by ZEFSAII (Michael W. Deem and Ramdas Pophale) SiO2 
 PCOD8024795
Probable space group: P -1
;
_chemical_formula_sum "Si O2"
_cell_formula_units_Z 16
_cell_length_a 9.594042
_cell_length_b 9.331440
_cell_length_c 12.130232
_cell_angle_alpha 127.192146
_cell_angle_beta 87.774501
_cell_angle_gamma 121.823170
_cell_volume 669.258485
_symmetry_space_group_name_H-M "P -1"
_symmetry_group_IT_number 2
_symmetry_cell_setting 'triclinic'
loop_
_space_group_symop_operation_xyz
x,y,z
-x,-y,-z
loop_
_atom_site_type_symbol
_atom_site_label
_atom_site_fract_x
_atom_site_fract_y
_atom_site_fract_z
Si Si1 0.659158 0.892531 0.876686
Si Si2 0.942834 0.692898 0.898212
Si Si3 0.770473 0.177587 0.658984
Si Si4 0.986333 0.023684 0.641075
Si Si5 0.788617 0.656076 0.660661
Si Si6 0.484640 0.102686 0.896357
Si Si7 0.698936 0.583859 0.043998
Si Si8 0.358237 0.863476 0.583325
O O1 0.640244 0.686521 0.716518
O O2 0.528960 0.934351 0.847738
O O3 0.600515 0.837775 0.980561
O O4 0.865291 0.118844 0.965836
O O5 0.905988 0.452602 0.795594
O O6 0.931387 0.758201 0.804399
O O7 0.799356 0.686132 0.972206
O O8 0.852253 0.083855 0.684485
O O9 0.755563 0.127799 0.503865
O O10 0.571494 0.060415 0.650773
O O11 0.185136 0.228694 0.775794
O O12 0.000000 0.000000 0.500000
O O13 0.688871 0.385521 0.521872
O O14 0.892666 0.788559 0.605728
O O15 0.327079 0.950086 0.737209
O O16 0.668796 0.348498 0.964481
O O17 0.500000 0.500000 0.000000
#
# Coordination Sequence:
#
# PCOD8024795 Si02
#       8
#     2   2   2   2   2   2   2   2
#     4  11  24  42  70 105 145 181 248 302 364 432
#     4  11  23  45  76 100 136 196 247 293 365 438
#     4  10  23  44  70 104 142 193 244 290 368 444
#     4  12  29  45  71 108 150 189 244 309 372 432
#     4  11  25  44  71 106 143 196 240 301 370 440
#     4  11  25  42  70 109 143 191 243 307 359 430
#     4  12  27  45  75 105 144 192 251 307 363 435
#     4  10  23  43  73 104 148 192 239 298 365 439
#
# _framework density 23.907056999999998
#
# number of rings (size 3 to 8) (size 9 to 14) (size 15 to 20)
#    0.000    1.000    2.500    2.625    3.500    7.000 
#    0.000    2.500    0.000    0.000    0.000    0.000 
#    0.000    0.000    0.000    0.000    0.000    0.000 
#
# Total GULP energy -198359.815455 kJ/mol
# GULP energy per Si atom -12397.488466 kJ/mol
# Density = 2.385264 g / cm^3
# Si number density = 23.907057 Si / 1000 Ang^3
#
#
#
# Elastic Constant Matrix: (Units=GPa)
#
#
# Indices 1 2 3 4 5 6 
#
# 1 60.0832 19.7418 0.8577 2.9494 16.0790 -1.0383
# 2 19.7418 127.2391 50.3792 -12.4509 5.0909 -10.2430
# 3 0.8577 50.3792 111.8838 -10.0466 10.4560 -5.4281
# 4 2.9494 -12.4509 -10.0466 42.5940 -0.5640 -2.9972
# 5 16.0790 5.0909 10.4560 -0.5640 26.8710 3.6337
# 6 -1.0383 -10.2430 -5.4281 -2.9972 3.6337 36.2004
#
#
#
# Elastic Compliance Matrix: (Units=1/GPa)
#
#
# Indices 1 2 3 4 5 6 
#
# 1 0.021658 -0.004042 0.002773 -0.002130 -0.013462 0.001068
# 2 -0.004042 0.010660 -0.004620 0.002488 0.001949 0.002218
# 3 0.002773 -0.004620 0.011674 0.001221 -0.005459 0.001172
# 4 -0.002130 0.002488 0.001221 0.024846 0.000466 0.002836
# 5 -0.013462 0.001949 -0.005459 0.000466 0.047766 -0.005409
# 6 0.001068 0.002218 0.001172 0.002836 -0.005409 0.029236
#
#
# Mechanical properties :
#
#
# Convention : Reuss Voigt Hill
#
# Bulk Modulus (GPa) = 31.04427 49.01817 40.03122
# Shear Modulus (GPa) = 29.69920 36.34826 33.02373
#
# Velocity S-wave (km/s) = 3.52842 3.90346 3.72067
# Velocity P-wave (km/s) = 5.44181 6.39251 5.93622
#
# Compressibility (1/GPa) = 0.03221206
#
# Stress axis : x y z
#
# Youngs Moduli (GPa) = 46.17308 93.81204 85.66386
#
# Poissons Ratio (x) = 0.37918 -0.23751
# Poissons Ratio (y) = 0.18663 0.39577
# Poissons Ratio (z) = -0.12802 0.43341
#
# Static dielectric constant tensor:
#      x y z
#    x 4.256320 -0.280320 -0.016490 
#    y -0.280320 4.644640 -0.169650 
#    z -0.016490 -0.169650 4.502340 
# 
# 
# High freq. dielectric constant tensor:
#      x y z
#    x 1.941940 -0.017160 -0.000390 
#    y -0.017160 1.956740 -0.006820 
#    z -0.000390 -0.006820 1.958350 
# 
# From -- ./inp_files/500978.got.cif
#   From: 2010.06.25/outbox.cif.g09.slc.cpg/sg2_251_cif.got.tgz:500978.got - 2010.06.27 13:26:56.
