data_PCOD8024145
_publ_section_title
;
Structure prediction by ZEFSAII (Michael W. Deem and Ramdas Pophale) SiO2 
 PCOD8024145
Probable space group: P -1
;
_chemical_formula_sum "Si O2"
_cell_formula_units_Z 16
_cell_length_a 8.564017
_cell_length_b 12.359657
_cell_length_c 17.081908
_cell_angle_alpha 49.571370
_cell_angle_beta 43.247203
_cell_angle_gamma 83.400680
_cell_volume 686.696650
_symmetry_space_group_name_H-M "P -1"
_symmetry_group_IT_number 2
_symmetry_cell_setting 'triclinic'
loop_
_space_group_symop_operation_xyz
x,y,z
-x,-y,-z
loop_
_atom_site_type_symbol
_atom_site_label
_atom_site_fract_x
_atom_site_fract_y
_atom_site_fract_z
Si Si1 0.893021 0.265937 0.825635
Si Si2 0.056433 0.533812 0.143676
Si Si3 0.628248 0.845691 0.698620
Si Si4 0.146198 0.173951 0.655647
Si Si5 0.445744 0.263673 0.899705
Si Si6 0.562567 0.418490 0.254791
Si Si7 0.645435 0.888702 0.157122
Si Si8 0.377612 0.831098 0.444280
O O1 0.044226 0.388067 0.793424
O O2 0.759008 0.341377 0.790019
O O3 0.149366 0.293764 0.666655
O O4 0.630217 0.038352 0.053361
O O5 0.869088 0.488595 0.153723
O O6 0.964289 0.345377 0.309009
O O7 0.429376 0.691069 0.915693
O O8 0.519045 0.723034 0.718050
O O9 0.525480 0.965157 0.678902
O O10 0.000000 0.000000 0.500000
O O11 0.252598 0.294443 0.480193
O O12 0.391609 0.156392 0.591063
O O13 0.815938 0.955506 0.869391
O O14 0.375700 0.396377 0.887555
O O15 0.471051 0.270232 0.792479
O O16 0.408682 0.786815 0.364697
O O17 0.000000 0.000000 0.000000
#
# Coordination Sequence:
#
# PCOD8024145 Si02
#       8
#     2   2   2   2   2   2   2   2
#     4  11  23  41  69 109 153 176 229 292 359 424
#     4  11  26  47  73 107 138 188 246 290 349 432
#     4  12  29  49  72  99 144 189 243 300 355 413
#     4  10  23  42  71 110 141 186 230 290 356 428
#     4  11  24  40  68 106 152 185 225 293 353 416
#     4  11  27  46  74 102 143 190 244 284 349 428
#     4  11  19  41  73 105 147 188 228 284 361 428
#     4  11  24  43  75 102 140 190 239 292 353 417
#
# _framework density 23.299952000000001
#
# number of rings (size 3 to 8) (size 9 to 14) (size 15 to 20)
#    0.000    1.000    3.750    3.375    5.250    6.000 
#    0.000    0.000    0.000    0.000    0.000    0.000 
#    0.000    0.000    0.000    0.000    0.000    0.000 
#
# Total GULP energy -198348.639180 kJ/mol
# GULP energy per Si atom -12396.789949 kJ/mol
# Density = 2.324692 g / cm^3
# Si number density = 23.299952 Si / 1000 Ang^3
#
#
#
# Elastic Constant Matrix: (Units=GPa)
#
#
# Indices 1 2 3 4 5 6 
#
# 1 86.7065 24.6370 33.4781 6.0387 -3.0568 5.9845
# 2 24.6370 103.4365 42.3217 5.7015 -5.9755 27.4980
# 3 33.4781 42.3217 130.4500 11.6252 14.7949 10.4140
# 4 6.0387 5.7015 11.6252 27.2138 4.2415 0.6841
# 5 -3.0568 -5.9755 14.7949 4.2415 30.0184 -3.6831
# 6 5.9845 27.4980 10.4140 0.6841 -3.6831 29.1430
#
#
#
# Elastic Compliance Matrix: (Units=1/GPa)
#
#
# Indices 1 2 3 4 5 6 
#
# 1 0.013416 -0.001801 -0.003057 -0.001743 0.002814 0.000434
# 2 -0.001801 0.015112 -0.003734 -0.001394 0.003378 -0.012095
# 3 -0.003057 -0.003734 0.010556 -0.002105 -0.006000 -0.000330
# 4 -0.001743 -0.001394 -0.002105 0.039054 -0.004825 0.000899
# 5 0.002814 0.003378 -0.006000 -0.004825 0.038320 0.003335
# 6 0.000434 -0.012095 -0.000330 0.000899 0.003335 0.046155
#
#
# Mechanical properties :
#
#
# Convention : Reuss Voigt Hill
#
# Bulk Modulus (GPa) = 45.66243 57.94072 51.80158
# Shear Modulus (GPa) = 26.72403 31.95211 29.33807
#
# Velocity S-wave (km/s) = 3.39035 3.70718 3.55230
# Velocity P-wave (km/s) = 5.91322 6.57613 6.25346
#
# Compressibility (1/GPa) = 0.02189984
#
# Stress axis : x y z
#
# Youngs Moduli (GPa) = 74.53780 66.17298 94.73142
#
# Poissons Ratio (x) = 0.11920 0.28960
# Poissons Ratio (y) = 0.13427 0.35371
# Poissons Ratio (z) = 0.22786 0.24707
#
# Static dielectric constant tensor:
#      x y z
#    x 4.002220 0.038700 0.254860 
#    y 0.038700 4.225760 -0.082810 
#    z 0.254860 -0.082810 4.804790 
# 
# 
# High freq. dielectric constant tensor:
#      x y z
#    x 1.910340 0.003270 0.014850 
#    y 0.003270 1.922960 -0.004670 
#    z 0.014850 -0.004670 1.926410 
# 
# From -- ./inp_files/559746.got.cif
#   From: 2010.06.25/outbox.cif.g09.slc.cpg/sg2_280_cif.got.tgz:559746.got - 2010.06.27 13:26:56.
