data_PCOD8024213
_publ_section_title
;
Structure prediction by ZEFSAII (Michael W. Deem and Ramdas Pophale) SiO2 
 PCOD8024213
Probable space group: P -1
;
_chemical_formula_sum "Si O2"
_cell_formula_units_Z 16
_cell_length_a 10.251663
_cell_length_b 9.376582
_cell_length_c 9.261161
_cell_angle_alpha 83.924080
_cell_angle_beta 90.336285
_cell_angle_gamma 126.005423
_cell_volume 714.360185
_symmetry_space_group_name_H-M "P -1"
_symmetry_group_IT_number 2
_symmetry_cell_setting 'triclinic'
loop_
_space_group_symop_operation_xyz
x,y,z
-x,-y,-z
loop_
_atom_site_type_symbol
_atom_site_label
_atom_site_fract_x
_atom_site_fract_y
_atom_site_fract_z
Si Si1 0.005096 0.168507 0.452259
Si Si2 0.784238 0.042754 0.196718
Si Si3 0.631021 0.491153 0.585549
Si Si4 0.284870 0.200601 0.033210
Si Si5 0.636845 0.455113 0.911423
Si Si6 0.462585 0.879288 0.377415
Si Si7 0.150136 0.674510 0.046285
Si Si8 0.193202 0.894159 0.267284
O O1 0.939446 0.154635 0.291312
O O2 0.889288 0.166951 0.570531
O O3 0.186430 0.338858 0.456956
O O4 0.000000 0.000000 0.500000
O O5 0.764799 0.174962 0.091648
O O6 0.798820 0.915878 0.100737
O O7 0.623337 0.921688 0.300868
O O8 0.500000 0.500000 0.500000
O O9 0.581992 0.478307 0.753314
O O10 0.630834 0.325229 0.551723
O O11 0.479710 0.316253 0.019955
O O12 0.248670 0.347943 0.034071
O O13 0.222437 0.074250 0.188282
O O14 0.728559 0.367525 0.892508
O O15 0.361328 0.915223 0.266391
O O16 0.500000 0.000000 0.500000
O O17 0.086925 0.735434 0.168715
O O18 0.000000 0.500000 0.000000
#
# Coordination Sequence:
#
# PCOD8024213 Si02
#       8
#     2   2   2   2   2   2   2   2
#     4  12  27  46  73 104 146 184 235 293 355 421
#     4  11  23  45  72 105 140 184 232 288 353 412
#     4  12  27  47  73 101 143 186 238 291 353 421
#     4  10  23  42  74 100 138 185 229 288 339 421
#     4  11  22  44  71 102 138 180 241 281 348 410
#     4  12  24  43  72 103 141 183 237 287 349 417
#     4  11  24  43  68 101 141 181 229 289 348 415
#     4  11  24  45  68 103 141 183 231 284 354 411
#
# _framework density 22.397665
#
# number of rings (size 3 to 8) (size 9 to 14) (size 15 to 20)
#    0.000    0.750    3.750    3.000    1.750    4.500 
#    2.250    3.125    0.000    0.000    0.000    0.000 
#    0.000    0.000    0.000    0.000    0.000    0.000 
#
# Total GULP energy -198392.788117 kJ/mol
# GULP energy per Si atom -12399.549257 kJ/mol
# Density = 2.234669 g / cm^3
# Si number density = 22.397665 Si / 1000 Ang^3
#
#
#
# Elastic Constant Matrix: (Units=GPa)
#
#
# Indices 1 2 3 4 5 6 
#
# 1 80.3758 36.1958 34.8467 0.0768 10.8640 -1.6383
# 2 36.1958 175.0387 57.1625 9.4836 0.5484 -9.3767
# 3 34.8467 57.1625 121.6856 11.1214 8.3725 -4.7943
# 4 0.0768 9.4836 11.1214 34.8201 -0.2965 -1.0123
# 5 10.8640 0.5484 8.3725 -0.2965 31.7615 1.6452
# 6 -1.6383 -9.3767 -4.7943 -1.0123 1.6452 40.9458
#
#
#
# Elastic Compliance Matrix: (Units=1/GPa)
#
#
# Indices 1 2 3 4 5 6 
#
# 1 0.015422 -0.002210 -0.003222 0.001558 -0.004370 -0.000052
# 2 -0.002210 0.007159 -0.002676 -0.001046 0.001268 0.001161
# 3 -0.003222 -0.002676 0.010786 -0.002709 -0.001748 0.000524
# 4 0.001558 -0.001046 -0.002709 0.029876 0.000466 0.000226
# 5 -0.004370 0.001268 -0.001748 0.000466 0.033496 -0.001424
# 6 -0.000052 0.001161 0.000524 0.000226 -0.001424 0.024810
#
#
# Mechanical properties :
#
#
# Convention : Reuss Voigt Hill
#
# Bulk Modulus (GPa) = 58.30675 70.38999 64.34837
# Shear Modulus (GPa) = 34.84742 38.09848 36.47295
#
# Velocity S-wave (km/s) = 3.94871 4.12880 4.03975
# Velocity P-wave (km/s) = 6.84680 7.36375 7.10998
#
# Compressibility (1/GPa) = 0.01715067
#
# Stress axis : x y z
#
# Youngs Moduli (GPa) = 64.84266 139.68744 92.71327
#
# Poissons Ratio (x) = 0.30878 0.29870
# Poissons Ratio (y) = 0.14333 0.24809
# Poissons Ratio (z) = 0.20890 0.37378
#
# Static dielectric constant tensor:
#      x y z
#    x 4.412070 -0.001490 0.489300 
#    y -0.001490 4.234260 -0.047660 
#    z 0.489300 -0.047660 3.962530 
# 
# 
# High freq. dielectric constant tensor:
#      x y z
#    x 1.871460 -0.006680 0.000330 
#    y -0.006680 1.907590 0.007470 
#    z 0.000330 0.007470 1.885670 
# 
# From -- ./inp_files/243557.got.cif
#   From: 2010.06.25/outbox.cif.g09.slc.cpg/sg2_122_cif.got.tgz:243557.got - 2010.06.27 13:26:56.
