data_PCOD8024010
_publ_section_title
;
Structure prediction by ZEFSAII (Michael W. Deem and Ramdas Pophale) SiO2 
 PCOD8024010
Probable space group: P -1
;
_chemical_formula_sum "Si O2"
_cell_formula_units_Z 16
_cell_length_a 9.010274
_cell_length_b 9.333036
_cell_length_c 15.435181
_cell_angle_alpha 73.708188
_cell_angle_beta 49.221654
_cell_angle_gamma 109.964585
_cell_volume 652.903073
_symmetry_space_group_name_H-M "P -1"
_symmetry_group_IT_number 2
_symmetry_cell_setting 'triclinic'
loop_
_space_group_symop_operation_xyz
x,y,z
-x,-y,-z
loop_
_atom_site_type_symbol
_atom_site_label
_atom_site_fract_x
_atom_site_fract_y
_atom_site_fract_z
Si Si1 0.396608 0.147322 0.571125
Si Si2 0.134182 0.302265 0.634245
Si Si3 0.717853 0.032047 0.969778
Si Si4 0.523303 0.402494 0.829859
Si Si5 0.244544 0.552936 0.949420
Si Si6 0.622761 0.303754 0.627130
Si Si7 0.634220 0.020061 0.753298
Si Si8 0.020643 0.685198 0.729078
O O1 0.386015 0.320172 0.522105
O O2 0.359797 0.113420 0.696475
O O3 0.701708 0.260695 0.402846
O O4 0.135010 0.914357 0.668485
O O5 0.188234 0.498606 0.547155
O O6 0.860845 0.088337 0.724306
O O7 0.036679 0.249616 0.781676
O O8 0.665561 0.827079 0.013196
O O9 0.647889 0.048442 0.090896
O O10 0.500000 0.000000 0.000000
O O11 0.336553 0.448226 0.889936
O O12 0.570834 0.379801 0.716101
O O13 0.817580 0.584639 0.739566
O O14 0.521124 0.809743 0.786510
O O15 0.000000 0.500000 0.000000
O O16 0.158056 0.482946 0.094777
O O17 0.775774 0.229024 0.604043
#
# Coordination Sequence:
#
# PCOD8024010 Si02
#       8
#     2   2   2   2   2   2   2   2
#     4  11  26  43  68 106 145 183 232 293 357 421
#     4  11  22  41  70  98 140 182 237 284 354 413
#     4   9  20  39  70 101 128 178 236 286 333 411
#     4  11  25  47  76 104 139 188 240 290 351 424
#     4  12  26  45  73 102 145 184 240 293 357 414
#     4  11  26  44  69 107 140 184 235 294 350 415
#     4  10  23  42  69 100 138 184 237 286 347 420
#     4  11  25  46  72 100 145 190 233 286 360 425
#
# _framework density 24.505932000000001
#
# number of rings (size 3 to 8) (size 9 to 14) (size 15 to 20)
#    0.000    1.250    0.000    4.875   10.500    1.000 
#    0.000    4.375    0.000    0.000    0.000    0.000 
#    0.000    0.000    0.000    0.000    0.000    0.000 
#
# Total GULP energy -198231.445949 kJ/mol
# GULP energy per Si atom -12389.465372 kJ/mol
# Density = 2.445016 g / cm^3
# Si number density = 24.505932 Si / 1000 Ang^3
#
#
#
# Elastic Constant Matrix: (Units=GPa)
#
#
# Indices 1 2 3 4 5 6 
#
# 1 65.0759 21.4944 18.2072 10.8926 9.6418 -6.8658
# 2 21.4944 120.5829 25.5992 1.8014 17.6135 -15.0081
# 3 18.2072 25.5992 85.3117 2.8434 9.8149 -7.5368
# 4 10.8926 1.8014 2.8434 24.5858 -6.0605 7.7060
# 5 9.6418 17.6135 9.8149 -6.0605 27.8244 2.8825
# 6 -6.8658 -15.0081 -7.5368 7.7060 2.8825 53.7277
#
#
#
# Elastic Compliance Matrix: (Units=1/GPa)
#
#
# Indices 1 2 3 4 5 6 
#
# 1 0.020045 -0.001190 -0.002194 -0.011898 -0.008433 0.004080
# 2 -0.001190 0.010232 -0.001719 -0.002585 -0.006350 0.003176
# 3 -0.002194 -0.001719 0.013289 -0.001754 -0.003380 0.001537
# 4 -0.011898 -0.002585 -0.001754 0.054704 0.019472 -0.011379
# 5 -0.008433 -0.006350 -0.003380 0.019472 0.049223 -0.008759
# 6 0.004080 0.003176 0.001537 -0.011379 -0.008759 0.022339
#
#
# Mechanical properties :
#
#
# Convention : Reuss Voigt Hill
#
# Bulk Modulus (GPa) = 29.97590 44.61912 37.29751
# Shear Modulus (GPa) = 26.15673 34.93888 30.54780
#
# Velocity S-wave (km/s) = 3.27060 3.77998 3.53448
# Velocity P-wave (km/s) = 5.14986 6.10721 5.64885
#
# Compressibility (1/GPa) = 0.03336013
#
# Stress axis : x y z
#
# Youngs Moduli (GPa) = 49.88808 97.73663 75.25130
#
# Poissons Ratio (x) = 0.11630 0.16508
# Poissons Ratio (y) = 0.05937 0.12935
# Poissons Ratio (z) = 0.10944 0.16800
#
# Static dielectric constant tensor:
#      x y z
#    x 4.492670 0.182890 0.271660 
#    y 0.182890 4.754730 0.017640 
#    z 0.271660 0.017640 4.778840 
# 
# 
# High freq. dielectric constant tensor:
#      x y z
#    x 1.976460 -0.002530 0.004350 
#    y -0.002530 1.987410 -0.013350 
#    z 0.004350 -0.013350 1.966550 
# 
# From -- ./inp_files/556056.got.cif
#   From: 2010.06.25/outbox.cif.g09.slc.cpg/sg2_279_cif.got.tgz:556056.got - 2010.06.27 13:26:56.
