data_PCOD8024543
_publ_section_title
;
Structure prediction by ZEFSAII (Michael W. Deem and Ramdas Pophale) SiO2 
 PCOD8024543
Probable space group: P -1
;
_chemical_formula_sum "Si O2"
_cell_formula_units_Z 16
_cell_length_a 9.642767
_cell_length_b 16.693747
_cell_length_c 12.551008
_cell_angle_alpha 139.945911
_cell_angle_beta 135.458571
_cell_angle_gamma 74.892076
_cell_volume 707.301873
_symmetry_space_group_name_H-M "P -1"
_symmetry_group_IT_number 2
_symmetry_cell_setting 'triclinic'
loop_
_space_group_symop_operation_xyz
x,y,z
-x,-y,-z
loop_
_atom_site_type_symbol
_atom_site_label
_atom_site_fract_x
_atom_site_fract_y
_atom_site_fract_z
Si Si1 0.292180 0.046993 0.598067
Si Si2 0.091325 0.319367 0.467549
Si Si3 0.700564 0.800709 0.034329
Si Si4 0.990716 0.485678 0.230267
Si Si5 0.362186 0.026459 0.222224
Si Si6 0.472670 0.737710 0.631372
Si Si7 0.596098 0.770772 0.371807
Si Si8 0.314057 0.439126 0.491312
O O1 0.379965 0.154151 0.860627
O O2 0.357051 0.156397 0.644306
O O3 0.445432 0.980032 0.609554
O O4 0.998256 0.895298 0.286996
O O5 0.975507 0.387187 0.539061
O O6 0.273982 0.312872 0.638979
O O7 0.258215 0.441266 0.586854
O O8 0.872753 0.146566 0.123107
O O9 0.600252 0.835471 0.911240
O O10 0.566866 0.613160 0.771906
O O11 0.175938 0.585328 0.332514
O O12 0.075752 0.392929 0.242891
O O13 0.705071 0.359633 0.902294
O O14 0.511326 0.145292 0.325374
O O15 0.270209 0.094784 0.325170
O O16 0.639261 0.687615 0.630771
#
# Coordination Sequence:
#
# PCOD8024543 Si02
#       8
#     2   2   2   2   2   2   2   2
#     4  11  25  42  68  99 135 176 222 278 334 401
#     4  12  25  45  70  99 137 179 227 275 332 399
#     4  10  23  43  68  98 132 176 222 275 338 394
#     4  11  25  43  71 100 133 180 224 276 333 400
#     4  12  26  43  69  99 136 179 224 275 339 396
#     4  11  25  44  70  98 138 175 224 275 335 400
#     4  12  26  44  67 101 139 174 225 279 336 395
#     4  11  23  44  71  97 136 176 224 273 333 403
#
# _framework density 22.621175000000001
#
# number of rings (size 3 to 8) (size 9 to 14) (size 15 to 20)
#    0.000    0.750    1.250    6.750    5.250    5.500 
#    0.000    0.000    0.000    0.000    0.000    0.000 
#    0.000    0.000    0.000    0.000    0.000    0.000 
#
# Total GULP energy -198507.480330 kJ/mol
# GULP energy per Si atom -12406.717521 kJ/mol
# Density = 2.256969 g / cm^3
# Si number density = 22.621175 Si / 1000 Ang^3
#
#
#
# Elastic Constant Matrix: (Units=GPa)
#
#
# Indices 1 2 3 4 5 6 
#
# 1 78.9821 9.8664 5.6326 -2.4806 4.9318 3.0114
# 2 9.8664 103.7159 1.6912 -14.2052 16.6913 13.7502
# 3 5.6326 1.6912 86.6360 -0.8109 0.2215 -10.1308
# 4 -2.4806 -14.2052 -0.8109 21.9742 -2.1291 -1.0700
# 5 4.9318 16.6913 0.2215 -2.1291 31.1717 -7.6205
# 6 3.0114 13.7502 -10.1308 -1.0700 -7.6205 36.4720
#
#
#
# Elastic Compliance Matrix: (Units=1/GPa)
#
#
# Indices 1 2 3 4 5 6 
#
# 1 0.013017 -0.000577 -0.001003 0.000784 -0.002068 -0.001545
# 2 -0.000577 0.012803 -0.000881 0.007104 -0.007851 -0.006456
# 3 -0.001003 -0.000881 0.012102 0.000115 0.001556 0.004105
# 4 0.000784 0.007104 0.000115 0.050041 -0.000859 -0.001423
# 5 -0.002068 -0.007851 0.001556 -0.000859 0.039420 0.011774
# 6 -0.001545 -0.006456 0.004105 -0.001423 0.011774 0.033538
#
#
# Mechanical properties :
#
#
# Convention : Reuss Voigt Hill
#
# Bulk Modulus (GPa) = 30.30216 33.74605 32.02410
# Shear Modulus (GPa) = 28.27348 34.73316 31.50332
#
# Velocity S-wave (km/s) = 3.53918 3.92270 3.73587
# Velocity P-wave (km/s) = 5.48868 5.95543 5.72681
#
# Compressibility (1/GPa) = 0.03300095
#
# Stress axis : x y z
#
# Youngs Moduli (GPa) = 76.82057 78.10416 82.63068
#
# Poissons Ratio (x) = 0.04507 0.08289
# Poissons Ratio (y) = 0.04433 0.07278
# Poissons Ratio (z) = 0.07706 0.06879
#
# Static dielectric constant tensor:
#      x y z
#    x 4.184300 0.047760 0.017040 
#    y 0.047760 4.164290 -0.061270 
#    z 0.017040 -0.061270 4.011600 
# 
# 
# High freq. dielectric constant tensor:
#      x y z
#    x 1.903890 0.003040 0.004010 
#    y 0.003040 1.898660 -0.003030 
#    z 0.004010 -0.003030 1.894750 
# 
# From -- ./inp_files/262910.got.cif
#   From: 2010.06.25/outbox.cif.g09.slc.cpg/sg2_132_cif.got.tgz:262910.got - 2010.06.27 13:26:56.
