data_PCOD8024550
_publ_section_title
;
Structure prediction by ZEFSAII (Michael W. Deem and Ramdas Pophale) SiO2 
 PCOD8024550
Probable space group: P -1
;
_chemical_formula_sum "Si O2"
_cell_formula_units_Z 16
_cell_length_a 8.927225
_cell_length_b 10.843120
_cell_length_c 17.216829
_cell_angle_alpha 124.548827
_cell_angle_beta 30.235259
_cell_angle_gamma 117.903111
_cell_volume 690.233682
_symmetry_space_group_name_H-M "P -1"
_symmetry_group_IT_number 2
_symmetry_cell_setting 'triclinic'
loop_
_space_group_symop_operation_xyz
x,y,z
-x,-y,-z
loop_
_atom_site_type_symbol
_atom_site_label
_atom_site_fract_x
_atom_site_fract_y
_atom_site_fract_z
Si Si1 0.289186 0.864281 0.060358
Si Si2 0.799844 0.068316 0.288275
Si Si3 0.574356 0.391171 0.547073
Si Si4 0.834371 0.627638 0.413359
Si Si5 0.488087 0.610802 0.114674
Si Si6 0.334190 0.543615 0.863712
Si Si7 0.348716 0.137648 0.960095
Si Si8 0.335681 0.054857 0.368581
O O1 0.387344 0.805668 0.080914
O O2 0.346095 0.725117 0.925414
O O3 0.948344 0.936695 0.230932
O O4 0.500000 0.000000 0.000000
O O5 0.700951 0.217724 0.435970
O O6 0.516024 0.001541 0.347572
O O7 0.042710 0.109436 0.129707
O O8 0.818243 0.481579 0.422864
O O9 0.266469 0.407867 0.642359
O O10 0.515781 0.469581 0.684036
O O11 0.631190 0.766545 0.585855
O O12 0.159985 0.689895 0.290508
O O13 0.526156 0.529529 0.149003
O O14 0.712380 0.740137 0.038296
O O15 0.500000 0.500000 0.000000
O O16 0.000000 0.500000 0.000000
O O17 0.484919 0.988981 0.805088
O O18 0.000000 0.000000 0.500000
#
# Coordination Sequence:
#
# PCOD8024550 Si02
#       8
#     2   2   2   2   2   2   2   2
#     4  10  25  46  66 104 143 186 231 294 359 422
#     4  10  24  46  73 102 140 188 236 295 360 421
#     4  10  24  46  69 102 136 184 241 288 354 422
#     4  10  23  43  68  98 140 182 232 295 345 421
#     4  12  23  42  69  97 142 182 233 292 355 420
#     4  12  28  44  71 106 141 186 237 296 356 424
#     4  11  23  44  70 100 142 185 240 290 355 427
#     4  11  23  41  67 106 137 182 234 290 353 425
#
# _framework density 23.180554999999998
#
# number of rings (size 3 to 8) (size 9 to 14) (size 15 to 20)
#    0.000    1.250    2.500    1.875    7.000    3.500 
#    0.000    1.250    0.000    0.000    0.000    0.000 
#    0.000    0.000    0.000    0.000    0.000    0.000 
#
# Total GULP energy -198249.297829 kJ/mol
# GULP energy per Si atom -12390.581114 kJ/mol
# Density = 2.312779 g / cm^3
# Si number density = 23.180555 Si / 1000 Ang^3
#
#
#
# Elastic Constant Matrix: (Units=GPa)
#
#
# Indices 1 2 3 4 5 6 
#
# 1 127.0853 43.6343 59.4186 15.2834 3.1693 5.5734
# 2 43.6343 91.1823 35.9560 14.2288 3.8832 4.9713
# 3 59.4186 35.9560 112.7994 27.0365 11.4051 7.3550
# 4 15.2834 14.2288 27.0365 40.7322 13.7357 1.3756
# 5 3.1693 3.8832 11.4051 13.7357 45.9129 1.7602
# 6 5.5734 4.9713 7.3550 1.3756 1.7602 38.1996
#
#
#
# Elastic Compliance Matrix: (Units=1/GPa)
#
#
# Indices 1 2 3 4 5 6 
#
# 1 0.011374 -0.003515 -0.004924 -0.000015 0.000751 -0.000288
# 2 -0.003515 0.013818 -0.001986 -0.002254 0.000274 -0.000834
# 3 -0.004924 -0.001986 0.013775 -0.006217 -0.001000 -0.001405
# 4 -0.000015 -0.002254 -0.006217 0.032110 -0.007897 0.000700
# 5 0.000751 0.000274 -0.001000 -0.007897 0.024347 -0.000790
# 6 -0.000288 -0.000834 -0.001405 0.000700 -0.000790 0.026611
#
#
# Mechanical properties :
#
#
# Convention : Reuss Voigt Hill
#
# Bulk Modulus (GPa) = 55.20005 67.67609 61.43807
# Shear Modulus (GPa) = 33.57434 37.77280 35.67357
#
# Velocity S-wave (km/s) = 3.80989 4.04109 3.92719
# Velocity P-wave (km/s) = 6.57408 7.14370 6.86480
#
# Compressibility (1/GPa) = 0.01811593
#
# Stress axis : x y z
#
# Youngs Moduli (GPa) = 87.92275 72.37061 72.59323
#
# Poissons Ratio (x) = 0.25437 0.35748
# Poissons Ratio (y) = 0.30904 0.14418
# Poissons Ratio (z) = 0.43297 0.14374
#
# Static dielectric constant tensor:
#      x y z
#    x 4.585220 -0.245480 -0.019750 
#    y -0.245480 3.629460 0.434000 
#    z -0.019750 0.434000 4.153390 
# 
# 
# High freq. dielectric constant tensor:
#      x y z
#    x 1.919300 0.007550 -0.005560 
#    y 0.007550 1.918980 0.018950 
#    z -0.005560 0.018950 1.918780 
# 
# From -- ./inp_files/559890.got.cif
#   From: 2010.06.25/outbox.cif.g09.slc.cpg/sg2_280_cif.got.tgz:559890.got - 2010.06.27 13:26:56.
