data_PCOD8024113
_publ_section_title
;
Structure prediction by ZEFSAII (Michael W. Deem and Ramdas Pophale) SiO2 
 PCOD8024113
Probable space group: P -1
;
_chemical_formula_sum "Si O2"
_cell_formula_units_Z 16
_cell_length_a 11.087751
_cell_length_b 10.231872
_cell_length_c 9.125033
_cell_angle_alpha 53.012111
_cell_angle_beta 102.790848
_cell_angle_gamma 118.249492
_cell_volume 725.447849
_symmetry_space_group_name_H-M "P -1"
_symmetry_group_IT_number 2
_symmetry_cell_setting 'triclinic'
loop_
_space_group_symop_operation_xyz
x,y,z
-x,-y,-z
loop_
_atom_site_type_symbol
_atom_site_label
_atom_site_fract_x
_atom_site_fract_y
_atom_site_fract_z
Si Si1 0.999477 0.699320 0.980017
Si Si2 0.719211 0.109255 0.570565
Si Si3 0.448474 0.237177 0.758395
Si Si4 0.504722 0.930746 0.845397
Si Si5 0.780351 0.312673 0.155523
Si Si6 0.124402 0.598682 0.357937
Si Si7 0.288849 0.390080 0.425501
Si Si8 0.116218 0.098785 0.347703
O O1 0.850600 0.527892 0.042463
O O2 0.077158 0.689115 0.152664
O O3 0.953283 0.859799 0.843675
O O4 0.098578 0.732117 0.843791
O O5 0.713819 0.219894 0.353530
O O6 0.757145 0.237593 0.636684
O O7 0.572837 0.947154 0.690851
O O8 0.827797 0.034277 0.613657
O O9 0.319258 0.263074 0.638647
O O10 0.570432 0.435114 0.689354
O O11 0.495834 0.121272 0.739098
O O12 0.405414 0.117381 0.977508
O O13 0.352369 0.763341 0.933918
O O14 0.174954 0.451799 0.412997
O O15 0.000000 0.500000 0.500000
O O16 0.234093 0.276495 0.337656
O O17 0.000000 0.000000 0.500000
#
# Coordination Sequence:
#
# PCOD8024113 Si02
#       8
#     2   2   2   2   2   2   2   2
#     4  11  24  42  73  94 135 189 228 268 345 416
#     4  12  25  43  67 104 139 175 227 292 342 391
#     4  10  23  42  70  98 133 186 226 275 344 410
#     4  11  23  42  68 103 141 175 228 286 346 405
#     4  11  22  43  68  99 134 186 223 274 343 414
#     4  12  24  44  68  99 137 175 230 285 334 404
#     4  11  23  45  70  95 136 183 231 274 337 416
#     4  12  25  44  67 103 137 178 230 281 340 411
#
# _framework density 22.055340000000001
#
# number of rings (size 3 to 8) (size 9 to 14) (size 15 to 20)
#    0.000    0.750    3.750    4.875    1.750    1.500 
#    0.000    1.250    0.000    0.000    0.000    0.000 
#    0.000    0.000    0.000    0.000    0.000    0.000 
#
# Total GULP energy -198287.638743 kJ/mol
# GULP energy per Si atom -12392.977421 kJ/mol
# Density = 2.200514 g / cm^3
# Si number density = 22.055340 Si / 1000 Ang^3
#
#
#
# Elastic Constant Matrix: (Units=GPa)
#
#
# Indices 1 2 3 4 5 6 
#
# 1 86.0919 8.5899 56.7783 -3.3259 5.3471 1.5951
# 2 8.5899 83.3293 -7.6141 7.7754 -0.9645 19.6900
# 3 56.7783 -7.6141 142.1583 14.2931 15.4610 -0.2115
# 4 -3.3259 7.7754 14.2931 24.0896 6.0690 -3.0341
# 5 5.3471 -0.9645 15.4610 6.0690 55.7021 -6.3867
# 6 1.5951 19.6900 -0.2115 -3.0341 -6.3867 36.2571
#
#
#
# Elastic Compliance Matrix: (Units=1/GPa)
#
#
# Indices 1 2 3 4 5 6 
#
# 1 0.017676 -0.003853 -0.008123 0.008812 -0.000244 0.001962
# 2 -0.003853 0.015638 0.003265 -0.008567 -0.000374 -0.009087
# 3 -0.008123 0.003265 0.011526 -0.008894 -0.001667 -0.002387
# 4 0.008812 -0.008567 -0.008894 0.052623 -0.003339 0.008028
# 5 -0.000244 -0.000374 -0.001667 -0.003339 0.019175 0.003302
# 6 0.001962 -0.009087 -0.002387 0.008028 0.003302 0.033669
#
#
# Mechanical properties :
#
#
# Convention : Reuss Voigt Hill
#
# Bulk Modulus (GPa) = 36.47170 47.45419 41.96295
# Shear Modulus (GPa) = 28.26965 40.13145 34.20055
#
# Velocity S-wave (km/s) = 3.58405 4.27028 3.94213
# Velocity P-wave (km/s) = 5.80513 6.77321 6.30777
#
# Compressibility (1/GPa) = 0.02741852
#
# Stress axis : x y z
#
# Youngs Moduli (GPa) = 56.57297 63.94563 86.76307
#
# Poissons Ratio (x) = 0.24638 0.70476
# Poissons Ratio (y) = 0.21798 -0.28328
# Poissons Ratio (z) = 0.45953 -0.20878
#
# Static dielectric constant tensor:
#      x y z
#    x 4.020420 0.132080 0.039580 
#    y 0.132080 4.160430 -0.041900 
#    z 0.039580 -0.041900 4.194020 
# 
# 
# High freq. dielectric constant tensor:
#      x y z
#    x 1.863960 0.016820 0.006580 
#    y 0.016820 1.862710 -0.006990 
#    z 0.006580 -0.006990 1.883390 
# 
# From -- ./inp_files/256409.got.cif
#   From: 2010.06.25/outbox.cif.g09.slc.cpg/sg2_129_cif.got.tgz:256409.got - 2010.06.27 13:26:56.
