data_PCOD8024678
_publ_section_title
;
Structure prediction by ZEFSAII (Michael W. Deem and Ramdas Pophale) SiO2 
 PCOD8024678
Probable space group: P -1
;
_chemical_formula_sum "Si O2"
_cell_formula_units_Z 16
_cell_length_a 9.143419
_cell_length_b 8.754673
_cell_length_c 14.735790
_cell_angle_alpha 41.349198
_cell_angle_beta 74.693817
_cell_angle_gamma 85.994782
_cell_volume 736.235925
_symmetry_space_group_name_H-M "P -1"
_symmetry_group_IT_number 2
_symmetry_cell_setting 'triclinic'
loop_
_space_group_symop_operation_xyz
x,y,z
-x,-y,-z
loop_
_atom_site_type_symbol
_atom_site_label
_atom_site_fract_x
_atom_site_fract_y
_atom_site_fract_z
Si Si1 0.147069 0.430451 0.380553
Si Si2 0.489849 0.127314 0.657146
Si Si3 0.364402 0.606710 0.936862
Si Si4 0.207544 0.527424 0.817596
Si Si5 0.181886 0.586401 0.507275
Si Si6 0.134978 0.712573 0.076141
Si Si7 0.340202 0.057320 0.539514
Si Si8 0.731678 0.761215 0.219219
O O1 0.197350 0.567196 0.405279
O O2 0.162958 0.622296 0.212235
O O3 0.247422 0.233374 0.423626
O O4 0.966415 0.309212 0.482264
O O5 0.668835 0.229192 0.564655
O O6 0.384853 0.205340 0.559661
O O7 0.432750 0.204227 0.729331
O O8 0.456952 0.849190 0.772333
O O9 0.264905 0.460494 0.937175
O O10 0.500000 0.500000 0.000000
O O11 0.253388 0.629842 0.026608
O O12 0.312367 0.428812 0.769490
O O13 0.033694 0.394435 0.886666
O O14 0.219866 0.808558 0.681880
O O15 0.172320 0.337391 0.672536
O O16 0.163757 0.997209 0.943608
O O17 0.500000 0.000000 0.500000
#
# Coordination Sequence:
#
# PCOD8024678 Si02
#       8
#     2   2   2   2   2   2   2   2
#     4  11  26  42  69 107 138 173 236 283 342 399
#     4  10  23  43  70  95 136 187 225 276 342 410
#     4  10  25  45  64 101 135 178 230 284 342 409
#     4  11  24  43  71  96 133 189 222 278 350 401
#     4  11  23  44  71 103 137 179 230 291 332 403
#     4  11  25  45  69  99 139 179 226 285 337 417
#     4  11  25  42  67  98 139 181 225 280 343 409
#     4  11  22  44  73 100 134 183 235 269 348 409
#
# _framework density 21.732164999999998
#
# number of rings (size 3 to 8) (size 9 to 14) (size 15 to 20)
#    0.000    1.250    2.500    1.875    5.250    2.500 
#    2.250    2.500    0.000    0.000    0.000    0.000 
#    0.000    0.000    0.000    0.000    0.000    0.000 
#
# Total GULP energy -198293.921110 kJ/mol
# GULP energy per Si atom -12393.370069 kJ/mol
# Density = 2.168270 g / cm^3
# Si number density = 21.732165 Si / 1000 Ang^3
#
#
#
# Elastic Constant Matrix: (Units=GPa)
#
#
# Indices 1 2 3 4 5 6 
#
# 1 122.4085 49.4954 67.4467 -8.8958 9.7713 -2.2955
# 2 49.4954 111.5785 54.2103 11.3235 4.8035 9.5037
# 3 67.4467 54.2103 124.6417 13.5672 7.0698 13.1292
# 4 -8.8958 11.3235 13.5672 24.4559 8.2096 2.8017
# 5 9.7713 4.8035 7.0698 8.2096 36.1042 5.7301
# 6 -2.2955 9.5037 13.1292 2.8017 5.7301 36.0828
#
#
#
# Elastic Compliance Matrix: (Units=1/GPa)
#
#
# Indices 1 2 3 4 5 6 
#
# 1 0.016528 -0.004788 -0.008647 0.014527 -0.006292 0.005330
# 2 -0.004788 0.012966 -0.002120 -0.006925 0.001993 -0.002727
# 3 -0.008647 -0.002120 0.015195 -0.010999 0.002963 -0.005137
# 4 0.014527 -0.006925 -0.010999 0.060080 -0.015233 0.004504
# 5 -0.006292 0.001993 0.002963 -0.015233 0.032980 -0.006058
# 6 0.005330 -0.002727 -0.005137 0.004504 -0.006058 0.031253
#
#
# Mechanical properties :
#
#
# Convention : Reuss Voigt Hill
#
# Bulk Modulus (GPa) = 73.65112 77.88151 75.76631
# Shear Modulus (GPa) = 24.43345 31.82700 28.13022
#
# Velocity S-wave (km/s) = 3.35669 3.83104 3.60169
# Velocity P-wave (km/s) = 6.99908 7.44876 7.22742
#
# Compressibility (1/GPa) = 0.01357753
#
# Stress axis : x y z
#
# Youngs Moduli (GPa) = 60.50405 77.12740 65.81289
#
# Poissons Ratio (x) = 0.36928 0.56909
# Poissons Ratio (y) = 0.28969 0.13954
# Poissons Ratio (z) = 0.52318 0.16353
#
# Static dielectric constant tensor:
#      x y z
#    x 3.645150 0.315940 -0.149960 
#    y 0.315940 3.400890 0.236480 
#    z -0.149960 0.236480 3.822870 
# 
# 
# High freq. dielectric constant tensor:
#      x y z
#    x 1.858910 -0.004010 -0.003400 
#    y -0.004010 1.860680 0.012250 
#    z -0.003400 0.012250 1.854270 
# 
# From -- ./inp_files/494261.got.cif
#   From: 2010.06.25/outbox.cif.g09.slc.cpg/sg2_248_cif.got.tgz:494261.got - 2010.06.27 13:26:56.
