data_PCOD8024923
_publ_section_title
;
Structure prediction by ZEFSAII (Michael W. Deem and Ramdas Pophale) SiO2 
 PCOD8024923
Probable space group: P -1
;
_chemical_formula_sum "Si O2"
_cell_formula_units_Z 14
_cell_length_a 11.604369
_cell_length_b 18.069661
_cell_length_c 5.964738
_cell_angle_alpha 95.282781
_cell_angle_beta 87.834232
_cell_angle_gamma 150.922358
_cell_volume 602.906825
_symmetry_space_group_name_H-M "P -1"
_symmetry_group_IT_number 2
_symmetry_cell_setting 'triclinic'
loop_
_space_group_symop_operation_xyz
x,y,z
-x,-y,-z
loop_
_atom_site_type_symbol
_atom_site_label
_atom_site_fract_x
_atom_site_fract_y
_atom_site_fract_z
Si Si1 0.314825 0.736094 0.466329
Si Si2 0.325959 0.464714 0.421541
Si Si3 0.983396 0.316594 0.794398
Si Si4 0.989347 0.803231 0.966782
Si Si5 0.184134 0.012788 0.654950
Si Si6 0.754149 0.782961 0.290706
Si Si7 0.028015 0.456911 0.176804
O O1 0.231906 0.754866 0.306830
O O2 0.216432 0.696898 0.711372
O O3 0.225152 0.602452 0.368770
O O4 0.600663 0.893607 0.493426
O O5 0.500000 0.500000 0.500000
O O6 0.141902 0.325878 0.226320
O O7 0.483674 0.618845 0.343678
O O8 0.186653 0.424537 0.623664
O O9 0.099856 0.421258 0.036553
O O10 0.895056 0.184450 0.843623
O O11 0.185490 0.961512 0.861675
O O12 0.801970 0.755554 0.071458
O O13 0.937749 0.865697 0.499040
O O14 0.217474 0.116250 0.762160
O O15 0.000000 0.500000 0.000000
#
# Coordination Sequence:
#
# PCOD8024923 Si02
#       7
#     2   2   2   2   2   2   2
#     4  10  23  44  66 101 141 180 225 281 342 407
#     4  12  24  44  72 101 136 177 234 289 333 404
#     4  11  24  41  70 104 135 178 234 281 339 402
#     4  12  24  45  68 103 138 180 232 279 344 408
#     4  11  26  45  68  99 145 179 222 287 343 413
#     4  11  26  45  68 103 136 183 230 282 346 404
#     4   9  21  40  66 101 134 175 229 277 335 404
#
# _framework density 23.220837
#
# number of rings (size 3 to 8) (size 9 to 14) (size 15 to 20)
#    0.000    1.143    2.857    1.714    8.000    2.857 
#    2.571    5.000    0.000    0.000    0.000    0.000 
#    0.000    0.000    0.000    0.000    0.000    0.000 
#
# Total GULP energy -173551.799182 kJ/mol
# GULP energy per Si atom -12396.557084 kJ/mol
# Density = 2.316799 g / cm^3
# Si number density = 23.220837 Si / 1000 Ang^3
#
#
#
# Elastic Constant Matrix: (Units=GPa)
#
#
# Indices 1 2 3 4 5 6 
#
# 1 131.5146 47.1689 43.3236 -15.2699 -4.4420 -17.0170
# 2 47.1689 108.0654 53.4946 -31.7738 -4.3818 -21.5687
# 3 43.3236 53.4946 126.9699 -24.1761 -33.2883 -13.0459
# 4 -15.2699 -31.7738 -24.1761 37.6261 -6.7117 2.3349
# 5 -4.4420 -4.3818 -33.2883 -6.7117 48.7518 -7.2164
# 6 -17.0170 -21.5687 -13.0459 2.3349 -7.2164 31.8850
#
#
#
# Elastic Compliance Matrix: (Units=1/GPa)
#
#
# Indices 1 2 3 4 5 6 
#
# 1 0.009519 -0.002697 -0.001920 0.000148 -0.000312 0.002389
# 2 -0.002697 0.016844 -0.002469 0.011441 0.002439 0.008659
# 3 -0.001920 -0.002469 0.014764 0.008364 0.011630 0.005366
# 4 0.000148 0.011441 0.008364 0.043544 0.014423 0.011316
# 5 -0.000312 0.002439 0.011630 0.014423 0.032486 0.012538
# 6 0.002389 0.008659 0.005366 0.011316 0.012538 0.042700
#
#
# Mechanical properties :
#
#
# Convention : Reuss Voigt Hill
#
# Bulk Modulus (GPa) = 37.09684 72.72490 54.91087
# Shear Modulus (GPa) = 27.32047 38.49010 32.90528
#
# Velocity S-wave (km/s) = 3.43381 4.07574 3.76847
# Velocity P-wave (km/s) = 5.63309 7.31681 6.52945
#
# Compressibility (1/GPa) = 0.02695648
#
# Stress axis : x y z
#
# Youngs Moduli (GPa) = 105.05049 59.36839 67.73161
#
# Poissons Ratio (x) = 0.16010 0.13004
# Poissons Ratio (y) = 0.28330 0.16721
# Poissons Ratio (z) = 0.20169 0.14657
#
# Static dielectric constant tensor:
#      x y z
#    x 4.756910 -0.673120 -0.243060 
#    y -0.673120 4.199400 -0.009890 
#    z -0.243060 -0.009890 4.430380 
# 
# 
# High freq. dielectric constant tensor:
#      x y z
#    x 1.935780 -0.023230 -0.006180 
#    y -0.023230 1.903660 -0.014070 
#    z -0.006180 -0.014070 1.922090 
# 
# From -- ./inp_files/40262.got.cif
#   From: 2010.06.25/outbox.cif.g09.slc.cpg/sg2_21_cif.got.tgz:40262.got - 2010.06.27 13:26:56.
