data_PCOD8024001
_publ_section_title
;
Structure prediction by ZEFSAII (Michael W. Deem and Ramdas Pophale) SiO2 
 PCOD8024001
Probable space group: P -1
;
_chemical_formula_sum "Si O2"
_cell_formula_units_Z 16
_cell_length_a 23.319685
_cell_length_b 12.437345
_cell_length_c 5.607521
_cell_angle_alpha 107.062334
_cell_angle_beta 113.143948
_cell_angle_gamma 26.767919
_cell_volume 667.007544
_symmetry_space_group_name_H-M "P -1"
_symmetry_group_IT_number 2
_symmetry_cell_setting 'triclinic'
loop_
_space_group_symop_operation_xyz
x,y,z
-x,-y,-z
loop_
_atom_site_type_symbol
_atom_site_label
_atom_site_fract_x
_atom_site_fract_y
_atom_site_fract_z
Si Si1 0.445722 0.851126 0.286821
Si Si2 0.707972 0.486257 0.701187
Si Si3 0.025767 0.770540 0.452592
Si Si4 0.695431 0.119466 0.662028
Si Si5 0.222805 0.376757 0.155104
Si Si6 0.163140 0.770500 0.776332
Si Si7 0.507484 0.582198 0.868373
Si Si8 0.983093 0.653153 0.662260
O O1 0.548104 0.723440 0.578651
O O2 0.347295 0.908107 0.239149
O O3 0.362298 0.091408 0.227651
O O4 0.532070 0.665210 0.082003
O O5 0.742429 0.560042 0.866552
O O6 0.770228 0.348739 0.457824
O O7 0.749074 0.352462 0.920521
O O8 0.950104 0.796343 0.496588
O O9 0.157468 0.501214 0.386840
O O10 0.069112 0.811758 0.700995
O O11 0.925966 0.973553 0.213519
O O12 0.634816 0.340999 0.760152
O O13 0.633617 0.185158 0.348487
O O14 0.855788 0.863080 0.764966
O O15 0.121453 0.466560 0.889185
O O16 0.500000 0.500000 0.000000
O O17 0.000000 0.500000 0.500000
#
# Coordination Sequence:
#
# PCOD8024001 Si02
#       8
#     2   2   2   2   2   2   2   2
#     4  11  24  43  70 102 143 191 243 304 370 446
#     4  11  25  47  75 113 143 194 245 314 374 440
#     4  10  24  44  71 106 145 190 238 308 365 444
#     4  10  23  42  68  99 141 188 247 298 363 435
#     4  11  25  46  69 101 147 189 242 302 373 445
#     4  10  24  46  78 108 149 187 252 307 377 431
#     4   9  21  43  64  96 134 183 239 299 352 428
#     4  12  25  43  70 105 146 196 243 299 366 450
#
# _framework density 23.987735000000001
#
# number of rings (size 3 to 8) (size 9 to 14) (size 15 to 20)
#    0.000    1.500    1.250    1.875    3.500    9.500 
#    0.000    1.875    0.000    0.000    0.000    0.000 
#    0.000    0.000    0.000    0.000    0.000    0.000 
#
# Total GULP energy -198313.599740 kJ/mol
# GULP energy per Si atom -12394.599984 kJ/mol
# Density = 2.393314 g / cm^3
# Si number density = 23.987735 Si / 1000 Ang^3
#
#
#
# Elastic Constant Matrix: (Units=GPa)
#
#
# Indices 1 2 3 4 5 6 
#
# 1 101.7281 34.9442 31.6084 1.9284 4.8155 1.5157
# 2 34.9442 133.8934 55.2829 -12.2617 7.1386 -0.5048
# 3 31.6084 55.2829 131.1270 -18.4309 -1.1334 -1.5249
# 4 1.9284 -12.2617 -18.4309 39.3652 0.3618 0.3954
# 5 4.8155 7.1386 -1.1334 0.3618 39.2206 -6.7467
# 6 1.5157 -0.5048 -1.5249 0.3954 -6.7467 26.6376
#
#
#
# Elastic Compliance Matrix: (Units=1/GPa)
#
#
# Indices 1 2 3 4 5 6 
#
# 1 0.011377 -0.002229 -0.002139 -0.002231 -0.001219 -0.001088
# 2 -0.002229 0.009657 -0.003330 0.001576 -0.001650 -0.000322
# 3 -0.002139 -0.003330 0.010098 0.003775 0.001282 0.000905
# 4 -0.002231 0.001576 0.003775 0.027773 -0.000174 -0.000084
# 5 -0.001219 -0.001650 0.001282 -0.000174 0.027190 0.007001
# 6 -0.001088 -0.000322 0.000905 -0.000084 0.007001 0.039423
#
#
# Mechanical properties :
#
#
# Convention : Reuss Voigt Hill
#
# Bulk Modulus (GPa) = 63.55797 67.82439 65.69118
# Shear Modulus (GPa) = 34.20917 37.37222 35.79069
#
# Velocity S-wave (km/s) = 3.78049 3.95140 3.86689
# Velocity P-wave (km/s) = 6.75349 7.01099 6.88345
#
# Compressibility (1/GPa) = 0.01573367
#
# Stress axis : x y z
#
# Youngs Moduli (GPa) = 87.89774 103.55628 99.02882
#
# Poissons Ratio (x) = 0.23086 0.21186
# Poissons Ratio (y) = 0.19595 0.32979
# Poissons Ratio (z) = 0.18804 0.34487
#
# Static dielectric constant tensor:
#      x y z
#    x 4.392430 -0.017240 -0.025890 
#    y -0.017240 4.527010 0.216440 
#    z -0.025890 0.216440 4.426060 
# 
# 
# High freq. dielectric constant tensor:
#      x y z
#    x 1.954570 0.006330 0.007080 
#    y 0.006330 1.952070 -0.003120 
#    z 0.007080 -0.003120 1.952380 
# 
# From -- ./inp_files/123756.got.cif
#   From: 2010.06.25/outbox.cif.g09.slc.cpg/sg2_62_cif.got.tgz:123756.got - 2010.06.27 13:26:56.
