data_PCOD8024336
_publ_section_title
;
Structure prediction by ZEFSAII (Michael W. Deem and Ramdas Pophale) SiO2 
 PCOD8024336
Probable space group: P -1
;
_chemical_formula_sum "Si O2"
_cell_formula_units_Z 16
_cell_length_a 9.346235
_cell_length_b 21.201471
_cell_length_c 11.099050
_cell_angle_alpha 129.024892
_cell_angle_beta 42.136982
_cell_angle_gamma 147.475239
_cell_volume 793.283056
_symmetry_space_group_name_H-M "P -1"
_symmetry_group_IT_number 2
_symmetry_cell_setting 'triclinic'
loop_
_space_group_symop_operation_xyz
x,y,z
-x,-y,-z
loop_
_atom_site_type_symbol
_atom_site_label
_atom_site_fract_x
_atom_site_fract_y
_atom_site_fract_z
Si Si1 0.278736 0.015186 0.332269
Si Si2 0.379809 0.785623 0.818099
Si Si3 0.710034 0.480314 0.329583
Si Si4 0.965541 0.757888 0.222398
Si Si5 0.712403 0.394922 0.476669
Si Si6 0.653425 0.764511 0.831923
Si Si7 0.667149 0.110412 0.445147
Si Si8 0.235897 0.734061 0.234742
O O1 0.473447 0.093624 0.186765
O O2 0.490086 0.076109 0.391100
O O3 0.000000 0.000000 0.500000
O O4 0.147897 0.890202 0.243109
O O5 0.281611 0.699796 0.666704
O O6 0.630542 0.808065 0.772725
O O7 0.078716 0.724479 0.011627
O O8 0.500000 0.500000 0.500000
O O9 0.752572 0.452340 0.397377
O O10 0.558924 0.374126 0.205466
O O11 0.038838 0.598510 0.215081
O O12 0.599542 0.668204 0.332916
O O13 0.041235 0.746256 0.294583
O O14 0.000000 0.500000 0.500000
O O15 0.998680 0.833142 0.726187
O O16 0.545327 0.793085 0.042636
O O17 0.681989 0.201220 0.612329
O O18 0.500000 0.000000 0.500000
#
# Coordination Sequence:
#
# PCOD8024336 Si02
#       8
#     2   2   2   2   2   2   2   2
#     4  12  24  43  67  90 126 172 206 249 313 374
#     4  10  23  43  66  91 125 168 206 253 311 373
#     4  11  20  39  70  87 124 166 204 255 313 367
#     4  11  22  44  66  89 128 166 207 257 311 368
#     4  11  24  41  62  94 126 164 207 254 312 366
#     4  10  23  43  65  95 125 160 212 258 309 368
#     4  12  24  41  64  94 128 161 208 261 308 363
#     4  11  22  42  67  96 122 164 208 262 313 361
#
# _framework density 20.169345
#
# number of rings (size 3 to 8) (size 9 to 14) (size 15 to 20)
#    0.000    1.000    5.000    2.250    1.750    1.000 
#    6.750    0.000    0.000    0.000    0.000    0.000 
#    0.000    0.000    0.000    0.000    0.000    0.000 
#
# Total GULP energy -198463.390734 kJ/mol
# GULP energy per Si atom -12403.961921 kJ/mol
# Density = 2.012344 g / cm^3
# Si number density = 20.169345 Si / 1000 Ang^3
#
#
#
# Elastic Constant Matrix: (Units=GPa)
#
#
# Indices 1 2 3 4 5 6 
#
# 1 87.7608 50.6488 40.0542 -10.5649 -11.3380 6.1433
# 2 50.6488 107.3368 34.6703 -17.4394 -16.6024 -2.2411
# 3 40.0542 34.6703 113.4666 -7.0079 -14.5133 20.6809
# 4 -10.5649 -17.4394 -7.0079 26.3825 -8.2804 -1.5210
# 5 -11.3380 -16.6024 -14.5133 -8.2804 17.8016 -6.3700
# 6 6.1433 -2.2411 20.6809 -1.5210 -6.3700 45.4012
#
#
#
# Elastic Compliance Matrix: (Units=1/GPa)
#
#
# Indices 1 2 3 4 5 6 
#
# 1 0.017364 -0.005844 -0.003531 0.003460 0.004224 -0.000321
# 2 -0.005844 0.019041 -0.000674 0.017939 0.023979 0.006003
# 3 -0.003531 -0.000674 0.012109 0.003372 0.007148 -0.003956
# 4 0.003460 0.017939 0.003372 0.070777 0.057963 0.009385
# 5 0.004224 0.023979 0.007148 0.057963 0.119780 0.016104
# 6 -0.000321 0.006003 -0.003956 0.009385 0.016104 0.026741
#
#
# Mechanical properties :
#
#
# Convention : Reuss Voigt Hill
#
# Bulk Modulus (GPa) = 35.19307 62.14565 48.66936
# Shear Modulus (GPa) = 16.92724 30.12979 23.52851
#
# Velocity S-wave (km/s) = 2.90013 3.86922 3.41918
# Velocity P-wave (km/s) = 5.35734 7.13021 6.30638
#
# Compressibility (1/GPa) = 0.02841468
#
# Stress axis : x y z
#
# Youngs Moduli (GPa) = 57.59149 52.51910 82.58186
#
# Poissons Ratio (x) = 0.30692 0.29162
# Poissons Ratio (y) = 0.33656 0.05567
# Poissons Ratio (z) = 0.20338 0.03541
#
# Static dielectric constant tensor:
#      x y z
#    x 2.878170 -0.714780 -0.219460 
#    y -0.714780 3.493970 -0.124300 
#    z -0.219460 -0.124300 3.661550 
# 
# 
# High freq. dielectric constant tensor:
#      x y z
#    x 1.780160 -0.015600 -0.001920 
#    y -0.015600 1.794720 -0.000780 
#    z -0.001920 -0.000780 1.798990 
# 
# From -- ./inp_files/283005.got.cif
#   From: 2010.06.25/outbox.cif.g09.slc.cpg/sg2_142_cif.got.tgz:283005.got - 2010.06.27 13:26:56.
